MODEL 1
REMARK VINA RESULT:    -4.028      0.000      0.000
REMARK INTER + INTRA:         -11.443
REMARK INTER:                  -8.503
REMARK INTRA:                  -2.940
REMARK UNBOUND:                -2.940
REMARK SMILES CCC(=O)CCCCC[C@H]1NC(=O)[C@H]2CCCCN2C(=O)[C@H]([C@H](C)CC)NC(=O)[C@@H](Cc2cn(OC)c3ccccc23)NC1=O
REMARK SMILES IDX 9 1 10 2 44 3 43 4 45 6 30 7 28 8 27 9 29 11 22 12 23 14
REMARK SMILES IDX 24 15 25 16 26 17 31 18 32 19 33 20 42 21 34 22 37 23 41 24
REMARK SMILES IDX 38 25 40 26 39 27 35 28 36 29 11 30 12 31 13 33 14 34 19 35
REMARK SMILES IDX 15 36 18 37 16 38 17 39 20 40 21 41 8 43 7 44 6 45 5 46 3 47
REMARK SMILES IDX 4 48 2 49 1 50
REMARK H PARENT 43 5 27 10 11 32
REMARK Flexibility Score: 80.00
ROOT
ATOM      1  C   UNL     1      56.576  24.804  53.348  1.00  0.00     0.035 C 
ENDROOT
BRANCH   1   2
ATOM      2  C   UNL     1      57.305  23.549  53.874  1.00  0.00     0.171 C 
BRANCH   2   3
ATOM      3  C   UNL     1      58.703  23.431  53.327  1.00  0.00     0.243 C 
ATOM      4  N   UNL     1      58.917  23.118  51.944  1.00  0.00    -0.342 N 
ATOM      5  H   UNL     1      58.103  23.181  51.292  1.00  0.00     0.164 HD
ATOM      6  O   UNL     1      59.685  23.571  54.106  1.00  0.00    -0.273 OA
BRANCH   4   7
ATOM      7  C   UNL     1      60.081  22.355  51.495  1.00  0.00     0.175 C 
BRANCH   7   8
ATOM      8  C   UNL     1      59.721  20.889  51.467  1.00  0.00     0.243 C 
ATOM      9  N   UNL     1      59.138  20.264  52.625  1.00  0.00    -0.342 N 
ATOM     10  H   UNL     1      58.860  20.873  53.425  1.00  0.00     0.164 HD
ATOM     11  O   UNL     1      59.952  20.214  50.426  1.00  0.00    -0.273 OA
BRANCH   9  12
ATOM     12  C   UNL     1      58.981  18.815  52.798  1.00  0.00     0.174 CG0
ATOM     13  G   UNL     1      57.630  18.543  53.446  1.00  0.00     0.000 G0
BRANCH  12  14
ATOM     14  C   UNL     1      60.185  18.176  53.571  1.00  0.00     0.018 C 
ATOM     15  C   UNL     1      60.929  19.238  54.404  1.00  0.00     0.010 C 
BRANCH  14  16
ATOM     16  C   UNL     1      61.210  17.494  52.628  1.00  0.00     0.002 C 
ATOM     17  C   UNL     1      62.642  18.019  52.753  1.00  0.00     0.004 C 
ENDBRANCH  14  16
ENDBRANCH  12  14
ENDBRANCH   9  12
ENDBRANCH   7   8
BRANCH   7  18
ATOM     18  C   UNL     1      60.543  22.877  50.120  1.00  0.00     0.073 C 
BRANCH  18  19
ATOM     19  C   UNL     1      61.248  24.202  50.226  1.00  0.00    -0.016 A 
ATOM     20  C   UNL     1      62.586  24.403  50.551  1.00  0.00     0.134 A 
ATOM     21  C   UNL     1      60.713  25.468  50.035  1.00  0.00     0.006 A 
ATOM     22  N   UNL     1      62.873  25.726  50.532  1.00  0.00    -0.191 N 
ATOM     23  C   UNL     1      61.737  26.366  50.220  1.00  0.00     0.087 A 
ATOM     24  C   UNL     1      59.418  25.891  49.718  1.00  0.00     0.011 A 
ATOM     25  C   UNL     1      61.539  27.743  50.111  1.00  0.00     0.030 A 
ATOM     26  C   UNL     1      59.185  27.276  49.612  1.00  0.00     0.001 A 
ATOM     27  C   UNL     1      60.240  28.198  49.804  1.00  0.00     0.002 A 
BRANCH  22  28
ATOM     28  O   UNL     1      64.094  26.336  50.747  1.00  0.00    -0.417 OA
ATOM     29  C   UNL     1      65.116  26.384  49.757  1.00  0.00     0.313 C 
ENDBRANCH  22  28
ENDBRANCH  18  19
ENDBRANCH   7  18
ENDBRANCH   4   7
ENDBRANCH   2   3
BRANCH   2  30
ATOM     30  N   UNL     1      56.552  22.341  53.522  1.00  0.00    -0.343 N 
ATOM     31  C   UNL     1      56.418  21.241  54.437  1.00  0.00     0.243 C 
ATOM     32  H   UNL     1      56.179  22.243  52.552  1.00  0.00     0.164 HD
ATOM     33  O   UNL     1      56.926  21.315  55.589  1.00  0.00    -0.273 OA
BRANCH  31  34
ATOM     34  C   UNL     1      55.646  19.992  54.064  1.00  0.00     0.174 C 
ATOM     35  N   UNL     1      56.371  19.201  53.036  1.00  0.00    -0.329 N 
ATOM     36  C   UNL     1      54.183  20.327  53.698  1.00  0.00     0.035 C 
ATOM     37  C   UNL     1      55.972  19.199  51.611  1.00  0.00     0.120 C 
ATOM     38  C   UNL     1      53.986  20.628  52.219  1.00  0.00     0.004 C 
ATOM     39  C   UNL     1      54.478  19.448  51.395  1.00  0.00     0.022 C 
BRANCH  35  40
ATOM     40  C   UNL     1      57.595  18.539  53.444  1.00  0.00     0.246 CG0
ATOM     41  O   UNL     1      57.567  17.747  54.423  1.00  0.00    -0.272 OA
ATOM     42  G   UNL     1      58.939  18.848  52.797  1.00  0.00     0.000 G0
ENDBRANCH  35  40
ENDBRANCH  31  34
ENDBRANCH   2  30
ENDBRANCH   1   2
BRANCH   1  43
ATOM     43  C   UNL     1      56.940  26.111  54.082  1.00  0.00     0.003 C 
BRANCH  43  44
ATOM     44  C   UNL     1      57.589  27.195  53.202  1.00  0.00     0.001 C 
BRANCH  44  45
ATOM     45  C   UNL     1      56.595  28.165  52.538  1.00  0.00     0.008 C 
BRANCH  45  46
ATOM     46  C   UNL     1      56.319  27.822  51.063  1.00  0.00     0.075 C 
BRANCH  46  47
ATOM     47  C   UNL     1      54.986  28.305  50.539  1.00  0.00     0.132 C 
ATOM     48  O   UNL     1      54.794  29.514  50.504  1.00  0.00    -0.300 OA
BRANCH  47  49
ATOM     49  C   UNL     1      53.900  27.354  50.076  1.00  0.00     0.072 C 
ATOM     50  C   UNL     1      53.138  26.710  51.231  1.00  0.00     0.012 C 
ENDBRANCH  47  49
ENDBRANCH  46  47
ENDBRANCH  45  46
ENDBRANCH  44  45
ENDBRANCH  43  44
ENDBRANCH   1  43
TORSDOF 12
ENDMDL
MODEL 2
REMARK VINA RESULT:    -3.935     10.769     14.608
REMARK INTER + INTRA:         -11.245
REMARK INTER:                  -7.427
REMARK INTRA:                  -3.819
REMARK UNBOUND:                -2.940
REMARK SMILES CCC(=O)CCCCC[C@H]1NC(=O)[C@H]2CCCCN2C(=O)[C@H]([C@H](C)CC)NC(=O)[C@@H](Cc2cn(OC)c3ccccc23)NC1=O
REMARK SMILES IDX 9 1 10 2 44 3 43 4 45 6 30 7 28 8 27 9 29 11 22 12 23 14
REMARK SMILES IDX 24 15 25 16 26 17 31 18 32 19 33 20 42 21 34 22 37 23 41 24
REMARK SMILES IDX 38 25 40 26 39 27 35 28 36 29 11 30 12 31 13 33 14 34 19 35
REMARK SMILES IDX 15 36 18 37 16 38 17 39 20 40 21 41 8 43 7 44 6 45 5 46 3 47
REMARK SMILES IDX 4 48 2 49 1 50
REMARK H PARENT 43 5 27 10 11 32
REMARK Flexibility Score: 80.00
ROOT
ATOM      1  C   UNL     1      66.468  34.502  57.756  1.00  0.00     0.035 C 
ENDROOT
BRANCH   1   2
ATOM      2  C   UNL     1      67.115  33.215  57.200  1.00  0.00     0.171 C 
BRANCH   2   3
ATOM      3  C   UNL     1      66.365  31.977  57.615  1.00  0.00     0.243 C 
ATOM      4  N   UNL     1      66.466  31.482  58.956  1.00  0.00    -0.342 N 
ATOM      5  H   UNL     1      66.892  32.103  59.681  1.00  0.00     0.164 HD
ATOM      6  O   UNL     1      65.678  31.356  56.759  1.00  0.00    -0.273 OA
BRANCH   4   7
ATOM      7  C   UNL     1      66.374  30.055  59.264  1.00  0.00     0.175 C 
BRANCH   7   8
ATOM      8  C   UNL     1      67.768  29.475  59.303  1.00  0.00     0.243 C 
ATOM      9  N   UNL     1      68.585  29.474  58.118  1.00  0.00    -0.342 N 
ATOM     10  H   UNL     1      68.239  29.992  57.281  1.00  0.00     0.164 HD
ATOM     11  O   UNL     1      68.201  28.976  60.378  1.00  0.00    -0.273 OA
BRANCH   9  12
ATOM     12  C   UNL     1      69.839  28.725  57.973  1.00  0.00     0.174 CG0
ATOM     13  G   UNL     1      70.974  29.712  57.736  1.00  0.00     0.000 G0
BRANCH  12  14
ATOM     14  C   UNL     1      69.740  27.610  56.876  1.00  0.00     0.018 C 
ATOM     15  C   UNL     1      68.372  27.655  56.169  1.00  0.00     0.010 C 
BRANCH  14  16
ATOM     16  C   UNL     1      69.942  26.183  57.451  1.00  0.00     0.002 C 
ATOM     17  C   UNL     1      69.443  25.995  58.885  1.00  0.00     0.004 C 
ENDBRANCH  14  16
ENDBRANCH  12  14
ENDBRANCH   9  12
ENDBRANCH   7   8
BRANCH   7  18
ATOM     18  C   UNL     1      65.615  29.859  60.591  1.00  0.00     0.073 C 
BRANCH  18  19
ATOM     19  C   UNL     1      64.133  30.060  60.429  1.00  0.00    -0.016 A 
ATOM     20  C   UNL     1      63.187  29.071  60.177  1.00  0.00     0.134 A 
ATOM     21  C   UNL     1      63.424  31.252  60.487  1.00  0.00     0.006 A 
ATOM     22  N   UNL     1      61.950  29.619  60.112  1.00  0.00    -0.191 N 
ATOM     23  C   UNL     1      62.100  30.938  60.300  1.00  0.00     0.087 A 
ATOM     24  C   UNL     1      63.842  32.572  60.685  1.00  0.00     0.011 A 
ATOM     25  C   UNL     1      61.104  31.917  60.289  1.00  0.00     0.030 A 
ATOM     26  C   UNL     1      62.861  33.583  60.669  1.00  0.00     0.001 A 
ATOM     27  C   UNL     1      61.499  33.257  60.475  1.00  0.00     0.002 A 
BRANCH  22  28
ATOM     28  O   UNL     1      60.741  28.974  59.931  1.00  0.00    -0.417 OA
ATOM     29  C   UNL     1      59.828  28.737  60.996  1.00  0.00     0.313 C 
ENDBRANCH  22  28
ENDBRANCH  18  19
ENDBRANCH   7  18
ENDBRANCH   4   7
ENDBRANCH   2   3
BRANCH   2  30
ATOM     30  N   UNL     1      68.503  33.107  57.659  1.00  0.00    -0.343 N 
ATOM     31  C   UNL     1      69.474  32.321  56.949  1.00  0.00     0.243 C 
ATOM     32  H   UNL     1      68.769  33.541  58.570  1.00  0.00     0.164 HD
ATOM     33  O   UNL     1      69.148  31.731  55.884  1.00  0.00    -0.273 OA
BRANCH  31  34
ATOM     34  C   UNL     1      70.905  32.206  57.433  1.00  0.00     0.174 C 
ATOM     35  N   UNL     1      71.077  31.030  58.323  1.00  0.00    -0.329 N 
ATOM     36  C   UNL     1      71.401  33.540  58.035  1.00  0.00     0.035 C 
ATOM     37  C   UNL     1      71.178  31.156  59.793  1.00  0.00     0.120 C 
ATOM     38  C   UNL     1      71.134  33.662  59.529  1.00  0.00     0.004 C 
ATOM     39  C   UNL     1      71.774  32.488  60.252  1.00  0.00     0.022 C 
BRANCH  35  40
ATOM     40  C   UNL     1      70.988  29.715  57.716  1.00  0.00     0.246 CG0
ATOM     41  O   UNL     1      71.852  29.373  56.864  1.00  0.00    -0.272 OA
ATOM     42  G   UNL     1      69.826  28.771  57.991  1.00  0.00     0.000 G0
ENDBRANCH  35  40
ENDBRANCH  31  34
ENDBRANCH   2  30
ENDBRANCH   1   2
BRANCH   1  43
ATOM     43  C   UNL     1      65.279  35.032  56.927  1.00  0.00     0.003 C 
BRANCH  43  44
ATOM     44  C   UNL     1      64.113  35.606  57.752  1.00  0.00     0.001 C 
BRANCH  44  45
ATOM     45  C   UNL     1      62.724  35.072  57.360  1.00  0.00     0.008 C 
BRANCH  45  46
ATOM     46  C   UNL     1      62.645  34.632  55.887  1.00  0.00     0.075 C 
BRANCH  46  47
ATOM     47  C   UNL     1      62.258  33.186  55.678  1.00  0.00     0.132 C 
ATOM     48  O   UNL     1      61.878  32.854  54.563  1.00  0.00    -0.300 OA
BRANCH  47  49
ATOM     49  C   UNL     1      62.315  32.158  56.792  1.00  0.00     0.072 C 
ATOM     50  C   UNL     1      61.275  31.052  56.639  1.00  0.00     0.012 C 
ENDBRANCH  47  49
ENDBRANCH  46  47
ENDBRANCH  45  46
ENDBRANCH  44  45
ENDBRANCH  43  44
ENDBRANCH   1  43
TORSDOF 12
ENDMDL
MODEL 3
REMARK VINA RESULT:    -3.776      4.314      8.992
REMARK INTER + INTRA:         -10.910
REMARK INTER:                  -8.452
REMARK INTRA:                  -2.459
REMARK UNBOUND:                -2.940
REMARK SMILES CCC(=O)CCCCC[C@H]1NC(=O)[C@H]2CCCCN2C(=O)[C@H]([C@H](C)CC)NC(=O)[C@@H](Cc2cn(OC)c3ccccc23)NC1=O
REMARK SMILES IDX 9 1 10 2 44 3 43 4 45 6 30 7 28 8 27 9 29 11 22 12 23 14
REMARK SMILES IDX 24 15 25 16 26 17 31 18 32 19 33 20 42 21 34 22 37 23 41 24
REMARK SMILES IDX 38 25 40 26 39 27 35 28 36 29 11 30 12 31 13 33 14 34 19 35
REMARK SMILES IDX 15 36 18 37 16 38 17 39 20 40 21 41 8 43 7 44 6 45 5 46 3 47
REMARK SMILES IDX 4 48 2 49 1 50
REMARK H PARENT 43 5 27 10 11 32
REMARK Flexibility Score: 80.00
ROOT
ATOM      1  C   UNL     1      55.861  23.437  54.041  1.00  0.00     0.035 C 
ENDROOT
BRANCH   1   2
ATOM      2  C   UNL     1      57.001  24.279  53.429  1.00  0.00     0.171 C 
BRANCH   2   3
ATOM      3  C   UNL     1      57.632  25.202  54.437  1.00  0.00     0.243 C 
ATOM      4  N   UNL     1      56.996  26.438  54.787  1.00  0.00    -0.342 N 
ATOM      5  H   UNL     1      56.004  26.584  54.493  1.00  0.00     0.164 HD
ATOM      6  O   UNL     1      58.746  24.896  54.943  1.00  0.00    -0.273 OA
BRANCH   4   7
ATOM      7  C   UNL     1      57.765  27.622  55.169  1.00  0.00     0.175 C 
BRANCH   7   8
ATOM      8  C   UNL     1      57.941  28.501  53.953  1.00  0.00     0.243 C 
ATOM      9  N   UNL     1      58.587  27.986  52.775  1.00  0.00    -0.342 N 
ATOM     10  H   UNL     1      58.812  26.968  52.742  1.00  0.00     0.164 HD
ATOM     11  O   UNL     1      57.532  29.695  53.987  1.00  0.00    -0.273 OA
BRANCH   9  12
ATOM     12  C   UNL     1      59.032  28.808  51.643  1.00  0.00     0.174 CG0
ATOM     13  G   UNL     1      58.337  28.318  50.380  1.00  0.00     0.000 G0
BRANCH  12  14
ATOM     14  C   UNL     1      60.593  28.855  51.520  1.00  0.00     0.018 C 
ATOM     15  C   UNL     1      61.253  27.915  52.548  1.00  0.00     0.010 C 
BRANCH  14  16
ATOM     16  C   UNL     1      61.169  30.280  51.727  1.00  0.00     0.002 C 
ATOM     17  C   UNL     1      61.864  30.874  50.500  1.00  0.00     0.004 C 
ENDBRANCH  14  16
ENDBRANCH  12  14
ENDBRANCH   9  12
ENDBRANCH   7   8
BRANCH   7  18
ATOM     18  C   UNL     1      57.053  28.351  56.326  1.00  0.00     0.073 C 
BRANCH  18  19
ATOM     19  C   UNL     1      57.585  27.931  57.670  1.00  0.00    -0.016 A 
ATOM     20  C   UNL     1      58.788  27.277  57.915  1.00  0.00     0.134 A 
ATOM     21  C   UNL     1      56.988  28.100  58.912  1.00  0.00     0.006 A 
ATOM     22  N   UNL     1      58.944  27.076  59.245  1.00  0.00    -0.191 N 
ATOM     23  C   UNL     1      57.852  27.576  59.843  1.00  0.00     0.087 A 
ATOM     24  C   UNL     1      55.765  28.665  59.285  1.00  0.00     0.011 A 
ATOM     25  C   UNL     1      57.552  27.572  61.207  1.00  0.00     0.030 A 
ATOM     26  C   UNL     1      55.431  28.666  60.654  1.00  0.00     0.001 A 
ATOM     27  C   UNL     1      56.321  28.126  61.610  1.00  0.00     0.002 A 
BRANCH  22  28
ATOM     28  O   UNL     1      60.020  26.510  59.901  1.00  0.00    -0.417 OA
ATOM     29  C   UNL     1      60.364  25.135  59.771  1.00  0.00     0.313 C 
ENDBRANCH  22  28
ENDBRANCH  18  19
ENDBRANCH   7  18
ENDBRANCH   4   7
ENDBRANCH   2   3
BRANCH   2  30
ATOM     30  N   UNL     1      56.496  25.074  52.305  1.00  0.00    -0.343 N 
ATOM     31  C   UNL     1      57.351  25.489  51.229  1.00  0.00     0.243 C 
ATOM     32  H   UNL     1      55.511  25.420  52.334  1.00  0.00     0.164 HD
ATOM     33  O   UNL     1      58.563  25.139  51.217  1.00  0.00    -0.273 OA
BRANCH  31  34
ATOM     34  C   UNL     1      56.825  26.319  50.076  1.00  0.00     0.174 C 
ATOM     35  N   UNL     1      56.973  27.771  50.349  1.00  0.00    -0.329 N 
ATOM     36  C   UNL     1      55.397  25.885  49.680  1.00  0.00     0.035 C 
ATOM     37  C   UNL     1      55.831  28.621  50.751  1.00  0.00     0.120 C 
ATOM     38  C   UNL     1      54.308  26.638  50.434  1.00  0.00     0.004 C 
ATOM     39  C   UNL     1      54.485  28.132  50.213  1.00  0.00     0.022 C 
BRANCH  35  40
ATOM     40  C   UNL     1      58.317  28.315  50.361  1.00  0.00     0.246 CG0
ATOM     41  O   UNL     1      58.994  28.301  49.298  1.00  0.00    -0.272 OA
ATOM     42  G   UNL     1      58.982  28.808  51.639  1.00  0.00     0.000 G0
ENDBRANCH  35  40
ENDBRANCH  31  34
ENDBRANCH   2  30
ENDBRANCH   1   2
BRANCH   1  43
ATOM     43  C   UNL     1      56.231  21.965  54.321  1.00  0.00     0.003 C 
BRANCH  43  44
ATOM     44  C   UNL     1      55.034  21.005  54.447  1.00  0.00     0.001 C 
BRANCH  44  45
ATOM     45  C   UNL     1      55.301  19.575  53.942  1.00  0.00     0.008 C 
BRANCH  45  46
ATOM     46  C   UNL     1      55.203  19.452  52.411  1.00  0.00     0.075 C 
BRANCH  46  47
ATOM     47  C   UNL     1      56.506  19.125  51.717  1.00  0.00     0.132 C 
ATOM     48  O   UNL     1      56.462  18.855  50.524  1.00  0.00    -0.300 OA
BRANCH  47  49
ATOM     49  C   UNL     1      57.835  19.111  52.447  1.00  0.00     0.072 C 
ATOM     50  C   UNL     1      58.426  17.711  52.584  1.00  0.00     0.012 C 
ENDBRANCH  47  49
ENDBRANCH  46  47
ENDBRANCH  45  46
ENDBRANCH  44  45
ENDBRANCH  43  44
ENDBRANCH   1  43
TORSDOF 12
ENDMDL
MODEL 4
REMARK VINA RESULT:    -3.630      6.062     10.358
REMARK INTER + INTRA:         -10.602
REMARK INTER:                  -7.850
REMARK INTRA:                  -2.752
REMARK UNBOUND:                -2.940
REMARK SMILES CCC(=O)CCCCC[C@H]1NC(=O)[C@H]2CCCCN2C(=O)[C@H]([C@H](C)CC)NC(=O)[C@@H](Cc2cn(OC)c3ccccc23)NC1=O
REMARK SMILES IDX 9 1 10 2 44 3 43 4 45 6 30 7 28 8 27 9 29 11 22 12 23 14
REMARK SMILES IDX 24 15 25 16 26 17 31 18 32 19 33 20 42 21 34 22 37 23 41 24
REMARK SMILES IDX 38 25 40 26 39 27 35 28 36 29 11 30 12 31 13 33 14 34 19 35
REMARK SMILES IDX 15 36 18 37 16 38 17 39 20 40 21 41 8 43 7 44 6 45 5 46 3 47
REMARK SMILES IDX 4 48 2 49 1 50
REMARK H PARENT 43 5 27 10 11 32
REMARK Flexibility Score: 80.00
ROOT
ATOM      1  C   UNL     1      61.220  33.872  52.514  1.00  0.00     0.035 C 
ENDROOT
BRANCH   1   2
ATOM      2  C   UNL     1      60.310  33.108  53.499  1.00  0.00     0.171 C 
BRANCH   2   3
ATOM      3  C   UNL     1      60.164  31.655  53.129  1.00  0.00     0.243 C 
ATOM      4  N   UNL     1      59.149  31.240  52.206  1.00  0.00    -0.342 N 
ATOM      5  H   UNL     1      58.661  31.974  51.646  1.00  0.00     0.164 HD
ATOM      6  O   UNL     1      60.919  30.802  53.670  1.00  0.00    -0.273 OA
BRANCH   4   7
ATOM      7  C   UNL     1      58.509  29.929  52.299  1.00  0.00     0.175 C 
BRANCH   7   8
ATOM      8  C   UNL     1      57.148  30.096  52.933  1.00  0.00     0.243 C 
ATOM      9  N   UNL     1      57.006  30.836  54.159  1.00  0.00    -0.342 N 
ATOM     10  H   UNL     1      57.837  31.350  54.522  1.00  0.00     0.164 HD
ATOM     11  O   UNL     1      56.140  29.566  52.386  1.00  0.00    -0.273 OA
BRANCH   9  12
ATOM     12  C   UNL     1      55.793  30.851  54.986  1.00  0.00     0.174 CG0
ATOM     13  G   UNL     1      55.460  32.295  55.338  1.00  0.00     0.000 G0
BRANCH  12  14
ATOM     14  C   UNL     1      55.914  29.914  56.236  1.00  0.00     0.018 C 
ATOM     15  C   UNL     1      57.317  29.279  56.311  1.00  0.00     0.010 C 
BRANCH  14  16
ATOM     16  C   UNL     1      54.864  28.772  56.234  1.00  0.00     0.002 C 
ATOM     17  C   UNL     1      55.361  27.447  56.816  1.00  0.00     0.004 C 
ENDBRANCH  14  16
ENDBRANCH  12  14
ENDBRANCH   9  12
ENDBRANCH   7   8
BRANCH   7  18
ATOM     18  C   UNL     1      58.434  29.287  50.899  1.00  0.00     0.073 C 
BRANCH  18  19
ATOM     19  C   UNL     1      59.663  28.479  50.582  1.00  0.00    -0.016 A 
ATOM     20  C   UNL     1      60.926  28.978  50.282  1.00  0.00     0.134 A 
ATOM     21  C   UNL     1      59.779  27.098  50.516  1.00  0.00     0.006 A 
ATOM     22  N   UNL     1      61.790  27.957  50.070  1.00  0.00    -0.191 N 
ATOM     23  C   UNL     1      61.091  26.822  50.212  1.00  0.00     0.087 A 
ATOM     24  C   UNL     1      58.840  26.077  50.695  1.00  0.00     0.011 A 
ATOM     25  C   UNL     1      61.553  25.514  50.059  1.00  0.00     0.030 A 
ATOM     26  C   UNL     1      59.275  24.747  50.536  1.00  0.00     0.001 A 
ATOM     27  C   UNL     1      60.624  24.466  50.223  1.00  0.00     0.002 A 
BRANCH  22  28
ATOM     28  O   UNL     1      63.143  28.028  49.799  1.00  0.00    -0.417 OA
ATOM     29  C   UNL     1      63.663  28.055  48.475  1.00  0.00     0.313 C 
ENDBRANCH  22  28
ENDBRANCH  18  19
ENDBRANCH   7  18
ENDBRANCH   4   7
ENDBRANCH   2   3
BRANCH   2  30
ATOM     30  N   UNL     1      58.981  33.724  53.543  1.00  0.00    -0.343 N 
ATOM     31  C   UNL     1      58.194  33.741  54.745  1.00  0.00     0.243 C 
ATOM     32  H   UNL     1      58.560  34.081  52.656  1.00  0.00     0.164 HD
ATOM     33  O   UNL     1      58.661  33.248  55.808  1.00  0.00    -0.273 OA
BRANCH  31  34
ATOM     34  C   UNL     1      56.818  34.371  54.781  1.00  0.00     0.174 C 
ATOM     35  N   UNL     1      55.770  33.392  54.395  1.00  0.00    -0.329 N 
ATOM     36  C   UNL     1      56.785  35.691  53.980  1.00  0.00     0.035 C 
ATOM     37  C   UNL     1      55.128  33.403  53.061  1.00  0.00     0.120 C 
ATOM     38  C   UNL     1      56.420  35.497  52.514  1.00  0.00     0.004 C 
ATOM     39  C   UNL     1      55.077  34.791  52.419  1.00  0.00     0.022 C 
BRANCH  35  40
ATOM     40  C   UNL     1      55.494  32.309  55.319  1.00  0.00     0.246 CG0
ATOM     41  O   UNL     1      55.091  32.583  56.482  1.00  0.00    -0.272 OA
ATOM     42  G   UNL     1      55.776  30.854  54.972  1.00  0.00     0.000 G0
ENDBRANCH  35  40
ENDBRANCH  31  34
ENDBRANCH   2  30
ENDBRANCH   1   2
BRANCH   1  43
ATOM     43  C   UNL     1      60.575  35.125  51.886  1.00  0.00     0.003 C 
BRANCH  43  44
ATOM     44  C   UNL     1      61.088  35.488  50.481  1.00  0.00     0.001 C 
BRANCH  44  45
ATOM     45  C   UNL     1      62.537  35.053  50.193  1.00  0.00     0.008 C 
BRANCH  45  46
ATOM     46  C   UNL     1      62.631  33.970  49.102  1.00  0.00     0.075 C 
BRANCH  46  47
ATOM     47  C   UNL     1      63.135  32.629  49.583  1.00  0.00     0.132 C 
ATOM     48  O   UNL     1      62.736  31.630  49.000  1.00  0.00    -0.300 OA
BRANCH  47  49
ATOM     49  C   UNL     1      64.092  32.490  50.751  1.00  0.00     0.072 C 
ATOM     50  C   UNL     1      64.829  31.154  50.764  1.00  0.00     0.012 C 
ENDBRANCH  47  49
ENDBRANCH  46  47
ENDBRANCH  45  46
ENDBRANCH  44  45
ENDBRANCH  43  44
ENDBRANCH   1  43
TORSDOF 12
ENDMDL
MODEL 5
REMARK VINA RESULT:    -3.582      8.199     12.181
REMARK INTER + INTRA:         -10.501
REMARK INTER:                  -7.702
REMARK INTRA:                  -2.799
REMARK UNBOUND:                -2.940
REMARK SMILES CCC(=O)CCCCC[C@H]1NC(=O)[C@H]2CCCCN2C(=O)[C@H]([C@H](C)CC)NC(=O)[C@@H](Cc2cn(OC)c3ccccc23)NC1=O
REMARK SMILES IDX 9 1 10 2 44 3 43 4 45 6 30 7 28 8 27 9 29 11 22 12 23 14
REMARK SMILES IDX 24 15 25 16 26 17 31 18 32 19 33 20 42 21 34 22 37 23 41 24
REMARK SMILES IDX 38 25 40 26 39 27 35 28 36 29 11 30 12 31 13 33 14 34 19 35
REMARK SMILES IDX 15 36 18 37 16 38 17 39 20 40 21 41 8 43 7 44 6 45 5 46 3 47
REMARK SMILES IDX 4 48 2 49 1 50
REMARK H PARENT 43 5 27 10 11 32
REMARK Flexibility Score: 80.00
ROOT
ATOM      1  C   UNL     1      56.982  29.017  54.468  1.00  0.00     0.035 C 
ENDROOT
BRANCH   1   2
ATOM      2  C   UNL     1      57.971  30.154  54.135  1.00  0.00     0.171 C 
BRANCH   2   3
ATOM      3  C   UNL     1      59.064  30.278  55.163  1.00  0.00     0.243 C 
ATOM      4  N   UNL     1      58.798  30.879  56.437  1.00  0.00    -0.342 N 
ATOM      5  H   UNL     1      57.802  31.034  56.710  1.00  0.00     0.164 HD
ATOM      6  O   UNL     1      60.227  29.882  54.878  1.00  0.00    -0.273 OA
BRANCH   4   7
ATOM      7  C   UNL     1      59.821  31.624  57.169  1.00  0.00     0.175 C 
BRANCH   7   8
ATOM      8  C   UNL     1      59.653  33.097  56.876  1.00  0.00     0.243 C 
ATOM      9  N   UNL     1      59.943  33.612  55.564  1.00  0.00    -0.342 N 
ATOM     10  H   UNL     1      60.146  32.929  54.802  1.00  0.00     0.164 HD
ATOM     11  O   UNL     1      59.274  33.872  57.798  1.00  0.00    -0.273 OA
BRANCH   9  12
ATOM     12  C   UNL     1      60.056  35.038  55.236  1.00  0.00     0.174 CG0
ATOM     13  G   UNL     1      58.939  35.408  54.270  1.00  0.00     0.000 G0
BRANCH  12  14
ATOM     14  C   UNL     1      61.484  35.416  54.714  1.00  0.00     0.018 C 
ATOM     15  C   UNL     1      62.329  34.151  54.461  1.00  0.00     0.010 C 
BRANCH  14  16
ATOM     16  C   UNL     1      62.261  36.328  55.699  1.00  0.00     0.002 C 
ATOM     17  C   UNL     1      62.843  35.606  56.916  1.00  0.00     0.004 C 
ENDBRANCH  14  16
ENDBRANCH  12  14
ENDBRANCH   9  12
ENDBRANCH   7   8
BRANCH   7  18
ATOM     18  C   UNL     1      59.717  31.306  58.674  1.00  0.00     0.073 C 
BRANCH  18  19
ATOM     19  C   UNL     1      61.068  31.083  59.299  1.00  0.00    -0.016 A 
ATOM     20  C   UNL     1      61.704  29.860  59.479  1.00  0.00     0.134 A 
ATOM     21  C   UNL     1      61.931  32.037  59.821  1.00  0.00     0.006 A 
ATOM     22  N   UNL     1      62.915  30.047  60.056  1.00  0.00    -0.191 N 
ATOM     23  C   UNL     1      63.046  31.366  60.261  1.00  0.00     0.087 A 
ATOM     24  C   UNL     1      61.817  33.425  59.941  1.00  0.00     0.011 A 
ATOM     25  C   UNL     1      64.119  32.031  60.859  1.00  0.00     0.030 A 
ATOM     26  C   UNL     1      62.880  34.122  60.550  1.00  0.00     0.001 A 
ATOM     27  C   UNL     1      64.025  33.430  61.003  1.00  0.00     0.002 A 
BRANCH  22  28
ATOM     28  O   UNL     1      63.873  29.098  60.354  1.00  0.00    -0.417 OA
ATOM     29  C   UNL     1      63.792  27.752  59.899  1.00  0.00     0.313 C 
ENDBRANCH  22  28
ENDBRANCH  18  19
ENDBRANCH   7  18
ENDBRANCH   4   7
ENDBRANCH   2   3
BRANCH   2  30
ATOM     30  N   UNL     1      57.260  31.433  54.039  1.00  0.00    -0.343 N 
ATOM     31  C   UNL     1      57.858  32.585  53.424  1.00  0.00     0.243 C 
ATOM     32  H   UNL     1      56.333  31.531  54.508  1.00  0.00     0.164 HD
ATOM     33  O   UNL     1      59.009  32.501  52.916  1.00  0.00    -0.273 OA
BRANCH  31  34
ATOM     34  C   UNL     1      57.121  33.906  53.337  1.00  0.00     0.174 C 
ATOM     35  N   UNL     1      57.583  34.848  54.389  1.00  0.00    -0.329 N 
ATOM     36  C   UNL     1      55.592  33.693  53.296  1.00  0.00     0.035 C 
ATOM     37  C   UNL     1      56.791  35.123  55.608  1.00  0.00     0.120 C 
ATOM     38  C   UNL     1      54.950  33.674  54.677  1.00  0.00     0.004 C 
ATOM     39  C   UNL     1      55.282  34.968  55.404  1.00  0.00     0.022 C 
BRANCH  35  40
ATOM     40  C   UNL     1      58.925  35.383  54.264  1.00  0.00     0.246 CG0
ATOM     41  O   UNL     1      59.210  36.096  53.264  1.00  0.00    -0.272 OA
ATOM     42  G   UNL     1      60.035  35.028  55.243  1.00  0.00     0.000 G0
ENDBRANCH  35  40
ENDBRANCH  31  34
ENDBRANCH   2  30
ENDBRANCH   1   2
BRANCH   1  43
ATOM     43  C   UNL     1      57.429  27.618  53.996  1.00  0.00     0.003 C 
BRANCH  43  44
ATOM     44  C   UNL     1      58.465  27.615  52.857  1.00  0.00     0.001 C 
BRANCH  44  45
ATOM     45  C   UNL     1      58.290  26.480  51.832  1.00  0.00     0.008 C 
BRANCH  45  46
ATOM     46  C   UNL     1      58.022  26.998  50.406  1.00  0.00     0.075 C 
BRANCH  46  47
ATOM     47  C   UNL     1      57.263  28.303  50.339  1.00  0.00     0.132 C 
ATOM     48  O   UNL     1      57.908  29.327  50.157  1.00  0.00    -0.300 OA
BRANCH  47  49
ATOM     49  C   UNL     1      55.757  28.378  50.500  1.00  0.00     0.072 C 
ATOM     50  C   UNL     1      55.056  27.059  50.187  1.00  0.00     0.012 C 
ENDBRANCH  47  49
ENDBRANCH  46  47
ENDBRANCH  45  46
ENDBRANCH  44  45
ENDBRANCH  43  44
ENDBRANCH   1  43
TORSDOF 12
ENDMDL
MODEL 6
REMARK VINA RESULT:    -3.525      6.097     11.494
REMARK INTER + INTRA:         -10.381
REMARK INTER:                  -7.570
REMARK INTRA:                  -2.811
REMARK UNBOUND:                -2.940
REMARK SMILES CCC(=O)CCCCC[C@H]1NC(=O)[C@H]2CCCCN2C(=O)[C@H]([C@H](C)CC)NC(=O)[C@@H](Cc2cn(OC)c3ccccc23)NC1=O
REMARK SMILES IDX 9 1 10 2 44 3 43 4 45 6 30 7 28 8 27 9 29 11 22 12 23 14
REMARK SMILES IDX 24 15 25 16 26 17 31 18 32 19 33 20 42 21 34 22 37 23 41 24
REMARK SMILES IDX 38 25 40 26 39 27 35 28 36 29 11 30 12 31 13 33 14 34 19 35
REMARK SMILES IDX 15 36 18 37 16 38 17 39 20 40 21 41 8 43 7 44 6 45 5 46 3 47
REMARK SMILES IDX 4 48 2 49 1 50
REMARK H PARENT 43 5 27 10 11 32
REMARK Flexibility Score: 80.00
ROOT
ATOM      1  C   UNL     1      63.237  31.163  49.511  1.00  0.00     0.035 C 
ENDROOT
BRANCH   1   2
ATOM      2  C   UNL     1      63.186  30.927  51.036  1.00  0.00     0.171 C 
BRANCH   2   3
ATOM      3  C   UNL     1      62.037  30.039  51.435  1.00  0.00     0.243 C 
ATOM      4  N   UNL     1      60.713  30.575  51.556  1.00  0.00    -0.342 N 
ATOM      5  H   UNL     1      60.528  31.526  51.165  1.00  0.00     0.164 HD
ATOM      6  O   UNL     1      62.258  28.826  51.702  1.00  0.00    -0.273 OA
BRANCH   4   7
ATOM      7  C   UNL     1      59.749  30.045  52.519  1.00  0.00     0.175 C 
BRANCH   7   8
ATOM      8  C   UNL     1      59.762  30.918  53.752  1.00  0.00     0.243 C 
ATOM      9  N   UNL     1      60.959  31.037  54.542  1.00  0.00    -0.342 N 
ATOM     10  H   UNL     1      61.837  30.610  54.172  1.00  0.00     0.164 HD
ATOM     11  O   UNL     1      58.710  31.527  54.092  1.00  0.00    -0.273 OA
BRANCH   9  12
ATOM     12  C   UNL     1      61.019  31.645  55.876  1.00  0.00     0.174 CG0
ATOM     13  G   UNL     1      61.965  32.837  55.828  1.00  0.00     0.000 G0
BRANCH  12  14
ATOM     14  C   UNL     1      61.382  30.603  56.988  1.00  0.00     0.018 C 
ATOM     15  C   UNL     1      61.632  29.211  56.376  1.00  0.00     0.010 C 
BRANCH  14  16
ATOM     16  C   UNL     1      60.276  30.466  58.067  1.00  0.00     0.002 C 
ATOM     17  C   UNL     1      59.936  31.764  58.803  1.00  0.00     0.004 C 
ENDBRANCH  14  16
ENDBRANCH  12  14
ENDBRANCH   9  12
ENDBRANCH   7   8
BRANCH   7  18
ATOM     18  C   UNL     1      58.354  29.966  51.867  1.00  0.00     0.073 C 
BRANCH  18  19
ATOM     19  C   UNL     1      58.054  28.589  51.339  1.00  0.00    -0.016 A 
ATOM     20  C   UNL     1      58.959  27.541  51.201  1.00  0.00     0.134 A 
ATOM     21  C   UNL     1      56.839  28.098  50.884  1.00  0.00     0.006 A 
ATOM     22  N   UNL     1      58.330  26.447  50.712  1.00  0.00    -0.191 N 
ATOM     23  C   UNL     1      57.048  26.789  50.522  1.00  0.00     0.087 A 
ATOM     24  C   UNL     1      55.582  28.700  50.760  1.00  0.00     0.011 A 
ATOM     25  C   UNL     1      56.023  25.994  50.005  1.00  0.00     0.030 A 
ATOM     26  C   UNL     1      54.531  27.925  50.232  1.00  0.00     0.001 A 
ATOM     27  C   UNL     1      54.749  26.579  49.859  1.00  0.00     0.002 A 
BRANCH  22  28
ATOM     28  O   UNL     1      58.860  25.192  50.480  1.00  0.00    -0.417 OA
ATOM     29  C   UNL     1      60.159  24.993  49.934  1.00  0.00     0.313 C 
ENDBRANCH  22  28
ENDBRANCH  18  19
ENDBRANCH   7  18
ENDBRANCH   4   7
ENDBRANCH   2   3
BRANCH   2  30
ATOM     30  N   UNL     1      63.068  32.206  51.742  1.00  0.00    -0.343 N 
ATOM     31  C   UNL     1      63.438  32.343  53.124  1.00  0.00     0.243 C 
ATOM     32  H   UNL     1      62.621  33.013  51.254  1.00  0.00     0.164 HD
ATOM     33  O   UNL     1      63.911  31.355  53.748  1.00  0.00    -0.273 OA
BRANCH  31  34
ATOM     34  C   UNL     1      63.305  33.665  53.851  1.00  0.00     0.174 C 
ATOM     35  N   UNL     1      62.052  33.714  54.648  1.00  0.00    -0.329 N 
ATOM     36  C   UNL     1      63.496  34.856  52.886  1.00  0.00     0.035 C 
ATOM     37  C   UNL     1      60.862  34.474  54.206  1.00  0.00     0.120 C 
ATOM     38  C   UNL     1      62.197  35.325  52.245  1.00  0.00     0.004 C 
ATOM     39  C   UNL     1      61.199  35.685  53.334  1.00  0.00     0.022 C 
BRANCH  35  40
ATOM     40  C   UNL     1      61.970  32.859  55.816  1.00  0.00     0.246 CG0
ATOM     41  O   UNL     1      62.776  33.042  56.768  1.00  0.00    -0.272 OA
ATOM     42  G   UNL     1      61.013  31.677  55.891  1.00  0.00     0.000 G0
ENDBRANCH  35  40
ENDBRANCH  31  34
ENDBRANCH   2  30
ENDBRANCH   1   2
BRANCH   1  43
ATOM     43  C   UNL     1      63.982  30.069  48.718  1.00  0.00     0.003 C 
BRANCH  43  44
ATOM     44  C   UNL     1      65.259  29.531  49.389  1.00  0.00     0.001 C 
BRANCH  44  45
ATOM     45  C   UNL     1      66.556  29.784  48.600  1.00  0.00     0.008 C 
BRANCH  45  46
ATOM     46  C   UNL     1      66.519  31.093  47.790  1.00  0.00     0.075 C 
BRANCH  46  47
ATOM     47  C   UNL     1      67.123  32.288  48.490  1.00  0.00     0.132 C 
ATOM     48  O   UNL     1      68.258  32.618  48.175  1.00  0.00    -0.300 OA
BRANCH  47  49
ATOM     49  C   UNL     1      66.380  33.066  49.560  1.00  0.00     0.072 C 
ATOM     50  C   UNL     1      65.270  33.948  48.995  1.00  0.00     0.012 C 
ENDBRANCH  47  49
ENDBRANCH  46  47
ENDBRANCH  45  46
ENDBRANCH  44  45
ENDBRANCH  43  44
ENDBRANCH   1  43
TORSDOF 12
ENDMDL
MODEL 7
REMARK VINA RESULT:    -3.523      8.766     11.574
REMARK INTER + INTRA:         -10.376
REMARK INTER:                  -6.656
REMARK INTRA:                  -3.720
REMARK UNBOUND:                -2.940
REMARK SMILES CCC(=O)CCCCC[C@H]1NC(=O)[C@H]2CCCCN2C(=O)[C@H]([C@H](C)CC)NC(=O)[C@@H](Cc2cn(OC)c3ccccc23)NC1=O
REMARK SMILES IDX 9 1 10 2 44 3 43 4 45 6 30 7 28 8 27 9 29 11 22 12 23 14
REMARK SMILES IDX 24 15 25 16 26 17 31 18 32 19 33 20 42 21 34 22 37 23 41 24
REMARK SMILES IDX 38 25 40 26 39 27 35 28 36 29 11 30 12 31 13 33 14 34 19 35
REMARK SMILES IDX 15 36 18 37 16 38 17 39 20 40 21 41 8 43 7 44 6 45 5 46 3 47
REMARK SMILES IDX 4 48 2 49 1 50
REMARK H PARENT 43 5 27 10 11 32
REMARK Flexibility Score: 80.00
ROOT
ATOM      1  C   UNL     1      64.792  34.413  59.396  1.00  0.00     0.035 C 
ENDROOT
BRANCH   1   2
ATOM      2  C   UNL     1      64.975  33.007  58.786  1.00  0.00     0.171 C 
BRANCH   2   3
ATOM      3  C   UNL     1      64.702  32.989  57.305  1.00  0.00     0.243 C 
ATOM      4  N   UNL     1      63.356  32.970  56.815  1.00  0.00    -0.342 N 
ATOM      5  H   UNL     1      62.583  33.178  57.487  1.00  0.00     0.164 HD
ATOM      6  O   UNL     1      65.672  32.950  56.500  1.00  0.00    -0.273 OA
BRANCH   4   7
ATOM      7  C   UNL     1      62.997  32.304  55.563  1.00  0.00     0.175 C 
BRANCH   7   8
ATOM      8  C   UNL     1      62.472  30.924  55.880  1.00  0.00     0.243 C 
ATOM      9  N   UNL     1      63.230  30.036  56.722  1.00  0.00    -0.342 N 
ATOM     10  H   UNL     1      64.076  30.415  57.200  1.00  0.00     0.164 HD
ATOM     11  O   UNL     1      61.372  30.550  55.384  1.00  0.00    -0.273 OA
BRANCH   9  12
ATOM     12  C   UNL     1      62.947  28.606  56.891  1.00  0.00     0.174 CG0
ATOM     13  G   UNL     1      63.076  28.254  58.367  1.00  0.00     0.000 G0
BRANCH  12  14
ATOM     14  C   UNL     1      63.828  27.711  55.955  1.00  0.00     0.018 C 
ATOM     15  C   UNL     1      65.220  28.340  55.745  1.00  0.00     0.010 C 
BRANCH  14  16
ATOM     16  C   UNL     1      63.185  27.483  54.562  1.00  0.00     0.002 C 
ATOM     17  C   UNL     1      63.958  28.096  53.392  1.00  0.00     0.004 C 
ENDBRANCH  14  16
ENDBRANCH  12  14
ENDBRANCH   9  12
ENDBRANCH   7   8
BRANCH   7  18
ATOM     18  C   UNL     1      61.973  33.163  54.794  1.00  0.00     0.073 C 
BRANCH  18  19
ATOM     19  C   UNL     1      62.377  33.372  53.359  1.00  0.00    -0.016 A 
ATOM     20  C   UNL     1      62.956  34.516  52.821  1.00  0.00     0.134 A 
ATOM     21  C   UNL     1      62.244  32.483  52.301  1.00  0.00     0.006 A 
ATOM     22  N   UNL     1      63.199  34.335  51.501  1.00  0.00    -0.191 N 
ATOM     23  C   UNL     1      62.766  33.104  51.192  1.00  0.00     0.087 A 
ATOM     24  C   UNL     1      61.709  31.193  52.233  1.00  0.00     0.011 A 
ATOM     25  C   UNL     1      62.781  32.486  49.940  1.00  0.00     0.030 A 
ATOM     26  C   UNL     1      61.701  30.549  50.980  1.00  0.00     0.001 A 
ATOM     27  C   UNL     1      62.237  31.190  49.840  1.00  0.00     0.002 A 
BRANCH  22  28
ATOM     28  O   UNL     1      63.809  35.207  50.619  1.00  0.00    -0.417 OA
ATOM     29  C   UNL     1      65.211  35.200  50.375  1.00  0.00     0.313 C 
ENDBRANCH  22  28
ENDBRANCH  18  19
ENDBRANCH   7  18
ENDBRANCH   4   7
ENDBRANCH   2   3
BRANCH   2  30
ATOM     30  N   UNL     1      64.083  32.048  59.446  1.00  0.00    -0.343 N 
ATOM     31  C   UNL     1      64.490  30.696  59.711  1.00  0.00     0.243 C 
ATOM     32  H   UNL     1      63.099  32.331  59.649  1.00  0.00     0.164 HD
ATOM     33  O   UNL     1      65.654  30.318  59.406  1.00  0.00    -0.273 OA
BRANCH  31  34
ATOM     34  C   UNL     1      63.560  29.708  60.385  1.00  0.00     0.174 C 
ATOM     35  N   UNL     1      62.566  29.166  59.424  1.00  0.00    -0.329 N 
ATOM     36  C   UNL     1      62.947  30.305  61.671  1.00  0.00     0.035 C 
ATOM     37  C   UNL     1      61.158  29.622  59.399  1.00  0.00     0.120 C 
ATOM     38  C   UNL     1      61.636  31.041  61.427  1.00  0.00     0.004 C 
ATOM     39  C   UNL     1      60.646  30.098  60.760  1.00  0.00     0.022 C 
BRANCH  35  40
ATOM     40  C   UNL     1      63.054  28.274  58.390  1.00  0.00     0.246 CG0
ATOM     41  O   UNL     1      63.656  27.219  58.724  1.00  0.00    -0.272 OA
ATOM     42  G   UNL     1      62.959  28.619  56.910  1.00  0.00     0.000 G0
ENDBRANCH  35  40
ENDBRANCH  31  34
ENDBRANCH   2  30
ENDBRANCH   1   2
BRANCH   1  43
ATOM     43  C   UNL     1      64.101  34.428  60.776  1.00  0.00     0.003 C 
BRANCH  43  44
ATOM     44  C   UNL     1      63.121  35.594  61.001  1.00  0.00     0.001 C 
BRANCH  44  45
ATOM     45  C   UNL     1      61.633  35.214  60.892  1.00  0.00     0.008 C 
BRANCH  45  46
ATOM     46  C   UNL     1      60.923  35.907  59.716  1.00  0.00     0.075 C 
BRANCH  46  47
ATOM     47  C   UNL     1      61.159  35.267  58.367  1.00  0.00     0.132 C 
ATOM     48  O   UNL     1      61.160  34.045  58.311  1.00  0.00    -0.300 OA
BRANCH  47  49
ATOM     49  C   UNL     1      61.402  36.081  57.111  1.00  0.00     0.072 C 
ATOM     50  C   UNL     1      60.197  36.924  56.702  1.00  0.00     0.012 C 
ENDBRANCH  47  49
ENDBRANCH  46  47
ENDBRANCH  45  46
ENDBRANCH  44  45
ENDBRANCH  43  44
ENDBRANCH   1  43
TORSDOF 12
ENDMDL
MODEL 8
REMARK VINA RESULT:    -3.472      6.746     11.450
REMARK INTER + INTRA:         -10.268
REMARK INTER:                  -7.521
REMARK INTRA:                  -2.747
REMARK UNBOUND:                -2.940
REMARK SMILES CCC(=O)CCCCC[C@H]1NC(=O)[C@H]2CCCCN2C(=O)[C@H]([C@H](C)CC)NC(=O)[C@@H](Cc2cn(OC)c3ccccc23)NC1=O
REMARK SMILES IDX 9 1 10 2 44 3 43 4 45 6 30 7 28 8 27 9 29 11 22 12 23 14
REMARK SMILES IDX 24 15 25 16 26 17 31 18 32 19 33 20 42 21 34 22 37 23 41 24
REMARK SMILES IDX 38 25 40 26 39 27 35 28 36 29 11 30 12 31 13 33 14 34 19 35
REMARK SMILES IDX 15 36 18 37 16 38 17 39 20 40 21 41 8 43 7 44 6 45 5 46 3 47
REMARK SMILES IDX 4 48 2 49 1 50
REMARK H PARENT 43 5 27 10 11 32
REMARK Flexibility Score: 80.00
ROOT
ATOM      1  C   UNL     1      59.417  27.910  56.159  1.00  0.00     0.035 C 
ENDROOT
BRANCH   1   2
ATOM      2  C   UNL     1      58.250  28.882  56.435  1.00  0.00     0.171 C 
BRANCH   2   3
ATOM      3  C   UNL     1      57.376  29.081  55.224  1.00  0.00     0.243 C 
ATOM      4  N   UNL     1      57.913  29.665  54.030  1.00  0.00    -0.342 N 
ATOM      5  H   UNL     1      58.950  29.753  53.947  1.00  0.00     0.164 HD
ATOM      6  O   UNL     1      56.157  28.765  55.285  1.00  0.00    -0.273 OA
BRANCH   4   7
ATOM      7  C   UNL     1      57.095  30.480  53.133  1.00  0.00     0.175 C 
BRANCH   7   8
ATOM      8  C   UNL     1      57.180  31.923  53.572  1.00  0.00     0.243 C 
ATOM      9  N   UNL     1      56.393  32.388  54.684  1.00  0.00    -0.342 N 
ATOM     10  H   UNL     1      55.869  31.683  55.245  1.00  0.00     0.164 HD
ATOM     11  O   UNL     1      57.933  32.718  52.945  1.00  0.00    -0.273 OA
BRANCH   9  12
ATOM     12  C   UNL     1      56.206  33.801  55.036  1.00  0.00     0.174 CG0
ATOM     13  G   UNL     1      56.904  34.070  56.362  1.00  0.00     0.000 G0
BRANCH  12  14
ATOM     14  C   UNL     1      54.696  34.220  55.028  1.00  0.00     0.018 C 
ATOM     15  C   UNL     1      53.786  32.991  54.833  1.00  0.00     0.010 C 
BRANCH  14  16
ATOM     16  C   UNL     1      54.365  35.250  53.917  1.00  0.00     0.002 C 
ATOM     17  C   UNL     1      55.298  35.205  52.705  1.00  0.00     0.004 C 
ENDBRANCH  14  16
ENDBRANCH  12  14
ENDBRANCH   9  12
ENDBRANCH   7   8
BRANCH   7  18
ATOM     18  C   UNL     1      57.563  30.277  51.678  1.00  0.00     0.073 C 
BRANCH  18  19
ATOM     19  C   UNL     1      57.197  28.915  51.152  1.00  0.00    -0.016 A 
ATOM     20  C   UNL     1      58.055  27.832  50.995  1.00  0.00     0.134 A 
ATOM     21  C   UNL     1      55.954  28.478  50.715  1.00  0.00     0.006 A 
ATOM     22  N   UNL     1      57.372  26.766  50.514  1.00  0.00    -0.191 N 
ATOM     23  C   UNL     1      56.102  27.163  50.346  1.00  0.00     0.087 A 
ATOM     24  C   UNL     1      54.722  29.132  50.615  1.00  0.00     0.011 A 
ATOM     25  C   UNL     1      55.036  26.413  49.845  1.00  0.00     0.030 A 
ATOM     26  C   UNL     1      53.630  28.404  50.102  1.00  0.00     0.001 A 
ATOM     27  C   UNL     1      53.785  27.051  49.722  1.00  0.00     0.002 A 
BRANCH  22  28
ATOM     28  O   UNL     1      57.844  25.491  50.269  1.00  0.00    -0.417 OA
ATOM     29  C   UNL     1      59.225  25.154  50.340  1.00  0.00     0.313 C 
ENDBRANCH  22  28
ENDBRANCH  18  19
ENDBRANCH   7  18
ENDBRANCH   4   7
ENDBRANCH   2   3
BRANCH   2  30
ATOM     30  N   UNL     1      58.767  30.183  56.869  1.00  0.00    -0.343 N 
ATOM     31  C   UNL     1      57.891  31.245  57.281  1.00  0.00     0.243 C 
ATOM     32  H   UNL     1      59.791  30.371  56.792  1.00  0.00     0.164 HD
ATOM     33  O   UNL     1      56.645  31.056  57.310  1.00  0.00    -0.273 OA
BRANCH  31  34
ATOM     34  C   UNL     1      58.431  32.590  57.720  1.00  0.00     0.174 C 
ATOM     35  N   UNL     1      58.247  33.613  56.659  1.00  0.00    -0.329 N 
ATOM     36  C   UNL     1      59.879  32.468  58.245  1.00  0.00     0.035 C 
ATOM     37  C   UNL     1      59.360  34.072  55.799  1.00  0.00     0.120 C 
ATOM     38  C   UNL     1      60.931  32.644  57.158  1.00  0.00     0.004 C 
ATOM     39  C   UNL     1      60.730  33.988  56.475  1.00  0.00     0.022 C 
BRANCH  35  40
ATOM     40  C   UNL     1      56.892  34.048  56.379  1.00  0.00     0.246 CG0
ATOM     41  O   UNL     1      56.214  34.576  57.301  1.00  0.00    -0.272 OA
ATOM     42  G   UNL     1      56.219  33.794  55.036  1.00  0.00     0.000 G0
ENDBRANCH  35  40
ENDBRANCH  31  34
ENDBRANCH   2  30
ENDBRANCH   1   2
BRANCH   1  43
ATOM     43  C   UNL     1      59.433  26.656  57.059  1.00  0.00     0.003 C 
BRANCH  43  44
ATOM     44  C   UNL     1      58.828  26.852  58.460  1.00  0.00     0.001 C 
BRANCH  44  45
ATOM     45  C   UNL     1      59.860  27.059  59.584  1.00  0.00     0.008 C 
BRANCH  45  46
ATOM     46  C   UNL     1      59.990  28.531  60.013  1.00  0.00     0.075 C 
BRANCH  46  47
ATOM     47  C   UNL     1      61.366  29.127  59.824  1.00  0.00     0.132 C 
ATOM     48  O   UNL     1      61.958  28.870  58.784  1.00  0.00    -0.300 OA
BRANCH  47  49
ATOM     49  C   UNL     1      62.023  30.006  60.870  1.00  0.00     0.072 C 
ATOM     50  C   UNL     1      62.661  31.261  60.281  1.00  0.00     0.012 C 
ENDBRANCH  47  49
ENDBRANCH  46  47
ENDBRANCH  45  46
ENDBRANCH  44  45
ENDBRANCH  43  44
ENDBRANCH   1  43
TORSDOF 12
ENDMDL
MODEL 9
REMARK VINA RESULT:    -3.382      8.954     12.667
REMARK INTER + INTRA:         -10.079
REMARK INTER:                  -7.127
REMARK INTRA:                  -2.952
REMARK UNBOUND:                -2.940
REMARK SMILES CCC(=O)CCCCC[C@H]1NC(=O)[C@H]2CCCCN2C(=O)[C@H]([C@H](C)CC)NC(=O)[C@@H](Cc2cn(OC)c3ccccc23)NC1=O
REMARK SMILES IDX 9 1 10 2 44 3 43 4 45 6 30 7 28 8 27 9 29 11 22 12 23 14
REMARK SMILES IDX 24 15 25 16 26 17 31 18 32 19 33 20 42 21 34 22 37 23 41 24
REMARK SMILES IDX 38 25 40 26 39 27 35 28 36 29 11 30 12 31 13 33 14 34 19 35
REMARK SMILES IDX 15 36 18 37 16 38 17 39 20 40 21 41 8 43 7 44 6 45 5 46 3 47
REMARK SMILES IDX 4 48 2 49 1 50
REMARK H PARENT 43 5 27 10 11 32
REMARK Flexibility Score: 80.00
ROOT
ATOM      1  C   UNL     1      58.598  32.743  58.034  1.00  0.00     0.035 C 
ENDROOT
BRANCH   1   2
ATOM      2  C   UNL     1      59.990  32.276  57.558  1.00  0.00     0.171 C 
BRANCH   2   3
ATOM      3  C   UNL     1      60.277  30.850  57.948  1.00  0.00     0.243 C 
ATOM      4  N   UNL     1      60.134  30.427  59.309  1.00  0.00    -0.342 N 
ATOM      5  H   UNL     1      59.634  31.061  59.973  1.00  0.00     0.164 HD
ATOM      6  O   UNL     1      60.682  30.040  57.070  1.00  0.00    -0.273 OA
BRANCH   4   7
ATOM      7  C   UNL     1      60.972  29.376  59.885  1.00  0.00     0.175 C 
BRANCH   7   8
ATOM      8  C   UNL     1      62.257  29.996  60.382  1.00  0.00     0.243 C 
ATOM      9  N   UNL     1      63.247  30.458  59.446  1.00  0.00    -0.342 N 
ATOM     10  H   UNL     1      63.000  30.467  58.433  1.00  0.00     0.164 HD
ATOM     11  O   UNL     1      62.460  30.088  61.625  1.00  0.00    -0.273 OA
BRANCH   9  12
ATOM     12  C   UNL     1      64.618  30.841  59.806  1.00  0.00     0.174 CG0
ATOM     13  G   UNL     1      64.930  32.192  59.177  1.00  0.00     0.000 G0
BRANCH  12  14
ATOM     14  C   UNL     1      65.660  29.728  59.445  1.00  0.00     0.018 C 
ATOM     15  C   UNL     1      64.960  28.500  58.828  1.00  0.00     0.010 C 
BRANCH  14  16
ATOM     16  C   UNL     1      66.480  29.252  60.673  1.00  0.00     0.002 C 
ATOM     17  C   UNL     1      66.918  27.787  60.619  1.00  0.00     0.004 C 
ENDBRANCH  14  16
ENDBRANCH  12  14
ENDBRANCH   9  12
ENDBRANCH   7   8
BRANCH   7  18
ATOM     18  C   UNL     1      60.197  28.648  61.001  1.00  0.00     0.073 C 
BRANCH  18  19
ATOM     19  C   UNL     1      59.258  27.609  60.451  1.00  0.00    -0.016 A 
ATOM     20  C   UNL     1      59.518  26.731  59.404  1.00  0.00     0.134 A 
ATOM     21  C   UNL     1      57.962  27.330  60.863  1.00  0.00     0.006 A 
ATOM     22  N   UNL     1      58.448  25.926  59.197  1.00  0.00    -0.191 N 
ATOM     23  C   UNL     1      57.510  26.294  60.082  1.00  0.00     0.087 A 
ATOM     24  C   UNL     1      57.158  27.905  61.852  1.00  0.00     0.011 A 
ATOM     25  C   UNL     1      56.225  25.767  60.227  1.00  0.00     0.030 A 
ATOM     26  C   UNL     1      55.853  27.401  62.015  1.00  0.00     0.001 A 
ATOM     27  C   UNL     1      55.390  26.336  61.209  1.00  0.00     0.002 A 
BRANCH  22  28
ATOM     28  O   UNL     1      58.323  24.892  58.290  1.00  0.00    -0.417 OA
ATOM     29  C   UNL     1      59.392  24.004  57.982  1.00  0.00     0.313 C 
ENDBRANCH  22  28
ENDBRANCH  18  19
ENDBRANCH   7  18
ENDBRANCH   4   7
ENDBRANCH   2   3
BRANCH   2  30
ATOM     30  N   UNL     1      61.033  33.142  58.117  1.00  0.00    -0.343 N 
ATOM     31  C   UNL     1      62.385  33.105  57.634  1.00  0.00     0.243 C 
ATOM     32  H   UNL     1      60.806  33.736  58.946  1.00  0.00     0.164 HD
ATOM     33  O   UNL     1      62.691  32.338  56.680  1.00  0.00    -0.273 OA
BRANCH  31  34
ATOM     34  C   UNL     1      63.460  33.995  58.222  1.00  0.00     0.174 C 
ATOM     35  N   UNL     1      64.087  33.364  59.411  1.00  0.00    -0.329 N 
ATOM     36  C   UNL     1      62.932  35.426  58.462  1.00  0.00     0.035 C 
ATOM     37  C   UNL     1      63.766  33.784  60.793  1.00  0.00     0.120 C 
ATOM     38  C   UNL     1      62.321  35.619  59.844  1.00  0.00     0.004 C 
ATOM     39  C   UNL     1      63.348  35.252  60.904  1.00  0.00     0.022 C 
BRANCH  35  40
ATOM     40  C   UNL     1      64.923  32.200  59.187  1.00  0.00     0.246 CG0
ATOM     41  O   UNL     1      65.883  32.281  58.374  1.00  0.00    -0.272 OA
ATOM     42  G   UNL     1      64.619  30.848  59.819  1.00  0.00     0.000 G0
ENDBRANCH  35  40
ENDBRANCH  31  34
ENDBRANCH   2  30
ENDBRANCH   1   2
BRANCH   1  43
ATOM     43  C   UNL     1      57.414  32.109  57.274  1.00  0.00     0.003 C 
BRANCH  43  44
ATOM     44  C   UNL     1      56.245  33.064  56.974  1.00  0.00     0.001 C 
BRANCH  44  45
ATOM     45  C   UNL     1      55.136  32.466  56.090  1.00  0.00     0.008 C 
BRANCH  45  46
ATOM     46  C   UNL     1      55.323  30.959  55.832  1.00  0.00     0.075 C 
BRANCH  46  47
ATOM     47  C   UNL     1      54.322  30.068  56.531  1.00  0.00     0.132 C 
ATOM     48  O   UNL     1      53.387  29.636  55.870  1.00  0.00    -0.300 OA
BRANCH  47  49
ATOM     49  C   UNL     1      54.436  29.713  58.001  1.00  0.00     0.072 C 
ATOM     50  C   UNL     1      55.715  28.951  58.334  1.00  0.00     0.012 C 
ENDBRANCH  47  49
ENDBRANCH  46  47
ENDBRANCH  45  46
ENDBRANCH  44  45
ENDBRANCH  43  44
ENDBRANCH   1  43
TORSDOF 12
ENDMDL
