MODEL 1
REMARK VINA RESULT:    -3.585      0.000      0.000
REMARK INTER + INTRA:          -8.035
REMARK INTER:                  -6.310
REMARK INTRA:                  -1.725
REMARK UNBOUND:                -1.725
REMARK SMILES CCCCCCCCCCCCCCC(=O)[O-]
REMARK SMILES IDX 9 1 10 2 11 3 12 4 13 5 14 6 15 7 16 8 17 9 8 10 7 11 6 12
REMARK SMILES IDX 5 13 4 14 3 15 2 16 1 17
REMARK H PARENT
REMARK Flexibility Score: inf
ROOT
ATOM      1  C   UNL     1      56.979  26.550  51.719  1.00  0.00     0.000 C 
ENDROOT
BRANCH   1   2
ATOM      2  C   UNL     1      58.205  27.479  51.693  1.00  0.00     0.000 C 
BRANCH   2   3
ATOM      3  C   UNL     1      58.102  28.560  50.603  1.00  0.00     0.000 C 
BRANCH   3   4
ATOM      4  C   UNL     1      59.358  28.638  49.716  1.00  0.00     0.000 C 
BRANCH   4   5
ATOM      5  C   UNL     1      60.014  27.283  49.391  1.00  0.00     0.006 C 
BRANCH   5   6
ATOM      6  C   UNL     1      61.441  27.162  49.939  1.00  0.00     0.053 C 
BRANCH   6   7
ATOM      7  C   UNL     1      61.772  25.731  50.220  1.00  0.00     0.041 C 
ATOM      8  O   UNL     1      62.971  25.372  50.362  1.00  0.00    -0.550 OA
ATOM      9  O   UNL     1      60.753  24.798  50.372  1.00  0.00    -0.550 OA
ENDBRANCH   6   7
ENDBRANCH   5   6
ENDBRANCH   4   5
ENDBRANCH   3   4
ENDBRANCH   2   3
ENDBRANCH   1   2
BRANCH   1  10
ATOM     10  C   UNL     1      56.925  25.604  50.510  1.00  0.00     0.000 C 
BRANCH  10  11
ATOM     11  C   UNL     1      55.515  25.576  49.900  1.00  0.00    -0.000 C 
BRANCH  11  12
ATOM     12  C   UNL     1      54.500  26.393  50.713  1.00  0.00    -0.000 C 
BRANCH  12  13
ATOM     13  C   UNL     1      53.416  27.035  49.834  1.00  0.00    -0.000 C 
BRANCH  13  14
ATOM     14  C   UNL     1      53.178  28.499  50.239  1.00  0.00    -0.000 C 
BRANCH  14  15
ATOM     15  C   UNL     1      54.438  29.176  50.809  1.00  0.00    -0.000 C 
BRANCH  15  16
ATOM     16  C   UNL     1      54.262  29.800  52.205  1.00  0.00    -0.003 C 
ATOM     17  C   UNL     1      55.527  29.719  53.059  1.00  0.00     0.004 C 
ENDBRANCH  15  16
ENDBRANCH  14  15
ENDBRANCH  13  14
ENDBRANCH  12  13
ENDBRANCH  11  12
ENDBRANCH  10  11
ENDBRANCH   1  10
TORSDOF 13
ENDMDL
MODEL 2
REMARK VINA RESULT:    -3.440      1.568      3.084
REMARK INTER + INTRA:          -7.780
REMARK INTER:                  -6.397
REMARK INTRA:                  -1.383
REMARK UNBOUND:                -1.725
REMARK SMILES CCCCCCCCCCCCCCC(=O)[O-]
REMARK SMILES IDX 9 1 10 2 11 3 12 4 13 5 14 6 15 7 16 8 17 9 8 10 7 11 6 12
REMARK SMILES IDX 5 13 4 14 3 15 2 16 1 17
REMARK H PARENT
REMARK Flexibility Score: inf
ROOT
ATOM      1  C   UNL     1      58.204  28.588  51.852  1.00  0.00     0.000 C 
ENDROOT
BRANCH   1   2
ATOM      2  C   UNL     1      58.043  28.362  50.340  1.00  0.00     0.000 C 
BRANCH   2   3
ATOM      3  C   UNL     1      59.353  28.591  49.566  1.00  0.00     0.000 C 
BRANCH   3   4
ATOM      4  C   UNL     1      60.373  27.456  49.767  1.00  0.00     0.000 C 
BRANCH   4   5
ATOM      5  C   UNL     1      59.790  26.032  49.694  1.00  0.00     0.006 C 
BRANCH   5   6
ATOM      6  C   UNL     1      60.711  24.975  50.316  1.00  0.00     0.053 C 
BRANCH   6   7
ATOM      7  C   UNL     1      59.923  24.038  51.175  1.00  0.00     0.041 C 
ATOM      8  O   UNL     1      58.827  24.405  51.675  1.00  0.00    -0.550 OA
ATOM      9  O   UNL     1      60.376  22.742  51.387  1.00  0.00    -0.550 OA
ENDBRANCH   6   7
ENDBRANCH   5   6
ENDBRANCH   4   5
ENDBRANCH   3   4
ENDBRANCH   2   3
ENDBRANCH   1   2
BRANCH   1  10
ATOM     10  C   UNL     1      56.864  28.562  52.602  1.00  0.00     0.000 C 
BRANCH  10  11
ATOM     11  C   UNL     1      55.691  28.795  51.636  1.00  0.00    -0.000 C 
BRANCH  11  12
ATOM     12  C   UNL     1      54.323  28.653  52.319  1.00  0.00    -0.000 C 
BRANCH  12  13
ATOM     13  C   UNL     1      53.321  27.848  51.478  1.00  0.00    -0.000 C 
BRANCH  13  14
ATOM     14  C   UNL     1      53.923  27.479  50.114  1.00  0.00    -0.000 C 
BRANCH  14  15
ATOM     15  C   UNL     1      53.415  26.127  49.580  1.00  0.00    -0.000 C 
BRANCH  15  16
ATOM     16  C   UNL     1      54.485  25.023  49.493  1.00  0.00    -0.003 C 
ATOM     17  C   UNL     1      55.849  25.470  50.015  1.00  0.00     0.004 C 
ENDBRANCH  15  16
ENDBRANCH  14  15
ENDBRANCH  13  14
ENDBRANCH  12  13
ENDBRANCH  11  12
ENDBRANCH  10  11
ENDBRANCH   1  10
TORSDOF 13
ENDMDL
MODEL 3
REMARK VINA RESULT:    -3.409      1.561      2.918
REMARK INTER + INTRA:          -7.725
REMARK INTER:                  -6.375
REMARK INTRA:                  -1.350
REMARK UNBOUND:                -1.725
REMARK SMILES CCCCCCCCCCCCCCC(=O)[O-]
REMARK SMILES IDX 9 1 10 2 11 3 12 4 13 5 14 6 15 7 16 8 17 9 8 10 7 11 6 12
REMARK SMILES IDX 5 13 4 14 3 15 2 16 1 17
REMARK H PARENT
REMARK Flexibility Score: inf
ROOT
ATOM      1  C   UNL     1      58.500  28.325  50.956  1.00  0.00     0.000 C 
ENDROOT
BRANCH   1   2
ATOM      2  C   UNL     1      59.219  28.568  49.618  1.00  0.00     0.000 C 
BRANCH   2   3
ATOM      3  C   UNL     1      60.353  27.559  49.366  1.00  0.00     0.000 C 
BRANCH   3   4
ATOM      4  C   UNL     1      61.018  27.069  50.666  1.00  0.00     0.000 C 
BRANCH   4   5
ATOM      5  C   UNL     1      61.718  25.701  50.567  1.00  0.00     0.006 C 
BRANCH   5   6
ATOM      6  C   UNL     1      60.742  24.546  50.309  1.00  0.00     0.053 C 
BRANCH   6   7
ATOM      7  C   UNL     1      61.465  23.237  50.339  1.00  0.00     0.041 C 
ATOM      8  O   UNL     1      60.924  22.202  49.869  1.00  0.00    -0.550 OA
ATOM      9  O   UNL     1      62.758  23.168  50.845  1.00  0.00    -0.550 OA
ENDBRANCH   6   7
ENDBRANCH   5   6
ENDBRANCH   4   5
ENDBRANCH   3   4
ENDBRANCH   2   3
ENDBRANCH   1   2
BRANCH   1  10
ATOM     10  C   UNL     1      57.128  27.658  50.779  1.00  0.00     0.000 C 
BRANCH  10  11
ATOM     11  C   UNL     1      57.283  26.195  50.334  1.00  0.00    -0.000 C 
BRANCH  11  12
ATOM     12  C   UNL     1      56.650  25.204  51.323  1.00  0.00    -0.000 C 
BRANCH  12  13
ATOM     13  C   UNL     1      55.126  25.103  51.168  1.00  0.00    -0.000 C 
BRANCH  13  14
ATOM     14  C   UNL     1      54.725  25.097  49.684  1.00  0.00    -0.000 C 
BRANCH  14  15
ATOM     15  C   UNL     1      53.492  25.972  49.392  1.00  0.00    -0.000 C 
BRANCH  15  16
ATOM     16  C   UNL     1      53.077  26.909  50.541  1.00  0.00    -0.003 C 
ATOM     17  C   UNL     1      53.475  28.364  50.299  1.00  0.00     0.004 C 
ENDBRANCH  15  16
ENDBRANCH  14  15
ENDBRANCH  13  14
ENDBRANCH  12  13
ENDBRANCH  11  12
ENDBRANCH  10  11
ENDBRANCH   1  10
TORSDOF 13
ENDMDL
MODEL 4
REMARK VINA RESULT:    -3.275      2.756      5.861
REMARK INTER + INTRA:          -7.488
REMARK INTER:                  -5.213
REMARK INTRA:                  -2.275
REMARK UNBOUND:                -1.725
REMARK SMILES CCCCCCCCCCCCCCC(=O)[O-]
REMARK SMILES IDX 9 1 10 2 11 3 12 4 13 5 14 6 15 7 16 8 17 9 8 10 7 11 6 12
REMARK SMILES IDX 5 13 4 14 3 15 2 16 1 17
REMARK H PARENT
REMARK Flexibility Score: inf
ROOT
ATOM      1  C   UNL     1      59.313  28.684  53.020  1.00  0.00     0.000 C 
ENDROOT
BRANCH   1   2
ATOM      2  C   UNL     1      58.108  29.554  52.624  1.00  0.00     0.000 C 
BRANCH   2   3
ATOM      3  C   UNL     1      56.765  28.908  53.005  1.00  0.00     0.000 C 
BRANCH   3   4
ATOM      4  C   UNL     1      56.477  27.615  52.218  1.00  0.00     0.000 C 
BRANCH   4   5
ATOM      5  C   UNL     1      56.162  27.816  50.725  1.00  0.00     0.006 C 
BRANCH   5   6
ATOM      6  C   UNL     1      54.700  27.513  50.374  1.00  0.00     0.053 C 
BRANCH   6   7
ATOM      7  C   UNL     1      54.514  26.047  50.139  1.00  0.00     0.041 C 
ATOM      8  O   UNL     1      55.397  25.385  49.531  1.00  0.00    -0.550 OA
ATOM      9  O   UNL     1      53.388  25.401  50.633  1.00  0.00    -0.550 OA
ENDBRANCH   6   7
ENDBRANCH   5   6
ENDBRANCH   4   5
ENDBRANCH   3   4
ENDBRANCH   2   3
ENDBRANCH   1   2
BRANCH   1  10
ATOM     10  C   UNL     1      60.343  28.547  51.888  1.00  0.00     0.000 C 
BRANCH  10  11
ATOM     11  C   UNL     1      59.720  28.922  50.533  1.00  0.00    -0.000 C 
BRANCH  11  12
ATOM     12  C   UNL     1      59.737  27.758  49.530  1.00  0.00    -0.000 C 
BRANCH  12  13
ATOM     13  C   UNL     1      60.897  26.781  49.774  1.00  0.00    -0.000 C 
BRANCH  13  14
ATOM     14  C   UNL     1      60.373  25.360  50.033  1.00  0.00    -0.000 C 
BRANCH  14  15
ATOM     15  C   UNL     1      58.854  25.318  50.284  1.00  0.00    -0.000 C 
BRANCH  15  16
ATOM     16  C   UNL     1      58.436  24.658  51.610  1.00  0.00    -0.003 C 
ATOM     17  C   UNL     1      59.356  25.022  52.775  1.00  0.00     0.004 C 
ENDBRANCH  15  16
ENDBRANCH  14  15
ENDBRANCH  13  14
ENDBRANCH  12  13
ENDBRANCH  11  12
ENDBRANCH  10  11
ENDBRANCH   1  10
TORSDOF 13
ENDMDL
MODEL 5
REMARK VINA RESULT:    -3.272      1.990      3.530
REMARK INTER + INTRA:          -7.483
REMARK INTER:                  -5.446
REMARK INTRA:                  -2.037
REMARK UNBOUND:                -1.725
REMARK SMILES CCCCCCCCCCCCCCC(=O)[O-]
REMARK SMILES IDX 9 1 10 2 11 3 12 4 13 5 14 6 15 7 16 8 17 9 8 10 7 11 6 12
REMARK SMILES IDX 5 13 4 14 3 15 2 16 1 17
REMARK H PARENT
REMARK Flexibility Score: inf
ROOT
ATOM      1  C   UNL     1      57.854  26.069  53.535  1.00  0.00     0.000 C 
ENDROOT
BRANCH   1   2
ATOM      2  C   UNL     1      57.628  24.900  52.562  1.00  0.00     0.000 C 
BRANCH   2   3
ATOM      3  C   UNL     1      58.884  24.568  51.738  1.00  0.00     0.000 C 
BRANCH   3   4
ATOM      4  C   UNL     1      58.863  25.199  50.333  1.00  0.00     0.000 C 
BRANCH   4   5
ATOM      5  C   UNL     1      60.195  25.819  49.874  1.00  0.00     0.006 C 
BRANCH   5   6
ATOM      6  C   UNL     1      60.096  27.328  49.615  1.00  0.00     0.053 C 
BRANCH   6   7
ATOM      7  C   UNL     1      60.800  28.089  50.693  1.00  0.00     0.041 C 
ATOM      8  O   UNL     1      60.970  27.571  51.829  1.00  0.00    -0.550 OA
ATOM      9  O   UNL     1      61.313  29.353  50.430  1.00  0.00    -0.550 OA
ENDBRANCH   6   7
ENDBRANCH   5   6
ENDBRANCH   4   5
ENDBRANCH   3   4
ENDBRANCH   2   3
ENDBRANCH   1   2
BRANCH   1  10
ATOM     10  C   UNL     1      56.875  27.230  53.305  1.00  0.00     0.000 C 
BRANCH  10  11
ATOM     11  C   UNL     1      57.482  28.279  52.361  1.00  0.00    -0.000 C 
BRANCH  11  12
ATOM     12  C   UNL     1      56.820  28.285  50.975  1.00  0.00    -0.000 C 
BRANCH  12  13
ATOM     13  C   UNL     1      55.325  28.633  51.033  1.00  0.00    -0.000 C 
BRANCH  13  14
ATOM     14  C   UNL     1      54.481  27.543  50.355  1.00  0.00    -0.000 C 
BRANCH  14  15
ATOM     15  C   UNL     1      55.294  26.280  50.013  1.00  0.00    -0.000 C 
BRANCH  15  16
ATOM     16  C   UNL     1      54.743  24.974  50.613  1.00  0.00    -0.003 C 
ATOM     17  C   UNL     1      53.666  24.325  49.745  1.00  0.00     0.004 C 
ENDBRANCH  15  16
ENDBRANCH  14  15
ENDBRANCH  13  14
ENDBRANCH  12  13
ENDBRANCH  11  12
ENDBRANCH  10  11
ENDBRANCH   1  10
TORSDOF 13
ENDMDL
MODEL 6
REMARK VINA RESULT:    -3.257      1.743      2.746
REMARK INTER + INTRA:          -7.457
REMARK INTER:                  -5.788
REMARK INTRA:                  -1.669
REMARK UNBOUND:                -1.725
REMARK SMILES CCCCCCCCCCCCCCC(=O)[O-]
REMARK SMILES IDX 9 1 10 2 11 3 12 4 13 5 14 6 15 7 16 8 17 9 8 10 7 11 6 12
REMARK SMILES IDX 5 13 4 14 3 15 2 16 1 17
REMARK H PARENT
REMARK Flexibility Score: inf
ROOT
ATOM      1  C   UNL     1      57.078  27.992  51.911  1.00  0.00     0.000 C 
ENDROOT
BRANCH   1   2
ATOM      2  C   UNL     1      58.281  28.845  51.476  1.00  0.00     0.000 C 
BRANCH   2   3
ATOM      3  C   UNL     1      58.727  28.546  50.035  1.00  0.00     0.000 C 
BRANCH   3   4
ATOM      4  C   UNL     1      60.233  28.244  49.924  1.00  0.00     0.000 C 
BRANCH   4   5
ATOM      5  C   UNL     1      60.608  26.752  50.002  1.00  0.00     0.006 C 
BRANCH   5   6
ATOM      6  C   UNL     1      59.408  25.821  49.791  1.00  0.00     0.053 C 
BRANCH   6   7
ATOM      7  C   UNL     1      59.509  24.630  50.690  1.00  0.00     0.041 C 
ATOM      8  O   UNL     1      60.453  23.808  50.552  1.00  0.00    -0.550 OA
ATOM      9  O   UNL     1      58.586  24.452  51.714  1.00  0.00    -0.550 OA
ENDBRANCH   6   7
ENDBRANCH   5   6
ENDBRANCH   4   5
ENDBRANCH   3   4
ENDBRANCH   2   3
ENDBRANCH   1   2
BRANCH   1  10
ATOM     10  C   UNL     1      56.239  27.500  50.721  1.00  0.00     0.000 C 
BRANCH  10  11
ATOM     11  C   UNL     1      54.849  28.155  50.724  1.00  0.00    -0.000 C 
BRANCH  11  12
ATOM     12  C   UNL     1      53.800  27.324  49.968  1.00  0.00    -0.000 C 
BRANCH  12  13
ATOM     13  C   UNL     1      54.229  25.861  49.777  1.00  0.00    -0.000 C 
BRANCH  13  14
ATOM     14  C   UNL     1      53.517  24.945  50.784  1.00  0.00    -0.000 C 
BRANCH  14  15
ATOM     15  C   UNL     1      54.458  24.417  51.883  1.00  0.00    -0.000 C 
BRANCH  15  16
ATOM     16  C   UNL     1      54.479  25.256  53.174  1.00  0.00    -0.003 C 
ATOM     17  C   UNL     1      53.184  26.033  53.403  1.00  0.00     0.004 C 
ENDBRANCH  15  16
ENDBRANCH  14  15
ENDBRANCH  13  14
ENDBRANCH  12  13
ENDBRANCH  11  12
ENDBRANCH  10  11
ENDBRANCH   1  10
TORSDOF 13
ENDMDL
MODEL 7
REMARK VINA RESULT:    -3.235      1.196      2.608
REMARK INTER + INTRA:          -7.418
REMARK INTER:                  -5.330
REMARK INTRA:                  -2.089
REMARK UNBOUND:                -1.725
REMARK SMILES CCCCCCCCCCCCCCC(=O)[O-]
REMARK SMILES IDX 9 1 10 2 11 3 12 4 13 5 14 6 15 7 16 8 17 9 8 10 7 11 6 12
REMARK SMILES IDX 5 13 4 14 3 15 2 16 1 17
REMARK H PARENT
REMARK Flexibility Score: inf
ROOT
ATOM      1  C   UNL     1      59.224  28.585  53.192  1.00  0.00     0.000 C 
ENDROOT
BRANCH   1   2
ATOM      2  C   UNL     1      58.891  29.042  51.762  1.00  0.00     0.000 C 
BRANCH   2   3
ATOM      3  C   UNL     1      60.039  28.768  50.774  1.00  0.00     0.000 C 
BRANCH   3   4
ATOM      4  C   UNL     1      59.635  27.812  49.637  1.00  0.00     0.000 C 
BRANCH   4   5
ATOM      5  C   UNL     1      60.268  26.410  49.705  1.00  0.00     0.006 C 
BRANCH   5   6
ATOM      6  C   UNL     1      61.268  26.260  50.858  1.00  0.00     0.053 C 
BRANCH   6   7
ATOM      7  C   UNL     1      62.362  25.314  50.479  1.00  0.00     0.041 C 
ATOM      8  O   UNL     1      62.176  24.070  50.541  1.00  0.00    -0.550 OA
ATOM      9  O   UNL     1      63.575  25.805  50.010  1.00  0.00    -0.550 OA
ENDBRANCH   6   7
ENDBRANCH   5   6
ENDBRANCH   4   5
ENDBRANCH   3   4
ENDBRANCH   2   3
ENDBRANCH   1   2
BRANCH   1  10
ATOM     10  C   UNL     1      58.781  27.141  53.472  1.00  0.00     0.000 C 
BRANCH  10  11
ATOM     11  C   UNL     1      57.468  26.819  52.741  1.00  0.00    -0.000 C 
BRANCH  11  12
ATOM     12  C   UNL     1      57.508  25.464  52.018  1.00  0.00    -0.000 C 
BRANCH  12  13
ATOM     13  C   UNL     1      56.784  25.493  50.664  1.00  0.00    -0.000 C 
BRANCH  13  14
ATOM     14  C   UNL     1      56.136  26.864  50.418  1.00  0.00    -0.000 C 
BRANCH  14  15
ATOM     15  C   UNL     1      54.603  26.789  50.295  1.00  0.00    -0.000 C 
BRANCH  15  16
ATOM     16  C   UNL     1      53.881  28.147  50.365  1.00  0.00    -0.003 C 
ATOM     17  C   UNL     1      54.562  29.139  51.307  1.00  0.00     0.004 C 
ENDBRANCH  15  16
ENDBRANCH  14  15
ENDBRANCH  13  14
ENDBRANCH  12  13
ENDBRANCH  11  12
ENDBRANCH  10  11
ENDBRANCH   1  10
TORSDOF 13
ENDMDL
MODEL 8
REMARK VINA RESULT:    -3.191      1.495      2.956
REMARK INTER + INTRA:          -7.342
REMARK INTER:                  -5.346
REMARK INTRA:                  -1.996
REMARK UNBOUND:                -1.725
REMARK SMILES CCCCCCCCCCCCCCC(=O)[O-]
REMARK SMILES IDX 9 1 10 2 11 3 12 4 13 5 14 6 15 7 16 8 17 9 8 10 7 11 6 12
REMARK SMILES IDX 5 13 4 14 3 15 2 16 1 17
REMARK H PARENT
REMARK Flexibility Score: inf
ROOT
ATOM      1  C   UNL     1      55.011  26.494  50.006  1.00  0.00     0.000 C 
ENDROOT
BRANCH   1   2
ATOM      2  C   UNL     1      55.797  25.747  51.096  1.00  0.00     0.000 C 
BRANCH   2   3
ATOM      3  C   UNL     1      57.092  26.477  51.494  1.00  0.00     0.000 C 
BRANCH   3   4
ATOM      4  C   UNL     1      57.348  27.742  50.653  1.00  0.00     0.000 C 
BRANCH   4   5
ATOM      5  C   UNL     1      58.757  28.346  50.795  1.00  0.00     0.006 C 
BRANCH   5   6
ATOM      6  C   UNL     1      59.594  28.222  49.515  1.00  0.00     0.053 C 
BRANCH   6   7
ATOM      7  C   UNL     1      60.519  27.051  49.609  1.00  0.00     0.041 C 
ATOM      8  O   UNL     1      60.058  25.881  49.669  1.00  0.00    -0.550 OA
ATOM      9  O   UNL     1      61.895  27.247  49.582  1.00  0.00    -0.550 OA
ENDBRANCH   6   7
ENDBRANCH   5   6
ENDBRANCH   4   5
ENDBRANCH   3   4
ENDBRANCH   2   3
ENDBRANCH   1   2
BRANCH   1  10
ATOM     10  C   UNL     1      53.494  26.471  50.247  1.00  0.00     0.000 C 
BRANCH  10  11
ATOM     11  C   UNL     1      52.918  27.895  50.247  1.00  0.00    -0.000 C 
BRANCH  11  12
ATOM     12  C   UNL     1      53.992  28.970  50.474  1.00  0.00    -0.000 C 
BRANCH  12  13
ATOM     13  C   UNL     1      53.767  29.770  51.766  1.00  0.00    -0.000 C 
BRANCH  13  14
ATOM     14  C   UNL     1      54.813  29.399  52.829  1.00  0.00    -0.000 C 
BRANCH  14  15
ATOM     15  C   UNL     1      54.437  28.136  53.625  1.00  0.00    -0.000 C 
BRANCH  15  16
ATOM     16  C   UNL     1      55.527  27.628  54.586  1.00  0.00    -0.003 C 
ATOM     17  C   UNL     1      55.408  26.135  54.890  1.00  0.00     0.004 C 
ENDBRANCH  15  16
ENDBRANCH  14  15
ENDBRANCH  13  14
ENDBRANCH  12  13
ENDBRANCH  11  12
ENDBRANCH  10  11
ENDBRANCH   1  10
TORSDOF 13
ENDMDL
MODEL 9
REMARK VINA RESULT:    -3.160     11.651     13.167
REMARK INTER + INTRA:          -7.286
REMARK INTER:                  -6.315
REMARK INTRA:                  -0.971
REMARK UNBOUND:                -1.725
REMARK SMILES CCCCCCCCCCCCCCC(=O)[O-]
REMARK SMILES IDX 9 1 10 2 11 3 12 4 13 5 14 6 15 7 16 8 17 9 8 10 7 11 6 12
REMARK SMILES IDX 5 13 4 14 3 15 2 16 1 17
REMARK H PARENT
REMARK Flexibility Score: inf
ROOT
ATOM      1  C   UNL     1      61.919  29.799  61.975  1.00  0.00     0.000 C 
ENDROOT
BRANCH   1   2
ATOM      2  C   UNL     1      63.360  29.652  61.456  1.00  0.00     0.000 C 
BRANCH   2   3
ATOM      3  C   UNL     1      63.739  28.188  61.174  1.00  0.00     0.000 C 
BRANCH   3   4
ATOM      4  C   UNL     1      62.529  27.236  61.224  1.00  0.00     0.000 C 
BRANCH   4   5
ATOM      5  C   UNL     1      62.852  25.790  61.642  1.00  0.00     0.006 C 
BRANCH   5   6
ATOM      6  C   UNL     1      61.975  25.290  62.796  1.00  0.00     0.053 C 
BRANCH   6   7
ATOM      7  C   UNL     1      62.220  23.835  63.045  1.00  0.00     0.041 C 
ATOM      8  O   UNL     1      62.056  22.997  62.119  1.00  0.00    -0.550 OA
ATOM      9  O   UNL     1      62.677  23.408  64.286  1.00  0.00    -0.550 OA
ENDBRANCH   6   7
ENDBRANCH   5   6
ENDBRANCH   4   5
ENDBRANCH   3   4
ENDBRANCH   2   3
ENDBRANCH   1   2
BRANCH   1  10
ATOM     10  C   UNL     1      61.125  30.877  61.222  1.00  0.00     0.000 C 
BRANCH  10  11
ATOM     11  C   UNL     1      62.025  32.069  60.862  1.00  0.00    -0.000 C 
BRANCH  11  12
ATOM     12  C   UNL     1      61.866  32.512  59.399  1.00  0.00    -0.000 C 
BRANCH  12  13
ATOM     13  C   UNL     1      61.845  34.039  59.241  1.00  0.00    -0.000 C 
BRANCH  13  14
ATOM     14  C   UNL     1      61.487  34.723  60.570  1.00  0.00    -0.000 C 
BRANCH  14  15
ATOM     15  C   UNL     1      62.608  35.640  61.094  1.00  0.00    -0.000 C 
BRANCH  15  16
ATOM     16  C   UNL     1      64.026  35.256  60.632  1.00  0.00    -0.003 C 
ATOM     17  C   UNL     1      64.837  34.549  61.718  1.00  0.00     0.004 C 
ENDBRANCH  15  16
ENDBRANCH  14  15
ENDBRANCH  13  14
ENDBRANCH  12  13
ENDBRANCH  11  12
ENDBRANCH  10  11
ENDBRANCH   1  10
TORSDOF 13
ENDMDL
