MODEL 1
REMARK VINA RESULT:    -2.714      0.000      0.000
REMARK INTER + INTRA:          -3.784
REMARK INTER:                  -3.348
REMARK INTRA:                  -0.435
REMARK UNBOUND:                -0.435
REMARK SMILES CC(C)=CCC[C@@H](C)c1ccc(C)cc1
REMARK SMILES IDX 6 1 7 2 8 3 9 4 13 5 12 6 11 7 14 8 10 9 15 10 5 11 4 12
REMARK SMILES IDX 2 13 1 14 3 15
REMARK H PARENT
REMARK Flexibility Score: inf
ROOT
ATOM      1  C   UNL     1      26.860   7.477  -1.865  1.00  0.00     0.012 C 
ENDROOT
BRANCH   1   2
ATOM      2  C   UNL     1      27.851   8.395  -1.112  1.00  0.00     0.016 C 
ATOM      3  C   UNL     1      29.125   7.626  -0.738  1.00  0.00     0.013 C 
BRANCH   2   4
ATOM      4  C   UNL     1      28.197   9.641  -1.909  1.00  0.00    -0.045 A 
ATOM      5  C   UNL     1      29.125  13.232  -4.124  1.00  0.00     0.044 C 
ATOM      6  C   UNL     1      28.831  11.973  -3.361  1.00  0.00    -0.051 A 
ATOM      7  C   UNL     1      28.252  10.873  -4.009  1.00  0.00     0.004 A 
ATOM      8  C   UNL     1      29.068  11.913  -1.981  1.00  0.00     0.004 A 
ATOM      9  C   UNL     1      27.943   9.714  -3.291  1.00  0.00     0.004 A 
ATOM     10  C   UNL     1      28.760  10.755  -1.261  1.00  0.00     0.004 A 
ENDBRANCH   2   4
ENDBRANCH   1   2
BRANCH   1  11
ATOM     11  C   UNL     1      26.472   6.210  -1.081  1.00  0.00     0.028 C 
BRANCH  11  12
ATOM     12  C   UNL     1      25.376   5.428  -1.765  1.00  0.00    -0.028 C 
ATOM     13  C   UNL     1      25.360   4.084  -1.898  1.00  0.00    -0.080 C 
ATOM     14  C   UNL     1      26.498   3.216  -1.410  1.00  0.00     0.039 C 
ATOM     15  C   UNL     1      24.176   3.444  -2.574  1.00  0.00     0.039 C 
ENDBRANCH  11  12
ENDBRANCH   1  11
TORSDOF 4
ENDMDL
MODEL 2
REMARK VINA RESULT:    -2.416      1.021      6.672
REMARK INTER + INTRA:          -3.416
REMARK INTER:                  -2.946
REMARK INTRA:                  -0.470
REMARK UNBOUND:                -0.435
REMARK SMILES CC(C)=CCC[C@@H](C)c1ccc(C)cc1
REMARK SMILES IDX 6 1 7 2 8 3 9 4 13 5 12 6 11 7 14 8 10 9 15 10 5 11 4 12
REMARK SMILES IDX 2 13 1 14 3 15
REMARK H PARENT
REMARK Flexibility Score: inf
ROOT
ATOM      1  C   UNL     1      29.088   7.902  -1.497  1.00  0.00     0.012 C 
ENDROOT
BRANCH   1   2
ATOM      2  C   UNL     1      27.879   7.673  -0.560  1.00  0.00     0.016 C 
ATOM      3  C   UNL     1      27.051   8.956  -0.419  1.00  0.00     0.013 C 
BRANCH   2   4
ATOM      4  C   UNL     1      27.003   6.522  -1.026  1.00  0.00    -0.045 A 
ATOM      5  C   UNL     1      24.443   3.293  -2.321  1.00  0.00     0.044 C 
ATOM      6  C   UNL     1      25.353   4.407  -1.894  1.00  0.00    -0.051 A 
ATOM      7  C   UNL     1      26.368   4.172  -0.956  1.00  0.00     0.004 A 
ATOM      8  C   UNL     1      25.150   5.708  -2.377  1.00  0.00     0.004 A 
ATOM      9  C   UNL     1      27.191   5.219  -0.530  1.00  0.00     0.004 A 
ATOM     10  C   UNL     1      25.971   6.756  -1.952  1.00  0.00     0.004 A 
ENDBRANCH   2   4
ENDBRANCH   1   2
BRANCH   1  11
ATOM     11  C   UNL     1      28.733   8.657  -2.791  1.00  0.00     0.028 C 
BRANCH  11  12
ATOM     12  C   UNL     1      29.124  10.114  -2.728  1.00  0.00    -0.028 C 
ATOM     13  C   UNL     1      28.425  11.122  -3.297  1.00  0.00    -0.080 C 
ATOM     14  C   UNL     1      27.184  10.871  -4.121  1.00  0.00     0.039 C 
ATOM     15  C   UNL     1      28.923  12.532  -3.114  1.00  0.00     0.039 C 
ENDBRANCH  11  12
ENDBRANCH   1  11
TORSDOF 4
ENDMDL
MODEL 3
REMARK VINA RESULT:    -1.701      1.031      6.893
REMARK INTER + INTRA:          -2.534
REMARK INTER:                  -1.933
REMARK INTRA:                  -0.601
REMARK UNBOUND:                -0.435
REMARK SMILES CC(C)=CCC[C@@H](C)c1ccc(C)cc1
REMARK SMILES IDX 6 1 7 2 8 3 9 4 13 5 12 6 11 7 14 8 10 9 15 10 5 11 4 12
REMARK SMILES IDX 2 13 1 14 3 15
REMARK H PARENT
REMARK Flexibility Score: inf
ROOT
ATOM      1  C   UNL     1      26.981   8.981  -2.960  1.00  0.00     0.012 C 
ENDROOT
BRANCH   1   2
ATOM      2  C   UNL     1      27.195   8.022  -1.765  1.00  0.00     0.016 C 
ATOM      3  C   UNL     1      26.906   8.735  -0.439  1.00  0.00     0.013 C 
BRANCH   2   4
ATOM      4  C   UNL     1      26.356   6.761  -1.885  1.00  0.00    -0.045 A 
ATOM      5  C   UNL     1      24.042   3.131  -2.239  1.00  0.00     0.044 C 
ATOM      6  C   UNL     1      24.823   4.403  -2.097  1.00  0.00    -0.051 A 
ATOM      7  C   UNL     1      24.605   5.470  -2.980  1.00  0.00     0.004 A 
ATOM      8  C   UNL     1      25.827   4.510  -1.124  1.00  0.00     0.004 A 
ATOM      9  C   UNL     1      25.360   6.642  -2.872  1.00  0.00     0.004 A 
ATOM     10  C   UNL     1      26.583   5.681  -1.014  1.00  0.00     0.004 A 
ENDBRANCH   2   4
ENDBRANCH   1   2
BRANCH   1  11
ATOM     11  C   UNL     1      28.271   9.296  -3.738  1.00  0.00     0.028 C 
BRANCH  11  12
ATOM     12  C   UNL     1      28.370  10.756  -4.112  1.00  0.00    -0.028 C 
ATOM     13  C   UNL     1      28.773  11.737  -3.274  1.00  0.00    -0.080 C 
ATOM     14  C   UNL     1      29.118  11.466  -1.828  1.00  0.00     0.039 C 
ATOM     15  C   UNL     1      28.856  13.145  -3.806  1.00  0.00     0.039 C 
ENDBRANCH  11  12
ENDBRANCH   1  11
TORSDOF 4
ENDMDL
MODEL 4
REMARK VINA RESULT:    -1.357      1.497      6.706
REMARK INTER + INTRA:          -2.110
REMARK INTER:                  -2.025
REMARK INTRA:                  -0.085
REMARK UNBOUND:                -0.435
REMARK SMILES CC(C)=CCC[C@@H](C)c1ccc(C)cc1
REMARK SMILES IDX 6 1 7 2 8 3 9 4 13 5 12 6 11 7 14 8 10 9 15 10 5 11 4 12
REMARK SMILES IDX 2 13 1 14 3 15
REMARK H PARENT
REMARK Flexibility Score: inf
ROOT
ATOM      1  C   UNL     1      27.248   9.184  -0.508  1.00  0.00     0.012 C 
ENDROOT
BRANCH   1   2
ATOM      2  C   UNL     1      26.548   7.977  -1.178  1.00  0.00     0.016 C 
ATOM      3  C   UNL     1      26.501   8.155  -2.700  1.00  0.00     0.013 C 
BRANCH   2   4
ATOM      4  C   UNL     1      27.208   6.658  -0.816  1.00  0.00    -0.045 A 
ATOM      5  C   UNL     1      29.025   2.893   0.272  1.00  0.00     0.044 C 
ATOM      6  C   UNL     1      28.405   4.198  -0.135  1.00  0.00    -0.051 A 
ATOM      7  C   UNL     1      29.125   5.394  -0.005  1.00  0.00     0.004 A 
ATOM      8  C   UNL     1      27.077   4.239  -0.583  1.00  0.00     0.004 A 
ATOM      9  C   UNL     1      28.535   6.613  -0.348  1.00  0.00     0.004 A 
ATOM     10  C   UNL     1      26.485   5.457  -0.926  1.00  0.00     0.004 A 
ENDBRANCH   2   4
ENDBRANCH   1   2
BRANCH   1  11
ATOM     11  C   UNL     1      28.668   9.447  -1.038  1.00  0.00     0.028 C 
BRANCH  11  12
ATOM     12  C   UNL     1      28.806  10.825  -1.641  1.00  0.00    -0.028 C 
ATOM     13  C   UNL     1      28.981  11.072  -2.958  1.00  0.00    -0.080 C 
ATOM     14  C   UNL     1      29.115   9.960  -3.973  1.00  0.00     0.039 C 
ATOM     15  C   UNL     1      29.064  12.507  -3.413  1.00  0.00     0.039 C 
ENDBRANCH  11  12
ENDBRANCH   1  11
TORSDOF 4
ENDMDL
MODEL 5
REMARK VINA RESULT:    -0.608      1.074      6.285
REMARK INTER + INTRA:          -1.185
REMARK INTER:                  -0.624
REMARK INTRA:                  -0.561
REMARK UNBOUND:                -0.435
REMARK SMILES CC(C)=CCC[C@@H](C)c1ccc(C)cc1
REMARK SMILES IDX 6 1 7 2 8 3 9 4 13 5 12 6 11 7 14 8 10 9 15 10 5 11 4 12
REMARK SMILES IDX 2 13 1 14 3 15
REMARK H PARENT
REMARK Flexibility Score: inf
ROOT
ATOM      1  C   UNL     1      27.766   8.614  -0.298  1.00  0.00     0.012 C 
ENDROOT
BRANCH   1   2
ATOM      2  C   UNL     1      28.255   7.244  -0.823  1.00  0.00     0.016 C 
ATOM      3  C   UNL     1      29.125   6.540   0.226  1.00  0.00     0.013 C 
BRANCH   2   4
ATOM      4  C   UNL     1      27.104   6.348  -1.247  1.00  0.00    -0.045 A 
ATOM      5  C   UNL     1      23.887   3.744  -2.485  1.00  0.00     0.044 C 
ATOM      6  C   UNL     1      24.986   4.660  -2.032  1.00  0.00    -0.051 A 
ATOM      7  C   UNL     1      25.088   5.956  -2.556  1.00  0.00     0.004 A 
ATOM      8  C   UNL     1      25.961   4.202  -1.134  1.00  0.00     0.004 A 
ATOM      9  C   UNL     1      26.134   6.796  -2.163  1.00  0.00     0.004 A 
ATOM     10  C   UNL     1      27.007   5.040  -0.740  1.00  0.00     0.004 A 
ENDBRANCH   2   4
ENDBRANCH   1   2
BRANCH   1  11
ATOM     11  C   UNL     1      28.765   9.761  -0.537  1.00  0.00     0.028 C 
BRANCH  11  12
ATOM     12  C   UNL     1      28.358  10.640  -1.696  1.00  0.00    -0.028 C 
ATOM     13  C   UNL     1      28.489  10.303  -2.998  1.00  0.00    -0.080 C 
ATOM     14  C   UNL     1      29.125   9.002  -3.430  1.00  0.00     0.039 C 
ATOM     15  C   UNL     1      28.001  11.274  -4.042  1.00  0.00     0.039 C 
ENDBRANCH  11  12
ENDBRANCH   1  11
TORSDOF 4
ENDMDL
