MODEL 1
REMARK VINA RESULT:    -5.721      0.000      0.000
REMARK INTER + INTRA:         -11.720
REMARK INTER:                 -10.737
REMARK INTRA:                  -0.983
REMARK UNBOUND:                -0.983
REMARK SMILES CCCCCC=CCC=CCCCCCCCC(=O)OC
REMARK SMILES IDX 11 1 10 2 9 3 8 4 7 5 6 6 5 7 4 8 3 9 2 10 1 11 12 12 13 13
REMARK SMILES IDX 14 14 15 15 16 16 17 17 18 18 19 19 20 20 21 21
REMARK H PARENT
REMARK Flexibility Score: inf
ROOT
ATOM      1  C   UNL     1       8.153 -20.371  20.752  1.00  0.00     0.027 C 
ENDROOT
BRANCH   1   2
ATOM      2  C   UNL     1       7.939 -21.855  20.932  1.00  0.00    -0.031 C 
ATOM      3  C   UNL     1       8.867 -22.805  20.700  1.00  0.00    -0.027 C 
BRANCH   3   4
ATOM      4  C   UNL     1      10.247 -22.543  20.148  1.00  0.00     0.054 C 
BRANCH   4   5
ATOM      5  C   UNL     1      11.321 -22.973  21.106  1.00  0.00    -0.027 C 
ATOM      6  C   UNL     1      11.086 -23.889  22.056  1.00  0.00    -0.031 C 
BRANCH   6   7
ATOM      7  C   UNL     1      12.176 -24.368  22.976  1.00  0.00     0.027 C 
BRANCH   7   8
ATOM      8  C   UNL     1      11.589 -25.128  24.175  1.00  0.00     0.004 C 
BRANCH   8   9
ATOM      9  C   UNL     1      12.340 -24.857  25.491  1.00  0.00     0.000 C 
BRANCH   9  10
ATOM     10  C   UNL     1      12.369 -26.042  26.475  1.00  0.00    -0.003 C 
ATOM     11  C   UNL     1      13.755 -26.672  26.613  1.00  0.00     0.004 C 
ENDBRANCH   9  10
ENDBRANCH   8   9
ENDBRANCH   7   8
ENDBRANCH   6   7
ENDBRANCH   4   5
ENDBRANCH   3   4
ENDBRANCH   1   2
BRANCH   1  12
ATOM     12  C   UNL     1       6.827 -19.621  20.522  1.00  0.00     0.004 C 
BRANCH  12  13
ATOM     13  C   UNL     1       6.181 -19.047  21.800  1.00  0.00     0.000 C 
BRANCH  13  14
ATOM     14  C   UNL     1       7.145 -18.166  22.616  1.00  0.00     0.000 C 
BRANCH  14  15
ATOM     15  C   UNL     1       6.755 -16.677  22.597  1.00  0.00     0.001 C 
BRANCH  15  16
ATOM     16  C   UNL     1       6.403 -16.104  21.207  1.00  0.00     0.012 C 
BRANCH  16  17
ATOM     17  C   UNL     1       5.070 -15.338  21.145  1.00  0.00     0.123 C 
BRANCH  17  18
ATOM     18  C   UNL     1       3.892 -16.244  21.338  1.00  0.00     0.305 C 
ATOM     19  O   UNL     1       3.529 -17.007  20.400  1.00  0.00    -0.252 OA
BRANCH  18  20
ATOM     20  O   UNL     1       3.193 -16.214  22.546  1.00  0.00    -0.469 OA
ATOM     21  C   UNL     1       2.147 -17.136  22.850  1.00  0.00     0.282 C 
ENDBRANCH  18  20
ENDBRANCH  17  18
ENDBRANCH  16  17
ENDBRANCH  15  16
ENDBRANCH  14  15
ENDBRANCH  13  14
ENDBRANCH  12  13
ENDBRANCH   1  12
TORSDOF 15
ENDMDL
MODEL 2
REMARK VINA RESULT:    -5.711      8.925     12.023
REMARK INTER + INTRA:         -11.701
REMARK INTER:                 -10.357
REMARK INTRA:                  -1.344
REMARK UNBOUND:                -0.983
REMARK SMILES CCCCCC=CCC=CCCCCCCCC(=O)OC
REMARK SMILES IDX 11 1 10 2 9 3 8 4 7 5 6 6 5 7 4 8 3 9 2 10 1 11 12 12 13 13
REMARK SMILES IDX 14 14 15 15 16 16 17 17 18 18 19 19 20 20 21 21
REMARK H PARENT
REMARK Flexibility Score: inf
ROOT
ATOM      1  C   UNL     1      10.762 -17.163  32.088  1.00  0.00     0.027 C 
ENDROOT
BRANCH   1   2
ATOM      2  C   UNL     1      12.068 -17.809  31.693  1.00  0.00    -0.031 C 
ATOM      3  C   UNL     1      13.222 -17.148  31.471  1.00  0.00    -0.027 C 
BRANCH   3   4
ATOM      4  C   UNL     1      13.375 -15.648  31.505  1.00  0.00     0.054 C 
BRANCH   4   5
ATOM      5  C   UNL     1      13.174 -15.036  30.147  1.00  0.00    -0.027 C 
ATOM      6  C   UNL     1      11.951 -14.741  29.686  1.00  0.00    -0.031 C 
BRANCH   6   7
ATOM      7  C   UNL     1      11.751 -14.071  28.354  1.00  0.00     0.027 C 
BRANCH   7   8
ATOM      8  C   UNL     1      12.447 -12.702  28.317  1.00  0.00     0.004 C 
BRANCH   8   9
ATOM      9  C   UNL     1      13.500 -12.587  27.199  1.00  0.00     0.000 C 
BRANCH   9  10
ATOM     10  C   UNL     1      12.977 -12.902  25.785  1.00  0.00    -0.003 C 
ATOM     11  C   UNL     1      11.849 -11.970  25.343  1.00  0.00     0.004 C 
ENDBRANCH   9  10
ENDBRANCH   8   9
ENDBRANCH   7   8
ENDBRANCH   6   7
ENDBRANCH   4   5
ENDBRANCH   3   4
ENDBRANCH   1   2
BRANCH   1  12
ATOM     12  C   UNL     1       9.776 -18.180  32.694  1.00  0.00     0.004 C 
BRANCH  12  13
ATOM     13  C   UNL     1      10.439 -19.375  33.410  1.00  0.00     0.000 C 
BRANCH  13  14
ATOM     14  C   UNL     1       9.517 -20.603  33.507  1.00  0.00     0.000 C 
BRANCH  14  15
ATOM     15  C   UNL     1      10.018 -21.794  32.669  1.00  0.00     0.001 C 
BRANCH  15  16
ATOM     16  C   UNL     1       9.228 -22.065  31.370  1.00  0.00     0.012 C 
BRANCH  16  17
ATOM     17  C   UNL     1       9.442 -21.024  30.258  1.00  0.00     0.123 C 
BRANCH  17  18
ATOM     18  C   UNL     1       8.150 -20.611  29.619  1.00  0.00     0.305 C 
ATOM     19  O   UNL     1       8.124 -20.318  28.391  1.00  0.00    -0.252 OA
BRANCH  18  20
ATOM     20  O   UNL     1       6.993 -20.532  30.397  1.00  0.00    -0.469 OA
ATOM     21  C   UNL     1       5.787 -21.210  30.049  1.00  0.00     0.282 C 
ENDBRANCH  18  20
ENDBRANCH  17  18
ENDBRANCH  16  17
ENDBRANCH  15  16
ENDBRANCH  14  15
ENDBRANCH  13  14
ENDBRANCH  12  13
ENDBRANCH   1  12
TORSDOF 15
ENDMDL
MODEL 3
REMARK VINA RESULT:    -5.643      9.895     13.149
REMARK INTER + INTRA:         -11.574
REMARK INTER:                 -10.568
REMARK INTRA:                  -1.006
REMARK UNBOUND:                -0.983
REMARK SMILES CCCCCC=CCC=CCCCCCCCC(=O)OC
REMARK SMILES IDX 11 1 10 2 9 3 8 4 7 5 6 6 5 7 4 8 3 9 2 10 1 11 12 12 13 13
REMARK SMILES IDX 14 14 15 15 16 16 17 17 18 18 19 19 20 20 21 21
REMARK H PARENT
REMARK Flexibility Score: inf
ROOT
ATOM      1  C   UNL     1      10.786 -17.355  32.033  1.00  0.00     0.027 C 
ENDROOT
BRANCH   1   2
ATOM      2  C   UNL     1      12.139 -17.919  31.670  1.00  0.00    -0.031 C 
ATOM      3  C   UNL     1      13.257 -17.189  31.485  1.00  0.00    -0.027 C 
BRANCH   3   4
ATOM      4  C   UNL     1      13.319 -15.683  31.532  1.00  0.00     0.054 C 
BRANCH   4   5
ATOM      5  C   UNL     1      13.114 -15.073  30.174  1.00  0.00    -0.027 C 
ATOM      6  C   UNL     1      11.887 -14.852  29.685  1.00  0.00    -0.031 C 
BRANCH   6   7
ATOM      7  C   UNL     1      11.678 -14.183  28.353  1.00  0.00     0.027 C 
BRANCH   7   8
ATOM      8  C   UNL     1      12.502 -12.890  28.252  1.00  0.00     0.004 C 
BRANCH   8   9
ATOM      9  C   UNL     1      12.846 -12.503  26.802  1.00  0.00     0.000 C 
BRANCH   9  10
ATOM     10  C   UNL     1      11.670 -12.593  25.813  1.00  0.00    -0.003 C 
ATOM     11  C   UNL     1      11.700 -11.499  24.745  1.00  0.00     0.004 C 
ENDBRANCH   9  10
ENDBRANCH   8   9
ENDBRANCH   7   8
ENDBRANCH   6   7
ENDBRANCH   4   5
ENDBRANCH   3   4
ENDBRANCH   1   2
BRANCH   1  12
ATOM     12  C   UNL     1       9.793 -18.459  32.447  1.00  0.00     0.004 C 
BRANCH  12  13
ATOM     13  C   UNL     1      10.310 -19.413  33.544  1.00  0.00     0.000 C 
BRANCH  13  14
ATOM     14  C   UNL     1       9.682 -20.816  33.462  1.00  0.00     0.000 C 
BRANCH  14  15
ATOM     15  C   UNL     1       9.814 -21.450  32.066  1.00  0.00     0.001 C 
BRANCH  15  16
ATOM     16  C   UNL     1       9.719 -22.990  32.028  1.00  0.00     0.012 C 
BRANCH  16  17
ATOM     17  C   UNL     1       9.139 -23.630  33.301  1.00  0.00     0.123 C 
BRANCH  17  18
ATOM     18  C   UNL     1       7.671 -23.905  33.173  1.00  0.00     0.305 C 
ATOM     19  O   UNL     1       7.220 -24.413  32.109  1.00  0.00    -0.252 OA
BRANCH  18  20
ATOM     20  O   UNL     1       6.815 -23.571  34.224  1.00  0.00    -0.469 OA
ATOM     21  C   UNL     1       6.783 -24.303  35.449  1.00  0.00     0.282 C 
ENDBRANCH  18  20
ENDBRANCH  17  18
ENDBRANCH  16  17
ENDBRANCH  15  16
ENDBRANCH  14  15
ENDBRANCH  13  14
ENDBRANCH  12  13
ENDBRANCH   1  12
TORSDOF 15
ENDMDL
MODEL 4
REMARK VINA RESULT:    -5.635      9.286     11.045
REMARK INTER + INTRA:         -11.559
REMARK INTER:                 -10.266
REMARK INTRA:                  -1.292
REMARK UNBOUND:                -0.983
REMARK SMILES CCCCCC=CCC=CCCCCCCCC(=O)OC
REMARK SMILES IDX 11 1 10 2 9 3 8 4 7 5 6 6 5 7 4 8 3 9 2 10 1 11 12 12 13 13
REMARK SMILES IDX 14 14 15 15 16 16 17 17 18 18 19 19 20 20 21 21
REMARK H PARENT
REMARK Flexibility Score: inf
ROOT
ATOM      1  C   UNL     1      13.358 -15.638  31.637  1.00  0.00     0.027 C 
ENDROOT
BRANCH   1   2
ATOM      2  C   UNL     1      13.277 -17.141  31.522  1.00  0.00    -0.031 C 
ATOM      3  C   UNL     1      12.144 -17.865  31.620  1.00  0.00    -0.027 C 
BRANCH   3   4
ATOM      4  C   UNL     1      10.784 -17.297  31.940  1.00  0.00     0.054 C 
BRANCH   4   5
ATOM      5  C   UNL     1      10.057 -18.129  32.959  1.00  0.00    -0.027 C 
ATOM      6  C   UNL     1      10.374 -19.415  33.166  1.00  0.00    -0.031 C 
BRANCH   6   7
ATOM      7  C   UNL     1       9.691 -20.233  34.229  1.00  0.00     0.027 C 
BRANCH   7   8
ATOM      8  C   UNL     1       8.769 -21.290  33.601  1.00  0.00     0.004 C 
BRANCH   8   9
ATOM      9  C   UNL     1       9.428 -22.054  32.438  1.00  0.00     0.000 C 
BRANCH   9  10
ATOM     10  C   UNL     1       9.901 -23.477  32.786  1.00  0.00    -0.003 C 
ATOM     11  C   UNL     1      10.105 -24.359  31.554  1.00  0.00     0.004 C 
ENDBRANCH   9  10
ENDBRANCH   8   9
ENDBRANCH   7   8
ENDBRANCH   6   7
ENDBRANCH   4   5
ENDBRANCH   3   4
ENDBRANCH   1   2
BRANCH   1  12
ATOM     12  C   UNL     1      13.559 -14.964  30.267  1.00  0.00     0.004 C 
BRANCH  12  13
ATOM     13  C   UNL     1      12.255 -14.554  29.552  1.00  0.00     0.000 C 
BRANCH  13  14
ATOM     14  C   UNL     1      12.391 -13.237  28.766  1.00  0.00     0.000 C 
BRANCH  14  15
ATOM     15  C   UNL     1      11.777 -13.316  27.356  1.00  0.00     0.001 C 
BRANCH  15  16
ATOM     16  C   UNL     1      11.745 -14.726  26.729  1.00  0.00     0.012 C 
BRANCH  16  17
ATOM     17  C   UNL     1      12.405 -14.829  25.343  1.00  0.00     0.123 C 
BRANCH  17  18
ATOM     18  C   UNL     1      13.891 -14.651  25.414  1.00  0.00     0.305 C 
ATOM     19  O   UNL     1      14.492 -14.037  24.489  1.00  0.00    -0.252 OA
BRANCH  18  20
ATOM     20  O   UNL     1      14.597 -15.190  26.491  1.00  0.00    -0.469 OA
ATOM     21  C   UNL     1      15.570 -14.443  27.220  1.00  0.00     0.282 C 
ENDBRANCH  18  20
ENDBRANCH  17  18
ENDBRANCH  16  17
ENDBRANCH  15  16
ENDBRANCH  14  15
ENDBRANCH  13  14
ENDBRANCH  12  13
ENDBRANCH   1  12
TORSDOF 15
ENDMDL
MODEL 5
REMARK VINA RESULT:    -5.631      5.113     11.095
REMARK INTER + INTRA:         -11.551
REMARK INTER:                 -10.586
REMARK INTRA:                  -0.965
REMARK UNBOUND:                -0.983
REMARK SMILES CCCCCC=CCC=CCCCCCCCC(=O)OC
REMARK SMILES IDX 11 1 10 2 9 3 8 4 7 5 6 6 5 7 4 8 3 9 2 10 1 11 12 12 13 13
REMARK SMILES IDX 14 14 15 15 16 16 17 17 18 18 19 19 20 20 21 21
REMARK H PARENT
REMARK Flexibility Score: inf
ROOT
ATOM      1  C   UNL     1      10.985 -24.026  22.219  1.00  0.00     0.027 C 
ENDROOT
BRANCH   1   2
ATOM      2  C   UNL     1      11.138 -23.011  21.112  1.00  0.00    -0.031 C 
ATOM      3  C   UNL     1      10.119 -22.410  20.466  1.00  0.00    -0.027 C 
BRANCH   3   4
ATOM      4  C   UNL     1       8.659 -22.714  20.692  1.00  0.00     0.054 C 
BRANCH   4   5
ATOM      5  C   UNL     1       7.840 -21.460  20.809  1.00  0.00    -0.027 C 
ATOM      6  C   UNL     1       8.406 -20.279  21.096  1.00  0.00    -0.031 C 
BRANCH   6   7
ATOM      7  C   UNL     1       7.598 -19.011  21.151  1.00  0.00     0.027 C 
BRANCH   7   8
ATOM      8  C   UNL     1       6.420 -19.066  20.166  1.00  0.00     0.004 C 
BRANCH   8   9
ATOM      9  C   UNL     1       5.436 -17.893  20.331  1.00  0.00     0.000 C 
BRANCH   9  10
ATOM     10  C   UNL     1       6.039 -16.630  20.973  1.00  0.00    -0.003 C 
ATOM     11  C   UNL     1       5.072 -15.446  20.989  1.00  0.00     0.004 C 
ENDBRANCH   9  10
ENDBRANCH   8   9
ENDBRANCH   7   8
ENDBRANCH   6   7
ENDBRANCH   4   5
ENDBRANCH   3   4
ENDBRANCH   1   2
BRANCH   1  12
ATOM     12  C   UNL     1      12.343 -24.599  22.669  1.00  0.00     0.004 C 
BRANCH  12  13
ATOM     13  C   UNL     1      12.260 -25.638  23.806  1.00  0.00     0.000 C 
BRANCH  13  14
ATOM     14  C   UNL     1      11.951 -25.006  25.175  1.00  0.00     0.000 C 
BRANCH  14  15
ATOM     15  C   UNL     1      12.455 -25.858  26.354  1.00  0.00     0.001 C 
BRANCH  15  16
ATOM     16  C   UNL     1      13.724 -26.690  26.072  1.00  0.00     0.012 C 
BRANCH  16  17
ATOM     17  C   UNL     1      14.987 -26.206  26.805  1.00  0.00     0.123 C 
BRANCH  17  18
ATOM     18  C   UNL     1      15.947 -25.523  25.879  1.00  0.00     0.305 C 
ATOM     19  O   UNL     1      16.893 -24.834  26.354  1.00  0.00    -0.252 OA
BRANCH  18  20
ATOM     20  O   UNL     1      15.768 -25.635  24.499  1.00  0.00    -0.469 OA
ATOM     21  C   UNL     1      16.430 -26.629  23.718  1.00  0.00     0.282 C 
ENDBRANCH  18  20
ENDBRANCH  17  18
ENDBRANCH  16  17
ENDBRANCH  15  16
ENDBRANCH  14  15
ENDBRANCH  13  14
ENDBRANCH  12  13
ENDBRANCH   1  12
TORSDOF 15
ENDMDL
MODEL 6
REMARK VINA RESULT:    -5.536      9.155     11.474
REMARK INTER + INTRA:         -11.373
REMARK INTER:                  -9.200
REMARK INTRA:                  -2.173
REMARK UNBOUND:                -0.983
REMARK SMILES CCCCCC=CCC=CCCCCCCCC(=O)OC
REMARK SMILES IDX 11 1 10 2 9 3 8 4 7 5 6 6 5 7 4 8 3 9 2 10 1 11 12 12 13 13
REMARK SMILES IDX 14 14 15 15 16 16 17 17 18 18 19 19 20 20 21 21
REMARK H PARENT
REMARK Flexibility Score: inf
ROOT
ATOM      1  C   UNL     1       9.622 -23.654  32.601  1.00  0.00     0.027 C 
ENDROOT
BRANCH   1   2
ATOM      2  C   UNL     1       9.530 -22.487  31.647  1.00  0.00    -0.031 C 
ATOM      3  C   UNL     1       9.895 -21.222  31.935  1.00  0.00    -0.027 C 
BRANCH   3   4
ATOM      4  C   UNL     1      10.382 -20.751  33.284  1.00  0.00     0.054 C 
BRANCH   4   5
ATOM      5  C   UNL     1      10.030 -19.312  33.532  1.00  0.00    -0.027 C 
ATOM      6  C   UNL     1      10.173 -18.382  32.577  1.00  0.00    -0.031 C 
BRANCH   6   7
ATOM      7  C   UNL     1       9.763 -16.952  32.802  1.00  0.00     0.027 C 
BRANCH   7   8
ATOM      8  C   UNL     1      10.762 -15.984  32.148  1.00  0.00     0.004 C 
BRANCH   8   9
ATOM      9  C   UNL     1      11.830 -16.699  31.300  1.00  0.00     0.000 C 
BRANCH   9  10
ATOM     10  C   UNL     1      13.284 -16.328  31.646  1.00  0.00    -0.003 C 
ATOM     11  C   UNL     1      13.989 -15.563  30.525  1.00  0.00     0.004 C 
ENDBRANCH   9  10
ENDBRANCH   8   9
ENDBRANCH   7   8
ENDBRANCH   6   7
ENDBRANCH   4   5
ENDBRANCH   3   4
ENDBRANCH   1   2
BRANCH   1  12
ATOM     12  C   UNL     1       8.444 -23.682  33.594  1.00  0.00     0.004 C 
BRANCH  12  13
ATOM     13  C   UNL     1       7.065 -23.390  32.967  1.00  0.00     0.000 C 
BRANCH  13  14
ATOM     14  C   UNL     1       6.215 -22.425  33.813  1.00  0.00     0.000 C 
BRANCH  14  15
ATOM     15  C   UNL     1       6.574 -20.947  33.576  1.00  0.00     0.001 C 
BRANCH  15  16
ATOM     16  C   UNL     1       5.822 -20.264  32.414  1.00  0.00     0.012 C 
BRANCH  16  17
ATOM     17  C   UNL     1       6.719 -19.787  31.259  1.00  0.00     0.123 C 
BRANCH  17  18
ATOM     18  C   UNL     1       6.320 -20.396  29.949  1.00  0.00     0.305 C 
ATOM     19  O   UNL     1       6.198 -21.648  29.852  1.00  0.00    -0.252 OA
BRANCH  18  20
ATOM     20  O   UNL     1       6.112 -19.570  28.842  1.00  0.00    -0.469 OA
ATOM     21  C   UNL     1       6.638 -19.872  27.551  1.00  0.00     0.282 C 
ENDBRANCH  18  20
ENDBRANCH  17  18
ENDBRANCH  16  17
ENDBRANCH  15  16
ENDBRANCH  14  15
ENDBRANCH  13  14
ENDBRANCH  12  13
ENDBRANCH   1  12
TORSDOF 15
ENDMDL
MODEL 7
REMARK VINA RESULT:    -5.530      9.102     10.974
REMARK INTER + INTRA:         -11.362
REMARK INTER:                 -10.084
REMARK INTRA:                  -1.278
REMARK UNBOUND:                -0.983
REMARK SMILES CCCCCC=CCC=CCCCCCCCC(=O)OC
REMARK SMILES IDX 11 1 10 2 9 3 8 4 7 5 6 6 5 7 4 8 3 9 2 10 1 11 12 12 13 13
REMARK SMILES IDX 14 14 15 15 16 16 17 17 18 18 19 19 20 20 21 21
REMARK H PARENT
REMARK Flexibility Score: inf
ROOT
ATOM      1  C   UNL     1      10.377 -16.765  32.386  1.00  0.00     0.027 C 
ENDROOT
BRANCH   1   2
ATOM      2  C   UNL     1      10.830 -17.998  31.642  1.00  0.00    -0.031 C 
ATOM      3  C   UNL     1      10.657 -19.266  32.068  1.00  0.00    -0.027 C 
BRANCH   3   4
ATOM      4  C   UNL     1      10.052 -19.653  33.394  1.00  0.00     0.054 C 
BRANCH   4   5
ATOM      5  C   UNL     1       9.901 -21.143  33.524  1.00  0.00    -0.027 C 
ATOM      6  C   UNL     1       9.915 -21.943  32.449  1.00  0.00    -0.031 C 
BRANCH   6   7
ATOM      7  C   UNL     1       9.827 -23.440  32.580  1.00  0.00     0.027 C 
BRANCH   7   8
ATOM      8  C   UNL     1       8.550 -23.852  33.328  1.00  0.00     0.004 C 
BRANCH   8   9
ATOM      9  C   UNL     1       7.409 -24.281  32.387  1.00  0.00     0.000 C 
BRANCH   9  10
ATOM     10  C   UNL     1       6.446 -23.150  31.983  1.00  0.00    -0.003 C 
ATOM     11  C   UNL     1       6.199 -22.143  33.107  1.00  0.00     0.004 C 
ENDBRANCH   9  10
ENDBRANCH   8   9
ENDBRANCH   7   8
ENDBRANCH   6   7
ENDBRANCH   4   5
ENDBRANCH   3   4
ENDBRANCH   1   2
BRANCH   1  12
ATOM     12  C   UNL     1      11.437 -15.647  32.351  1.00  0.00     0.004 C 
BRANCH  12  13
ATOM     13  C   UNL     1      12.823 -16.089  31.838  1.00  0.00     0.000 C 
BRANCH  13  14
ATOM     14  C   UNL     1      13.341 -15.214  30.682  1.00  0.00     0.000 C 
BRANCH  14  15
ATOM     15  C   UNL     1      12.206 -14.585  29.854  1.00  0.00     0.001 C 
BRANCH  15  16
ATOM     16  C   UNL     1      12.656 -13.570  28.781  1.00  0.00     0.012 C 
BRANCH  16  17
ATOM     17  C   UNL     1      11.654 -13.361  27.633  1.00  0.00     0.123 C 
BRANCH  17  18
ATOM     18  C   UNL     1      12.228 -13.763  26.307  1.00  0.00     0.305 C 
ATOM     19  O   UNL     1      12.383 -12.895  25.404  1.00  0.00    -0.252 OA
BRANCH  18  20
ATOM     20  O   UNL     1      12.559 -15.100  26.079  1.00  0.00    -0.469 OA
ATOM     21  C   UNL     1      13.371 -15.512  24.981  1.00  0.00     0.282 C 
ENDBRANCH  18  20
ENDBRANCH  17  18
ENDBRANCH  16  17
ENDBRANCH  15  16
ENDBRANCH  14  15
ENDBRANCH  13  14
ENDBRANCH  12  13
ENDBRANCH   1  12
TORSDOF 15
ENDMDL
MODEL 8
REMARK VINA RESULT:    -5.528     10.284     12.396
REMARK INTER + INTRA:         -11.358
REMARK INTER:                  -8.666
REMARK INTRA:                  -2.692
REMARK UNBOUND:                -0.983
REMARK SMILES CCCCCC=CCC=CCCCCCCCC(=O)OC
REMARK SMILES IDX 11 1 10 2 9 3 8 4 7 5 6 6 5 7 4 8 3 9 2 10 1 11 12 12 13 13
REMARK SMILES IDX 14 14 15 15 16 16 17 17 18 18 19 19 20 20 21 21
REMARK H PARENT
REMARK Flexibility Score: inf
ROOT
ATOM      1  C   UNL     1      12.584 -12.052  25.936  1.00  0.00     0.027 C 
ENDROOT
BRANCH   1   2
ATOM      2  C   UNL     1      12.128 -13.461  25.646  1.00  0.00    -0.031 C 
ATOM      3  C   UNL     1      11.696 -14.341  26.571  1.00  0.00    -0.027 C 
BRANCH   3   4
ATOM      4  C   UNL     1      11.675 -14.086  28.058  1.00  0.00     0.054 C 
BRANCH   4   5
ATOM      5  C   UNL     1      12.652 -14.963  28.789  1.00  0.00    -0.027 C 
ATOM      6  C   UNL     1      12.996 -14.719  30.061  1.00  0.00    -0.031 C 
BRANCH   6   7
ATOM      7  C   UNL     1      13.925 -15.631  30.815  1.00  0.00     0.027 C 
BRANCH   7   8
ATOM      8  C   UNL     1      13.204 -16.287  32.004  1.00  0.00     0.004 C 
BRANCH   8   9
ATOM      9  C   UNL     1      12.347 -17.500  31.598  1.00  0.00     0.000 C 
BRANCH   9  10
ATOM     10  C   UNL     1      10.873 -17.426  32.036  1.00  0.00    -0.003 C 
ATOM     11  C   UNL     1      10.414 -16.002  32.351  1.00  0.00     0.004 C 
ENDBRANCH   9  10
ENDBRANCH   8   9
ENDBRANCH   7   8
ENDBRANCH   6   7
ENDBRANCH   4   5
ENDBRANCH   3   4
ENDBRANCH   1   2
BRANCH   1  12
ATOM     12  C   UNL     1      14.121 -11.938  25.967  1.00  0.00     0.004 C 
BRANCH  12  13
ATOM     13  C   UNL     1      14.746 -12.024  27.375  1.00  0.00     0.000 C 
BRANCH  13  14
ATOM     14  C   UNL     1      15.676 -13.239  27.544  1.00  0.00     0.000 C 
BRANCH  14  15
ATOM     15  C   UNL     1      15.749 -14.116  26.281  1.00  0.00     0.001 C 
BRANCH  15  16
ATOM     16  C   UNL     1      15.355 -15.595  26.482  1.00  0.00     0.012 C 
BRANCH  16  17
ATOM     17  C   UNL     1      15.864 -16.225  27.790  1.00  0.00     0.123 C 
BRANCH  17  18
ATOM     18  C   UNL     1      17.230 -16.822  27.633  1.00  0.00     0.305 C 
ATOM     19  O   UNL     1      17.657 -17.111  26.481  1.00  0.00    -0.252 OA
BRANCH  18  20
ATOM     20  O   UNL     1      18.004 -17.074  28.767  1.00  0.00    -0.469 OA
ATOM     21  C   UNL     1      19.428 -17.159  28.719  1.00  0.00     0.282 C 
ENDBRANCH  18  20
ENDBRANCH  17  18
ENDBRANCH  16  17
ENDBRANCH  15  16
ENDBRANCH  14  15
ENDBRANCH  13  14
ENDBRANCH  12  13
ENDBRANCH   1  12
TORSDOF 15
ENDMDL
MODEL 9
REMARK VINA RESULT:    -5.442      9.373     11.505
REMARK INTER + INTRA:         -11.197
REMARK INTER:                  -9.329
REMARK INTRA:                  -1.868
REMARK UNBOUND:                -0.983
REMARK SMILES CCCCCC=CCC=CCCCCCCCC(=O)OC
REMARK SMILES IDX 11 1 10 2 9 3 8 4 7 5 6 6 5 7 4 8 3 9 2 10 1 11 12 12 13 13
REMARK SMILES IDX 14 14 15 15 16 16 17 17 18 18 19 19 20 20 21 21
REMARK H PARENT
REMARK Flexibility Score: inf
ROOT
ATOM      1  C   UNL     1      11.758 -14.786  29.388  1.00  0.00     0.027 C 
ENDROOT
BRANCH   1   2
ATOM      2  C   UNL     1      12.159 -13.482  28.740  1.00  0.00    -0.031 C 
ATOM      3  C   UNL     1      11.984 -13.180  27.438  1.00  0.00    -0.027 C 
BRANCH   3   4
ATOM      4  C   UNL     1      11.430 -14.125  26.401  1.00  0.00     0.054 C 
BRANCH   4   5
ATOM      5  C   UNL     1      12.506 -14.983  25.798  1.00  0.00    -0.027 C 
ATOM      6  C   UNL     1      12.762 -16.214  26.262  1.00  0.00    -0.031 C 
BRANCH   6   7
ATOM      7  C   UNL     1      13.795 -17.100  25.620  1.00  0.00     0.027 C 
BRANCH   7   8
ATOM      8  C   UNL     1      15.214 -16.577  25.894  1.00  0.00     0.004 C 
BRANCH   8   9
ATOM      9  C   UNL     1      15.458 -16.234  27.375  1.00  0.00     0.000 C 
BRANCH   9  10
ATOM     10  C   UNL     1      16.354 -15.005  27.615  1.00  0.00    -0.003 C 
ATOM     11  C   UNL     1      15.638 -13.681  27.347  1.00  0.00     0.004 C 
ENDBRANCH   9  10
ENDBRANCH   8   9
ENDBRANCH   7   8
ENDBRANCH   6   7
ENDBRANCH   4   5
ENDBRANCH   3   4
ENDBRANCH   1   2
BRANCH   1  12
ATOM     12  C   UNL     1      12.905 -15.393  30.219  1.00  0.00     0.004 C 
BRANCH  12  13
ATOM     13  C   UNL     1      12.470 -16.021  31.558  1.00  0.00     0.000 C 
BRANCH  13  14
ATOM     14  C   UNL     1      11.045 -15.614  31.976  1.00  0.00     0.000 C 
BRANCH  14  15
ATOM     15  C   UNL     1      10.277 -16.755  32.669  1.00  0.00     0.001 C 
BRANCH  15  16
ATOM     16  C   UNL     1      10.727 -18.181  32.286  1.00  0.00     0.012 C 
BRANCH  16  17
ATOM     17  C   UNL     1       9.858 -19.308  32.870  1.00  0.00     0.123 C 
BRANCH  17  18
ATOM     18  C   UNL     1       9.961 -20.570  32.068  1.00  0.00     0.305 C 
ATOM     19  O   UNL     1       9.722 -20.545  30.829  1.00  0.00    -0.252 OA
BRANCH  18  20
ATOM     20  O   UNL     1      10.294 -21.766  32.708  1.00  0.00    -0.469 OA
ATOM     21  C   UNL     1       9.880 -23.039  32.216  1.00  0.00     0.282 C 
ENDBRANCH  18  20
ENDBRANCH  17  18
ENDBRANCH  16  17
ENDBRANCH  15  16
ENDBRANCH  14  15
ENDBRANCH  13  14
ENDBRANCH  12  13
ENDBRANCH   1  12
TORSDOF 15
ENDMDL
