MODEL 1
REMARK VINA RESULT:    -3.489      0.000      0.000
REMARK INTER + INTRA:          -4.536
REMARK INTER:                  -4.407
REMARK INTRA:                  -0.129
REMARK UNBOUND:                -0.129
REMARK SMILES CSCC[C@@H]([NH3+])C(=O)[O-]
REMARK SMILES IDX 4 1 5 2 6 3 7 7 8 8 9 9 3 10 2 11 1 12
REMARK H PARENT 6 4 6 5 6 6
REMARK Flexibility Score: inf
ROOT
ATOM      1  C   UNL     1     -15.565  34.011  16.748  1.00  0.00     0.082 C 
ENDROOT
BRANCH   1   2
ATOM      2  C   UNL     1     -15.785  32.548  16.301  1.00  0.00     0.228 C 
BRANCH   2   3
ATOM      3  N   UNL     1     -16.013  31.658  17.448  1.00  0.00    -0.350 N 
ATOM      4  H   UNL     1     -16.387  32.208  18.255  1.00  0.00     0.345 HD
ATOM      5  H   UNL     1     -15.123  31.191  17.739  1.00  0.00     0.345 HD
ATOM      6  H   UNL     1     -16.723  30.933  17.204  1.00  0.00     0.345 HD
ENDBRANCH   2   3
BRANCH   2   7
ATOM      7  C   UNL     1     -16.955  32.483  15.357  1.00  0.00     0.099 C 
ATOM      8  O   UNL     1     -18.088  32.126  15.777  1.00  0.00    -0.544 OA
ATOM      9  O   UNL     1     -16.791  32.796  14.013  1.00  0.00    -0.544 OA
ENDBRANCH   2   7
ENDBRANCH   1   2
BRANCH   1  10
ATOM     10  C   UNL     1     -14.756  34.118  18.043  1.00  0.00     0.076 C 
BRANCH  10  11
ATOM     11  S   UNL     1     -12.979  34.264  17.650  1.00  0.00    -0.165 SA
ATOM     12  C   UNL     1     -12.558  32.595  18.243  1.00  0.00     0.085 C 
ENDBRANCH  10  11
ENDBRANCH   1  10
TORSDOF 5
ENDMDL
MODEL 2
REMARK VINA RESULT:    -3.357      3.151      3.453
REMARK INTER + INTRA:          -4.369
REMARK INTER:                  -4.274
REMARK INTRA:                  -0.095
REMARK UNBOUND:                -0.129
REMARK SMILES CSCC[C@@H]([NH3+])C(=O)[O-]
REMARK SMILES IDX 4 1 5 2 6 3 7 7 8 8 9 9 3 10 2 11 1 12
REMARK H PARENT 6 4 6 5 6 6
REMARK Flexibility Score: inf
ROOT
ATOM      1  C   UNL     1     -16.616  31.024  17.613  1.00  0.00     0.082 C 
ENDROOT
BRANCH   1   2
ATOM      2  C   UNL     1     -16.359  32.369  16.897  1.00  0.00     0.228 C 
BRANCH   2   3
ATOM      3  N   UNL     1     -14.930  32.711  16.880  1.00  0.00    -0.350 N 
ATOM      4  H   UNL     1     -14.594  32.883  17.855  1.00  0.00     0.345 HD
ATOM      5  H   UNL     1     -14.760  33.569  16.305  1.00  0.00     0.345 HD
ATOM      6  H   UNL     1     -14.375  31.917  16.491  1.00  0.00     0.345 HD
ENDBRANCH   2   3
BRANCH   2   7
ATOM      7  C   UNL     1     -16.889  32.296  15.490  1.00  0.00     0.099 C 
ATOM      8  O   UNL     1     -18.122  32.140  15.285  1.00  0.00    -0.544 OA
ATOM      9  O   UNL     1     -16.019  32.381  14.408  1.00  0.00    -0.544 OA
ENDBRANCH   2   7
ENDBRANCH   1   2
BRANCH   1  10
ATOM     10  C   UNL     1     -17.722  31.119  18.668  1.00  0.00     0.076 C 
BRANCH  10  11
ATOM     11  S   UNL     1     -17.717  29.615  19.703  1.00  0.00    -0.165 SA
ATOM     12  C   UNL     1     -16.060  29.075  19.173  1.00  0.00     0.085 C 
ENDBRANCH  10  11
ENDBRANCH   1  10
TORSDOF 5
ENDMDL
MODEL 3
REMARK VINA RESULT:    -3.272      3.452      4.377
REMARK INTER + INTRA:          -4.262
REMARK INTER:                  -4.107
REMARK INTRA:                  -0.155
REMARK UNBOUND:                -0.129
REMARK SMILES CSCC[C@@H]([NH3+])C(=O)[O-]
REMARK SMILES IDX 4 1 5 2 6 3 7 7 8 8 9 9 3 10 2 11 1 12
REMARK H PARENT 6 4 6 5 6 6
REMARK Flexibility Score: inf
ROOT
ATOM      1  C   UNL     1     -15.815  31.956  18.209  1.00  0.00     0.082 C 
ENDROOT
BRANCH   1   2
ATOM      2  C   UNL     1     -16.715  30.701  18.253  1.00  0.00     0.228 C 
BRANCH   2   3
ATOM      3  N   UNL     1     -15.929  29.464  18.140  1.00  0.00    -0.350 N 
ATOM      4  H   UNL     1     -16.435  28.678  18.608  1.00  0.00     0.345 HD
ATOM      5  H   UNL     1     -14.990  29.578  18.586  1.00  0.00     0.345 HD
ATOM      6  H   UNL     1     -15.809  29.206  17.135  1.00  0.00     0.345 HD
ENDBRANCH   2   3
BRANCH   2   7
ATOM      7  C   UNL     1     -17.503  30.695  19.536  1.00  0.00     0.099 C 
ATOM      8  O   UNL     1     -18.119  31.729  19.906  1.00  0.00    -0.544 OA
ATOM      9  O   UNL     1     -17.539  29.555  20.332  1.00  0.00    -0.544 OA
ENDBRANCH   2   7
ENDBRANCH   1   2
BRANCH   1  10
ATOM     10  C   UNL     1     -15.874  32.677  16.859  1.00  0.00     0.076 C 
BRANCH  10  11
ATOM     11  S   UNL     1     -17.378  32.172  15.955  1.00  0.00    -0.165 SA
ATOM     12  C   UNL     1     -16.636  32.378  14.305  1.00  0.00     0.085 C 
ENDBRANCH  10  11
ENDBRANCH   1  10
TORSDOF 5
ENDMDL
MODEL 4
REMARK VINA RESULT:    -3.239      3.714      4.616
REMARK INTER + INTRA:          -4.220
REMARK INTER:                  -4.071
REMARK INTRA:                  -0.149
REMARK UNBOUND:                -0.129
REMARK SMILES CSCC[C@@H]([NH3+])C(=O)[O-]
REMARK SMILES IDX 4 1 5 2 6 3 7 7 8 8 9 9 3 10 2 11 1 12
REMARK H PARENT 6 4 6 5 6 6
REMARK Flexibility Score: inf
ROOT
ATOM      1  C   UNL     1     -16.609  31.655  18.767  1.00  0.00     0.082 C 
ENDROOT
BRANCH   1   2
ATOM      2  C   UNL     1     -15.875  30.371  19.215  1.00  0.00     0.228 C 
BRANCH   2   3
ATOM      3  N   UNL     1     -16.005  29.296  18.221  1.00  0.00    -0.350 N 
ATOM      4  H   UNL     1     -16.873  29.438  17.655  1.00  0.00     0.345 HD
ATOM      5  H   UNL     1     -16.052  28.361  18.688  1.00  0.00     0.345 HD
ATOM      6  H   UNL     1     -15.194  29.315  17.563  1.00  0.00     0.345 HD
ENDBRANCH   2   3
BRANCH   2   7
ATOM      7  C   UNL     1     -14.421  30.681  19.451  1.00  0.00     0.099 C 
ATOM      8  O   UNL     1     -13.583  29.747  19.560  1.00  0.00    -0.544 OA
ATOM      9  O   UNL     1     -13.996  32.000  19.570  1.00  0.00    -0.544 OA
ENDBRANCH   2   7
ENDBRANCH   1   2
BRANCH   1  10
ATOM     10  C   UNL     1     -17.037  31.608  17.298  1.00  0.00     0.076 C 
BRANCH  10  11
ATOM     11  S   UNL     1     -16.021  32.769  16.321  1.00  0.00    -0.165 SA
ATOM     12  C   UNL     1     -16.783  32.327  14.727  1.00  0.00     0.085 C 
ENDBRANCH  10  11
ENDBRANCH   1  10
TORSDOF 5
ENDMDL
MODEL 5
REMARK VINA RESULT:    -3.220      1.964      2.219
REMARK INTER + INTRA:          -4.196
REMARK INTER:                  -4.001
REMARK INTRA:                  -0.195
REMARK UNBOUND:                -0.129
REMARK SMILES CSCC[C@@H]([NH3+])C(=O)[O-]
REMARK SMILES IDX 4 1 5 2 6 3 7 7 8 8 9 9 3 10 2 11 1 12
REMARK H PARENT 6 4 6 5 6 6
REMARK Flexibility Score: inf
ROOT
ATOM      1  C   UNL     1     -14.768  33.163  16.972  1.00  0.00     0.082 C 
ENDROOT
BRANCH   1   2
ATOM      2  C   UNL     1     -16.149  32.803  16.380  1.00  0.00     0.228 C 
BRANCH   2   3
ATOM      3  N   UNL     1     -16.028  32.216  15.038  1.00  0.00    -0.350 N 
ATOM      4  H   UNL     1     -16.360  31.224  15.053  1.00  0.00     0.345 HD
ATOM      5  H   UNL     1     -15.035  32.238  14.711  1.00  0.00     0.345 HD
ATOM      6  H   UNL     1     -16.629  32.738  14.361  1.00  0.00     0.345 HD
ENDBRANCH   2   3
BRANCH   2   7
ATOM      7  C   UNL     1     -16.854  31.843  17.300  1.00  0.00     0.099 C 
ATOM      8  O   UNL     1     -18.112  31.776  17.303  1.00  0.00    -0.544 OA
ATOM      9  O   UNL     1     -16.124  31.039  18.168  1.00  0.00    -0.544 OA
ENDBRANCH   2   7
ENDBRANCH   1   2
BRANCH   1  10
ATOM     10  C   UNL     1     -14.752  34.544  17.633  1.00  0.00     0.076 C 
BRANCH  10  11
ATOM     11  S   UNL     1     -14.731  34.359  19.449  1.00  0.00    -0.165 SA
ATOM     12  C   UNL     1     -13.421  33.094  19.454  1.00  0.00     0.085 C 
ENDBRANCH  10  11
ENDBRANCH   1  10
TORSDOF 5
ENDMDL
MODEL 6
REMARK VINA RESULT:    -3.216      3.891      4.899
REMARK INTER + INTRA:          -4.191
REMARK INTER:                  -4.118
REMARK INTRA:                  -0.073
REMARK UNBOUND:                -0.129
REMARK SMILES CSCC[C@@H]([NH3+])C(=O)[O-]
REMARK SMILES IDX 4 1 5 2 6 3 7 7 8 8 9 9 3 10 2 11 1 12
REMARK H PARENT 6 4 6 5 6 6
REMARK Flexibility Score: inf
ROOT
ATOM      1  C   UNL     1     -14.839  32.822  17.963  1.00  0.00     0.082 C 
ENDROOT
BRANCH   1   2
ATOM      2  C   UNL     1     -13.545  33.616  18.249  1.00  0.00     0.228 C 
BRANCH   2   3
ATOM      3  N   UNL     1     -13.225  34.545  17.156  1.00  0.00    -0.350 N 
ATOM      4  H   UNL     1     -14.107  34.943  16.759  1.00  0.00     0.345 HD
ATOM      5  H   UNL     1     -12.699  34.057  16.395  1.00  0.00     0.345 HD
ATOM      6  H   UNL     1     -12.656  35.343  17.517  1.00  0.00     0.345 HD
ENDBRANCH   2   3
BRANCH   2   7
ATOM      7  C   UNL     1     -13.696  34.373  19.541  1.00  0.00     0.099 C 
ATOM      8  O   UNL     1     -12.721  34.479  20.331  1.00  0.00    -0.544 OA
ATOM      9  O   UNL     1     -14.918  34.942  19.881  1.00  0.00    -0.544 OA
ENDBRANCH   2   7
ENDBRANCH   1   2
BRANCH   1  10
ATOM     10  C   UNL     1     -15.506  33.233  16.648  1.00  0.00     0.076 C 
BRANCH  10  11
ATOM     11  S   UNL     1     -16.843  32.059  16.241  1.00  0.00    -0.165 SA
ATOM     12  C   UNL     1     -16.744  32.338  14.444  1.00  0.00     0.085 C 
ENDBRANCH  10  11
ENDBRANCH   1  10
TORSDOF 5
ENDMDL
MODEL 7
REMARK VINA RESULT:    -3.156      3.350      3.740
REMARK INTER + INTRA:          -4.115
REMARK INTER:                  -4.000
REMARK INTRA:                  -0.115
REMARK UNBOUND:                -0.129
REMARK SMILES CSCC[C@@H]([NH3+])C(=O)[O-]
REMARK SMILES IDX 4 1 5 2 6 3 7 7 8 8 9 9 3 10 2 11 1 12
REMARK H PARENT 6 4 6 5 6 6
REMARK Flexibility Score: inf
ROOT
ATOM      1  C   UNL     1     -18.092  31.269  18.758  1.00  0.00     0.082 C 
ENDROOT
BRANCH   1   2
ATOM      2  C   UNL     1     -16.682  31.239  18.126  1.00  0.00     0.228 C 
BRANCH   2   3
ATOM      3  N   UNL     1     -16.240  29.865  17.849  1.00  0.00    -0.350 N 
ATOM      4  H   UNL     1     -15.203  29.794  17.970  1.00  0.00     0.345 HD
ATOM      5  H   UNL     1     -16.489  29.584  16.872  1.00  0.00     0.345 HD
ATOM      6  H   UNL     1     -16.681  29.202  18.525  1.00  0.00     0.345 HD
ENDBRANCH   2   3
BRANCH   2   7
ATOM      7  C   UNL     1     -16.686  32.045  16.855  1.00  0.00     0.099 C 
ATOM      8  O   UNL     1     -15.637  32.627  16.470  1.00  0.00    -0.544 OA
ATOM      9  O   UNL     1     -17.852  32.169  16.107  1.00  0.00    -0.544 OA
ENDBRANCH   2   7
ENDBRANCH   1   2
BRANCH   1  10
ATOM     10  C   UNL     1     -18.059  31.582  20.257  1.00  0.00     0.076 C 
BRANCH  10  11
ATOM     11  S   UNL     1     -16.435  32.285  20.705  1.00  0.00    -0.165 SA
ATOM     12  C   UNL     1     -17.048  33.133  22.196  1.00  0.00     0.085 C 
ENDBRANCH  10  11
ENDBRANCH   1  10
TORSDOF 5
ENDMDL
MODEL 8
REMARK VINA RESULT:    -3.146      3.902      4.650
REMARK INTER + INTRA:          -4.103
REMARK INTER:                  -3.978
REMARK INTRA:                  -0.124
REMARK UNBOUND:                -0.129
REMARK SMILES CSCC[C@@H]([NH3+])C(=O)[O-]
REMARK SMILES IDX 4 1 5 2 6 3 7 7 8 8 9 9 3 10 2 11 1 12
REMARK H PARENT 6 4 6 5 6 6
REMARK Flexibility Score: inf
ROOT
ATOM      1  C   UNL     1     -15.107  33.182  17.651  1.00  0.00     0.082 C 
ENDROOT
BRANCH   1   2
ATOM      2  C   UNL     1     -13.570  33.206  17.498  1.00  0.00     0.228 C 
BRANCH   2   3
ATOM      3  N   UNL     1     -13.068  34.567  17.260  1.00  0.00    -0.350 N 
ATOM      4  H   UNL     1     -13.677  35.053  16.563  1.00  0.00     0.345 HD
ATOM      5  H   UNL     1     -12.087  34.543  16.898  1.00  0.00     0.345 HD
ATOM      6  H   UNL     1     -13.099  35.121  18.145  1.00  0.00     0.345 HD
ENDBRANCH   2   3
BRANCH   2   7
ATOM      7  C   UNL     1     -12.934  32.632  18.736  1.00  0.00     0.099 C 
ATOM      8  O   UNL     1     -11.973  33.229  19.290  1.00  0.00    -0.544 OA
ATOM      9  O   UNL     1     -13.390  31.429  19.265  1.00  0.00    -0.544 OA
ENDBRANCH   2   7
ENDBRANCH   1   2
BRANCH   1  10
ATOM     10  C   UNL     1     -15.833  33.127  16.305  1.00  0.00     0.076 C 
BRANCH  10  11
ATOM     11  S   UNL     1     -17.287  32.030  16.432  1.00  0.00    -0.165 SA
ATOM     12  C   UNL     1     -16.688  31.163  17.917  1.00  0.00     0.085 C 
ENDBRANCH  10  11
ENDBRANCH   1  10
TORSDOF 5
ENDMDL
