MODEL 1
REMARK VINA RESULT:    -4.381      0.000      0.000
REMARK INTER + INTRA:          -7.515
REMARK INTER:                  -6.301
REMARK INTRA:                  -1.213
REMARK UNBOUND:                -1.213
REMARK SMILES O=C(CO)[C@@H](O)[C@H](O)[C@H](O)CO
REMARK SMILES IDX 7 1 9 2 11 3 12 4 10 6 5 8 2 9 1 10 3 11 4 12 6 14 8 16
REMARK H PARENT 12 5 10 7 4 13 6 15 8 17
REMARK Flexibility Score: inf
ROOT
ATOM      1  C   UNL     1      34.624   1.850   8.277  1.00  0.00     0.181 C 
ENDROOT
BRANCH   1   2
ATOM      2  C   UNL     1      33.535   0.789   7.931  1.00  0.00     0.171 C 
BRANCH   2   3
ATOM      3  C   UNL     1      33.831  -0.024   6.653  1.00  0.00     0.190 C 
BRANCH   3   4
ATOM      4  O   UNL     1      33.910   0.830   5.542  1.00  0.00    -0.394 OA
ATOM      5  H   UNL     1      34.016   0.252   4.743  1.00  0.00     0.210 HD
ENDBRANCH   3   4
ENDBRANCH   2   3
BRANCH   2   6
ATOM      6  O   UNL     1      33.359  -0.086   9.019  1.00  0.00    -0.388 OA
ATOM      7  H   UNL     1      34.014   0.173   9.718  1.00  0.00     0.211 HD
ENDBRANCH   2   6
ENDBRANCH   1   2
BRANCH   1   8
ATOM      8  C   UNL     1      34.310   3.282   7.757  1.00  0.00     0.214 C 
BRANCH   8   9
ATOM      9  C   UNL     1      35.382   3.819   6.834  1.00  0.00     0.189 C 
ATOM     10  O   UNL     1      35.446   3.396   5.689  1.00  0.00    -0.294 OA
BRANCH   9  11
ATOM     11  C   UNL     1      36.400   4.821   7.320  1.00  0.00     0.234 C 
BRANCH  11  12
ATOM     12  O   UNL     1      37.534   4.181   7.844  1.00  0.00    -0.388 OA
ATOM     13  H   UNL     1      38.308   4.485   7.302  1.00  0.00     0.211 HD
ENDBRANCH  11  12
ENDBRANCH   9  11
ENDBRANCH   8   9
BRANCH   8  14
ATOM     14  O   UNL     1      33.057   3.307   7.121  1.00  0.00    -0.382 OA
ATOM     15  H   UNL     1      32.509   2.588   7.533  1.00  0.00     0.211 HD
ENDBRANCH   8  14
ENDBRANCH   1   8
BRANCH   1  16
ATOM     16  O   UNL     1      35.888   1.423   7.832  1.00  0.00    -0.387 OA
ATOM     17  H   UNL     1      36.482   2.218   7.840  1.00  0.00     0.211 HD
ENDBRANCH   1  16
TORSDOF 10
ENDMDL
MODEL 2
REMARK VINA RESULT:    -4.378     20.159     21.441
REMARK INTER + INTRA:          -7.511
REMARK INTER:                  -6.265
REMARK INTRA:                  -1.246
REMARK UNBOUND:                -1.213
REMARK SMILES O=C(CO)[C@@H](O)[C@H](O)[C@H](O)CO
REMARK SMILES IDX 7 1 9 2 11 3 12 4 10 6 5 8 2 9 1 10 3 11 4 12 6 14 8 16
REMARK H PARENT 12 5 10 7 4 13 6 15 8 17
REMARK Flexibility Score: inf
ROOT
ATOM      1  C   UNL     1      49.869   9.797  -7.134  1.00  0.00     0.181 C 
ENDROOT
BRANCH   1   2
ATOM      2  C   UNL     1      48.655   8.917  -6.705  1.00  0.00     0.171 C 
BRANCH   2   3
ATOM      3  C   UNL     1      48.280   7.821  -7.725  1.00  0.00     0.190 C 
BRANCH   3   4
ATOM      4  O   UNL     1      49.431   7.141  -8.151  1.00  0.00    -0.394 OA
ATOM      5  H   UNL     1      49.303   6.185  -7.917  1.00  0.00     0.210 HD
ENDBRANCH   3   4
ENDBRANCH   2   3
BRANCH   2   6
ATOM      6  O   UNL     1      48.910   8.331  -5.451  1.00  0.00    -0.388 OA
ATOM      7  H   UNL     1      48.035   8.075  -5.059  1.00  0.00     0.211 HD
ENDBRANCH   2   6
ENDBRANCH   1   2
BRANCH   1   8
ATOM      8  C   UNL     1      50.114  11.035  -6.226  1.00  0.00     0.214 C 
BRANCH   8   9
ATOM      9  C   UNL     1      48.878  11.889  -6.051  1.00  0.00     0.189 C 
ATOM     10  O   UNL     1      48.336  12.360  -7.040  1.00  0.00    -0.294 OA
BRANCH   9  11
ATOM     11  C   UNL     1      48.339  12.209  -4.678  1.00  0.00     0.234 C 
BRANCH  11  12
ATOM     12  O   UNL     1      47.930  11.046  -4.008  1.00  0.00    -0.388 OA
ATOM     13  H   UNL     1      46.953  10.958  -4.163  1.00  0.00     0.211 HD
ENDBRANCH  11  12
ENDBRANCH   9  11
ENDBRANCH   8   9
BRANCH   8  14
ATOM     14  O   UNL     1      50.615  10.633  -4.976  1.00  0.00    -0.382 OA
ATOM     15  H   UNL     1      51.395  10.044  -5.152  1.00  0.00     0.211 HD
ENDBRANCH   8  14
ENDBRANCH   1   8
BRANCH   1  16
ATOM     16  O   UNL     1      49.749  10.181  -8.481  1.00  0.00    -0.387 OA
ATOM     17  H   UNL     1      50.015   9.398  -9.031  1.00  0.00     0.211 HD
ENDBRANCH   1  16
TORSDOF 10
ENDMDL
MODEL 3
REMARK VINA RESULT:    -4.363     20.802     22.936
REMARK INTER + INTRA:          -7.489
REMARK INTER:                  -6.256
REMARK INTRA:                  -1.233
REMARK UNBOUND:                -1.213
REMARK SMILES O=C(CO)[C@@H](O)[C@H](O)[C@H](O)CO
REMARK SMILES IDX 7 1 9 2 11 3 12 4 10 6 5 8 2 9 1 10 3 11 4 12 6 14 8 16
REMARK H PARENT 12 5 10 7 4 13 6 15 8 17
REMARK Flexibility Score: inf
ROOT
ATOM      1  C   UNL     1      49.364  12.305  -8.207  1.00  0.00     0.181 C 
ENDROOT
BRANCH   1   2
ATOM      2  C   UNL     1      49.402  11.995  -9.735  1.00  0.00     0.171 C 
BRANCH   2   3
ATOM      3  C   UNL     1      48.058  11.501 -10.311  1.00  0.00     0.190 C 
BRANCH   3   4
ATOM      4  O   UNL     1      47.638  10.343  -9.638  1.00  0.00    -0.394 OA
ATOM      5  H   UNL     1      48.033   9.572 -10.122  1.00  0.00     0.210 HD
ENDBRANCH   3   4
ENDBRANCH   2   3
BRANCH   2   6
ATOM      6  O   UNL     1      49.831  13.134 -10.442  1.00  0.00    -0.388 OA
ATOM      7  H   UNL     1      50.822  13.159 -10.393  1.00  0.00     0.211 HD
ENDBRANCH   2   6
ENDBRANCH   1   2
BRANCH   1   8
ATOM      8  C   UNL     1      49.894  11.154  -7.307  1.00  0.00     0.214 C 
BRANCH   8   9
ATOM      9  C   UNL     1      48.884  10.701  -6.276  1.00  0.00     0.189 C 
ATOM     10  O   UNL     1      47.965   9.974  -6.624  1.00  0.00    -0.294 OA
BRANCH   9  11
ATOM     11  C   UNL     1      48.962  11.176  -4.845  1.00  0.00     0.234 C 
BRANCH  11  12
ATOM     12  O   UNL     1      48.336  12.423  -4.689  1.00  0.00    -0.388 OA
ATOM     13  H   UNL     1      49.046  13.110  -4.785  1.00  0.00     0.211 HD
ENDBRANCH  11  12
ENDBRANCH   9  11
ENDBRANCH   8   9
BRANCH   8  14
ATOM     14  O   UNL     1      50.309  10.067  -8.097  1.00  0.00    -0.382 OA
ATOM     15  H   UNL     1      50.166  10.327  -9.045  1.00  0.00     0.211 HD
ENDBRANCH   8  14
ENDBRANCH   1   8
BRANCH   1  16
ATOM     16  O   UNL     1      48.070  12.691  -7.814  1.00  0.00    -0.387 OA
ATOM     17  H   UNL     1      47.553  12.861  -8.645  1.00  0.00     0.211 HD
ENDBRANCH   1  16
TORSDOF 10
ENDMDL
MODEL 4
REMARK VINA RESULT:    -4.363      2.143      3.656
REMARK INTER + INTRA:          -7.489
REMARK INTER:                  -6.498
REMARK INTRA:                  -0.991
REMARK UNBOUND:                -1.213
REMARK SMILES O=C(CO)[C@@H](O)[C@H](O)[C@H](O)CO
REMARK SMILES IDX 7 1 9 2 11 3 12 4 10 6 5 8 2 9 1 10 3 11 4 12 6 14 8 16
REMARK H PARENT 12 5 10 7 4 13 6 15 8 17
REMARK Flexibility Score: inf
ROOT
ATOM      1  C   UNL     1      34.044   1.330   5.899  1.00  0.00     0.181 C 
ENDROOT
BRANCH   1   2
ATOM      2  C   UNL     1      34.027   2.821   6.357  1.00  0.00     0.171 C 
BRANCH   2   3
ATOM      3  C   UNL     1      33.649   3.818   5.240  1.00  0.00     0.190 C 
BRANCH   3   4
ATOM      4  O   UNL     1      32.349   3.559   4.779  1.00  0.00    -0.394 OA
ATOM      5  H   UNL     1      32.074   4.346   4.241  1.00  0.00     0.210 HD
ENDBRANCH   3   4
ENDBRANCH   2   3
BRANCH   2   6
ATOM      6  O   UNL     1      33.150   2.975   7.446  1.00  0.00    -0.388 OA
ATOM      7  H   UNL     1      32.392   3.540   7.141  1.00  0.00     0.211 HD
ENDBRANCH   2   6
ENDBRANCH   1   2
BRANCH   1   8
ATOM      8  C   UNL     1      34.907   0.396   6.794  1.00  0.00     0.214 C 
BRANCH   8   9
ATOM      9  C   UNL     1      36.144  -0.115   6.089  1.00  0.00     0.189 C 
ATOM     10  O   UNL     1      36.044  -1.067   5.329  1.00  0.00    -0.294 OA
BRANCH   9  11
ATOM     11  C   UNL     1      37.500   0.494   6.352  1.00  0.00     0.234 C 
BRANCH  11  12
ATOM     12  O   UNL     1      38.009   0.084   7.594  1.00  0.00    -0.388 OA
ATOM     13  H   UNL     1      37.341  -0.539   7.983  1.00  0.00     0.211 HD
ENDBRANCH  11  12
ENDBRANCH   9  11
ENDBRANCH   8   9
BRANCH   8  14
ATOM     14  O   UNL     1      35.257   1.051   7.988  1.00  0.00    -0.382 OA
ATOM     15  H   UNL     1      36.025   1.645   7.778  1.00  0.00     0.211 HD
ENDBRANCH   8  14
ENDBRANCH   1   8
BRANCH   1  16
ATOM     16  O   UNL     1      34.436   1.232   4.552  1.00  0.00    -0.387 OA
ATOM     17  H   UNL     1      34.682   0.284   4.389  1.00  0.00     0.211 HD
ENDBRANCH   1  16
TORSDOF 10
ENDMDL
MODEL 5
REMARK VINA RESULT:    -4.355      2.058      3.090
REMARK INTER + INTRA:          -7.478
REMARK INTER:                  -6.483
REMARK INTRA:                  -0.996
REMARK UNBOUND:                -1.213
REMARK SMILES O=C(CO)[C@@H](O)[C@H](O)[C@H](O)CO
REMARK SMILES IDX 7 1 9 2 11 3 12 4 10 6 5 8 2 9 1 10 3 11 4 12 6 14 8 16
REMARK H PARENT 12 5 10 7 4 13 6 15 8 17
REMARK Flexibility Score: inf
ROOT
ATOM      1  C   UNL     1      35.529   1.846   7.590  1.00  0.00     0.181 C 
ENDROOT
BRANCH   1   2
ATOM      2  C   UNL     1      35.874   0.675   6.620  1.00  0.00     0.171 C 
BRANCH   2   3
ATOM      3  C   UNL     1      37.388   0.475   6.388  1.00  0.00     0.190 C 
BRANCH   3   4
ATOM      4  O   UNL     1      38.030   0.191   7.603  1.00  0.00    -0.394 OA
ATOM      5  H   UNL     1      38.806  -0.390   7.388  1.00  0.00     0.210 HD
ENDBRANCH   3   4
ENDBRANCH   2   3
BRANCH   2   6
ATOM      6  O   UNL     1      35.306  -0.522   7.095  1.00  0.00    -0.388 OA
ATOM      7  H   UNL     1      36.008  -1.223   7.051  1.00  0.00     0.211 HD
ENDBRANCH   2   6
ENDBRANCH   1   2
BRANCH   1   8
ATOM      8  C   UNL     1      34.075   2.380   7.455  1.00  0.00     0.214 C 
BRANCH   8   9
ATOM      9  C   UNL     1      34.000   3.702   6.724  1.00  0.00     0.189 C 
ATOM     10  O   UNL     1      34.154   4.738   7.353  1.00  0.00    -0.294 OA
BRANCH   9  11
ATOM     11  C   UNL     1      33.686   3.762   5.248  1.00  0.00     0.234 C 
BRANCH  11  12
ATOM     12  O   UNL     1      32.323   3.533   5.009  1.00  0.00    -0.388 OA
ATOM     13  H   UNL     1      32.201   2.548   4.982  1.00  0.00     0.211 HD
ENDBRANCH  11  12
ENDBRANCH   9  11
ENDBRANCH   8   9
BRANCH   8  14
ATOM     14  O   UNL     1      33.259   1.424   6.824  1.00  0.00    -0.382 OA
ATOM     15  H   UNL     1      33.860   0.712   6.481  1.00  0.00     0.211 HD
ENDBRANCH   8  14
ENDBRANCH   1   8
BRANCH   1  16
ATOM     16  O   UNL     1      36.460   2.891   7.453  1.00  0.00    -0.387 OA
ATOM     17  H   UNL     1      36.002   3.726   7.734  1.00  0.00     0.211 HD
ENDBRANCH   1  16
TORSDOF 10
ENDMDL
MODEL 6
REMARK VINA RESULT:    -4.355     21.525     22.377
REMARK INTER + INTRA:          -7.478
REMARK INTER:                  -6.498
REMARK INTRA:                  -0.980
REMARK UNBOUND:                -1.213
REMARK SMILES O=C(CO)[C@@H](O)[C@H](O)[C@H](O)CO
REMARK SMILES IDX 7 1 9 2 11 3 12 4 10 6 5 8 2 9 1 10 3 11 4 12 6 14 8 16
REMARK H PARENT 12 5 10 7 4 13 6 15 8 17
REMARK Flexibility Score: inf
ROOT
ATOM      1  C   UNL     1      48.086  10.409  -9.028  1.00  0.00     0.181 C 
ENDROOT
BRANCH   1   2
ATOM      2  C   UNL     1      49.027  10.147  -7.814  1.00  0.00     0.171 C 
BRANCH   2   3
ATOM      3  C   UNL     1      49.028   8.683  -7.322  1.00  0.00     0.190 C 
BRANCH   3   4
ATOM      4  O   UNL     1      49.499   7.833  -8.334  1.00  0.00    -0.394 OA
ATOM      5  H   UNL     1      49.461   6.909  -7.972  1.00  0.00     0.210 HD
ENDBRANCH   3   4
ENDBRANCH   2   3
BRANCH   2   6
ATOM      6  O   UNL     1      50.340  10.540  -8.134  1.00  0.00    -0.388 OA
ATOM      7  H   UNL     1      50.280  11.212  -8.863  1.00  0.00     0.211 HD
ENDBRANCH   2   6
ENDBRANCH   1   2
BRANCH   1   8
ATOM      8  C   UNL     1      47.650  11.893  -9.192  1.00  0.00     0.214 C 
BRANCH   8   9
ATOM      9  C   UNL     1      46.182  12.110  -8.900  1.00  0.00     0.189 C 
ATOM     10  O   UNL     1      45.357  11.816  -9.753  1.00  0.00    -0.294 OA
BRANCH   9  11
ATOM     11  C   UNL     1      45.728  12.731  -7.601  1.00  0.00     0.234 C 
BRANCH  11  12
ATOM     12  O   UNL     1      45.855  14.128  -7.634  1.00  0.00    -0.388 OA
ATOM     13  H   UNL     1      46.224  14.400  -6.754  1.00  0.00     0.211 HD
ENDBRANCH  11  12
ENDBRANCH   9  11
ENDBRANCH   8   9
BRANCH   8  14
ATOM     14  O   UNL     1      48.441  12.726  -8.381  1.00  0.00    -0.382 OA
ATOM     15  H   UNL     1      49.368  12.372  -8.419  1.00  0.00     0.211 HD
ENDBRANCH   8  14
ENDBRANCH   1   8
BRANCH   1  16
ATOM     16  O   UNL     1      46.964   9.562  -8.975  1.00  0.00    -0.387 OA
ATOM     17  H   UNL     1      47.044   8.927  -9.733  1.00  0.00     0.211 HD
ENDBRANCH   1  16
TORSDOF 10
ENDMDL
MODEL 7
REMARK VINA RESULT:    -4.330      1.923      3.541
REMARK INTER + INTRA:          -7.442
REMARK INTER:                  -5.978
REMARK INTRA:                  -1.464
REMARK UNBOUND:                -1.213
REMARK SMILES O=C(CO)[C@@H](O)[C@H](O)[C@H](O)CO
REMARK SMILES IDX 7 1 9 2 11 3 12 4 10 6 5 8 2 9 1 10 3 11 4 12 6 14 8 16
REMARK H PARENT 12 5 10 7 4 13 6 15 8 17
REMARK Flexibility Score: inf
ROOT
ATOM      1  C   UNL     1      33.535   0.407   6.569  1.00  0.00     0.181 C 
ENDROOT
BRANCH   1   2
ATOM      2  C   UNL     1      33.634   0.611   8.111  1.00  0.00     0.171 C 
BRANCH   2   3
ATOM      3  C   UNL     1      34.194   1.988   8.529  1.00  0.00     0.190 C 
BRANCH   3   4
ATOM      4  O   UNL     1      35.482   2.167   8.004  1.00  0.00    -0.394 OA
ATOM      5  H   UNL     1      35.370   2.475   7.067  1.00  0.00     0.210 HD
ENDBRANCH   3   4
ENDBRANCH   2   3
BRANCH   2   6
ATOM      6  O   UNL     1      32.372   0.414   8.701  1.00  0.00    -0.388 OA
ATOM      7  H   UNL     1      31.708   0.917   8.160  1.00  0.00     0.211 HD
ENDBRANCH   2   6
ENDBRANCH   1   2
BRANCH   1   8
ATOM      8  C   UNL     1      34.665  -0.475   5.966  1.00  0.00     0.214 C 
BRANCH   8   9
ATOM      9  C   UNL     1      35.138   0.018   4.617  1.00  0.00     0.189 C 
ATOM     10  O   UNL     1      34.451  -0.203   3.630  1.00  0.00    -0.294 OA
BRANCH   9  11
ATOM     11  C   UNL     1      36.463   0.724   4.464  1.00  0.00     0.234 C 
BRANCH  11  12
ATOM     12  O   UNL     1      36.537   1.851   5.297  1.00  0.00    -0.388 OA
ATOM     13  H   UNL     1      35.614   2.029   5.615  1.00  0.00     0.211 HD
ENDBRANCH  11  12
ENDBRANCH   9  11
ENDBRANCH   8   9
BRANCH   8  14
ATOM     14  O   UNL     1      35.744  -0.566   6.862  1.00  0.00    -0.382 OA
ATOM     15  H   UNL     1      36.575  -0.541   6.317  1.00  0.00     0.211 HD
ENDBRANCH   8  14
ENDBRANCH   1   8
BRANCH   1  16
ATOM     16  O   UNL     1      33.465   1.648   5.910  1.00  0.00    -0.387 OA
ATOM     17  H   UNL     1      32.604   2.067   6.171  1.00  0.00     0.211 HD
ENDBRANCH   1  16
TORSDOF 10
ENDMDL
MODEL 8
REMARK VINA RESULT:    -4.313     20.863     23.007
REMARK INTER + INTRA:          -7.417
REMARK INTER:                  -6.192
REMARK INTRA:                  -1.225
REMARK UNBOUND:                -1.213
REMARK SMILES O=C(CO)[C@@H](O)[C@H](O)[C@H](O)CO
REMARK SMILES IDX 7 1 9 2 11 3 12 4 10 6 5 8 2 9 1 10 3 11 4 12 6 14 8 16
REMARK H PARENT 12 5 10 7 4 13 6 15 8 17
REMARK Flexibility Score: inf
ROOT
ATOM      1  C   UNL     1      48.155  11.114  -9.983  1.00  0.00     0.181 C 
ENDROOT
BRANCH   1   2
ATOM      2  C   UNL     1      49.216  12.204  -9.643  1.00  0.00     0.171 C 
BRANCH   2   3
ATOM      3  C   UNL     1      49.847  12.053  -8.242  1.00  0.00     0.190 C 
BRANCH   3   4
ATOM      4  O   UNL     1      48.857  12.145  -7.252  1.00  0.00    -0.394 OA
ATOM      5  H   UNL     1      48.121  12.692  -7.632  1.00  0.00     0.210 HD
ENDBRANCH   3   4
ENDBRANCH   2   3
BRANCH   2   6
ATOM      6  O   UNL     1      50.229  12.206 -10.620  1.00  0.00    -0.388 OA
ATOM      7  H   UNL     1      50.822  12.980 -10.434  1.00  0.00     0.211 HD
ENDBRANCH   2   6
ENDBRANCH   1   2
BRANCH   1   8
ATOM      8  C   UNL     1      46.682  11.573  -9.789  1.00  0.00     0.214 C 
BRANCH   8   9
ATOM      9  C   UNL     1      45.922  10.708  -8.808  1.00  0.00     0.189 C 
ATOM     10  O   UNL     1      46.119  10.855  -7.611  1.00  0.00    -0.294 OA
BRANCH   9  11
ATOM     11  C   UNL     1      44.972   9.637  -9.285  1.00  0.00     0.234 C 
BRANCH  11  12
ATOM     12  O   UNL     1      45.621   8.399  -9.407  1.00  0.00    -0.388 OA
ATOM     13  H   UNL     1      46.523   8.587  -9.778  1.00  0.00     0.211 HD
ENDBRANCH  11  12
ENDBRANCH   9  11
ENDBRANCH   8   9
BRANCH   8  14
ATOM     14  O   UNL     1      46.638  12.921  -9.391  1.00  0.00    -0.382 OA
ATOM     15  H   UNL     1      47.295  13.410  -9.954  1.00  0.00     0.211 HD
ENDBRANCH   8  14
ENDBRANCH   1   8
BRANCH   1  16
ATOM     16  O   UNL     1      48.410   9.934  -9.262  1.00  0.00    -0.387 OA
ATOM     17  H   UNL     1      48.530  10.196  -8.311  1.00  0.00     0.211 HD
ENDBRANCH   1  16
TORSDOF 10
ENDMDL
MODEL 9
REMARK VINA RESULT:    -4.312      2.285      3.467
REMARK INTER + INTRA:          -7.416
REMARK INTER:                  -6.129
REMARK INTRA:                  -1.286
REMARK UNBOUND:                -1.213
REMARK SMILES O=C(CO)[C@@H](O)[C@H](O)[C@H](O)CO
REMARK SMILES IDX 7 1 9 2 11 3 12 4 10 6 5 8 2 9 1 10 3 11 4 12 6 14 8 16
REMARK H PARENT 12 5 10 7 4 13 6 15 8 17
REMARK Flexibility Score: inf
ROOT
ATOM      1  C   UNL     1      33.666   3.927   6.367  1.00  0.00     0.181 C 
ENDROOT
BRANCH   1   2
ATOM      2  C   UNL     1      34.460   3.994   5.027  1.00  0.00     0.171 C 
BRANCH   2   3
ATOM      3  C   UNL     1      33.666   3.501   3.799  1.00  0.00     0.190 C 
BRANCH   3   4
ATOM      4  O   UNL     1      32.324   3.898   3.898  1.00  0.00    -0.394 OA
ATOM      5  H   UNL     1      32.033   4.159   2.986  1.00  0.00     0.210 HD
ENDBRANCH   3   4
ENDBRANCH   2   3
BRANCH   2   6
ATOM      6  O   UNL     1      34.908   5.310   4.804  1.00  0.00    -0.388 OA
ATOM      7  H   UNL     1      35.710   5.452   5.372  1.00  0.00     0.211 HD
ENDBRANCH   2   6
ENDBRANCH   1   2
BRANCH   1   8
ATOM      8  C   UNL     1      34.473   4.388   7.613  1.00  0.00     0.214 C 
BRANCH   8   9
ATOM      9  C   UNL     1      35.764   3.620   7.793  1.00  0.00     0.189 C 
ATOM     10  O   UNL     1      35.720   2.405   7.923  1.00  0.00    -0.294 OA
BRANCH   9  11
ATOM     11  C   UNL     1      37.093   4.333   7.869  1.00  0.00     0.234 C 
BRANCH  11  12
ATOM     12  O   UNL     1      37.313   5.120   6.729  1.00  0.00    -0.388 OA
ATOM     13  H   UNL     1      38.297   5.209   6.630  1.00  0.00     0.211 HD
ENDBRANCH  11  12
ENDBRANCH   9  11
ENDBRANCH   8   9
BRANCH   8  14
ATOM     14  O   UNL     1      34.729   5.769   7.547  1.00  0.00    -0.382 OA
ATOM     15  H   UNL     1      34.272   6.109   6.734  1.00  0.00     0.211 HD
ENDBRANCH   8  14
ENDBRANCH   1   8
BRANCH   1  16
ATOM     16  O   UNL     1      33.136   2.639   6.563  1.00  0.00    -0.387 OA
ATOM     17  H   UNL     1      33.906   2.022   6.671  1.00  0.00     0.211 HD
ENDBRANCH   1  16
TORSDOF 10
ENDMDL
