MODEL 1
REMARK VINA RESULT:    -4.658      0.000      0.000
REMARK INTER + INTRA:          -7.756
REMARK INTER:                  -6.292
REMARK INTRA:                  -1.464
REMARK UNBOUND:                -1.464
REMARK SMILES CC(=O)CCC=C(C)CCC=C(C)C
REMARK SMILES IDX 7 1 6 2 8 3 9 4 10 5 11 6 13 7 12 8 14 9 5 10 4 11 2 12 3 13
REMARK SMILES IDX 1 14
REMARK H PARENT
REMARK Flexibility Score: inf
ROOT
ATOM      1  C   UNL     1     -12.981  15.622 -30.612  1.00  0.00    -0.077 C 
ATOM      2  C   UNL     1     -13.013  14.743 -31.640  1.00  0.00    -0.028 C 
ATOM      3  C   UNL     1     -13.883  16.835 -30.573  1.00  0.00     0.039 C 
ENDROOT
BRANCH   1   4
ATOM      4  C   UNL     1     -12.005  15.395 -29.479  1.00  0.00     0.034 C 
BRANCH   4   5
ATOM      5  C   UNL     1     -11.924  13.907 -29.122  1.00  0.00     0.032 C 
BRANCH   5   6
ATOM      6  C   UNL     1     -12.984  13.541 -28.114  1.00  0.00    -0.028 C 
ATOM      7  C   UNL     1     -14.066  11.862 -29.625  1.00  0.00     0.039 C 
ATOM      8  C   UNL     1     -13.968  12.641 -28.334  1.00  0.00    -0.080 C 
ATOM      9  C   UNL     1     -14.984  12.406 -27.246  1.00  0.00     0.039 C 
ENDBRANCH   5   6
ENDBRANCH   4   5
ENDBRANCH   1   4
BRANCH   2  10
ATOM     10  C   UNL     1     -13.968  14.825 -32.803  1.00  0.00     0.035 C 
BRANCH  10  11
ATOM     11  C   UNL     1     -15.111  13.819 -32.635  1.00  0.00     0.079 C 
BRANCH  11  12
ATOM     12  C   UNL     1     -16.328  14.488 -32.058  1.00  0.00     0.130 C 
ATOM     13  O   UNL     1     -17.033  15.185 -32.772  1.00  0.00    -0.300 OA
ATOM     14  C   UNL     1     -16.694  14.286 -30.619  1.00  0.00     0.087 C 
ENDBRANCH  11  12
ENDBRANCH  10  11
ENDBRANCH   2  10
TORSDOF 6
ENDMDL
MODEL 2
REMARK VINA RESULT:    -4.342      1.141      1.991
REMARK INTER + INTRA:          -7.328
REMARK INTER:                  -6.291
REMARK INTRA:                  -1.037
REMARK UNBOUND:                -1.464
REMARK SMILES CC(=O)CCC=C(C)CCC=C(C)C
REMARK SMILES IDX 7 1 6 2 8 3 9 4 10 5 11 6 13 7 12 8 14 9 5 10 4 11 2 12 3 13
REMARK SMILES IDX 1 14
REMARK H PARENT
REMARK Flexibility Score: inf
ROOT
ATOM      1  C   UNL     1     -12.092  15.394 -30.942  1.00  0.00    -0.077 C 
ATOM      2  C   UNL     1     -13.100  16.083 -30.360  1.00  0.00    -0.028 C 
ATOM      3  C   UNL     1     -12.145  14.981 -32.395  1.00  0.00     0.039 C 
ENDROOT
BRANCH   1   4
ATOM      4  C   UNL     1     -10.886  15.012 -30.112  1.00  0.00     0.034 C 
BRANCH   4   5
ATOM      5  C   UNL     1     -10.955  13.538 -29.700  1.00  0.00     0.032 C 
BRANCH   5   6
ATOM      6  C   UNL     1     -12.359  13.159 -29.299  1.00  0.00    -0.028 C 
ATOM      7  C   UNL     1     -12.011  13.778 -26.897  1.00  0.00     0.039 C 
ATOM      8  C   UNL     1     -12.840  13.238 -28.039  1.00  0.00    -0.080 C 
ATOM      9  C   UNL     1     -14.254  12.786 -27.779  1.00  0.00     0.039 C 
ENDBRANCH   5   6
ENDBRANCH   4   5
ENDBRANCH   1   4
BRANCH   2  10
ATOM     10  C   UNL     1     -14.332  16.567 -31.083  1.00  0.00     0.035 C 
BRANCH  10  11
ATOM     11  C   UNL     1     -15.554  15.733 -30.685  1.00  0.00     0.079 C 
BRANCH  11  12
ATOM     12  C   UNL     1     -15.868  14.712 -31.744  1.00  0.00     0.130 C 
ATOM     13  O   UNL     1     -16.519  15.036 -32.725  1.00  0.00    -0.300 OA
ATOM     14  C   UNL     1     -15.367  13.305 -31.613  1.00  0.00     0.087 C 
ENDBRANCH  11  12
ENDBRANCH  10  11
ENDBRANCH   2  10
TORSDOF 6
ENDMDL
MODEL 3
REMARK VINA RESULT:    -4.330      1.240      3.697
REMARK INTER + INTRA:          -7.313
REMARK INTER:                  -6.247
REMARK INTRA:                  -1.066
REMARK UNBOUND:                -1.464
REMARK SMILES CC(=O)CCC=C(C)CCC=C(C)C
REMARK SMILES IDX 7 1 6 2 8 3 9 4 10 5 11 6 13 7 12 8 14 9 5 10 4 11 2 12 3 13
REMARK SMILES IDX 1 14
REMARK H PARENT
REMARK Flexibility Score: inf
ROOT
ATOM      1  C   UNL     1     -13.327  13.345 -29.268  1.00  0.00    -0.077 C 
ATOM      2  C   UNL     1     -14.542  13.918 -29.421  1.00  0.00    -0.028 C 
ATOM      3  C   UNL     1     -13.058  11.921 -29.699  1.00  0.00     0.039 C 
ENDROOT
BRANCH   1   4
ATOM      4  C   UNL     1     -12.210  14.145 -28.635  1.00  0.00     0.034 C 
BRANCH   4   5
ATOM      5  C   UNL     1     -11.890  15.388 -29.471  1.00  0.00     0.032 C 
BRANCH   5   6
ATOM      6  C   UNL     1     -11.394  14.999 -30.841  1.00  0.00    -0.028 C 
ATOM      7  C   UNL     1     -13.148  16.334 -32.030  1.00  0.00     0.039 C 
ATOM      8  C   UNL     1     -11.964  15.396 -32.000  1.00  0.00    -0.080 C 
ATOM      9  C   UNL     1     -11.382  14.893 -33.296  1.00  0.00     0.039 C 
ENDBRANCH   5   6
ENDBRANCH   4   5
ENDBRANCH   1   4
BRANCH   2  10
ATOM     10  C   UNL     1     -15.723  13.252 -30.080  1.00  0.00     0.035 C 
BRANCH  10  11
ATOM     11  C   UNL     1     -16.676  14.299 -30.666  1.00  0.00     0.079 C 
BRANCH  11  12
ATOM     12  C   UNL     1     -16.408  14.501 -32.132  1.00  0.00     0.130 C 
ATOM     13  O   UNL     1     -17.124  15.247 -32.783  1.00  0.00    -0.300 OA
ATOM     14  C   UNL     1     -15.253  13.812 -32.793  1.00  0.00     0.087 C 
ENDBRANCH  11  12
ENDBRANCH  10  11
ENDBRANCH   2  10
TORSDOF 6
ENDMDL
MODEL 4
REMARK VINA RESULT:    -4.328      2.466      4.242
REMARK INTER + INTRA:          -7.309
REMARK INTER:                  -6.025
REMARK INTRA:                  -1.284
REMARK UNBOUND:                -1.464
REMARK SMILES CC(=O)CCC=C(C)CCC=C(C)C
REMARK SMILES IDX 7 1 6 2 8 3 9 4 10 5 11 6 13 7 12 8 14 9 5 10 4 11 2 12 3 13
REMARK SMILES IDX 1 14
REMARK H PARENT
REMARK Flexibility Score: inf
ROOT
ATOM      1  C   UNL     1     -13.035  15.677 -31.060  1.00  0.00    -0.077 C 
ATOM      2  C   UNL     1     -12.578  15.656 -29.787  1.00  0.00    -0.028 C 
ATOM      3  C   UNL     1     -12.270  15.030 -32.192  1.00  0.00     0.039 C 
ENDROOT
BRANCH   1   4
ATOM      4  C   UNL     1     -14.339  16.382 -31.362  1.00  0.00     0.034 C 
BRANCH   4   5
ATOM      5  C   UNL     1     -15.464  15.368 -31.591  1.00  0.00     0.032 C 
BRANCH   5   6
ATOM      6  C   UNL     1     -16.128  15.003 -30.287  1.00  0.00    -0.028 C 
ATOM      7  C   UNL     1     -15.110  12.715 -30.226  1.00  0.00     0.039 C 
ATOM      8  C   UNL     1     -15.999  13.805 -29.674  1.00  0.00    -0.080 C 
ATOM      9  C   UNL     1     -16.756  13.568 -28.393  1.00  0.00     0.039 C 
ENDBRANCH   5   6
ENDBRANCH   4   5
ENDBRANCH   1   4
BRANCH   2  10
ATOM     10  C   UNL     1     -11.323  14.948 -29.342  1.00  0.00     0.035 C 
BRANCH  10  11
ATOM     11  C   UNL     1     -11.663  13.604 -28.690  1.00  0.00     0.079 C 
BRANCH  11  12
ATOM     12  C   UNL     1     -12.299  13.812 -27.343  1.00  0.00     0.130 C 
ATOM     13  O   UNL     1     -11.944  14.747 -26.643  1.00  0.00    -0.300 OA
ATOM     14  C   UNL     1     -13.381  12.892 -26.865  1.00  0.00     0.087 C 
ENDBRANCH  11  12
ENDBRANCH  10  11
ENDBRANCH   2  10
TORSDOF 6
ENDMDL
MODEL 5
REMARK VINA RESULT:    -4.320      2.540      4.566
REMARK INTER + INTRA:          -7.299
REMARK INTER:                  -6.525
REMARK INTRA:                  -0.774
REMARK UNBOUND:                -1.464
REMARK SMILES CC(=O)CCC=C(C)CCC=C(C)C
REMARK SMILES IDX 7 1 6 2 8 3 9 4 10 5 11 6 13 7 12 8 14 9 5 10 4 11 2 12 3 13
REMARK SMILES IDX 1 14
REMARK H PARENT
REMARK Flexibility Score: inf
ROOT
ATOM      1  C   UNL     1     -14.305  15.816 -30.935  1.00  0.00    -0.077 C 
ATOM      2  C   UNL     1     -13.375  14.944 -30.484  1.00  0.00    -0.028 C 
ATOM      3  C   UNL     1     -14.201  17.300 -30.667  1.00  0.00     0.039 C 
ENDROOT
BRANCH   1   4
ATOM      4  C   UNL     1     -15.490  15.291 -31.715  1.00  0.00     0.034 C 
BRANCH   4   5
ATOM      5  C   UNL     1     -15.803  13.844 -31.319  1.00  0.00     0.032 C 
BRANCH   5   6
ATOM      6  C   UNL     1     -17.275  13.671 -31.045  1.00  0.00    -0.028 C 
ATOM      7  C   UNL     1     -16.979  13.694 -28.558  1.00  0.00     0.039 C 
ATOM      8  C   UNL     1     -17.816  13.576 -29.811  1.00  0.00    -0.080 C 
ATOM      9  C   UNL     1     -19.304  13.364 -29.692  1.00  0.00     0.039 C 
ENDBRANCH   5   6
ENDBRANCH   4   5
ENDBRANCH   1   4
BRANCH   2  10
ATOM     10  C   UNL     1     -12.124  15.339 -29.740  1.00  0.00     0.035 C 
BRANCH  10  11
ATOM     11  C   UNL     1     -11.565  14.149 -28.954  1.00  0.00     0.079 C 
BRANCH  11  12
ATOM     12  C   UNL     1     -12.115  14.130 -27.554  1.00  0.00     0.130 C 
ATOM     13  O   UNL     1     -11.932  15.087 -26.817  1.00  0.00    -0.300 OA
ATOM     14  C   UNL     1     -12.905  12.954 -27.066  1.00  0.00     0.087 C 
ENDBRANCH  11  12
ENDBRANCH  10  11
ENDBRANCH   2  10
TORSDOF 6
ENDMDL
MODEL 6
REMARK VINA RESULT:    -4.194      2.146      5.029
REMARK INTER + INTRA:          -7.128
REMARK INTER:                  -5.679
REMARK INTRA:                  -1.449
REMARK UNBOUND:                -1.464
REMARK SMILES CC(=O)CCC=C(C)CCC=C(C)C
REMARK SMILES IDX 7 1 6 2 8 3 9 4 10 5 11 6 13 7 12 8 14 9 5 10 4 11 2 12 3 13
REMARK SMILES IDX 1 14
REMARK H PARENT
REMARK Flexibility Score: inf
ROOT
ATOM      1  C   UNL     1     -16.431  13.040 -29.803  1.00  0.00    -0.077 C 
ATOM      2  C   UNL     1     -15.384  12.242 -30.111  1.00  0.00    -0.028 C 
ATOM      3  C   UNL     1     -16.756  13.412 -28.374  1.00  0.00     0.039 C 
ENDROOT
BRANCH   1   4
ATOM      4  C   UNL     1     -17.311  13.563 -30.917  1.00  0.00     0.034 C 
BRANCH   4   5
ATOM      5  C   UNL     1     -16.479  14.323 -31.955  1.00  0.00     0.032 C 
BRANCH   5   6
ATOM      6  C   UNL     1     -15.844  15.546 -31.343  1.00  0.00    -0.028 C 
ATOM      7  C   UNL     1     -13.537  14.919 -32.090  1.00  0.00     0.039 C 
ATOM      8  C   UNL     1     -14.520  15.815 -31.373  1.00  0.00    -0.080 C 
ATOM      9  C   UNL     1     -14.024  17.059 -30.681  1.00  0.00     0.039 C 
ENDBRANCH   5   6
ENDBRANCH   4   5
ENDBRANCH   1   4
BRANCH   2  10
ATOM     10  C   UNL     1     -14.402  11.695 -29.105  1.00  0.00     0.035 C 
BRANCH  10  11
ATOM     11  C   UNL     1     -13.021  12.329 -29.299  1.00  0.00     0.079 C 
BRANCH  11  12
ATOM     12  C   UNL     1     -12.831  13.487 -28.358  1.00  0.00     0.130 C 
ATOM     13  O   UNL     1     -13.386  13.483 -27.270  1.00  0.00    -0.300 OA
ATOM     14  C   UNL     1     -11.945  14.635 -28.739  1.00  0.00     0.087 C 
ENDBRANCH  11  12
ENDBRANCH  10  11
ENDBRANCH   2  10
TORSDOF 6
ENDMDL
MODEL 7
REMARK VINA RESULT:    -4.189      1.529      2.389
REMARK INTER + INTRA:          -7.122
REMARK INTER:                  -5.853
REMARK INTRA:                  -1.269
REMARK UNBOUND:                -1.464
REMARK SMILES CC(=O)CCC=C(C)CCC=C(C)C
REMARK SMILES IDX 7 1 6 2 8 3 9 4 10 5 11 6 13 7 12 8 14 9 5 10 4 11 2 12 3 13
REMARK SMILES IDX 1 14
REMARK H PARENT
REMARK Flexibility Score: inf
ROOT
ATOM      1  C   UNL     1     -13.775  15.841 -31.591  1.00  0.00    -0.077 C 
ATOM      2  C   UNL     1     -14.694  14.938 -32.002  1.00  0.00    -0.028 C 
ATOM      3  C   UNL     1     -14.163  17.066 -30.795  1.00  0.00     0.039 C 
ENDROOT
BRANCH   1   4
ATOM      4  C   UNL     1     -12.321  15.630 -31.952  1.00  0.00     0.034 C 
BRANCH   4   5
ATOM      5  C   UNL     1     -11.777  14.359 -31.292  1.00  0.00     0.032 C 
BRANCH   5   6
ATOM      6  C   UNL     1     -11.591  14.564 -29.809  1.00  0.00    -0.028 C 
ATOM      7  C   UNL     1     -13.258  12.799 -29.194  1.00  0.00     0.039 C 
ATOM      8  C   UNL     1     -12.267  13.888 -28.854  1.00  0.00    -0.080 C 
ATOM      9  C   UNL     1     -12.005  14.229 -27.410  1.00  0.00     0.039 C 
ENDBRANCH   5   6
ENDBRANCH   4   5
ENDBRANCH   1   4
BRANCH   2  10
ATOM     10  C   UNL     1     -16.163  15.003 -31.670  1.00  0.00     0.035 C 
BRANCH  10  11
ATOM     11  C   UNL     1     -16.592  13.767 -30.873  1.00  0.00     0.079 C 
BRANCH  11  12
ATOM     12  C   UNL     1     -16.742  14.101 -29.414  1.00  0.00     0.130 C 
ATOM     13  O   UNL     1     -16.655  15.262 -29.045  1.00  0.00    -0.300 OA
ATOM     14  C   UNL     1     -17.020  13.019 -28.414  1.00  0.00     0.087 C 
ENDBRANCH  11  12
ENDBRANCH  10  11
ENDBRANCH   2  10
TORSDOF 6
ENDMDL
MODEL 8
REMARK VINA RESULT:    -4.122     10.256     13.075
REMARK INTER + INTRA:          -7.031
REMARK INTER:                  -6.479
REMARK INTRA:                  -0.552
REMARK UNBOUND:                -1.464
REMARK SMILES CC(=O)CCC=C(C)CCC=C(C)C
REMARK SMILES IDX 7 1 6 2 8 3 9 4 10 5 11 6 13 7 12 8 14 9 5 10 4 11 2 12 3 13
REMARK SMILES IDX 1 14
REMARK H PARENT
REMARK Flexibility Score: inf
ROOT
ATOM      1  C   UNL     1     -26.200  11.975 -28.508  1.00  0.00    -0.077 C 
ATOM      2  C   UNL     1     -25.847  12.880 -29.449  1.00  0.00    -0.028 C 
ATOM      3  C   UNL     1     -25.168  11.172 -27.749  1.00  0.00     0.039 C 
ENDROOT
BRANCH   1   4
ATOM      4  C   UNL     1     -27.667  11.747 -28.219  1.00  0.00     0.034 C 
BRANCH   4   5
ATOM      5  C   UNL     1     -28.532  12.776 -28.955  1.00  0.00     0.032 C 
BRANCH   5   6
ATOM      6  C   UNL     1     -29.653  12.098 -29.699  1.00  0.00    -0.028 C 
ATOM      7  C   UNL     1     -28.171  11.353 -31.576  1.00  0.00     0.039 C 
ATOM      8  C   UNL     1     -29.512  11.476 -30.891  1.00  0.00    -0.080 C 
ATOM      9  C   UNL     1     -30.734  10.875 -31.538  1.00  0.00     0.039 C 
ENDBRANCH   5   6
ENDBRANCH   4   5
ENDBRANCH   1   4
BRANCH   2  10
ATOM     10  C   UNL     1     -24.424  13.237 -29.799  1.00  0.00     0.035 C 
BRANCH  10  11
ATOM     11  C   UNL     1     -24.329  14.700 -30.244  1.00  0.00     0.079 C 
BRANCH  11  12
ATOM     12  C   UNL     1     -22.973  14.991 -30.827  1.00  0.00     0.130 C 
ATOM     13  O   UNL     1     -22.880  15.675 -31.835  1.00  0.00    -0.300 OA
ATOM     14  C   UNL     1     -21.735  14.466 -30.166  1.00  0.00     0.087 C 
ENDBRANCH  11  12
ENDBRANCH  10  11
ENDBRANCH   2  10
TORSDOF 6
ENDMDL
MODEL 9
REMARK VINA RESULT:    -4.068      1.745      3.892
REMARK INTER + INTRA:          -6.959
REMARK INTER:                  -5.910
REMARK INTRA:                  -1.049
REMARK UNBOUND:                -1.464
REMARK SMILES CC(=O)CCC=C(C)CCC=C(C)C
REMARK SMILES IDX 7 1 6 2 8 3 9 4 10 5 11 6 13 7 12 8 14 9 5 10 4 11 2 12 3 13
REMARK SMILES IDX 1 14
REMARK H PARENT
REMARK Flexibility Score: inf
ROOT
ATOM      1  C   UNL     1     -16.860  12.303 -28.257  1.00  0.00    -0.077 C 
ATOM      2  C   UNL     1     -16.807  13.627 -28.531  1.00  0.00    -0.028 C 
ATOM      3  C   UNL     1     -17.511  11.320 -29.202  1.00  0.00     0.039 C 
ENDROOT
BRANCH   1   4
ATOM      4  C   UNL     1     -16.267  11.796 -26.961  1.00  0.00     0.034 C 
BRANCH   4   5
ATOM      5  C   UNL     1     -14.853  11.250 -27.188  1.00  0.00     0.032 C 
BRANCH   5   6
ATOM      6  C   UNL     1     -13.815  12.269 -26.789  1.00  0.00    -0.028 C 
ATOM      7  C   UNL     1     -13.264  12.871 -29.157  1.00  0.00     0.039 C 
ATOM      8  C   UNL     1     -13.076  12.987 -27.663  1.00  0.00    -0.080 C 
ATOM      9  C   UNL     1     -12.045  13.943 -27.117  1.00  0.00     0.039 C 
ENDBRANCH   5   6
ENDBRANCH   4   5
ENDBRANCH   1   4
BRANCH   2  10
ATOM     10  C   UNL     1     -17.314  14.256 -29.804  1.00  0.00     0.035 C 
BRANCH  10  11
ATOM     11  C   UNL     1     -16.197  15.038 -30.502  1.00  0.00     0.079 C 
BRANCH  11  12
ATOM     12  C   UNL     1     -16.194  14.757 -31.979  1.00  0.00     0.130 C 
ATOM     13  O   UNL     1     -17.098  15.186 -32.681  1.00  0.00    -0.300 OA
ATOM     14  C   UNL     1     -15.076  13.974 -32.600  1.00  0.00     0.087 C 
ENDBRANCH  11  12
ENDBRANCH  10  11
ENDBRANCH   2  10
TORSDOF 6
ENDMDL
