MODEL 1
REMARK VINA RESULT:    -7.468      0.000      0.000
REMARK INTER + INTRA:          -9.387
REMARK INTER:                  -8.559
REMARK INTRA:                  -0.828
REMARK UNBOUND:                -0.828
REMARK SMILES C=C(C)[C@H]1CC[C@@]2(C(=O)[O-])CC[C@@]3(C)[C@@H](CC[C@@H]4[C@@]5(C)CC[C@H](O)C(C)(C)[C@H]5CC[C@@]43C)[C@@H]12
REMARK SMILES IDX 7 1 6 2 33 3 11 4 5 5 15 6 4 7 12 8 16 9 13 10 17 11 31 12
REMARK SMILES IDX 14 13 18 14 30 15 32 16 19 17 29 18 21 19 20 20 28 21 22 22
REMARK SMILES IDX 25 23 23 24 26 25 27 26 8 27 9 28 10 29 2 30 3 31 1 32 24 33
REMARK H PARENT 24 34
REMARK Flexibility Score: inf
ROOT
ATOM      1  C   UNL     1      92.509   3.834 -27.336  1.00  0.00     0.014 C 
ATOM      2  C   UNL     1      93.952   3.338 -27.608  1.00  0.00     0.014 C 
ATOM      3  C   UNL     1      92.552   4.444 -25.899  1.00  0.00     0.012 C 
ATOM      4  C   UNL     1      91.512   2.645 -27.410  1.00  0.00     0.014 C 
ATOM      5  C   UNL     1      94.832   3.844 -26.468  1.00  0.00     0.009 C 
ATOM      6  C   UNL     1      91.172   4.513 -25.123  1.00  0.00     0.000 C 
ATOM      7  C   UNL     1      93.921   4.053 -25.255  1.00  0.00     0.018 C 
ATOM      8  C   UNL     1      90.124   3.021 -26.888  1.00  0.00     0.008 C 
ATOM      9  C   UNL     1      91.303   4.936 -23.647  1.00  0.00     0.005 C 
ATOM     10  C   UNL     1      90.115   3.380 -25.364  1.00  0.00    -0.024 C 
ATOM     11  C   UNL     1      90.074   4.624 -22.780  1.00  0.00     0.005 C 
ATOM     12  C   UNL     1      88.649   3.903 -24.889  1.00  0.00    -0.024 C 
ATOM     13  C   UNL     1      90.534   2.082 -24.603  1.00  0.00     0.012 C 
ATOM     14  C   UNL     1      88.699   4.730 -23.514  1.00  0.00     0.002 C 
ATOM     15  C   UNL     1      87.677   2.700 -24.779  1.00  0.00     0.008 C 
ATOM     16  C   UNL     1      88.041   4.856 -25.985  1.00  0.00     0.012 C 
ATOM     17  C   UNL     1      87.386   4.695 -22.533  1.00  0.00    -0.026 C 
ATOM     18  C   UNL     1      86.313   3.076 -24.248  1.00  0.00     0.005 C 
ATOM     19  C   UNL     1      86.616   6.036 -22.745  1.00  0.00     0.010 C 
ATOM     20  C   UNL     1      87.842   4.661 -21.040  1.00  0.00     0.012 C 
ATOM     21  C   UNL     1      86.390   3.465 -22.755  1.00  0.00     0.003 C 
ATOM     22  C   UNL     1      85.298   6.150 -21.988  1.00  0.00     0.033 C 
ATOM     23  C   UNL     1      84.919   3.613 -22.115  1.00  0.00    -0.006 C 
ATOM     24  C   UNL     1      84.339   5.035 -22.394  1.00  0.00     0.120 C 
ATOM     25  C   UNL     1      83.920   2.586 -22.730  1.00  0.00     0.014 C 
ATOM     26  C   UNL     1      84.917   3.306 -20.577  1.00  0.00     0.014 C 
ENDROOT
BRANCH   1  27
ATOM     27  C   UNL     1      92.165   4.895 -28.388  1.00  0.00     0.048 C 
ATOM     28  O   UNL     1      91.881   6.074 -28.036  1.00  0.00    -0.550 OA
ATOM     29  O   UNL     1      92.274   4.623 -29.747  1.00  0.00    -0.550 OA
ENDBRANCH   1  27
BRANCH   7  30
ATOM     30  C   UNL     1      94.034   2.891 -24.258  1.00  0.00    -0.077 C 
ATOM     31  C   UNL     1      94.103   1.446 -24.689  1.00  0.00     0.039 C 
ATOM     32  C   UNL     1      94.377   3.155 -22.983  1.00  0.00     0.008 C 
ENDBRANCH   7  30
BRANCH  24  33
ATOM     33  O   UNL     1      83.118   5.228 -21.722  1.00  0.00    -0.393 OA
ATOM     34  H   UNL     1      82.390   5.160 -22.393  1.00  0.00     0.210 HD
ENDBRANCH  24  33
TORSDOF 3
ENDMDL
MODEL 2
REMARK VINA RESULT:    -6.962      6.447     11.008
REMARK INTER + INTRA:          -8.808
REMARK INTER:                  -7.955
REMARK INTRA:                  -0.852
REMARK UNBOUND:                -0.828
REMARK SMILES C=C(C)[C@H]1CC[C@@]2(C(=O)[O-])CC[C@@]3(C)[C@@H](CC[C@@H]4[C@@]5(C)CC[C@H](O)C(C)(C)[C@H]5CC[C@@]43C)[C@@H]12
REMARK SMILES IDX 7 1 6 2 33 3 11 4 5 5 15 6 4 7 12 8 16 9 13 10 17 11 31 12
REMARK SMILES IDX 14 13 18 14 30 15 32 16 19 17 29 18 21 19 20 20 28 21 22 22
REMARK SMILES IDX 25 23 23 24 26 25 27 26 8 27 9 28 10 29 2 30 3 31 1 32 24 33
REMARK H PARENT 24 34
REMARK Flexibility Score: inf
ROOT
ATOM      1  C   UNL     1      96.403  -0.922 -20.122  1.00  0.00     0.014 C 
ATOM      2  C   UNL     1      95.394  -1.668 -19.213  1.00  0.00     0.014 C 
ATOM      3  C   UNL     1      95.604   0.280 -20.720  1.00  0.00     0.012 C 
ATOM      4  C   UNL     1      96.914  -1.868 -21.243  1.00  0.00     0.014 C 
ATOM      5  C   UNL     1      94.138  -0.804 -19.119  1.00  0.00     0.009 C 
ATOM      6  C   UNL     1      96.150   0.881 -22.080  1.00  0.00     0.000 C 
ATOM      7  C   UNL     1      94.094   0.065 -20.380  1.00  0.00     0.018 C 
ATOM      8  C   UNL     1      97.698  -1.116 -22.321  1.00  0.00     0.008 C 
ATOM      9  C   UNL     1      95.218   1.925 -22.724  1.00  0.00     0.005 C 
ATOM     10  C   UNL     1      96.824  -0.087 -23.114  1.00  0.00    -0.024 C 
ATOM     11  C   UNL     1      95.507   2.217 -24.203  1.00  0.00     0.005 C 
ATOM     12  C   UNL     1      97.729   0.781 -24.152  1.00  0.00    -0.024 C 
ATOM     13  C   UNL     1      95.734  -0.918 -23.862  1.00  0.00     0.012 C 
ATOM     14  C   UNL     1      97.013   2.142 -24.613  1.00  0.00     0.002 C 
ATOM     15  C   UNL     1      98.101  -0.094 -25.375  1.00  0.00     0.008 C 
ATOM     16  C   UNL     1      99.091   1.178 -23.468  1.00  0.00     0.012 C 
ATOM     17  C   UNL     1      97.357   2.739 -26.101  1.00  0.00    -0.026 C 
ATOM     18  C   UNL     1      98.861   0.659 -26.443  1.00  0.00     0.005 C 
ATOM     19  C   UNL     1      98.370   3.911 -25.905  1.00  0.00     0.010 C 
ATOM     20  C   UNL     1      96.068   3.352 -26.735  1.00  0.00     0.012 C 
ATOM     21  C   UNL     1      97.950   1.688 -27.148  1.00  0.00     0.003 C 
ATOM     22  C   UNL     1      98.893   4.534 -27.193  1.00  0.00     0.033 C 
ATOM     23  C   UNL     1      98.669   2.306 -28.451  1.00  0.00    -0.006 C 
ATOM     24  C   UNL     1      99.601   3.493 -28.053  1.00  0.00     0.120 C 
ATOM     25  C   UNL     1      99.560   1.249 -29.170  1.00  0.00     0.014 C 
ATOM     26  C   UNL     1      97.627   2.760 -29.532  1.00  0.00     0.014 C 
ENDROOT
BRANCH   1  27
ATOM     27  C   UNL     1      97.567  -0.443 -19.246  1.00  0.00     0.048 C 
ATOM     28  O   UNL     1      97.576   0.731 -18.780  1.00  0.00    -0.550 OA
ATOM     29  O   UNL     1      98.573  -1.317 -18.845  1.00  0.00    -0.550 OA
ENDBRANCH   1  27
BRANCH   7  30
ATOM     30  C   UNL     1      93.113  -0.498 -21.418  1.00  0.00    -0.077 C 
ATOM     31  C   UNL     1      92.904  -1.979 -21.630  1.00  0.00     0.039 C 
ATOM     32  C   UNL     1      92.191   0.322 -21.957  1.00  0.00     0.008 C 
ENDBRANCH   7  30
BRANCH  24  33
ATOM     33  O   UNL     1     100.125   4.133 -29.191  1.00  0.00    -0.393 OA
ATOM     34  H   UNL     1     100.443   3.430 -29.815  1.00  0.00     0.210 HD
ENDBRANCH  24  33
TORSDOF 3
ENDMDL
MODEL 3
REMARK VINA RESULT:    -6.882      8.935     12.636
REMARK INTER + INTRA:          -8.717
REMARK INTER:                  -7.949
REMARK INTRA:                  -0.768
REMARK UNBOUND:                -0.828
REMARK SMILES C=C(C)[C@H]1CC[C@@]2(C(=O)[O-])CC[C@@]3(C)[C@@H](CC[C@@H]4[C@@]5(C)CC[C@H](O)C(C)(C)[C@H]5CC[C@@]43C)[C@@H]12
REMARK SMILES IDX 7 1 6 2 33 3 11 4 5 5 15 6 4 7 12 8 16 9 13 10 17 11 31 12
REMARK SMILES IDX 14 13 18 14 30 15 32 16 19 17 29 18 21 19 20 20 28 21 22 22
REMARK SMILES IDX 25 23 23 24 26 25 27 26 8 27 9 28 10 29 2 30 3 31 1 32 24 33
REMARK H PARENT 24 34
REMARK Flexibility Score: inf
ROOT
ATOM      1  C   UNL     1      82.257  -0.595 -22.485  1.00  0.00     0.014 C 
ATOM      2  C   UNL     1      82.273   0.728 -23.291  1.00  0.00     0.014 C 
ATOM      3  C   UNL     1      81.029  -0.475 -21.528  1.00  0.00     0.012 C 
ATOM      4  C   UNL     1      83.579  -0.749 -21.683  1.00  0.00     0.014 C 
ATOM      5  C   UNL     1      80.982   1.475 -22.969  1.00  0.00     0.009 C 
ATOM      6  C   UNL     1      81.066  -1.368 -20.220  1.00  0.00     0.000 C 
ATOM      7  C   UNL     1      80.519   1.001 -21.588  1.00  0.00     0.018 C 
ATOM      8  C   UNL     1      83.509  -1.890 -20.666  1.00  0.00     0.008 C 
ATOM      9  C   UNL     1      79.933  -1.065 -19.220  1.00  0.00     0.005 C 
ATOM     10  C   UNL     1      82.451  -1.648 -19.538  1.00  0.00    -0.024 C 
ATOM     11  C   UNL     1      80.168  -1.605 -17.802  1.00  0.00     0.005 C 
ATOM     12  C   UNL     1      82.318  -2.945 -18.564  1.00  0.00    -0.024 C 
ATOM     13  C   UNL     1      82.928  -0.387 -18.750  1.00  0.00     0.012 C 
ATOM     14  C   UNL     1      80.949  -2.956 -17.726  1.00  0.00     0.002 C 
ATOM     15  C   UNL     1      83.547  -3.017 -17.623  1.00  0.00     0.008 C 
ATOM     16  C   UNL     1      82.350  -4.264 -19.425  1.00  0.00     0.012 C 
ATOM     17  C   UNL     1      80.940  -3.680 -16.255  1.00  0.00    -0.026 C 
ATOM     18  C   UNL     1      83.464  -4.138 -16.611  1.00  0.00     0.005 C 
ATOM     19  C   UNL     1      80.272  -5.080 -16.434  1.00  0.00     0.010 C 
ATOM     20  C   UNL     1      80.039  -2.867 -15.272  1.00  0.00     0.012 C 
ATOM     21  C   UNL     1      82.368  -3.853 -15.561  1.00  0.00     0.003 C 
ATOM     22  C   UNL     1      80.263  -5.955 -15.186  1.00  0.00     0.033 C 
ATOM     23  C   UNL     1      82.446  -4.901 -14.339  1.00  0.00    -0.006 C 
ATOM     24  C   UNL     1      81.682  -6.215 -14.693  1.00  0.00     0.120 C 
ATOM     25  C   UNL     1      83.918  -5.303 -14.021  1.00  0.00     0.014 C 
ATOM     26  C   UNL     1      81.898  -4.285 -13.005  1.00  0.00     0.014 C 
ENDROOT
BRANCH   1  27
ATOM     27  C   UNL     1      82.088  -1.753 -23.475  1.00  0.00     0.048 C 
ATOM     28  O   UNL     1      82.700  -1.745 -24.579  1.00  0.00    -0.550 OA
ATOM     29  O   UNL     1      81.361  -2.890 -23.135  1.00  0.00    -0.550 OA
ENDBRANCH   1  27
BRANCH   7  30
ATOM     30  C   UNL     1      80.877   2.017 -20.494  1.00  0.00    -0.077 C 
ATOM     31  C   UNL     1      82.199   2.745 -20.453  1.00  0.00     0.039 C 
ATOM     32  C   UNL     1      79.898   2.506 -19.711  1.00  0.00     0.008 C 
ENDBRANCH   7  30
BRANCH  24  33
ATOM     33  O   UNL     1      81.620  -7.082 -13.587  1.00  0.00    -0.393 OA
ATOM     34  H   UNL     1      81.487  -8.003 -13.932  1.00  0.00     0.210 HD
ENDBRANCH  24  33
TORSDOF 3
ENDMDL
MODEL 4
REMARK VINA RESULT:    -6.803      4.223      8.207
REMARK INTER + INTRA:          -8.626
REMARK INTER:                  -7.752
REMARK INTRA:                  -0.874
REMARK UNBOUND:                -0.828
REMARK SMILES C=C(C)[C@H]1CC[C@@]2(C(=O)[O-])CC[C@@]3(C)[C@@H](CC[C@@H]4[C@@]5(C)CC[C@H](O)C(C)(C)[C@H]5CC[C@@]43C)[C@@H]12
REMARK SMILES IDX 7 1 6 2 33 3 11 4 5 5 15 6 4 7 12 8 16 9 13 10 17 11 31 12
REMARK SMILES IDX 14 13 18 14 30 15 32 16 19 17 29 18 21 19 20 20 28 21 22 22
REMARK SMILES IDX 25 23 23 24 26 25 27 26 8 27 9 28 10 29 2 30 3 31 1 32 24 33
REMARK H PARENT 24 34
REMARK Flexibility Score: inf
ROOT
ATOM      1  C   UNL     1      91.039   1.276 -18.293  1.00  0.00     0.014 C 
ATOM      2  C   UNL     1      90.299   1.466 -16.945  1.00  0.00     0.014 C 
ATOM      3  C   UNL     1      91.614   2.685 -18.645  1.00  0.00     0.012 C 
ATOM      4  C   UNL     1      90.048   0.787 -19.384  1.00  0.00     0.014 C 
ATOM      5  C   UNL     1      90.624   2.868 -16.438  1.00  0.00     0.009 C 
ATOM      6  C   UNL     1      91.917   2.959 -20.176  1.00  0.00     0.000 C 
ATOM      7  C   UNL     1      90.977   3.720 -17.661  1.00  0.00     0.018 C 
ATOM      8  C   UNL     1      90.659   0.842 -20.786  1.00  0.00     0.008 C 
ATOM      9  C   UNL     1      92.291   4.420 -20.490  1.00  0.00     0.005 C 
ATOM     10  C   UNL     1      90.993   2.297 -21.257  1.00  0.00    -0.024 C 
ATOM     11  C   UNL     1      92.192   4.802 -21.975  1.00  0.00     0.005 C 
ATOM     12  C   UNL     1      91.763   2.291 -22.691  1.00  0.00    -0.024 C 
ATOM     13  C   UNL     1      89.632   3.057 -21.340  1.00  0.00     0.012 C 
ATOM     14  C   UNL     1      92.550   3.661 -22.979  1.00  0.00     0.002 C 
ATOM     15  C   UNL     1      90.751   1.982 -23.823  1.00  0.00     0.008 C 
ATOM     16  C   UNL     1      92.823   1.127 -22.723  1.00  0.00     0.012 C 
ATOM     17  C   UNL     1      92.736   4.141 -24.536  1.00  0.00    -0.026 C 
ATOM     18  C   UNL     1      91.357   2.054 -25.206  1.00  0.00     0.005 C 
ATOM     19  C   UNL     1      94.196   3.782 -24.958  1.00  0.00     0.010 C 
ATOM     20  C   UNL     1      92.603   5.694 -24.629  1.00  0.00     0.012 C 
ATOM     21  C   UNL     1      91.706   3.510 -25.582  1.00  0.00     0.003 C 
ATOM     22  C   UNL     1      94.532   4.061 -26.417  1.00  0.00     0.033 C 
ATOM     23  C   UNL     1      92.105   3.631 -27.138  1.00  0.00    -0.006 C 
ATOM     24  C   UNL     1      93.611   3.279 -27.348  1.00  0.00     0.120 C 
ATOM     25  C   UNL     1      91.281   2.645 -28.020  1.00  0.00     0.014 C 
ATOM     26  C   UNL     1      91.784   5.053 -27.715  1.00  0.00     0.014 C 
ENDROOT
BRANCH   1  27
ATOM     27  C   UNL     1      92.159   0.250 -18.079  1.00  0.00     0.048 C 
ATOM     28  O   UNL     1      93.338   0.632 -17.838  1.00  0.00    -0.550 OA
ATOM     29  O   UNL     1      91.885  -1.113 -18.024  1.00  0.00    -0.550 OA
ENDBRANCH   1  27
BRANCH   7  30
ATOM     30  C   UNL     1      89.801   4.609 -18.087  1.00  0.00    -0.077 C 
ATOM     31  C   UNL     1      88.378   4.109 -18.154  1.00  0.00     0.039 C 
ATOM     32  C   UNL     1      89.970   5.945 -18.121  1.00  0.00     0.008 C 
ENDBRANCH   7  30
BRANCH  24  33
ATOM     33  O   UNL     1      94.010   3.516 -28.676  1.00  0.00    -0.393 OA
ATOM     34  H   UNL     1      93.898   2.670 -29.181  1.00  0.00     0.210 HD
ENDBRANCH  24  33
TORSDOF 3
ENDMDL
MODEL 5
REMARK VINA RESULT:    -6.738      3.560      8.924
REMARK INTER + INTRA:          -8.551
REMARK INTER:                  -7.672
REMARK INTRA:                  -0.879
REMARK UNBOUND:                -0.828
REMARK SMILES C=C(C)[C@H]1CC[C@@]2(C(=O)[O-])CC[C@@]3(C)[C@@H](CC[C@@H]4[C@@]5(C)CC[C@H](O)C(C)(C)[C@H]5CC[C@@]43C)[C@@H]12
REMARK SMILES IDX 7 1 6 2 33 3 11 4 5 5 15 6 4 7 12 8 16 9 13 10 17 11 31 12
REMARK SMILES IDX 14 13 18 14 30 15 32 16 19 17 29 18 21 19 20 20 28 21 22 22
REMARK SMILES IDX 25 23 23 24 26 25 27 26 8 27 9 28 10 29 2 30 3 31 1 32 24 33
REMARK H PARENT 24 34
REMARK Flexibility Score: inf
ROOT
ATOM      1  C   UNL     1      89.893   4.076 -23.330  1.00  0.00     0.014 C 
ATOM      2  C   UNL     1      88.932   5.034 -22.581  1.00  0.00     0.014 C 
ATOM      3  C   UNL     1      90.332   3.023 -22.263  1.00  0.00     0.012 C 
ATOM      4  C   UNL     1      91.115   4.863 -23.876  1.00  0.00     0.014 C 
ATOM      5  C   UNL     1      88.659   4.426 -21.208  1.00  0.00     0.009 C 
ATOM      6  C   UNL     1      91.702   2.276 -22.536  1.00  0.00     0.000 C 
ATOM      7  C   UNL     1      89.853   3.531 -20.865  1.00  0.00     0.018 C 
ATOM      8  C   UNL     1      92.221   3.935 -24.384  1.00  0.00     0.008 C 
ATOM      9  C   UNL     1      92.183   1.400 -21.363  1.00  0.00     0.005 C 
ATOM     10  C   UNL     1      92.857   3.057 -23.254  1.00  0.00    -0.024 C 
ATOM     11  C   UNL     1      93.664   0.999 -21.427  1.00  0.00     0.005 C 
ATOM     12  C   UNL     1      93.927   1.994 -23.864  1.00  0.00    -0.024 C 
ATOM     13  C   UNL     1      93.538   4.047 -22.257  1.00  0.00     0.012 C 
ATOM     14  C   UNL     1      94.230   0.774 -22.865  1.00  0.00     0.002 C 
ATOM     15  C   UNL     1      95.233   2.733 -24.251  1.00  0.00     0.008 C 
ATOM     16  C   UNL     1      93.364   1.376 -25.199  1.00  0.00     0.012 C 
ATOM     17  C   UNL     1      95.706   0.063 -22.926  1.00  0.00    -0.026 C 
ATOM     18  C   UNL     1      96.326   1.809 -24.737  1.00  0.00     0.005 C 
ATOM     19  C   UNL     1      95.544  -1.269 -23.724  1.00  0.00     0.010 C 
ATOM     20  C   UNL     1      96.167  -0.321 -21.484  1.00  0.00     0.012 C 
ATOM     21  C   UNL     1      96.870   0.941 -23.580  1.00  0.00     0.003 C 
ATOM     22  C   UNL     1      96.840  -2.031 -23.978  1.00  0.00     0.033 C 
ATOM     23  C   UNL     1      98.200   0.147 -24.024  1.00  0.00    -0.006 C 
ATOM     24  C   UNL     1      97.828  -1.176 -24.763  1.00  0.00     0.120 C 
ATOM     25  C   UNL     1      99.069   0.989 -25.007  1.00  0.00     0.014 C 
ATOM     26  C   UNL     1      99.140  -0.146 -22.803  1.00  0.00     0.014 C 
ENDROOT
BRANCH   1  27
ATOM     27  C   UNL     1      89.114   3.423 -24.477  1.00  0.00     0.048 C 
ATOM     28  O   UNL     1      88.621   2.269 -24.340  1.00  0.00    -0.550 OA
ATOM     29  O   UNL     1      88.826   4.126 -25.643  1.00  0.00    -0.550 OA
ENDBRANCH   1  27
BRANCH   7  30
ATOM     30  C   UNL     1      90.817   4.226 -19.893  1.00  0.00    -0.077 C 
ATOM     31  C   UNL     1      91.181   5.687 -20.004  1.00  0.00     0.039 C 
ATOM     32  C   UNL     1      91.129   3.616 -18.734  1.00  0.00     0.008 C 
ENDBRANCH   7  30
BRANCH  24  33
ATOM     33  O   UNL     1      98.973  -1.949 -25.031  1.00  0.00    -0.393 OA
ATOM     34  H   UNL     1      99.761  -1.346 -24.991  1.00  0.00     0.210 HD
ENDBRANCH  24  33
TORSDOF 3
ENDMDL
MODEL 6
REMARK VINA RESULT:    -6.658      2.265      3.881
REMARK INTER + INTRA:          -8.460
REMARK INTER:                  -7.682
REMARK INTRA:                  -0.777
REMARK UNBOUND:                -0.828
REMARK SMILES C=C(C)[C@H]1CC[C@@]2(C(=O)[O-])CC[C@@]3(C)[C@@H](CC[C@@H]4[C@@]5(C)CC[C@H](O)C(C)(C)[C@H]5CC[C@@]43C)[C@@H]12
REMARK SMILES IDX 7 1 6 2 33 3 11 4 5 5 15 6 4 7 12 8 16 9 13 10 17 11 31 12
REMARK SMILES IDX 14 13 18 14 30 15 32 16 19 17 29 18 21 19 20 20 28 21 22 22
REMARK SMILES IDX 25 23 23 24 26 25 27 26 8 27 9 28 10 29 2 30 3 31 1 32 24 33
REMARK H PARENT 24 34
REMARK Flexibility Score: inf
ROOT
ATOM      1  C   UNL     1      93.905   2.697 -24.680  1.00  0.00     0.014 C 
ATOM      2  C   UNL     1      95.106   3.379 -25.382  1.00  0.00     0.014 C 
ATOM      3  C   UNL     1      92.731   2.782 -25.706  1.00  0.00     0.012 C 
ATOM      4  C   UNL     1      93.556   3.448 -23.367  1.00  0.00     0.014 C 
ATOM      5  C   UNL     1      94.701   3.642 -26.830  1.00  0.00     0.009 C 
ATOM      6  C   UNL     1      91.266   2.699 -25.107  1.00  0.00     0.000 C 
ATOM      7  C   UNL     1      93.172   3.740 -26.860  1.00  0.00     0.018 C 
ATOM      8  C   UNL     1      92.222   2.989 -22.775  1.00  0.00     0.008 C 
ATOM      9  C   UNL     1      90.152   2.985 -26.133  1.00  0.00     0.005 C 
ATOM     10  C   UNL     1      90.996   3.317 -23.692  1.00  0.00    -0.024 C 
ATOM     11  C   UNL     1      88.783   3.311 -25.517  1.00  0.00     0.005 C 
ATOM     12  C   UNL     1      89.621   2.689 -23.086  1.00  0.00    -0.024 C 
ATOM     13  C   UNL     1      90.921   4.873 -23.789  1.00  0.00     0.012 C 
ATOM     14  C   UNL     1      88.459   2.561 -24.186  1.00  0.00     0.002 C 
ATOM     15  C   UNL     1      89.151   3.537 -21.876  1.00  0.00     0.008 C 
ATOM     16  C   UNL     1      89.896   1.244 -22.525  1.00  0.00     0.012 C 
ATOM     17  C   UNL     1      86.900   2.672 -23.690  1.00  0.00    -0.026 C 
ATOM     18  C   UNL     1      87.825   3.088 -21.307  1.00  0.00     0.005 C 
ATOM     19  C   UNL     1      86.331   1.220 -23.627  1.00  0.00     0.010 C 
ATOM     20  C   UNL     1      86.061   3.446 -24.756  1.00  0.00     0.012 C 
ATOM     21  C   UNL     1      86.671   3.398 -22.285  1.00  0.00     0.003 C 
ATOM     22  C   UNL     1      84.911   1.106 -23.085  1.00  0.00     0.033 C 
ATOM     23  C   UNL     1      85.237   3.166 -21.586  1.00  0.00    -0.006 C 
ATOM     24  C   UNL     1      84.824   1.663 -21.668  1.00  0.00     0.120 C 
ATOM     25  C   UNL     1      85.267   3.548 -20.076  1.00  0.00     0.014 C 
ATOM     26  C   UNL     1      84.127   4.080 -22.213  1.00  0.00     0.014 C 
ENDROOT
BRANCH   1  27
ATOM     27  C   UNL     1      94.291   1.243 -24.385  1.00  0.00     0.048 C 
ATOM     28  O   UNL     1      93.482   0.304 -24.634  1.00  0.00    -0.550 OA
ATOM     29  O   UNL     1      95.572   0.910 -23.957  1.00  0.00    -0.550 OA
ENDBRANCH   1  27
BRANCH   7  30
ATOM     30  C   UNL     1      92.702   5.200 -26.910  1.00  0.00    -0.077 C 
ATOM     31  C   UNL     1      93.339   6.295 -26.088  1.00  0.00     0.039 C 
ATOM     32  C   UNL     1      91.902   5.595 -27.919  1.00  0.00     0.008 C 
ENDBRANCH   7  30
BRANCH  24  33
ATOM     33  O   UNL     1      83.514   1.468 -21.191  1.00  0.00    -0.393 OA
ATOM     34  H   UNL     1      82.929   1.298 -21.974  1.00  0.00     0.210 HD
ENDBRANCH  24  33
TORSDOF 3
ENDMDL
MODEL 7
REMARK VINA RESULT:    -6.569      2.705      4.518
REMARK INTER + INTRA:          -8.358
REMARK INTER:                  -7.486
REMARK INTRA:                  -0.872
REMARK UNBOUND:                -0.828
REMARK SMILES C=C(C)[C@H]1CC[C@@]2(C(=O)[O-])CC[C@@]3(C)[C@@H](CC[C@@H]4[C@@]5(C)CC[C@H](O)C(C)(C)[C@H]5CC[C@@]43C)[C@@H]12
REMARK SMILES IDX 7 1 6 2 33 3 11 4 5 5 15 6 4 7 12 8 16 9 13 10 17 11 31 12
REMARK SMILES IDX 14 13 18 14 30 15 32 16 19 17 29 18 21 19 20 20 28 21 22 22
REMARK SMILES IDX 25 23 23 24 26 25 27 26 8 27 9 28 10 29 2 30 3 31 1 32 24 33
REMARK H PARENT 24 34
REMARK Flexibility Score: inf
ROOT
ATOM      1  C   UNL     1      91.432   3.770 -22.372  1.00  0.00     0.014 C 
ATOM      2  C   UNL     1      92.645   3.991 -21.434  1.00  0.00     0.014 C 
ATOM      3  C   UNL     1      90.396   4.865 -21.964  1.00  0.00     0.012 C 
ATOM      4  C   UNL     1      90.850   2.344 -22.167  1.00  0.00     0.014 C 
ATOM      5  C   UNL     1      92.406   5.295 -20.677  1.00  0.00     0.009 C 
ATOM      6  C   UNL     1      88.880   4.566 -22.317  1.00  0.00     0.000 C 
ATOM      7  C   UNL     1      90.892   5.520 -20.635  1.00  0.00     0.018 C 
ATOM      8  C   UNL     1      89.498   2.166 -22.861  1.00  0.00     0.008 C 
ATOM      9  C   UNL     1      87.885   5.579 -21.719  1.00  0.00     0.005 C 
ATOM     10  C   UNL     1      88.375   3.082 -22.270  1.00  0.00    -0.024 C 
ATOM     11  C   UNL     1      86.425   5.105 -21.695  1.00  0.00     0.005 C 
ATOM     12  C   UNL     1      86.997   2.956 -23.128  1.00  0.00    -0.024 C 
ATOM     13  C   UNL     1      88.171   2.629 -20.790  1.00  0.00     0.012 C 
ATOM     14  C   UNL     1      86.002   4.193 -22.891  1.00  0.00     0.002 C 
ATOM     15  C   UNL     1      86.301   1.611 -22.799  1.00  0.00     0.008 C 
ATOM     16  C   UNL     1      87.329   2.911 -24.667  1.00  0.00     0.012 C 
ATOM     17  C   UNL     1      84.389   3.935 -23.029  1.00  0.00    -0.026 C 
ATOM     18  C   UNL     1      84.959   1.448 -23.477  1.00  0.00     0.005 C 
ATOM     19  C   UNL     1      83.952   4.480 -24.425  1.00  0.00     0.010 C 
ATOM     20  C   UNL     1      83.626   4.771 -21.953  1.00  0.00     0.012 C 
ATOM     21  C   UNL     1      83.916   2.416 -22.876  1.00  0.00     0.003 C 
ATOM     22  C   UNL     1      82.491   4.237 -24.784  1.00  0.00     0.033 C 
ATOM     23  C   UNL     1      82.433   2.073 -23.403  1.00  0.00    -0.006 C 
ATOM     24  C   UNL     1      82.172   2.746 -24.786  1.00  0.00     0.120 C 
ATOM     25  C   UNL     1      82.233   0.540 -23.598  1.00  0.00     0.014 C 
ATOM     26  C   UNL     1      81.333   2.495 -22.367  1.00  0.00     0.014 C 
ENDROOT
BRANCH   1  27
ATOM     27  C   UNL     1      91.908   3.956 -23.818  1.00  0.00     0.048 C 
ATOM     28  O   UNL     1      91.750   5.063 -24.405  1.00  0.00    -0.550 OA
ATOM     29  O   UNL     1      92.628   2.962 -24.472  1.00  0.00    -0.550 OA
ENDBRANCH   1  27
BRANCH   7  30
ATOM     30  C   UNL     1      90.300   5.119 -19.276  1.00  0.00    -0.077 C 
ATOM     31  C   UNL     1      90.687   3.850 -18.556  1.00  0.00     0.039 C 
ATOM     32  C   UNL     1      89.642   6.044 -18.552  1.00  0.00     0.008 C 
ENDBRANCH   7  30
BRANCH  24  33
ATOM     33  O   UNL     1      80.836   2.575 -25.193  1.00  0.00    -0.393 OA
ATOM     34  H   UNL     1      80.826   1.906 -25.925  1.00  0.00     0.210 HD
ENDBRANCH  24  33
TORSDOF 3
ENDMDL
MODEL 8
REMARK VINA RESULT:    -6.489      2.865      7.206
REMARK INTER + INTRA:          -8.266
REMARK INTER:                  -7.391
REMARK INTRA:                  -0.875
REMARK UNBOUND:                -0.828
REMARK SMILES C=C(C)[C@H]1CC[C@@]2(C(=O)[O-])CC[C@@]3(C)[C@@H](CC[C@@H]4[C@@]5(C)CC[C@H](O)C(C)(C)[C@H]5CC[C@@]43C)[C@@H]12
REMARK SMILES IDX 7 1 6 2 33 3 11 4 5 5 15 6 4 7 12 8 16 9 13 10 17 11 31 12
REMARK SMILES IDX 14 13 18 14 30 15 32 16 19 17 29 18 21 19 20 20 28 21 22 22
REMARK SMILES IDX 25 23 23 24 26 25 27 26 8 27 9 28 10 29 2 30 3 31 1 32 24 33
REMARK H PARENT 24 34
REMARK Flexibility Score: inf
ROOT
ATOM      1  C   UNL     1      91.312   3.094 -20.956  1.00  0.00     0.014 C 
ATOM      2  C   UNL     1      90.733   2.490 -19.653  1.00  0.00     0.014 C 
ATOM      3  C   UNL     1      90.149   3.938 -21.568  1.00  0.00     0.012 C 
ATOM      4  C   UNL     1      91.750   1.960 -21.923  1.00  0.00     0.014 C 
ATOM      5  C   UNL     1      89.372   3.140 -19.413  1.00  0.00     0.009 C 
ATOM      6  C   UNL     1      90.218   4.204 -23.128  1.00  0.00     0.000 C 
ATOM      7  C   UNL     1      88.845   3.597 -20.777  1.00  0.00     0.018 C 
ATOM      8  C   UNL     1      92.075   2.486 -23.323  1.00  0.00     0.008 C 
ATOM      9  C   UNL     1      88.953   4.866 -23.709  1.00  0.00     0.005 C 
ATOM     10  C   UNL     1      90.834   3.099 -24.055  1.00  0.00    -0.024 C 
ATOM     11  C   UNL     1      88.821   4.766 -25.236  1.00  0.00     0.005 C 
ATOM     12  C   UNL     1      91.258   3.766 -25.478  1.00  0.00    -0.024 C 
ATOM     13  C   UNL     1      89.816   1.931 -24.250  1.00  0.00     0.012 C 
ATOM     14  C   UNL     1      90.169   4.812 -26.023  1.00  0.00     0.002 C 
ATOM     15  C   UNL     1      91.525   2.648 -26.517  1.00  0.00     0.008 C 
ATOM     16  C   UNL     1      92.616   4.547 -25.318  1.00  0.00     0.012 C 
ATOM     17  C   UNL     1      90.018   5.007 -27.644  1.00  0.00    -0.026 C 
ATOM     18  C   UNL     1      91.830   3.175 -27.901  1.00  0.00     0.005 C 
ATOM     19  C   UNL     1      90.760   6.329 -28.020  1.00  0.00     0.010 C 
ATOM     20  C   UNL     1      88.514   5.207 -28.014  1.00  0.00     0.012 C 
ATOM     21  C   UNL     1      90.574   3.808 -28.540  1.00  0.00     0.003 C 
ATOM     22  C   UNL     1      90.819   6.633 -29.512  1.00  0.00     0.033 C 
ATOM     23  C   UNL     1      90.817   4.133 -30.100  1.00  0.00    -0.006 C 
ATOM     24  C   UNL     1      91.525   5.513 -30.269  1.00  0.00     0.120 C 
ATOM     25  C   UNL     1      91.731   3.066 -30.773  1.00  0.00     0.014 C 
ATOM     26  C   UNL     1      89.479   4.094 -30.919  1.00  0.00     0.014 C 
ENDROOT
BRANCH   1  27
ATOM     27  C   UNL     1      92.509   3.976 -20.581  1.00  0.00     0.048 C 
ATOM     28  O   UNL     1      92.389   5.233 -20.539  1.00  0.00    -0.550 OA
ATOM     29  O   UNL     1      93.712   3.417 -20.162  1.00  0.00    -0.550 OA
ENDBRANCH   1  27
BRANCH   7  30
ATOM     30  C   UNL     1      87.803   2.617 -21.335  1.00  0.00    -0.077 C 
ATOM     31  C   UNL     1      87.950   1.118 -21.233  1.00  0.00     0.039 C 
ATOM     32  C   UNL     1      86.582   3.080 -21.665  1.00  0.00     0.008 C 
ENDBRANCH   7  30
BRANCH  24  33
ATOM     33  O   UNL     1      91.615   5.877 -31.625  1.00  0.00    -0.393 OA
ATOM     34  H   UNL     1      90.911   5.382 -32.118  1.00  0.00     0.210 HD
ENDBRANCH  24  33
TORSDOF 3
ENDMDL
MODEL 9
REMARK VINA RESULT:    -6.488      2.356      7.789
REMARK INTER + INTRA:          -8.264
REMARK INTER:                  -7.401
REMARK INTRA:                  -0.863
REMARK UNBOUND:                -0.828
REMARK SMILES C=C(C)[C@H]1CC[C@@]2(C(=O)[O-])CC[C@@]3(C)[C@@H](CC[C@@H]4[C@@]5(C)CC[C@H](O)C(C)(C)[C@H]5CC[C@@]43C)[C@@H]12
REMARK SMILES IDX 7 1 6 2 33 3 11 4 5 5 15 6 4 7 12 8 16 9 13 10 17 11 31 12
REMARK SMILES IDX 14 13 18 14 30 15 32 16 19 17 29 18 21 19 20 20 28 21 22 22
REMARK SMILES IDX 25 23 23 24 26 25 27 26 8 27 9 28 10 29 2 30 3 31 1 32 24 33
REMARK H PARENT 24 34
REMARK Flexibility Score: inf
ROOT
ATOM      1  C   UNL     1      88.465   4.088 -21.072  1.00  0.00     0.014 C 
ATOM      2  C   UNL     1      87.479   3.620 -19.973  1.00  0.00     0.014 C 
ATOM      3  C   UNL     1      87.564   4.683 -22.201  1.00  0.00     0.012 C 
ATOM      4  C   UNL     1      89.295   2.884 -21.595  1.00  0.00     0.014 C 
ATOM      5  C   UNL     1      86.091   4.127 -20.356  1.00  0.00     0.009 C 
ATOM      6  C   UNL     1      88.192   4.721 -23.655  1.00  0.00     0.000 C 
ATOM      7  C   UNL     1      86.082   4.309 -21.877  1.00  0.00     0.018 C 
ATOM      8  C   UNL     1      90.085   3.232 -22.859  1.00  0.00     0.008 C 
ATOM      9  C   UNL     1      87.197   5.130 -24.759  1.00  0.00     0.005 C 
ATOM     10  C   UNL     1      89.171   3.573 -24.083  1.00  0.00    -0.024 C 
ATOM     11  C   UNL     1      87.646   4.788 -26.187  1.00  0.00     0.005 C 
ATOM     12  C   UNL     1      90.054   4.067 -25.359  1.00  0.00    -0.024 C 
ATOM     13  C   UNL     1      88.369   2.274 -24.410  1.00  0.00     0.012 C 
ATOM     14  C   UNL     1      89.186   4.880 -26.438  1.00  0.00     0.002 C 
ATOM     15  C   UNL     1      90.752   2.847 -26.012  1.00  0.00     0.008 C 
ATOM     16  C   UNL     1      91.208   5.022 -24.873  1.00  0.00     0.012 C 
ATOM     17  C   UNL     1      89.636   4.811 -28.012  1.00  0.00    -0.026 C 
ATOM     18  C   UNL     1      91.517   3.195 -27.268  1.00  0.00     0.005 C 
ATOM     19  C   UNL     1      90.386   6.142 -28.336  1.00  0.00     0.010 C 
ATOM     20  C   UNL     1      88.368   4.769 -28.923  1.00  0.00     0.012 C 
ATOM     21  C   UNL     1      90.554   3.568 -28.416  1.00  0.00     0.003 C 
ATOM     22  C   UNL     1      90.977   6.225 -29.738  1.00  0.00     0.033 C 
ATOM     23  C   UNL     1      91.338   3.684 -29.819  1.00  0.00    -0.006 C 
ATOM     24  C   UNL     1      91.977   5.099 -29.975  1.00  0.00     0.120 C 
ATOM     25  C   UNL     1      92.499   2.648 -29.916  1.00  0.00     0.014 C 
ATOM     26  C   UNL     1      90.406   3.361 -31.038  1.00  0.00     0.014 C 
ENDROOT
BRANCH   1  27
ATOM     27  C   UNL     1      89.383   5.155 -20.465  1.00  0.00     0.048 C 
ATOM     28  O   UNL     1      89.052   6.374 -20.490  1.00  0.00    -0.550 OA
ATOM     29  O   UNL     1      90.534   4.802 -19.767  1.00  0.00    -0.550 OA
ENDBRANCH   1  27
BRANCH   7  30
ATOM     30  C   UNL     1      85.381   3.137 -22.579  1.00  0.00    -0.077 C 
ATOM     31  C   UNL     1      85.552   1.701 -22.147  1.00  0.00     0.039 C 
ATOM     32  C   UNL     1      84.356   3.395 -23.415  1.00  0.00     0.008 C 
ENDBRANCH   7  30
BRANCH  24  33
ATOM     33  O   UNL     1      92.543   5.265 -31.253  1.00  0.00    -0.393 OA
ATOM     34  H   UNL     1      93.510   5.455 -31.133  1.00  0.00     0.210 HD
ENDBRANCH  24  33
TORSDOF 3
ENDMDL
