MODEL 1
REMARK VINA RESULT:    -7.035      0.000      0.000
REMARK INTER + INTRA:         -11.523
REMARK INTER:                 -10.120
REMARK INTRA:                  -1.403
REMARK UNBOUND:                -1.403
REMARK SMILES O=c1c(O[C@H]2O[C@@H](CO)[C@@H](O)[C@@H](O)[C@H]2O)c(-c2ccc(O)cc2)oc2cc(O)cc(O)c12
REMARK SMILES IDX 4 1 3 2 16 3 24 4 2 5 25 6 1 7 32 8 26 9 30 10 27 11 29 12
REMARK SMILES IDX 17 13 18 14 19 15 20 16 23 17 22 18 21 19 31 21 28 23 5 25
REMARK SMILES IDX 14 26 6 27 12 28 7 29 10 30 15 31 13 33 8 35 9 36 11 38
REMARK H PARENT 21 20 31 22 28 24 15 32 13 34 9 37 11 39
REMARK Flexibility Score: inf
ROOT
ATOM      1  O   UNL     1     -39.626   5.810  80.386  1.00  0.00    -0.454 OA
ENDROOT
BRANCH   1   2
ATOM      2  C   UNL     1     -38.384   6.399  80.075  1.00  0.00     0.214 A 
ATOM      3  C   UNL     1     -38.122   7.238  78.936  1.00  0.00     0.180 A 
ATOM      4  O   UNL     1     -36.851   7.379  78.553  1.00  0.00    -0.452 OA
ATOM      5  C   UNL     1     -37.303   6.012  80.864  1.00  0.00     0.239 A 
ATOM      6  C   UNL     1     -35.828   6.893  79.219  1.00  0.00     0.146 A 
ATOM      7  O   UNL     1     -37.542   5.301  81.878  1.00  0.00    -0.285 OA
ATOM      8  C   UNL     1     -35.992   6.358  80.503  1.00  0.00     0.111 A 
ATOM      9  C   UNL     1     -34.561   6.940  78.632  1.00  0.00     0.094 A 
ATOM     10  C   UNL     1     -34.839   6.090  81.293  1.00  0.00     0.134 A 
ATOM     11  C   UNL     1     -33.445   6.596  79.365  1.00  0.00     0.123 A 
ATOM     12  C   UNL     1     -33.584   6.223  80.714  1.00  0.00     0.093 A 
BRANCH   3  13
ATOM     13  C   UNL     1     -39.142   7.922  78.118  1.00  0.00     0.021 A 
ATOM     14  C   UNL     1     -40.152   8.712  78.697  1.00  0.00     0.016 A 
ATOM     15  C   UNL     1     -41.135   9.313  77.895  1.00  0.00     0.047 A 
ATOM     16  C   UNL     1     -40.928   9.436  76.505  1.00  0.00     0.115 A 
ATOM     17  C   UNL     1     -38.968   8.009  76.726  1.00  0.00     0.016 A 
ATOM     18  C   UNL     1     -39.798   8.815  75.946  1.00  0.00     0.047 A 
BRANCH  16  19
ATOM     19  O   UNL     1     -41.840  10.125  75.706  1.00  0.00    -0.508 OA
ATOM     20  H   UNL     1     -42.353   9.658  74.957  1.00  0.00     0.293 HD
ENDBRANCH  16  19
ENDBRANCH   3  13
BRANCH  10  21
ATOM     21  O   UNL     1     -34.900   5.753  82.660  1.00  0.00    -0.507 OA
ATOM     22  H   UNL     1     -35.479   5.014  83.047  1.00  0.00     0.293 HD
ENDBRANCH  10  21
BRANCH  11  23
ATOM     23  O   UNL     1     -32.210   6.720  78.764  1.00  0.00    -0.508 OA
ATOM     24  H   UNL     1     -31.344   6.430  79.234  1.00  0.00     0.293 HD
ENDBRANCH  11  23
ENDBRANCH   1   2
BRANCH   1  25
ATOM     25  C   UNL     1     -40.362   4.977  79.516  1.00  0.00     0.339 C 
ATOM     26  C   UNL     1     -41.242   3.992  80.287  1.00  0.00     0.214 C 
ATOM     27  O   UNL     1     -39.440   4.316  78.642  1.00  0.00    -0.332 OA
ATOM     28  C   UNL     1     -42.124   3.190  79.269  1.00  0.00     0.180 C 
ATOM     29  C   UNL     1     -40.041   3.337  77.782  1.00  0.00     0.179 C 
ATOM     30  C   UNL     1     -41.610   3.380  77.811  1.00  0.00     0.177 C 
BRANCH  26  31
ATOM     31  O   UNL     1     -40.393   3.165  81.065  1.00  0.00    -0.384 OA
ATOM     32  H   UNL     1     -40.195   2.306  80.575  1.00  0.00     0.211 HD
ENDBRANCH  26  31
BRANCH  28  33
ATOM     33  O   UNL     1     -42.217   1.831  79.589  1.00  0.00    -0.387 OA
ATOM     34  H   UNL     1     -42.782   1.403  78.885  1.00  0.00     0.211 HD
ENDBRANCH  28  33
BRANCH  29  35
ATOM     35  C   UNL     1     -39.394   1.951  78.069  1.00  0.00     0.191 C 
BRANCH  35  36
ATOM     36  O   UNL     1     -38.429   1.999  79.133  1.00  0.00    -0.394 OA
ATOM     37  H   UNL     1     -37.511   1.883  78.756  1.00  0.00     0.210 HD
ENDBRANCH  35  36
ENDBRANCH  29  35
BRANCH  30  38
ATOM     38  O   UNL     1     -42.273   2.577  76.847  1.00  0.00    -0.387 OA
ATOM     39  H   UNL     1     -43.071   2.166  77.291  1.00  0.00     0.211 HD
ENDBRANCH  30  38
ENDBRANCH   1  25
TORSDOF 11
ENDMDL
MODEL 2
REMARK VINA RESULT:    -7.017      1.897      2.638
REMARK INTER + INTRA:         -11.498
REMARK INTER:                 -10.208
REMARK INTRA:                  -1.290
REMARK UNBOUND:                -1.403
REMARK SMILES O=c1c(O[C@H]2O[C@@H](CO)[C@@H](O)[C@@H](O)[C@H]2O)c(-c2ccc(O)cc2)oc2cc(O)cc(O)c12
REMARK SMILES IDX 4 1 3 2 16 3 24 4 2 5 25 6 1 7 32 8 26 9 30 10 27 11 29 12
REMARK SMILES IDX 17 13 18 14 19 15 20 16 23 17 22 18 21 19 31 21 28 23 5 25
REMARK SMILES IDX 14 26 6 27 12 28 7 29 10 30 15 31 13 33 8 35 9 36 11 38
REMARK H PARENT 21 20 31 22 28 24 15 32 13 34 9 37 11 39
REMARK Flexibility Score: inf
ROOT
ATOM      1  O   UNL     1     -40.220   5.638  80.674  1.00  0.00    -0.454 OA
ENDROOT
BRANCH   1   2
ATOM      2  C   UNL     1     -38.858   5.618  81.039  1.00  0.00     0.214 A 
ATOM      3  C   UNL     1     -37.770   6.085  80.222  1.00  0.00     0.180 A 
ATOM      4  O   UNL     1     -36.546   5.638  80.511  1.00  0.00    -0.452 OA
ATOM      5  C   UNL     1     -38.548   4.961  82.227  1.00  0.00     0.239 A 
ATOM      6  C   UNL     1     -36.267   4.895  81.558  1.00  0.00     0.146 A 
ATOM      7  O   UNL     1     -39.506   4.579  82.955  1.00  0.00    -0.285 OA
ATOM      8  C   UNL     1     -37.215   4.686  82.567  1.00  0.00     0.111 A 
ATOM      9  C   UNL     1     -34.992   4.333  81.661  1.00  0.00     0.094 A 
ATOM     10  C   UNL     1     -36.797   4.107  83.799  1.00  0.00     0.134 A 
ATOM     11  C   UNL     1     -34.610   3.691  82.820  1.00  0.00     0.123 A 
ATOM     12  C   UNL     1     -35.498   3.628  83.908  1.00  0.00     0.093 A 
BRANCH   3  13
ATOM     13  C   UNL     1     -37.893   6.981  79.056  1.00  0.00     0.021 A 
ATOM     14  C   UNL     1     -37.685   6.523  77.742  1.00  0.00     0.016 A 
ATOM     15  C   UNL     1     -37.765   7.410  76.657  1.00  0.00     0.047 A 
ATOM     16  C   UNL     1     -38.395   8.662  76.819  1.00  0.00     0.115 A 
ATOM     17  C   UNL     1     -38.478   8.249  79.216  1.00  0.00     0.016 A 
ATOM     18  C   UNL     1     -38.795   9.040  78.112  1.00  0.00     0.047 A 
BRANCH  16  19
ATOM     19  O   UNL     1     -38.582   9.512  75.729  1.00  0.00    -0.508 OA
ATOM     20  H   UNL     1     -39.137   9.229  74.920  1.00  0.00     0.293 HD
ENDBRANCH  16  19
ENDBRANCH   3  13
BRANCH  10  21
ATOM     21  O   UNL     1     -37.618   4.047  84.942  1.00  0.00    -0.507 OA
ATOM     22  H   UNL     1     -37.335   4.337  85.873  1.00  0.00     0.293 HD
ENDBRANCH  10  21
BRANCH  11  23
ATOM     23  O   UNL     1     -33.320   3.209  82.900  1.00  0.00    -0.508 OA
ATOM     24  H   UNL     1     -32.502   3.820  82.795  1.00  0.00     0.293 HD
ENDBRANCH  11  23
ENDBRANCH   1   2
BRANCH   1  25
ATOM     25  C   UNL     1     -40.794   4.834  79.666  1.00  0.00     0.339 C 
ATOM     26  C   UNL     1     -41.671   3.729  80.255  1.00  0.00     0.214 C 
ATOM     27  O   UNL     1     -39.737   4.315  78.850  1.00  0.00    -0.332 OA
ATOM     28  C   UNL     1     -42.377   2.959  79.087  1.00  0.00     0.180 C 
ATOM     29  C   UNL     1     -40.168   3.375  77.855  1.00  0.00     0.179 C 
ATOM     30  C   UNL     1     -41.730   3.307  77.714  1.00  0.00     0.177 C 
BRANCH  26  31
ATOM     31  O   UNL     1     -40.846   2.898  81.055  1.00  0.00    -0.384 OA
ATOM     32  H   UNL     1     -40.932   1.936  80.767  1.00  0.00     0.211 HD
ENDBRANCH  26  31
BRANCH  28  33
ATOM     33  O   UNL     1     -42.397   1.574  79.288  1.00  0.00    -0.387 OA
ATOM     34  H   UNL     1     -41.734   1.373  80.009  1.00  0.00     0.211 HD
ENDBRANCH  28  33
BRANCH  29  35
ATOM     35  C   UNL     1     -39.449   2.017  78.103  1.00  0.00     0.191 C 
BRANCH  35  36
ATOM     36  O   UNL     1     -38.538   2.066  79.214  1.00  0.00    -0.394 OA
ATOM     37  H   UNL     1     -38.246   1.141  79.447  1.00  0.00     0.210 HD
ENDBRANCH  35  36
ENDBRANCH  29  35
BRANCH  30  38
ATOM     38  O   UNL     1     -42.224   2.547  76.623  1.00  0.00    -0.387 OA
ATOM     39  H   UNL     1     -41.670   1.714  76.558  1.00  0.00     0.211 HD
ENDBRANCH  30  38
ENDBRANCH   1  25
TORSDOF 11
ENDMDL
MODEL 3
REMARK VINA RESULT:    -6.952      1.874      5.401
REMARK INTER + INTRA:         -11.404
REMARK INTER:                  -9.945
REMARK INTRA:                  -1.459
REMARK UNBOUND:                -1.403
REMARK SMILES O=c1c(O[C@H]2O[C@@H](CO)[C@@H](O)[C@@H](O)[C@H]2O)c(-c2ccc(O)cc2)oc2cc(O)cc(O)c12
REMARK SMILES IDX 4 1 3 2 16 3 24 4 2 5 25 6 1 7 32 8 26 9 30 10 27 11 29 12
REMARK SMILES IDX 17 13 18 14 19 15 20 16 23 17 22 18 21 19 31 21 28 23 5 25
REMARK SMILES IDX 14 26 6 27 12 28 7 29 10 30 15 31 13 33 8 35 9 36 11 38
REMARK H PARENT 21 20 31 22 28 24 15 32 13 34 9 37 11 39
REMARK Flexibility Score: inf
ROOT
ATOM      1  O   UNL     1     -38.088   5.710  77.597  1.00  0.00    -0.454 OA
ENDROOT
BRANCH   1   2
ATOM      2  C   UNL     1     -37.611   4.915  78.660  1.00  0.00     0.214 A 
ATOM      3  C   UNL     1     -38.421   4.079  79.504  1.00  0.00     0.180 A 
ATOM      4  O   UNL     1     -37.915   3.722  80.686  1.00  0.00    -0.452 OA
ATOM      5  C   UNL     1     -36.268   5.074  78.993  1.00  0.00     0.239 A 
ATOM      6  C   UNL     1     -36.688   3.993  81.069  1.00  0.00     0.146 A 
ATOM      7  O   UNL     1     -35.554   5.784  78.232  1.00  0.00    -0.285 OA
ATOM      8  C   UNL     1     -35.748   4.508  80.167  1.00  0.00     0.111 A 
ATOM      9  C   UNL     1     -36.325   3.735  82.393  1.00  0.00     0.094 A 
ATOM     10  C   UNL     1     -34.375   4.536  80.540  1.00  0.00     0.134 A 
ATOM     11  C   UNL     1     -35.008   3.847  82.785  1.00  0.00     0.123 A 
ATOM     12  C   UNL     1     -34.027   4.196  81.840  1.00  0.00     0.093 A 
BRANCH   3  13
ATOM     13  C   UNL     1     -39.790   3.619  79.200  1.00  0.00     0.021 A 
ATOM     14  C   UNL     1     -40.876   3.903  80.049  1.00  0.00     0.016 A 
ATOM     15  C   UNL     1     -42.158   3.412  79.755  1.00  0.00     0.047 A 
ATOM     16  C   UNL     1     -42.450   2.947  78.456  1.00  0.00     0.115 A 
ATOM     17  C   UNL     1     -40.081   3.110  77.922  1.00  0.00     0.016 A 
ATOM     18  C   UNL     1     -41.396   2.855  77.531  1.00  0.00     0.047 A 
BRANCH  16  19
ATOM     19  O   UNL     1     -43.745   2.558  78.112  1.00  0.00    -0.508 OA
ATOM     20  H   UNL     1     -44.556   3.127  78.356  1.00  0.00     0.293 HD
ENDBRANCH  16  19
ENDBRANCH   3  13
BRANCH  10  21
ATOM     21  O   UNL     1     -33.336   4.835  79.637  1.00  0.00    -0.507 OA
ATOM     22  H   UNL     1     -32.400   5.121  79.908  1.00  0.00     0.293 HD
ENDBRANCH  10  21
BRANCH  11  23
ATOM     23  O   UNL     1     -34.687   3.519  84.085  1.00  0.00    -0.508 OA
ATOM     24  H   UNL     1     -34.188   4.171  84.704  1.00  0.00     0.293 HD
ENDBRANCH  11  23
ENDBRANCH   1   2
BRANCH   1  25
ATOM     25  C   UNL     1     -39.028   6.754  77.734  1.00  0.00     0.339 C 
ATOM     26  C   UNL     1     -39.000   7.699  76.532  1.00  0.00     0.214 C 
ATOM     27  O   UNL     1     -38.768   7.433  78.968  1.00  0.00    -0.332 OA
ATOM     28  C   UNL     1     -40.149   8.754  76.686  1.00  0.00     0.180 C 
ATOM     29  C   UNL     1     -39.572   8.603  79.178  1.00  0.00     0.179 C 
ATOM     30  C   UNL     1     -40.732   8.743  78.129  1.00  0.00     0.177 C 
BRANCH  26  31
ATOM     31  O   UNL     1     -37.710   8.283  76.466  1.00  0.00    -0.384 OA
ATOM     32  H   UNL     1     -37.558   8.890  77.255  1.00  0.00     0.211 HD
ENDBRANCH  26  31
BRANCH  28  33
ATOM     33  O   UNL     1     -39.749  10.045  76.323  1.00  0.00    -0.387 OA
ATOM     34  H   UNL     1     -40.170  10.676  76.974  1.00  0.00     0.211 HD
ENDBRANCH  28  33
BRANCH  29  35
ATOM     35  C   UNL     1     -38.636   9.837  79.324  1.00  0.00     0.191 C 
BRANCH  35  36
ATOM     36  O   UNL     1     -37.261   9.527  79.040  1.00  0.00    -0.394 OA
ATOM     37  H   UNL     1     -36.821  10.317  78.616  1.00  0.00     0.210 HD
ENDBRANCH  35  36
ENDBRANCH  29  35
BRANCH  30  38
ATOM     38  O   UNL     1     -41.683   9.764  78.386  1.00  0.00    -0.387 OA
ATOM     39  H   UNL     1     -42.481   9.588  77.806  1.00  0.00     0.211 HD
ENDBRANCH  30  38
ENDBRANCH   1  25
TORSDOF 11
ENDMDL
MODEL 4
REMARK VINA RESULT:    -6.804      2.802      4.425
REMARK INTER + INTRA:         -11.190
REMARK INTER:                  -9.655
REMARK INTRA:                  -1.535
REMARK UNBOUND:                -1.403
REMARK SMILES O=c1c(O[C@H]2O[C@@H](CO)[C@@H](O)[C@@H](O)[C@H]2O)c(-c2ccc(O)cc2)oc2cc(O)cc(O)c12
REMARK SMILES IDX 4 1 3 2 16 3 24 4 2 5 25 6 1 7 32 8 26 9 30 10 27 11 29 12
REMARK SMILES IDX 17 13 18 14 19 15 20 16 23 17 22 18 21 19 31 21 28 23 5 25
REMARK SMILES IDX 14 26 6 27 12 28 7 29 10 30 15 31 13 33 8 35 9 36 11 38
REMARK H PARENT 21 20 31 22 28 24 15 32 13 34 9 37 11 39
REMARK Flexibility Score: inf
ROOT
ATOM      1  O   UNL     1     -37.144   3.352  81.238  1.00  0.00    -0.454 OA
ENDROOT
BRANCH   1   2
ATOM      2  C   UNL     1     -36.849   4.458  80.415  1.00  0.00     0.214 A 
ATOM      3  C   UNL     1     -37.514   4.779  79.180  1.00  0.00     0.180 A 
ATOM      4  O   UNL     1     -36.877   5.585  78.329  1.00  0.00    -0.452 OA
ATOM      5  C   UNL     1     -35.730   5.208  80.768  1.00  0.00     0.239 A 
ATOM      6  C   UNL     1     -35.741   6.188  78.601  1.00  0.00     0.146 A 
ATOM      7  O   UNL     1     -35.168   4.943  81.867  1.00  0.00    -0.285 OA
ATOM      8  C   UNL     1     -35.217   6.183  79.900  1.00  0.00     0.111 A 
ATOM      9  C   UNL     1     -35.074   6.859  77.574  1.00  0.00     0.094 A 
ATOM     10  C   UNL     1     -34.141   7.060  80.214  1.00  0.00     0.134 A 
ATOM     11  C   UNL     1     -33.974   7.640  77.857  1.00  0.00     0.123 A 
ATOM     12  C   UNL     1     -33.543   7.782  79.189  1.00  0.00     0.093 A 
BRANCH   3  13
ATOM     13  C   UNL     1     -38.822   4.253  78.746  1.00  0.00     0.021 A 
ATOM     14  C   UNL     1     -38.973   2.938  78.266  1.00  0.00     0.016 A 
ATOM     15  C   UNL     1     -40.223   2.482  77.818  1.00  0.00     0.047 A 
ATOM     16  C   UNL     1     -41.394   3.187  78.168  1.00  0.00     0.115 A 
ATOM     17  C   UNL     1     -39.992   4.971  79.050  1.00  0.00     0.016 A 
ATOM     18  C   UNL     1     -41.254   4.415  78.837  1.00  0.00     0.047 A 
BRANCH  16  19
ATOM     19  O   UNL     1     -42.653   2.693  77.826  1.00  0.00    -0.508 OA
ATOM     20  H   UNL     1     -43.165   2.064  78.445  1.00  0.00     0.293 HD
ENDBRANCH  16  19
ENDBRANCH   3  13
BRANCH  10  21
ATOM     21  O   UNL     1     -33.684   7.283  81.528  1.00  0.00    -0.507 OA
ATOM     22  H   UNL     1     -33.315   8.165  81.869  1.00  0.00     0.293 HD
ENDBRANCH  10  21
BRANCH  11  23
ATOM     23  O   UNL     1     -33.386   8.335  76.821  1.00  0.00    -0.508 OA
ATOM     24  H   UNL     1     -32.368   8.355  76.687  1.00  0.00     0.293 HD
ENDBRANCH  11  23
ENDBRANCH   1   2
BRANCH   1  25
ATOM     25  C   UNL     1     -38.382   3.137  81.882  1.00  0.00     0.339 C 
ATOM     26  C   UNL     1     -38.741   4.294  82.816  1.00  0.00     0.214 C 
ATOM     27  O   UNL     1     -38.318   1.881  82.569  1.00  0.00    -0.332 OA
ATOM     28  C   UNL     1     -40.177   4.055  83.397  1.00  0.00     0.180 C 
ATOM     29  C   UNL     1     -39.469   1.592  83.375  1.00  0.00     0.179 C 
ATOM     30  C   UNL     1     -40.652   2.596  83.135  1.00  0.00     0.177 C 
BRANCH  26  31
ATOM     31  O   UNL     1     -37.739   4.374  83.817  1.00  0.00    -0.384 OA
ATOM     32  H   UNL     1     -37.957   3.755  84.582  1.00  0.00     0.211 HD
ENDBRANCH  26  31
BRANCH  28  33
ATOM     33  O   UNL     1     -40.268   4.369  84.757  1.00  0.00    -0.387 OA
ATOM     34  H   UNL     1     -39.825   3.627  85.260  1.00  0.00     0.211 HD
ENDBRANCH  28  33
BRANCH  29  35
ATOM     35  C   UNL     1     -39.016   1.418  84.854  1.00  0.00     0.191 C 
BRANCH  35  36
ATOM     36  O   UNL     1     -37.607   1.641  85.032  1.00  0.00    -0.394 OA
ATOM     37  H   UNL     1     -37.264   2.218  84.293  1.00  0.00     0.210 HD
ENDBRANCH  35  36
ENDBRANCH  29  35
BRANCH  30  38
ATOM     38  O   UNL     1     -41.886   2.261  83.749  1.00  0.00    -0.387 OA
ATOM     39  H   UNL     1     -42.040   1.281  83.608  1.00  0.00     0.211 HD
ENDBRANCH  30  38
ENDBRANCH   1  25
TORSDOF 11
ENDMDL
MODEL 5
REMARK VINA RESULT:    -6.764      2.314      6.728
REMARK INTER + INTRA:         -11.133
REMARK INTER:                  -9.465
REMARK INTRA:                  -1.668
REMARK UNBOUND:                -1.403
REMARK SMILES O=c1c(O[C@H]2O[C@@H](CO)[C@@H](O)[C@@H](O)[C@H]2O)c(-c2ccc(O)cc2)oc2cc(O)cc(O)c12
REMARK SMILES IDX 4 1 3 2 16 3 24 4 2 5 25 6 1 7 32 8 26 9 30 10 27 11 29 12
REMARK SMILES IDX 17 13 18 14 19 15 20 16 23 17 22 18 21 19 31 21 28 23 5 25
REMARK SMILES IDX 14 26 6 27 12 28 7 29 10 30 15 31 13 33 8 35 9 36 11 38
REMARK H PARENT 21 20 31 22 28 24 15 32 13 34 9 37 11 39
REMARK Flexibility Score: inf
ROOT
ATOM      1  O   UNL     1     -38.413   5.068  78.459  1.00  0.00    -0.454 OA
ENDROOT
BRANCH   1   2
ATOM      2  C   UNL     1     -38.366   4.577  79.780  1.00  0.00     0.214 A 
ATOM      3  C   UNL     1     -37.169   4.359  80.546  1.00  0.00     0.180 A 
ATOM      4  O   UNL     1     -37.247   3.530  81.590  1.00  0.00    -0.452 OA
ATOM      5  C   UNL     1     -39.575   4.141  80.318  1.00  0.00     0.239 A 
ATOM      6  C   UNL     1     -38.368   2.998  82.019  1.00  0.00     0.146 A 
ATOM      7  O   UNL     1     -40.626   4.361  79.656  1.00  0.00    -0.285 OA
ATOM      8  C   UNL     1     -39.607   3.431  81.528  1.00  0.00     0.111 A 
ATOM      9  C   UNL     1     -38.307   2.004  82.999  1.00  0.00     0.094 A 
ATOM     10  C   UNL     1     -40.795   3.029  82.200  1.00  0.00     0.134 A 
ATOM     11  C   UNL     1     -39.464   1.545  83.593  1.00  0.00     0.123 A 
ATOM     12  C   UNL     1     -40.703   2.101  83.228  1.00  0.00     0.093 A 
BRANCH   3  13
ATOM     13  C   UNL     1     -35.842   4.935  80.252  1.00  0.00     0.021 A 
ATOM     14  C   UNL     1     -34.997   4.388  79.269  1.00  0.00     0.016 A 
ATOM     15  C   UNL     1     -33.722   4.931  79.044  1.00  0.00     0.047 A 
ATOM     16  C   UNL     1     -33.413   6.221  79.526  1.00  0.00     0.115 A 
ATOM     17  C   UNL     1     -35.508   6.200  80.766  1.00  0.00     0.016 A 
ATOM     18  C   UNL     1     -34.353   6.863  80.349  1.00  0.00     0.047 A 
BRANCH  16  19
ATOM     19  O   UNL     1     -32.193   6.823  79.220  1.00  0.00    -0.508 OA
ATOM     20  H   UNL     1     -31.652   7.323  79.928  1.00  0.00     0.293 HD
ENDBRANCH  16  19
ENDBRANCH   3  13
BRANCH  10  21
ATOM     21  O   UNL     1     -42.064   3.573  81.916  1.00  0.00    -0.507 OA
ATOM     22  H   UNL     1     -42.794   3.095  81.397  1.00  0.00     0.293 HD
ENDBRANCH  10  21
BRANCH  11  23
ATOM     23  O   UNL     1     -39.350   0.610  84.600  1.00  0.00    -0.508 OA
ATOM     24  H   UNL     1     -39.668   0.800  85.558  1.00  0.00     0.293 HD
ENDBRANCH  11  23
ENDBRANCH   1   2
BRANCH   1  25
ATOM     25  C   UNL     1     -38.037   6.372  78.073  1.00  0.00     0.339 C 
ATOM     26  C   UNL     1     -38.553   7.423  79.057  1.00  0.00     0.214 C 
ATOM     27  O   UNL     1     -38.508   6.598  76.738  1.00  0.00    -0.332 OA
ATOM     28  C   UNL     1     -37.995   8.828  78.643  1.00  0.00     0.180 C 
ATOM     29  C   UNL     1     -38.305   7.936  76.261  1.00  0.00     0.179 C 
ATOM     30  C   UNL     1     -37.391   8.792  77.208  1.00  0.00     0.177 C 
BRANCH  26  31
ATOM     31  O   UNL     1     -39.969   7.362  79.059  1.00  0.00    -0.384 OA
ATOM     32  H   UNL     1     -40.360   8.286  79.154  1.00  0.00     0.211 HD
ENDBRANCH  26  31
BRANCH  28  33
ATOM     33  O   UNL     1     -38.952   9.843  78.753  1.00  0.00    -0.387 OA
ATOM     34  H   UNL     1     -39.006  10.292  77.861  1.00  0.00     0.211 HD
ENDBRANCH  28  33
BRANCH  29  35
ATOM     35  C   UNL     1     -39.687   8.557  75.907  1.00  0.00     0.191 C 
BRANCH  35  36
ATOM     36  O   UNL     1     -39.625   9.981  75.721  1.00  0.00    -0.394 OA
ATOM     37  H   UNL     1     -39.334  10.417  76.571  1.00  0.00     0.210 HD
ENDBRANCH  35  36
ENDBRANCH  29  35
BRANCH  30  38
ATOM     38  O   UNL     1     -36.989  10.057  76.709  1.00  0.00    -0.387 OA
ATOM     39  H   UNL     1     -37.653  10.332  76.010  1.00  0.00     0.211 HD
ENDBRANCH  30  38
ENDBRANCH   1  25
TORSDOF 11
ENDMDL
MODEL 6
REMARK VINA RESULT:    -6.388      1.535      2.154
REMARK INTER + INTRA:         -10.593
REMARK INTER:                  -9.095
REMARK INTRA:                  -1.498
REMARK UNBOUND:                -1.403
REMARK SMILES O=c1c(O[C@H]2O[C@@H](CO)[C@@H](O)[C@@H](O)[C@H]2O)c(-c2ccc(O)cc2)oc2cc(O)cc(O)c12
REMARK SMILES IDX 4 1 3 2 16 3 24 4 2 5 25 6 1 7 32 8 26 9 30 10 27 11 29 12
REMARK SMILES IDX 17 13 18 14 19 15 20 16 23 17 22 18 21 19 31 21 28 23 5 25
REMARK SMILES IDX 14 26 6 27 12 28 7 29 10 30 15 31 13 33 8 35 9 36 11 38
REMARK H PARENT 21 20 31 22 28 24 15 32 13 34 9 37 11 39
REMARK Flexibility Score: inf
ROOT
ATOM      1  O   UNL     1     -37.660   5.049  79.326  1.00  0.00    -0.454 OA
ENDROOT
BRANCH   1   2
ATOM      2  C   UNL     1     -36.877   6.191  79.589  1.00  0.00     0.214 A 
ATOM      3  C   UNL     1     -36.994   7.455  78.914  1.00  0.00     0.180 A 
ATOM      4  O   UNL     1     -35.950   8.285  78.973  1.00  0.00    -0.452 OA
ATOM      5  C   UNL     1     -35.816   6.020  80.476  1.00  0.00     0.239 A 
ATOM      6  C   UNL     1     -34.878   8.063  79.700  1.00  0.00     0.146 A 
ATOM      7  O   UNL     1     -35.735   4.920  81.089  1.00  0.00    -0.285 OA
ATOM      8  C   UNL     1     -34.845   7.020  80.634  1.00  0.00     0.111 A 
ATOM      9  C   UNL     1     -33.774   8.904  79.542  1.00  0.00     0.094 A 
ATOM     10  C   UNL     1     -33.784   6.975  81.582  1.00  0.00     0.134 A 
ATOM     11  C   UNL     1     -32.702   8.806  80.403  1.00  0.00     0.123 A 
ATOM     12  C   UNL     1     -32.735   7.875  81.457  1.00  0.00     0.093 A 
BRANCH   3  13
ATOM     13  C   UNL     1     -38.152   7.900  78.115  1.00  0.00     0.021 A 
ATOM     14  C   UNL     1     -39.289   8.476  78.712  1.00  0.00     0.016 A 
ATOM     15  C   UNL     1     -40.394   8.847  77.929  1.00  0.00     0.047 A 
ATOM     16  C   UNL     1     -40.250   8.986  76.533  1.00  0.00     0.115 A 
ATOM     17  C   UNL     1     -38.033   7.998  76.717  1.00  0.00     0.016 A 
ATOM     18  C   UNL     1     -39.030   8.601  75.951  1.00  0.00     0.047 A 
BRANCH  16  19
ATOM     19  O   UNL     1     -41.303   9.459  75.750  1.00  0.00    -0.508 OA
ATOM     20  H   UNL     1     -41.738   8.877  75.032  1.00  0.00     0.293 HD
ENDBRANCH  16  19
ENDBRANCH   3  13
BRANCH  10  21
ATOM     21  O   UNL     1     -33.771   6.098  82.685  1.00  0.00    -0.507 OA
ATOM     22  H   UNL     1     -33.026   5.438  82.890  1.00  0.00     0.293 HD
ENDBRANCH  10  21
BRANCH  11  23
ATOM     23  O   UNL     1     -31.662   9.700  80.250  1.00  0.00    -0.508 OA
ATOM     24  H   UNL     1     -31.059   9.973  81.035  1.00  0.00     0.293 HD
ENDBRANCH  11  23
ENDBRANCH   1   2
BRANCH   1  25
ATOM     25  C   UNL     1     -38.915   4.783  79.915  1.00  0.00     0.339 C 
ATOM     26  C   UNL     1     -38.824   3.668  80.958  1.00  0.00     0.214 C 
ATOM     27  O   UNL     1     -39.845   4.476  78.869  1.00  0.00    -0.332 OA
ATOM     28  C   UNL     1     -40.216   3.512  81.661  1.00  0.00     0.180 C 
ATOM     29  C   UNL     1     -41.138   4.059  79.333  1.00  0.00     0.179 C 
ATOM     30  C   UNL     1     -41.329   4.268  80.877  1.00  0.00     0.177 C 
BRANCH  26  31
ATOM     31  O   UNL     1     -38.394   2.488  80.300  1.00  0.00    -0.384 OA
ATOM     32  H   UNL     1     -37.399   2.369  80.407  1.00  0.00     0.211 HD
ENDBRANCH  26  31
BRANCH  28  33
ATOM     33  O   UNL     1     -40.573   2.174  81.861  1.00  0.00    -0.387 OA
ATOM     34  H   UNL     1     -39.861   1.763  82.431  1.00  0.00     0.211 HD
ENDBRANCH  28  33
BRANCH  29  35
ATOM     35  C   UNL     1     -41.424   2.625  78.801  1.00  0.00     0.191 C 
BRANCH  35  36
ATOM     36  O   UNL     1     -42.500   1.978  79.500  1.00  0.00    -0.394 OA
ATOM     37  H   UNL     1     -42.188   1.692  80.404  1.00  0.00     0.210 HD
ENDBRANCH  35  36
ENDBRANCH  29  35
BRANCH  30  38
ATOM     38  O   UNL     1     -42.641   4.062  81.375  1.00  0.00    -0.387 OA
ATOM     39  H   UNL     1     -43.183   4.874  81.149  1.00  0.00     0.211 HD
ENDBRANCH  30  38
ENDBRANCH   1  25
TORSDOF 11
ENDMDL
MODEL 7
REMARK VINA RESULT:    -6.349     12.106     13.628
REMARK INTER + INTRA:         -10.536
REMARK INTER:                  -9.378
REMARK INTRA:                  -1.158
REMARK UNBOUND:                -1.403
REMARK SMILES O=c1c(O[C@H]2O[C@@H](CO)[C@@H](O)[C@@H](O)[C@H]2O)c(-c2ccc(O)cc2)oc2cc(O)cc(O)c12
REMARK SMILES IDX 4 1 3 2 16 3 24 4 2 5 25 6 1 7 32 8 26 9 30 10 27 11 29 12
REMARK SMILES IDX 17 13 18 14 19 15 20 16 23 17 22 18 21 19 31 21 28 23 5 25
REMARK SMILES IDX 14 26 6 27 12 28 7 29 10 30 15 31 13 33 8 35 9 36 11 38
REMARK H PARENT 21 20 31 22 28 24 15 32 13 34 9 37 11 39
REMARK Flexibility Score: inf
ROOT
ATOM      1  O   UNL     1     -41.373  -7.926  81.089  1.00  0.00    -0.454 OA
ENDROOT
BRANCH   1   2
ATOM      2  C   UNL     1     -40.227  -7.611  81.846  1.00  0.00     0.214 A 
ATOM      3  C   UNL     1     -40.137  -6.558  82.823  1.00  0.00     0.180 A 
ATOM      4  O   UNL     1     -38.918  -6.122  83.149  1.00  0.00    -0.452 OA
ATOM      5  C   UNL     1     -39.058  -8.290  81.509  1.00  0.00     0.239 A 
ATOM      6  C   UNL     1     -37.805  -6.671  82.718  1.00  0.00     0.146 A 
ATOM      7  O   UNL     1     -39.147  -9.232  80.674  1.00  0.00    -0.285 OA
ATOM      8  C   UNL     1     -37.821  -7.896  82.039  1.00  0.00     0.111 A 
ATOM      9  C   UNL     1     -36.594  -6.021  82.972  1.00  0.00     0.094 A 
ATOM     10  C   UNL     1     -36.593  -8.584  81.827  1.00  0.00     0.134 A 
ATOM     11  C   UNL     1     -35.400  -6.647  82.686  1.00  0.00     0.123 A 
ATOM     12  C   UNL     1     -35.403  -7.952  82.163  1.00  0.00     0.093 A 
BRANCH   3  13
ATOM     13  C   UNL     1     -41.280  -5.880  83.464  1.00  0.00     0.021 A 
ATOM     14  C   UNL     1     -41.741  -4.625  83.025  1.00  0.00     0.016 A 
ATOM     15  C   UNL     1     -42.801  -3.985  83.686  1.00  0.00     0.047 A 
ATOM     16  C   UNL     1     -43.641  -4.724  84.545  1.00  0.00     0.115 A 
ATOM     17  C   UNL     1     -42.096  -6.596  84.358  1.00  0.00     0.016 A 
ATOM     18  C   UNL     1     -43.294  -6.056  84.827  1.00  0.00     0.047 A 
BRANCH  16  19
ATOM     19  O   UNL     1     -44.765  -4.135  85.125  1.00  0.00    -0.508 OA
ATOM     20  H   UNL     1     -45.512  -4.698  85.533  1.00  0.00     0.293 HD
ENDBRANCH  16  19
ENDBRANCH   3  13
BRANCH  10  21
ATOM     21  O   UNL     1     -36.523  -9.907  81.346  1.00  0.00    -0.507 OA
ATOM     22  H   UNL     1     -37.289 -10.572  81.371  1.00  0.00     0.293 HD
ENDBRANCH  10  21
BRANCH  11  23
ATOM     23  O   UNL     1     -34.230  -5.994  83.013  1.00  0.00    -0.508 OA
ATOM     24  H   UNL     1     -33.970  -5.096  82.589  1.00  0.00     0.293 HD
ENDBRANCH  11  23
ENDBRANCH   1   2
BRANCH   1  25
ATOM     25  C   UNL     1     -42.434  -7.034  80.827  1.00  0.00     0.339 C 
ATOM     26  C   UNL     1     -43.777  -7.604  81.287  1.00  0.00     0.214 C 
ATOM     27  O   UNL     1     -42.424  -6.722  79.429  1.00  0.00    -0.332 OA
ATOM     28  C   UNL     1     -44.888  -6.517  81.087  1.00  0.00     0.180 C 
ATOM     29  C   UNL     1     -43.532  -5.919  78.996  1.00  0.00     0.179 C 
ATOM     30  C   UNL     1     -44.378  -5.350  80.190  1.00  0.00     0.177 C 
BRANCH  26  31
ATOM     31  O   UNL     1     -44.020  -8.793  80.555  1.00  0.00    -0.384 OA
ATOM     32  H   UNL     1     -44.442  -8.578  79.665  1.00  0.00     0.211 HD
ENDBRANCH  26  31
BRANCH  28  33
ATOM     33  O   UNL     1     -46.078  -7.048  80.578  1.00  0.00    -0.387 OA
ATOM     34  H   UNL     1     -45.874  -7.976  80.264  1.00  0.00     0.211 HD
ENDBRANCH  28  33
BRANCH  29  35
ATOM     35  C   UNL     1     -44.327  -6.703  77.913  1.00  0.00     0.191 C 
BRANCH  35  36
ATOM     36  O   UNL     1     -45.659  -6.196  77.727  1.00  0.00    -0.394 OA
ATOM     37  H   UNL     1     -45.866  -5.529  78.440  1.00  0.00     0.210 HD
ENDBRANCH  35  36
ENDBRANCH  29  35
BRANCH  30  38
ATOM     38  O   UNL     1     -45.369  -4.394  79.851  1.00  0.00    -0.387 OA
ATOM     39  H   UNL     1     -44.918  -3.502  79.779  1.00  0.00     0.211 HD
ENDBRANCH  30  38
ENDBRANCH   1  25
TORSDOF 11
ENDMDL
MODEL 8
REMARK VINA RESULT:    -6.230      2.478      6.418
REMARK INTER + INTRA:         -10.365
REMARK INTER:                  -8.729
REMARK INTRA:                  -1.636
REMARK UNBOUND:                -1.403
REMARK SMILES O=c1c(O[C@H]2O[C@@H](CO)[C@@H](O)[C@@H](O)[C@H]2O)c(-c2ccc(O)cc2)oc2cc(O)cc(O)c12
REMARK SMILES IDX 4 1 3 2 16 3 24 4 2 5 25 6 1 7 32 8 26 9 30 10 27 11 29 12
REMARK SMILES IDX 17 13 18 14 19 15 20 16 23 17 22 18 21 19 31 21 28 23 5 25
REMARK SMILES IDX 14 26 6 27 12 28 7 29 10 30 15 31 13 33 8 35 9 36 11 38
REMARK H PARENT 21 20 31 22 28 24 15 32 13 34 9 37 11 39
REMARK Flexibility Score: inf
ROOT
ATOM      1  O   UNL     1     -36.489   7.137  81.246  1.00  0.00    -0.454 OA
ENDROOT
BRANCH   1   2
ATOM      2  C   UNL     1     -37.146   5.889  81.225  1.00  0.00     0.214 A 
ATOM      3  C   UNL     1     -38.230   5.532  80.350  1.00  0.00     0.180 A 
ATOM      4  O   UNL     1     -39.001   4.504  80.711  1.00  0.00    -0.452 OA
ATOM      5  C   UNL     1     -36.798   4.993  82.233  1.00  0.00     0.239 A 
ATOM      6  C   UNL     1     -38.758   3.737  81.750  1.00  0.00     0.146 A 
ATOM      7  O   UNL     1     -35.827   5.297  82.980  1.00  0.00    -0.285 OA
ATOM      8  C   UNL     1     -37.543   3.823  82.442  1.00  0.00     0.111 A 
ATOM      9  C   UNL     1     -39.728   2.809  82.140  1.00  0.00     0.094 A 
ATOM     10  C   UNL     1     -37.209   2.807  83.380  1.00  0.00     0.134 A 
ATOM     11  C   UNL     1     -39.441   1.877  83.114  1.00  0.00     0.123 A 
ATOM     12  C   UNL     1     -38.160   1.845  83.694  1.00  0.00     0.093 A 
BRANCH   3  13
ATOM     13  C   UNL     1     -38.600   6.236  79.107  1.00  0.00     0.021 A 
ATOM     14  C   UNL     1     -39.461   7.349  79.111  1.00  0.00     0.016 A 
ATOM     15  C   UNL     1     -39.829   7.969  77.906  1.00  0.00     0.047 A 
ATOM     16  C   UNL     1     -39.080   7.728  76.735  1.00  0.00     0.115 A 
ATOM     17  C   UNL     1     -37.889   5.969  77.923  1.00  0.00     0.016 A 
ATOM     18  C   UNL     1     -38.070   6.752  76.783  1.00  0.00     0.047 A 
BRANCH  16  19
ATOM     19  O   UNL     1     -39.361   8.416  75.555  1.00  0.00    -0.508 OA
ATOM     20  H   UNL     1     -39.994   8.034  74.851  1.00  0.00     0.293 HD
ENDBRANCH  16  19
ENDBRANCH   3  13
BRANCH  10  21
ATOM     21  O   UNL     1     -35.934   2.688  83.969  1.00  0.00    -0.507 OA
ATOM     22  H   UNL     1     -35.094   3.141  83.623  1.00  0.00     0.293 HD
ENDBRANCH  10  21
BRANCH  11  23
ATOM     23  O   UNL     1     -40.406   0.941  83.421  1.00  0.00    -0.508 OA
ATOM     24  H   UNL     1     -40.819   0.871  84.359  1.00  0.00     0.293 HD
ENDBRANCH  11  23
ENDBRANCH   1   2
BRANCH   1  25
ATOM     25  C   UNL     1     -35.688   7.641  80.199  1.00  0.00     0.339 C 
ATOM     26  C   UNL     1     -34.635   6.625  79.755  1.00  0.00     0.214 C 
ATOM     27  O   UNL     1     -35.106   8.876  80.634  1.00  0.00    -0.332 OA
ATOM     28  C   UNL     1     -33.869   7.194  78.511  1.00  0.00     0.180 C 
ATOM     29  C   UNL     1     -34.162   9.439  79.712  1.00  0.00     0.179 C 
ATOM     30  C   UNL     1     -34.158   8.712  78.320  1.00  0.00     0.177 C 
BRANCH  26  31
ATOM     31  O   UNL     1     -33.788   6.363  80.861  1.00  0.00    -0.384 OA
ATOM     32  H   UNL     1     -34.150   5.596  81.407  1.00  0.00     0.211 HD
ENDBRANCH  26  31
BRANCH  28  33
ATOM     33  O   UNL     1     -32.491   6.956  78.570  1.00  0.00    -0.387 OA
ATOM     34  H   UNL     1     -32.205   6.666  77.657  1.00  0.00     0.211 HD
ENDBRANCH  28  33
BRANCH  29  35
ATOM     35  C   UNL     1     -32.782   9.562  80.418  1.00  0.00     0.191 C 
BRANCH  35  36
ATOM     36  O   UNL     1     -32.761   8.930  81.709  1.00  0.00    -0.394 OA
ATOM     37  H   UNL     1     -33.687   8.896  82.080  1.00  0.00     0.210 HD
ENDBRANCH  35  36
ENDBRANCH  29  35
BRANCH  30  38
ATOM     38  O   UNL     1     -33.395   9.331  77.297  1.00  0.00    -0.387 OA
ATOM     39  H   UNL     1     -33.134   8.620  76.641  1.00  0.00     0.211 HD
ENDBRANCH  30  38
ENDBRANCH   1  25
TORSDOF 11
ENDMDL
MODEL 9
REMARK VINA RESULT:    -6.127      2.236      3.409
REMARK INTER + INTRA:         -10.216
REMARK INTER:                  -8.729
REMARK INTRA:                  -1.487
REMARK UNBOUND:                -1.403
REMARK SMILES O=c1c(O[C@H]2O[C@@H](CO)[C@@H](O)[C@@H](O)[C@H]2O)c(-c2ccc(O)cc2)oc2cc(O)cc(O)c12
REMARK SMILES IDX 4 1 3 2 16 3 24 4 2 5 25 6 1 7 32 8 26 9 30 10 27 11 29 12
REMARK SMILES IDX 17 13 18 14 19 15 20 16 23 17 22 18 21 19 31 21 28 23 5 25
REMARK SMILES IDX 14 26 6 27 12 28 7 29 10 30 15 31 13 33 8 35 9 36 11 38
REMARK H PARENT 21 20 31 22 28 24 15 32 13 34 9 37 11 39
REMARK Flexibility Score: inf
ROOT
ATOM      1  O   UNL     1     -36.535   4.552  80.245  1.00  0.00    -0.454 OA
ENDROOT
BRANCH   1   2
ATOM      2  C   UNL     1     -35.891   5.428  81.142  1.00  0.00     0.214 A 
ATOM      3  C   UNL     1     -35.574   6.806  80.877  1.00  0.00     0.180 A 
ATOM      4  O   UNL     1     -34.629   7.377  81.627  1.00  0.00    -0.452 OA
ATOM      5  C   UNL     1     -35.406   4.861  82.318  1.00  0.00     0.239 A 
ATOM      6  C   UNL     1     -34.060   6.791  82.657  1.00  0.00     0.146 A 
ATOM      7  O   UNL     1     -35.712   3.661  82.560  1.00  0.00    -0.285 OA
ATOM      8  C   UNL     1     -34.559   5.587  83.168  1.00  0.00     0.111 A 
ATOM      9  C   UNL     1     -32.957   7.407  83.254  1.00  0.00     0.094 A 
ATOM     10  C   UNL     1     -34.093   5.126  84.431  1.00  0.00     0.134 A 
ATOM     11  C   UNL     1     -32.443   6.913  84.433  1.00  0.00     0.123 A 
ATOM     12  C   UNL     1     -33.048   5.802  85.048  1.00  0.00     0.093 A 
BRANCH   3  13
ATOM     13  C   UNL     1     -36.168   7.636  79.811  1.00  0.00     0.021 A 
ATOM     14  C   UNL     1     -35.553   7.783  78.554  1.00  0.00     0.016 A 
ATOM     15  C   UNL     1     -36.120   8.616  77.576  1.00  0.00     0.047 A 
ATOM     16  C   UNL     1     -37.465   9.024  77.696  1.00  0.00     0.115 A 
ATOM     17  C   UNL     1     -37.494   8.086  79.943  1.00  0.00     0.016 A 
ATOM     18  C   UNL     1     -38.154   8.698  78.877  1.00  0.00     0.047 A 
BRANCH  16  19
ATOM     19  O   UNL     1     -38.081   9.760  76.684  1.00  0.00    -0.508 OA
ATOM     20  H   UNL     1     -37.681  10.635  76.341  1.00  0.00     0.293 HD
ENDBRANCH  16  19
ENDBRANCH   3  13
BRANCH  10  21
ATOM     21  O   UNL     1     -34.678   4.047  85.124  1.00  0.00    -0.507 OA
ATOM     22  H   UNL     1     -34.158   3.302  85.577  1.00  0.00     0.293 HD
ENDBRANCH  10  21
BRANCH  11  23
ATOM     23  O   UNL     1     -31.395   7.591  85.020  1.00  0.00    -0.508 OA
ATOM     24  H   UNL     1     -30.597   7.940  84.474  1.00  0.00     0.293 HD
ENDBRANCH  11  23
ENDBRANCH   1   2
BRANCH   1  25
ATOM     25  C   UNL     1     -37.917   4.563  79.962  1.00  0.00     0.339 C 
ATOM     26  C   UNL     1     -38.716   3.798  81.018  1.00  0.00     0.214 C 
ATOM     27  O   UNL     1     -38.110   4.035  78.644  1.00  0.00    -0.332 OA
ATOM     28  C   UNL     1     -40.246   3.959  80.716  1.00  0.00     0.180 C 
ATOM     29  C   UNL     1     -39.486   3.870  78.271  1.00  0.00     0.179 C 
ATOM     30  C   UNL     1     -40.479   4.534  79.289  1.00  0.00     0.177 C 
BRANCH  26  31
ATOM     31  O   UNL     1     -38.281   2.449  81.002  1.00  0.00    -0.384 OA
ATOM     32  H   UNL     1     -39.063   1.826  81.128  1.00  0.00     0.211 HD
ENDBRANCH  26  31
BRANCH  28  33
ATOM     33  O   UNL     1     -40.959   2.768  80.893  1.00  0.00    -0.387 OA
ATOM     34  H   UNL     1     -41.800   2.999  81.382  1.00  0.00     0.211 HD
ENDBRANCH  28  33
BRANCH  29  35
ATOM     35  C   UNL     1     -39.743   2.369  77.952  1.00  0.00     0.191 C 
BRANCH  35  36
ATOM     36  O   UNL     1     -38.571   1.555  78.131  1.00  0.00    -0.394 OA
ATOM     37  H   UNL     1     -38.834   0.669  78.508  1.00  0.00     0.210 HD
ENDBRANCH  35  36
ENDBRANCH  29  35
BRANCH  30  38
ATOM     38  O   UNL     1     -41.840   4.581  78.890  1.00  0.00    -0.387 OA
ATOM     39  H   UNL     1     -42.095   3.665  78.573  1.00  0.00     0.211 HD
ENDBRANCH  30  38
ENDBRANCH   1  25
TORSDOF 11
ENDMDL
