MODEL 1
REMARK VINA RESULT:    -4.834      0.000      0.000
REMARK INTER + INTRA:          -5.437
REMARK INTER:                  -5.823
REMARK INTRA:                   0.386
REMARK UNBOUND:                 0.386
REMARK SMILES O=c1c(O)c(-c2ccc(O)c(O)c2)oc2cc(O)cc(O)c12
REMARK SMILES IDX 5 1 3 2 2 3 1 4 22 5 20 6 19 7 17 8 16 9 15 10 14 11 6 12
REMARK SMILES IDX 7 13 8 14 9 15 13 16 11 17 10 18 12 20 4 22 21 24 18 26
REMARK H PARENT 10 19 12 21 4 23 21 25 18 27
REMARK Flexibility Score: inf
ROOT
ATOM      1  C   UNL     1      19.154  15.565  53.000  1.00  0.00     0.180 A 
ATOM      2  C   UNL     1      18.722  16.143  51.791  1.00  0.00     0.208 A 
ATOM      3  C   UNL     1      17.370  16.029  51.429  1.00  0.00     0.238 A 
ATOM      4  O   UNL     1      16.975  16.533  50.343  1.00  0.00    -0.285 OA
ATOM      5  C   UNL     1      16.473  15.363  52.288  1.00  0.00     0.111 A 
ATOM      6  C   UNL     1      15.096  15.209  52.001  1.00  0.00     0.134 A 
ATOM      7  C   UNL     1      14.264  14.539  52.911  1.00  0.00     0.093 A 
ATOM      8  C   UNL     1      14.782  14.022  54.101  1.00  0.00     0.123 A 
ATOM      9  C   UNL     1      16.143  14.171  54.391  1.00  0.00     0.094 A 
ATOM     10  C   UNL     1      16.987  14.833  53.495  1.00  0.00     0.146 A 
ATOM     11  O   UNL     1      18.276  14.956  53.793  1.00  0.00    -0.452 OA
ENDROOT
BRANCH   1  12
ATOM     12  C   UNL     1      20.566  15.625  53.441  1.00  0.00     0.025 A 
ATOM     13  C   UNL     1      21.041  14.684  54.368  1.00  0.00     0.016 A 
ATOM     14  C   UNL     1      22.375  14.709  54.783  1.00  0.00     0.051 A 
ATOM     15  C   UNL     1      23.257  15.666  54.265  1.00  0.00     0.157 A 
ATOM     16  C   UNL     1      21.461  16.571  52.908  1.00  0.00     0.062 A 
ATOM     17  C   UNL     1      22.800  16.596  53.322  1.00  0.00     0.158 A 
BRANCH  15  18
ATOM     18  O   UNL     1      24.588  15.696  54.677  1.00  0.00    -0.504 OA
ATOM     19  H   UNL     1      24.837  15.759  55.657  1.00  0.00     0.293 HD
ENDBRANCH  15  18
BRANCH  17  20
ATOM     20  O   UNL     1      23.684  17.537  52.798  1.00  0.00    -0.504 OA
ATOM     21  H   UNL     1      23.678  17.779  51.813  1.00  0.00     0.293 HD
ENDBRANCH  17  20
ENDBRANCH   1  12
BRANCH   2  22
ATOM     22  O   UNL     1      19.622  16.842  50.982  1.00  0.00    -0.502 OA
ATOM     23  H   UNL     1      19.672  16.701  49.980  1.00  0.00     0.293 HD
ENDBRANCH   2  22
BRANCH   6  24
ATOM     24  O   UNL     1      14.547  15.714  50.820  1.00  0.00    -0.507 OA
ATOM     25  H   UNL     1      15.097  16.261  50.169  1.00  0.00     0.293 HD
ENDBRANCH   6  24
BRANCH   8  26
ATOM     26  O   UNL     1      13.936  13.362  54.989  1.00  0.00    -0.508 OA
ATOM     27  H   UNL     1      13.517  13.842  55.778  1.00  0.00     0.293 HD
ENDBRANCH   8  26
TORSDOF 6
ENDMDL
MODEL 2
REMARK VINA RESULT:    -4.703      1.422      7.481
REMARK INTER + INTRA:          -5.279
REMARK INTER:                  -5.607
REMARK INTRA:                   0.329
REMARK UNBOUND:                 0.386
REMARK SMILES O=c1c(O)c(-c2ccc(O)c(O)c2)oc2cc(O)cc(O)c12
REMARK SMILES IDX 5 1 3 2 2 3 1 4 22 5 20 6 19 7 17 8 16 9 15 10 14 11 6 12
REMARK SMILES IDX 7 13 8 14 9 15 13 16 11 17 10 18 12 20 4 22 21 24 18 26
REMARK H PARENT 10 19 12 21 4 23 21 25 18 27
REMARK Flexibility Score: inf
ROOT
ATOM      1  C   UNL     1      19.710  16.014  52.902  1.00  0.00     0.180 A 
ATOM      2  C   UNL     1      20.278  15.235  53.929  1.00  0.00     0.208 A 
ATOM      3  C   UNL     1      21.645  15.380  54.212  1.00  0.00     0.238 A 
ATOM      4  O   UNL     1      22.167  14.680  55.122  1.00  0.00    -0.285 OA
ATOM      5  C   UNL     1      22.412  16.313  53.484  1.00  0.00     0.111 A 
ATOM      6  C   UNL     1      23.794  16.524  53.712  1.00  0.00     0.134 A 
ATOM      7  C   UNL     1      24.487  17.477  52.950  1.00  0.00     0.093 A 
ATOM      8  C   UNL     1      23.827  18.223  51.970  1.00  0.00     0.123 A 
ATOM      9  C   UNL     1      22.462  18.018  51.741  1.00  0.00     0.094 A 
ATOM     10  C   UNL     1      21.755  17.071  52.488  1.00  0.00     0.146 A 
ATOM     11  O   UNL     1      20.460  16.894  52.246  1.00  0.00    -0.452 OA
ENDROOT
BRANCH   1  12
ATOM     12  C   UNL     1      18.280  15.903  52.531  1.00  0.00     0.025 A 
ATOM     13  C   UNL     1      17.885  16.193  51.215  1.00  0.00     0.016 A 
ATOM     14  C   UNL     1      16.545  16.076  50.837  1.00  0.00     0.051 A 
ATOM     15  C   UNL     1      15.584  15.653  51.764  1.00  0.00     0.157 A 
ATOM     16  C   UNL     1      17.315  15.460  53.453  1.00  0.00     0.062 A 
ATOM     17  C   UNL     1      15.971  15.340  53.073  1.00  0.00     0.158 A 
BRANCH  15  18
ATOM     18  O   UNL     1      14.245  15.537  51.392  1.00  0.00    -0.504 OA
ATOM     19  H   UNL     1      13.978  15.326  50.438  1.00  0.00     0.293 HD
ENDBRANCH  15  18
BRANCH  17  20
ATOM     20  O   UNL     1      15.015  14.906  53.990  1.00  0.00    -0.504 OA
ATOM     21  H   UNL     1      14.053  15.224  53.944  1.00  0.00     0.293 HD
ENDBRANCH  17  20
ENDBRANCH   1  12
BRANCH   2  22
ATOM     22  O   UNL     1      19.484  14.355  54.668  1.00  0.00    -0.502 OA
ATOM     23  H   UNL     1      18.616  14.642  55.102  1.00  0.00     0.293 HD
ENDBRANCH   2  22
BRANCH   6  24
ATOM     24  O   UNL     1      24.482  15.796  54.683  1.00  0.00    -0.507 OA
ATOM     25  H   UNL     1      24.359  15.978  55.672  1.00  0.00     0.293 HD
ENDBRANCH   6  24
BRANCH   8  26
ATOM     26  O   UNL     1      24.538  19.164  51.229  1.00  0.00    -0.508 OA
ATOM     27  H   UNL     1      25.371  18.910  50.710  1.00  0.00     0.293 HD
ENDBRANCH   8  26
TORSDOF 6
ENDMDL
MODEL 3
REMARK VINA RESULT:    -4.039      1.294      6.695
REMARK INTER + INTRA:          -4.479
REMARK INTER:                  -4.183
REMARK INTRA:                  -0.297
REMARK UNBOUND:                 0.386
REMARK SMILES O=c1c(O)c(-c2ccc(O)c(O)c2)oc2cc(O)cc(O)c12
REMARK SMILES IDX 5 1 3 2 2 3 1 4 22 5 20 6 19 7 17 8 16 9 15 10 14 11 6 12
REMARK SMILES IDX 7 13 8 14 9 15 13 16 11 17 10 18 12 20 4 22 21 24 18 26
REMARK H PARENT 10 19 12 21 4 23 21 25 18 27
REMARK Flexibility Score: inf
ROOT
ATOM      1  C   UNL     1      18.371  15.318  53.049  1.00  0.00     0.180 A 
ATOM      2  C   UNL     1      18.558  15.857  51.761  1.00  0.00     0.208 A 
ATOM      3  C   UNL     1      19.843  16.276  51.382  1.00  0.00     0.238 A 
ATOM      4  O   UNL     1      20.021  16.769  50.236  1.00  0.00    -0.285 OA
ATOM      5  C   UNL     1      20.918  16.130  52.283  1.00  0.00     0.111 A 
ATOM      6  C   UNL     1      22.243  16.523  51.977  1.00  0.00     0.134 A 
ATOM      7  C   UNL     1      23.261  16.338  52.925  1.00  0.00     0.093 A 
ATOM      8  C   UNL     1      22.980  15.769  54.169  1.00  0.00     0.123 A 
ATOM      9  C   UNL     1      21.672  15.379  54.477  1.00  0.00     0.094 A 
ATOM     10  C   UNL     1      20.644  15.557  53.547  1.00  0.00     0.146 A 
ATOM     11  O   UNL     1      19.411  15.183  53.867  1.00  0.00    -0.452 OA
ENDROOT
BRANCH   1  12
ATOM     12  C   UNL     1      17.043  14.872  53.530  1.00  0.00     0.025 A 
ATOM     13  C   UNL     1      16.268  15.737  54.318  1.00  0.00     0.016 A 
ATOM     14  C   UNL     1      15.004  15.345  54.766  1.00  0.00     0.051 A 
ATOM     15  C   UNL     1      14.490  14.089  54.419  1.00  0.00     0.157 A 
ATOM     16  C   UNL     1      16.515  13.620  53.167  1.00  0.00     0.062 A 
ATOM     17  C   UNL     1      15.246  13.226  53.614  1.00  0.00     0.158 A 
BRANCH  15  18
ATOM     18  O   UNL     1      13.231  13.692  54.865  1.00  0.00    -0.504 OA
ATOM     19  H   UNL     1      12.556  14.364  55.209  1.00  0.00     0.293 HD
ENDBRANCH  15  18
BRANCH  17  20
ATOM     20  O   UNL     1      14.727  11.983  53.259  1.00  0.00    -0.504 OA
ATOM     21  H   UNL     1      14.081  11.485  53.862  1.00  0.00     0.293 HD
ENDBRANCH  17  20
ENDBRANCH   1  12
BRANCH   2  22
ATOM     22  O   UNL     1      17.486  15.943  50.870  1.00  0.00    -0.502 OA
ATOM     23  H   UNL     1      17.399  16.695  50.197  1.00  0.00     0.293 HD
ENDBRANCH   2  22
BRANCH   6  24
ATOM     24  O   UNL     1      22.556  17.095  50.743  1.00  0.00    -0.507 OA
ATOM     25  H   UNL     1      22.147  17.972  50.443  1.00  0.00     0.293 HD
ENDBRANCH   6  24
BRANCH   8  26
ATOM     26  O   UNL     1      24.009  15.595  55.092  1.00  0.00    -0.508 OA
ATOM     27  H   UNL     1      24.848  15.075  54.859  1.00  0.00     0.293 HD
ENDBRANCH   8  26
TORSDOF 6
ENDMDL
MODEL 4
REMARK VINA RESULT:    -3.668      1.845      3.480
REMARK INTER + INTRA:          -4.032
REMARK INTER:                  -3.709
REMARK INTRA:                  -0.323
REMARK UNBOUND:                 0.386
REMARK SMILES O=c1c(O)c(-c2ccc(O)c(O)c2)oc2cc(O)cc(O)c12
REMARK SMILES IDX 5 1 3 2 2 3 1 4 22 5 20 6 19 7 17 8 16 9 15 10 14 11 6 12
REMARK SMILES IDX 7 13 8 14 9 15 13 16 11 17 10 18 12 20 4 22 21 24 18 26
REMARK H PARENT 10 19 12 21 4 23 21 25 18 27
REMARK Flexibility Score: inf
ROOT
ATOM      1  C   UNL     1      20.440  16.007  52.496  1.00  0.00     0.180 A 
ATOM      2  C   UNL     1      20.469  15.145  53.610  1.00  0.00     0.208 A 
ATOM      3  C   UNL     1      19.260  14.619  54.091  1.00  0.00     0.238 A 
ATOM      4  O   UNL     1      19.272  13.855  55.094  1.00  0.00    -0.285 OA
ATOM      5  C   UNL     1      18.051  14.944  53.442  1.00  0.00     0.111 A 
ATOM      6  C   UNL     1      16.791  14.453  53.861  1.00  0.00     0.134 A 
ATOM      7  C   UNL     1      15.633  14.816  53.158  1.00  0.00     0.093 A 
ATOM      8  C   UNL     1      15.710  15.658  52.045  1.00  0.00     0.123 A 
ATOM      9  C   UNL     1      16.952  16.147  51.627  1.00  0.00     0.094 A 
ATOM     10  C   UNL     1      18.117  15.798  52.316  1.00  0.00     0.146 A 
ATOM     11  O   UNL     1      19.283  16.280  51.901  1.00  0.00    -0.452 OA
ENDROOT
BRANCH   1  12
ATOM     12  C   UNL     1      21.670  16.618  51.942  1.00  0.00     0.025 A 
ATOM     13  C   UNL     1      22.265  16.057  50.800  1.00  0.00     0.016 A 
ATOM     14  C   UNL     1      23.414  16.628  50.248  1.00  0.00     0.051 A 
ATOM     15  C   UNL     1      23.976  17.777  50.819  1.00  0.00     0.157 A 
ATOM     16  C   UNL     1      22.226  17.783  52.500  1.00  0.00     0.062 A 
ATOM     17  C   UNL     1      23.378  18.358  51.945  1.00  0.00     0.158 A 
BRANCH  15  18
ATOM     18  O   UNL     1      25.124  18.349  50.273  1.00  0.00    -0.504 OA
ATOM     19  H   UNL     1      25.073  18.997  49.495  1.00  0.00     0.293 HD
ENDBRANCH  15  18
BRANCH  17  20
ATOM     20  O   UNL     1      23.931  19.510  52.502  1.00  0.00    -0.504 OA
ATOM     21  H   UNL     1      24.922  19.579  52.701  1.00  0.00     0.293 HD
ENDBRANCH  17  20
ENDBRANCH   1  12
BRANCH   2  22
ATOM     22  O   UNL     1      21.685  14.799  54.203  1.00  0.00    -0.502 OA
ATOM     23  H   UNL     1      21.750  14.488  55.164  1.00  0.00     0.293 HD
ENDBRANCH   2  22
BRANCH   6  24
ATOM     24  O   UNL     1      16.680  13.610  54.969  1.00  0.00    -0.507 OA
ATOM     25  H   UNL     1      16.918  12.627  54.916  1.00  0.00     0.293 HD
ENDBRANCH   6  24
BRANCH   8  26
ATOM     26  O   UNL     1      14.545  16.002  51.364  1.00  0.00    -0.508 OA
ATOM     27  H   UNL     1      13.783  16.485  51.827  1.00  0.00     0.293 HD
ENDBRANCH   8  26
TORSDOF 6
ENDMDL
MODEL 5
REMARK VINA RESULT:    -3.204      2.490      7.327
REMARK INTER + INTRA:          -3.473
REMARK INTER:                  -3.186
REMARK INTRA:                  -0.288
REMARK UNBOUND:                 0.386
REMARK SMILES O=c1c(O)c(-c2ccc(O)c(O)c2)oc2cc(O)cc(O)c12
REMARK SMILES IDX 5 1 3 2 2 3 1 4 22 5 20 6 19 7 17 8 16 9 15 10 14 11 6 12
REMARK SMILES IDX 7 13 8 14 9 15 13 16 11 17 10 18 12 20 4 22 21 24 18 26
REMARK H PARENT 10 19 12 21 4 23 21 25 18 27
REMARK Flexibility Score: inf
ROOT
ATOM      1  C   UNL     1      20.630  16.214  51.884  1.00  0.00     0.180 A 
ATOM      2  C   UNL     1      21.274  15.328  50.999  1.00  0.00     0.208 A 
ATOM      3  C   UNL     1      22.531  15.681  50.483  1.00  0.00     0.238 A 
ATOM      4  O   UNL     1      23.112  14.900  49.681  1.00  0.00    -0.285 OA
ATOM      5  C   UNL     1      23.129  16.896  50.874  1.00  0.00     0.111 A 
ATOM      6  C   UNL     1      24.394  17.322  50.403  1.00  0.00     0.134 A 
ATOM      7  C   UNL     1      24.927  18.543  50.846  1.00  0.00     0.093 A 
ATOM      8  C   UNL     1      24.221  19.342  51.749  1.00  0.00     0.123 A 
ATOM      9  C   UNL     1      22.970  18.925  52.217  1.00  0.00     0.094 A 
ATOM     10  C   UNL     1      22.422  17.714  51.786  1.00  0.00     0.146 A 
ATOM     11  O   UNL     1      21.230  17.345  52.243  1.00  0.00    -0.452 OA
ENDROOT
BRANCH   1  12
ATOM     12  C   UNL     1      19.295  15.923  52.456  1.00  0.00     0.025 A 
ATOM     13  C   UNL     1      19.189  15.548  53.805  1.00  0.00     0.016 A 
ATOM     14  C   UNL     1      17.938  15.288  54.371  1.00  0.00     0.051 A 
ATOM     15  C   UNL     1      16.774  15.415  53.601  1.00  0.00     0.157 A 
ATOM     16  C   UNL     1      18.123  16.068  51.693  1.00  0.00     0.062 A 
ATOM     17  C   UNL     1      16.867  15.810  52.260  1.00  0.00     0.158 A 
BRANCH  15  18
ATOM     18  O   UNL     1      15.525  15.154  54.160  1.00  0.00    -0.504 OA
ATOM     19  H   UNL     1      15.166  15.704  54.933  1.00  0.00     0.293 HD
ENDBRANCH  15  18
BRANCH  17  20
ATOM     20  O   UNL     1      15.707  15.949  51.501  1.00  0.00    -0.504 OA
ATOM     21  H   UNL     1      14.919  15.322  51.616  1.00  0.00     0.293 HD
ENDBRANCH  17  20
ENDBRANCH   1  12
BRANCH   2  22
ATOM     22  O   UNL     1      20.682  14.107  50.668  1.00  0.00    -0.502 OA
ATOM     23  H   UNL     1      20.689  13.312  51.296  1.00  0.00     0.293 HD
ENDBRANCH   2  22
BRANCH   6  24
ATOM     24  O   UNL     1      25.124  16.547  49.501  1.00  0.00    -0.507 OA
ATOM     25  H   UNL     1      25.733  15.799  49.811  1.00  0.00     0.293 HD
ENDBRANCH   6  24
BRANCH   8  26
ATOM     26  O   UNL     1      24.773  20.548  52.174  1.00  0.00    -0.508 OA
ATOM     27  H   UNL     1      24.605  20.908  53.107  1.00  0.00     0.293 HD
ENDBRANCH   8  26
TORSDOF 6
ENDMDL
