MODEL 1
REMARK VINA RESULT:    -4.759      0.000      0.000
REMARK INTER + INTRA:          -7.660
REMARK INTER:                  -7.262
REMARK INTRA:                  -0.397
REMARK UNBOUND:                -0.397
REMARK SMILES CCCCCCCCCC=CC(=O)[O-]
REMARK SMILES IDX 7 1 8 2 9 3 10 4 11 5 12 6 13 7 14 8 6 9 5 10 4 11 3 12 2 13
REMARK SMILES IDX 1 14
REMARK H PARENT
REMARK Flexibility Score: inf
ROOT
ATOM      1  C   UNL     1      30.774  -5.511 -15.216  1.00  0.00     0.000 C 
ENDROOT
BRANCH   1   2
ATOM      2  C   UNL     1      30.049  -6.857 -15.367  1.00  0.00     0.004 C 
BRANCH   2   3
ATOM      3  C   UNL     1      29.989  -7.645 -14.050  1.00  0.00     0.027 C 
BRANCH   3   4
ATOM      4  C   UNL     1      30.478  -6.816 -12.898  1.00  0.00    -0.025 C 
ATOM      5  C   UNL     1      31.662  -7.051 -12.320  1.00  0.00     0.020 C 
BRANCH   5   6
ATOM      6  C   UNL     1      32.168  -6.241 -11.200  1.00  0.00     0.064 C 
ATOM      7  O   UNL     1      31.742  -5.073 -10.995  1.00  0.00    -0.545 OA
ATOM      8  O   UNL     1      33.130  -6.774 -10.353  1.00  0.00    -0.545 OA
ENDBRANCH   5   6
ENDBRANCH   3   4
ENDBRANCH   2   3
ENDBRANCH   1   2
BRANCH   1   9
ATOM      9  C   UNL     1      31.570  -5.124 -16.475  1.00  0.00     0.000 C 
BRANCH   9  10
ATOM     10  C   UNL     1      33.048  -5.539 -16.389  1.00  0.00     0.000 C 
BRANCH  10  11
ATOM     11  C   UNL     1      33.843  -5.161 -17.649  1.00  0.00    -0.000 C 
BRANCH  11  12
ATOM     12  C   UNL     1      35.254  -5.786 -17.657  1.00  0.00    -0.000 C 
BRANCH  12  13
ATOM     13  C   UNL     1      36.343  -4.853 -17.102  1.00  0.00    -0.003 C 
ATOM     14  C   UNL     1      37.503  -5.605 -16.454  1.00  0.00     0.004 C 
ENDBRANCH  12  13
ENDBRANCH  11  12
ENDBRANCH  10  11
ENDBRANCH   9  10
ENDBRANCH   1   9
TORSDOF 9
ENDMDL
MODEL 2
REMARK VINA RESULT:    -4.636      3.171      6.067
REMARK INTER + INTRA:          -7.472
REMARK INTER:                  -6.907
REMARK INTRA:                  -0.564
REMARK UNBOUND:                -0.397
REMARK SMILES CCCCCCCCCC=CC(=O)[O-]
REMARK SMILES IDX 7 1 8 2 9 3 10 4 11 5 12 6 13 7 14 8 6 9 5 10 4 11 3 12 2 13
REMARK SMILES IDX 1 14
REMARK H PARENT
REMARK Flexibility Score: inf
ROOT
ATOM      1  C   UNL     1      31.141  -5.216 -15.753  1.00  0.00     0.000 C 
ENDROOT
BRANCH   1   2
ATOM      2  C   UNL     1      32.631  -5.500 -15.991  1.00  0.00     0.004 C 
BRANCH   2   3
ATOM      3  C   UNL     1      33.016  -5.424 -17.476  1.00  0.00     0.027 C 
BRANCH   3   4
ATOM      4  C   UNL     1      34.477  -5.118 -17.644  1.00  0.00    -0.025 C 
ATOM      5  C   UNL     1      35.394  -5.603 -16.800  1.00  0.00     0.020 C 
BRANCH   5   6
ATOM      6  C   UNL     1      36.832  -5.328 -16.953  1.00  0.00     0.064 C 
ATOM      7  O   UNL     1      37.238  -4.249 -17.463  1.00  0.00    -0.545 OA
ATOM      8  O   UNL     1      37.756  -6.272 -16.528  1.00  0.00    -0.545 OA
ENDBRANCH   5   6
ENDBRANCH   3   4
ENDBRANCH   2   3
ENDBRANCH   1   2
BRANCH   1   9
ATOM      9  C   UNL     1      30.342  -6.490 -15.422  1.00  0.00     0.000 C 
BRANCH   9  10
ATOM     10  C   UNL     1      29.231  -6.238 -14.390  1.00  0.00     0.000 C 
BRANCH  10  11
ATOM     11  C   UNL     1      29.499  -6.942 -13.049  1.00  0.00    -0.000 C 
BRANCH  11  12
ATOM     12  C   UNL     1      31.007  -7.125 -12.777  1.00  0.00    -0.000 C 
BRANCH  12  13
ATOM     13  C   UNL     1      31.642  -5.948 -12.018  1.00  0.00    -0.003 C 
ATOM     14  C   UNL     1      32.621  -6.393 -10.934  1.00  0.00     0.004 C 
ENDBRANCH  12  13
ENDBRANCH  11  12
ENDBRANCH  10  11
ENDBRANCH   9  10
ENDBRANCH   1   9
TORSDOF 9
ENDMDL
MODEL 3
REMARK VINA RESULT:    -4.508      3.247      6.181
REMARK INTER + INTRA:          -7.276
REMARK INTER:                  -6.597
REMARK INTRA:                  -0.680
REMARK UNBOUND:                -0.397
REMARK SMILES CCCCCCCCCC=CC(=O)[O-]
REMARK SMILES IDX 7 1 8 2 9 3 10 4 11 5 12 6 13 7 14 8 6 9 5 10 4 11 3 12 2 13
REMARK SMILES IDX 1 14
REMARK H PARENT
REMARK Flexibility Score: inf
ROOT
ATOM      1  C   UNL     1      31.155  -5.243 -15.748  1.00  0.00     0.000 C 
ENDROOT
BRANCH   1   2
ATOM      2  C   UNL     1      32.625  -5.578 -16.045  1.00  0.00     0.004 C 
BRANCH   2   3
ATOM      3  C   UNL     1      33.016  -5.277 -17.499  1.00  0.00     0.027 C 
BRANCH   3   4
ATOM      4  C   UNL     1      34.508  -5.205 -17.656  1.00  0.00    -0.025 C 
ATOM      5  C   UNL     1      35.331  -5.453 -16.632  1.00  0.00     0.020 C 
BRANCH   5   6
ATOM      6  C   UNL     1      36.796  -5.403 -16.767  1.00  0.00     0.064 C 
ATOM      7  O   UNL     1      37.370  -4.402 -17.274  1.00  0.00    -0.545 OA
ATOM      8  O   UNL     1      37.559  -6.475 -16.327  1.00  0.00    -0.545 OA
ENDBRANCH   5   6
ENDBRANCH   3   4
ENDBRANCH   2   3
ENDBRANCH   1   2
BRANCH   1   9
ATOM      9  C   UNL     1      30.791  -5.442 -14.266  1.00  0.00     0.000 C 
BRANCH   9  10
ATOM     10  C   UNL     1      29.370  -5.997 -14.077  1.00  0.00     0.000 C 
BRANCH  10  11
ATOM     11  C   UNL     1      29.356  -7.364 -13.373  1.00  0.00    -0.000 C 
BRANCH  11  12
ATOM     12  C   UNL     1      29.961  -8.479 -14.253  1.00  0.00    -0.000 C 
BRANCH  12  13
ATOM     13  C   UNL     1      29.453  -8.459 -15.705  1.00  0.00    -0.003 C 
ATOM     14  C   UNL     1      30.300  -9.312 -16.647  1.00  0.00     0.004 C 
ENDBRANCH  12  13
ENDBRANCH  11  12
ENDBRANCH  10  11
ENDBRANCH   9  10
ENDBRANCH   1   9
TORSDOF 9
ENDMDL
MODEL 4
REMARK VINA RESULT:    -4.102      3.093      5.984
REMARK INTER + INTRA:          -6.658
REMARK INTER:                  -6.364
REMARK INTRA:                  -0.294
REMARK UNBOUND:                -0.397
REMARK SMILES CCCCCCCCCC=CC(=O)[O-]
REMARK SMILES IDX 7 1 8 2 9 3 10 4 11 5 12 6 13 7 14 8 6 9 5 10 4 11 3 12 2 13
REMARK SMILES IDX 1 14
REMARK H PARENT
REMARK Flexibility Score: inf
ROOT
ATOM      1  C   UNL     1      29.958  -6.368 -15.386  1.00  0.00     0.000 C 
ENDROOT
BRANCH   1   2
ATOM      2  C   UNL     1      31.159  -5.411 -15.413  1.00  0.00     0.004 C 
BRANCH   2   3
ATOM      3  C   UNL     1      31.880  -5.408 -16.770  1.00  0.00     0.027 C 
BRANCH   3   4
ATOM      4  C   UNL     1      33.370  -5.363 -16.593  1.00  0.00    -0.025 C 
ATOM      5  C   UNL     1      34.195  -5.235 -17.638  1.00  0.00     0.020 C 
BRANCH   5   6
ATOM      6  C   UNL     1      35.658  -5.174 -17.486  1.00  0.00     0.064 C 
ATOM      7  O   UNL     1      36.261  -4.069 -17.427  1.00  0.00    -0.545 OA
ATOM      8  O   UNL     1      36.386  -6.353 -17.405  1.00  0.00    -0.545 OA
ENDBRANCH   5   6
ENDBRANCH   3   4
ENDBRANCH   2   3
ENDBRANCH   1   2
BRANCH   1   9
ATOM      9  C   UNL     1      29.253  -6.394 -14.019  1.00  0.00     0.000 C 
BRANCH   9  10
ATOM     10  C   UNL     1      30.098  -7.078 -12.932  1.00  0.00     0.000 C 
BRANCH  10  11
ATOM     11  C   UNL     1      31.044  -6.101 -12.214  1.00  0.00    -0.000 C 
BRANCH  11  12
ATOM     12  C   UNL     1      32.467  -6.677 -12.057  1.00  0.00    -0.000 C 
BRANCH  12  13
ATOM     13  C   UNL     1      32.943  -6.749 -10.597  1.00  0.00    -0.003 C 
ATOM     14  C   UNL     1      32.439  -5.586  -9.745  1.00  0.00     0.004 C 
ENDBRANCH  12  13
ENDBRANCH  11  12
ENDBRANCH  10  11
ENDBRANCH   9  10
ENDBRANCH   1   9
TORSDOF 9
ENDMDL
MODEL 5
REMARK VINA RESULT:    -3.771      3.172      3.906
REMARK INTER + INTRA:          -6.152
REMARK INTER:                  -5.949
REMARK INTRA:                  -0.203
REMARK UNBOUND:                -0.397
REMARK SMILES CCCCCCCCCC=CC(=O)[O-]
REMARK SMILES IDX 7 1 8 2 9 3 10 4 11 5 12 6 13 7 14 8 6 9 5 10 4 11 3 12 2 13
REMARK SMILES IDX 1 14
REMARK H PARENT
REMARK Flexibility Score: inf
ROOT
ATOM      1  C   UNL     1      30.720  -4.993 -14.356  1.00  0.00     0.000 C 
ENDROOT
BRANCH   1   2
ATOM      2  C   UNL     1      31.109  -6.245 -13.555  1.00  0.00     0.004 C 
BRANCH   2   3
ATOM      3  C   UNL     1      29.908  -7.158 -13.267  1.00  0.00     0.027 C 
BRANCH   3   4
ATOM      4  C   UNL     1      29.785  -8.235 -14.307  1.00  0.00    -0.025 C 
ATOM      5  C   UNL     1      29.640  -7.941 -15.603  1.00  0.00     0.020 C 
BRANCH   5   6
ATOM      6  C   UNL     1      29.532  -8.980 -16.641  1.00  0.00     0.064 C 
ATOM      7  O   UNL     1      30.502  -9.740 -16.906  1.00  0.00    -0.545 OA
ATOM      8  O   UNL     1      28.341  -9.127 -17.338  1.00  0.00    -0.545 OA
ENDBRANCH   5   6
ENDBRANCH   3   4
ENDBRANCH   2   3
ENDBRANCH   1   2
BRANCH   1   9
ATOM      9  C   UNL     1      31.128  -5.088 -15.836  1.00  0.00     0.000 C 
BRANCH   9  10
ATOM     10  C   UNL     1      32.535  -5.677 -16.024  1.00  0.00     0.000 C 
BRANCH  10  11
ATOM     11  C   UNL     1      33.301  -5.024 -17.187  1.00  0.00    -0.000 C 
BRANCH  11  12
ATOM     12  C   UNL     1      34.624  -5.755 -17.498  1.00  0.00    -0.000 C 
BRANCH  12  13
ATOM     13  C   UNL     1      35.841  -5.156 -16.774  1.00  0.00    -0.003 C 
ATOM     14  C   UNL     1      36.479  -3.996 -17.535  1.00  0.00     0.004 C 
ENDBRANCH  12  13
ENDBRANCH  11  12
ENDBRANCH  10  11
ENDBRANCH   9  10
ENDBRANCH   1   9
TORSDOF 9
ENDMDL
MODEL 6
REMARK VINA RESULT:    -3.617      5.054      6.481
REMARK INTER + INTRA:          -5.917
REMARK INTER:                  -5.701
REMARK INTRA:                  -0.216
REMARK UNBOUND:                -0.397
REMARK SMILES CCCCCCCCCC=CC(=O)[O-]
REMARK SMILES IDX 7 1 8 2 9 3 10 4 11 5 12 6 13 7 14 8 6 9 5 10 4 11 3 12 2 13
REMARK SMILES IDX 1 14
REMARK H PARENT
REMARK Flexibility Score: inf
ROOT
ATOM      1  C   UNL     1      30.268  -5.938 -14.824  1.00  0.00     0.000 C 
ENDROOT
BRANCH   1   2
ATOM      2  C   UNL     1      29.219  -7.057 -14.745  1.00  0.00     0.004 C 
BRANCH   2   3
ATOM      3  C   UNL     1      29.821  -8.448 -14.993  1.00  0.00     0.027 C 
BRANCH   3   4
ATOM      4  C   UNL     1      29.669  -8.857 -16.429  1.00  0.00    -0.025 C 
ATOM      5  C   UNL     1      28.472  -8.889 -17.024  1.00  0.00     0.020 C 
BRANCH   5   6
ATOM      6  C   UNL     1      28.301  -9.273 -18.435  1.00  0.00     0.064 C 
ATOM      7  O   UNL     1      29.277  -9.677 -19.123  1.00  0.00    -0.545 OA
ATOM      8  O   UNL     1      27.044  -9.190 -19.018  1.00  0.00    -0.545 OA
ENDBRANCH   5   6
ENDBRANCH   3   4
ENDBRANCH   2   3
ENDBRANCH   1   2
BRANCH   1   9
ATOM      9  C   UNL     1      30.083  -4.876 -13.725  1.00  0.00     0.000 C 
BRANCH   9  10
ATOM     10  C   UNL     1      30.464  -5.397 -12.330  1.00  0.00     0.000 C 
BRANCH  10  11
ATOM     11  C   UNL     1      31.359  -6.647 -12.389  1.00  0.00    -0.000 C 
BRANCH  11  12
ATOM     12  C   UNL     1      32.724  -6.419 -11.705  1.00  0.00    -0.000 C 
BRANCH  12  13
ATOM     13  C   UNL     1      32.609  -5.970 -10.240  1.00  0.00    -0.003 C 
ATOM     14  C   UNL     1      33.350  -6.890  -9.271  1.00  0.00     0.004 C 
ENDBRANCH  12  13
ENDBRANCH  11  12
ENDBRANCH  10  11
ENDBRANCH   9  10
ENDBRANCH   1   9
TORSDOF 9
ENDMDL
MODEL 7
REMARK VINA RESULT:    -3.596      3.696      4.938
REMARK INTER + INTRA:          -5.886
REMARK INTER:                  -5.373
REMARK INTRA:                  -0.513
REMARK UNBOUND:                -0.397
REMARK SMILES CCCCCCCCCC=CC(=O)[O-]
REMARK SMILES IDX 7 1 8 2 9 3 10 4 11 5 12 6 13 7 14 8 6 9 5 10 4 11 3 12 2 13
REMARK SMILES IDX 1 14
REMARK H PARENT
REMARK Flexibility Score: inf
ROOT
ATOM      1  C   UNL     1      29.211  -7.340 -13.290  1.00  0.00     0.000 C 
ENDROOT
BRANCH   1   2
ATOM      2  C   UNL     1      29.524  -5.868 -13.598  1.00  0.00     0.004 C 
BRANCH   2   3
ATOM      3  C   UNL     1      31.015  -5.536 -13.438  1.00  0.00     0.027 C 
BRANCH   3   4
ATOM      4  C   UNL     1      31.403  -5.467 -11.988  1.00  0.00    -0.025 C 
ATOM      5  C   UNL     1      32.343  -6.269 -11.478  1.00  0.00     0.020 C 
BRANCH   5   6
ATOM      6  C   UNL     1      32.750  -6.208 -10.064  1.00  0.00     0.064 C 
ATOM      7  O   UNL     1      32.263  -5.347  -9.283  1.00  0.00    -0.545 OA
ATOM      8  O   UNL     1      33.683  -7.116  -9.583  1.00  0.00    -0.545 OA
ENDBRANCH   5   6
ENDBRANCH   3   4
ENDBRANCH   2   3
ENDBRANCH   1   2
BRANCH   1   9
ATOM      9  C   UNL     1      29.944  -8.310 -14.234  1.00  0.00     0.000 C 
BRANCH   9  10
ATOM     10  C   UNL     1      29.698  -7.989 -15.717  1.00  0.00     0.000 C 
BRANCH  10  11
ATOM     11  C   UNL     1      29.128  -9.186 -16.496  1.00  0.00    -0.000 C 
BRANCH  11  12
ATOM     12  C   UNL     1      29.891  -9.442 -17.812  1.00  0.00    -0.000 C 
BRANCH  12  13
ATOM     13  C   UNL     1      29.053  -9.167 -19.072  1.00  0.00    -0.003 C 
ATOM     14  C   UNL     1      27.550  -9.174 -18.803  1.00  0.00     0.004 C 
ENDBRANCH  12  13
ENDBRANCH  11  12
ENDBRANCH  10  11
ENDBRANCH   9  10
ENDBRANCH   1   9
TORSDOF 9
ENDMDL
MODEL 8
REMARK VINA RESULT:    -3.358      4.286      6.103
REMARK INTER + INTRA:          -5.522
REMARK INTER:                  -5.226
REMARK INTRA:                  -0.295
REMARK UNBOUND:                -0.397
REMARK SMILES CCCCCCCCCC=CC(=O)[O-]
REMARK SMILES IDX 7 1 8 2 9 3 10 4 11 5 12 6 13 7 14 8 6 9 5 10 4 11 3 12 2 13
REMARK SMILES IDX 1 14
REMARK H PARENT
REMARK Flexibility Score: inf
ROOT
ATOM      1  C   UNL     1      29.861  -6.146 -12.446  1.00  0.00     0.000 C 
ENDROOT
BRANCH   1   2
ATOM      2  C   UNL     1      29.327  -5.612 -13.784  1.00  0.00     0.004 C 
BRANCH   2   3
ATOM      3  C   UNL     1      30.429  -5.473 -14.845  1.00  0.00     0.027 C 
BRANCH   3   4
ATOM      4  C   UNL     1      30.450  -6.660 -15.765  1.00  0.00    -0.025 C 
ATOM      5  C   UNL     1      29.513  -7.613 -15.698  1.00  0.00     0.020 C 
BRANCH   5   6
ATOM      6  C   UNL     1      29.506  -8.777 -16.598  1.00  0.00     0.064 C 
ATOM      7  O   UNL     1      30.507  -9.536 -16.689  1.00  0.00    -0.545 OA
ATOM      8  O   UNL     1      28.376  -9.044 -17.359  1.00  0.00    -0.545 OA
ENDBRANCH   5   6
ENDBRANCH   3   4
ENDBRANCH   2   3
ENDBRANCH   1   2
BRANCH   1   9
ATOM      9  C   UNL     1      30.992  -7.174 -12.629  1.00  0.00     0.000 C 
BRANCH   9  10
ATOM     10  C   UNL     1      32.345  -6.660 -12.112  1.00  0.00     0.000 C 
BRANCH  10  11
ATOM     11  C   UNL     1      32.194  -5.550 -11.058  1.00  0.00    -0.000 C 
BRANCH  11  12
ATOM     12  C   UNL     1      32.721  -5.984  -9.674  1.00  0.00    -0.000 C 
BRANCH  12  13
ATOM     13  C   UNL     1      33.698  -7.170  -9.733  1.00  0.00    -0.003 C 
ATOM     14  C   UNL     1      34.068  -7.711  -8.354  1.00  0.00     0.004 C 
ENDBRANCH  12  13
ENDBRANCH  11  12
ENDBRANCH  10  11
ENDBRANCH   9  10
ENDBRANCH   1   9
TORSDOF 9
ENDMDL
MODEL 9
REMARK VINA RESULT:    -3.348      3.769      6.381
REMARK INTER + INTRA:          -5.506
REMARK INTER:                  -5.041
REMARK INTRA:                  -0.465
REMARK UNBOUND:                -0.397
REMARK SMILES CCCCCCCCCC=CC(=O)[O-]
REMARK SMILES IDX 7 1 8 2 9 3 10 4 11 5 12 6 13 7 14 8 6 9 5 10 4 11 3 12 2 13
REMARK SMILES IDX 1 14
REMARK H PARENT
REMARK Flexibility Score: inf
ROOT
ATOM      1  C   UNL     1      29.429  -6.420 -14.325  1.00  0.00     0.000 C 
ENDROOT
BRANCH   1   2
ATOM      2  C   UNL     1      30.761  -5.657 -14.351  1.00  0.00     0.004 C 
BRANCH   2   3
ATOM      3  C   UNL     1      31.133  -5.166 -15.758  1.00  0.00     0.027 C 
BRANCH   3   4
ATOM      4  C   UNL     1      32.516  -5.610 -16.140  1.00  0.00    -0.025 C 
ATOM      5  C   UNL     1      33.162  -5.069 -17.179  1.00  0.00     0.020 C 
BRANCH   5   6
ATOM      6  C   UNL     1      34.523  -5.477 -17.562  1.00  0.00     0.064 C 
ATOM      7  O   UNL     1      35.490  -5.351 -16.763  1.00  0.00    -0.545 OA
ATOM      8  O   UNL     1      34.746  -6.012 -18.823  1.00  0.00    -0.545 OA
ENDBRANCH   5   6
ENDBRANCH   3   4
ENDBRANCH   2   3
ENDBRANCH   1   2
BRANCH   1   9
ATOM      9  C   UNL     1      29.621  -7.947 -14.344  1.00  0.00     0.000 C 
BRANCH   9  10
ATOM     10  C   UNL     1      30.076  -8.467 -15.717  1.00  0.00     0.000 C 
BRANCH  10  11
ATOM     11  C   UNL     1      28.900  -8.915 -16.601  1.00  0.00    -0.000 C 
BRANCH  11  12
ATOM     12  C   UNL     1      29.360  -9.350 -18.008  1.00  0.00    -0.000 C 
BRANCH  12  13
ATOM     13  C   UNL     1      28.382  -8.952 -19.125  1.00  0.00    -0.003 C 
ATOM     14  C   UNL     1      27.057  -9.708 -19.058  1.00  0.00     0.004 C 
ENDBRANCH  12  13
ENDBRANCH  11  12
ENDBRANCH  10  11
ENDBRANCH   9  10
ENDBRANCH   1   9
TORSDOF 9
ENDMDL
