MODEL 1
REMARK VINA RESULT:    -5.530      0.000      0.000
REMARK INTER + INTRA:         -11.022
REMARK INTER:                 -10.055
REMARK INTRA:                  -0.967
REMARK UNBOUND:                -0.967
REMARK SMILES CCCCCCCCCCCCCC[C@H](C)C(=O)[O-]
REMARK SMILES IDX 9 1 10 2 11 3 12 4 13 5 14 6 15 7 16 8 17 9 18 10 19 11 8 12
REMARK SMILES IDX 7 13 6 14 5 15 4 16 3 17 2 18 1 19
REMARK H PARENT
REMARK Flexibility Score: inf
ROOT
ATOM      1  C   UNL     1      47.756  30.319  17.740  1.00  0.00     0.000 C 
ENDROOT
BRANCH   1   2
ATOM      2  C   UNL     1      48.134  31.743  18.173  1.00  0.00     0.000 C 
BRANCH   2   3
ATOM      3  C   UNL     1      49.012  32.462  17.137  1.00  0.00     0.000 C 
BRANCH   3   4
ATOM      4  C   UNL     1      48.505  33.879  16.813  1.00  0.00     0.000 C 
BRANCH   4   5
ATOM      5  C   UNL     1      47.531  33.900  15.624  1.00  0.00     0.001 C 
BRANCH   5   6
ATOM      6  C   UNL     1      48.159  33.328  14.337  1.00  0.00     0.009 C 
BRANCH   6   7
ATOM      7  C   UNL     1      48.248  34.337  13.172  1.00  0.00     0.032 C 
ATOM      8  C   UNL     1      46.896  34.992  12.850  1.00  0.00     0.014 C 
BRANCH   7   9
ATOM      9  C   UNL     1      48.883  33.722  11.950  1.00  0.00     0.044 C 
ATOM     10  O   UNL     1      48.209  33.011  11.157  1.00  0.00    -0.550 OA
ATOM     11  O   UNL     1      50.241  33.899  11.720  1.00  0.00    -0.550 OA
ENDBRANCH   7   9
ENDBRANCH   6   7
ENDBRANCH   5   6
ENDBRANCH   4   5
ENDBRANCH   3   4
ENDBRANCH   2   3
ENDBRANCH   1   2
BRANCH   1  12
ATOM     12  C   UNL     1      48.887  29.673  16.931  1.00  0.00     0.000 C 
BRANCH  12  13
ATOM     13  C   UNL     1      48.330  28.908  15.720  1.00  0.00    -0.000 C 
BRANCH  13  14
ATOM     14  C   UNL     1      48.851  27.464  15.637  1.00  0.00    -0.000 C 
BRANCH  14  15
ATOM     15  C   UNL     1      48.082  26.504  16.561  1.00  0.00    -0.000 C 
BRANCH  15  16
ATOM     16  C   UNL     1      49.016  25.653  17.438  1.00  0.00    -0.000 C 
BRANCH  16  17
ATOM     17  C   UNL     1      48.559  25.595  18.906  1.00  0.00    -0.000 C 
BRANCH  17  18
ATOM     18  C   UNL     1      49.644  25.036  19.838  1.00  0.00    -0.003 C 
ATOM     19  C   UNL     1      49.285  25.172  21.317  1.00  0.00     0.004 C 
ENDBRANCH  17  18
ENDBRANCH  16  17
ENDBRANCH  15  16
ENDBRANCH  14  15
ENDBRANCH  13  14
ENDBRANCH  12  13
ENDBRANCH   1  12
TORSDOF 14
ENDMDL
MODEL 2
REMARK VINA RESULT:    -5.439      2.839      4.957
REMARK INTER + INTRA:         -10.857
REMARK INTER:                  -9.423
REMARK INTRA:                  -1.434
REMARK UNBOUND:                -0.967
REMARK SMILES CCCCCCCCCCCCCC[C@H](C)C(=O)[O-]
REMARK SMILES IDX 9 1 10 2 11 3 12 4 13 5 14 6 15 7 16 8 17 9 18 10 19 11 8 12
REMARK SMILES IDX 7 13 6 14 5 15 4 16 3 17 2 18 1 19
REMARK H PARENT
REMARK Flexibility Score: inf
ROOT
ATOM      1  C   UNL     1      49.775  26.850  18.068  1.00  0.00     0.000 C 
ENDROOT
BRANCH   1   2
ATOM      2  C   UNL     1      48.780  26.746  16.902  1.00  0.00     0.000 C 
BRANCH   2   3
ATOM      3  C   UNL     1      48.024  28.060  16.651  1.00  0.00     0.000 C 
BRANCH   3   4
ATOM      4  C   UNL     1      48.554  28.822  15.423  1.00  0.00     0.000 C 
BRANCH   4   5
ATOM      5  C   UNL     1      47.653  30.003  15.027  1.00  0.00     0.001 C 
BRANCH   5   6
ATOM      6  C   UNL     1      48.390  31.356  15.099  1.00  0.00     0.009 C 
BRANCH   6   7
ATOM      7  C   UNL     1      47.970  32.245  16.290  1.00  0.00     0.032 C 
ATOM      8  C   UNL     1      48.187  33.741  16.019  1.00  0.00     0.014 C 
BRANCH   7   9
ATOM      9  C   UNL     1      48.626  31.802  17.573  1.00  0.00     0.044 C 
ATOM     10  O   UNL     1      49.867  31.937  17.747  1.00  0.00    -0.550 OA
ATOM     11  O   UNL     1      47.863  31.191  18.559  1.00  0.00    -0.550 OA
ENDBRANCH   7   9
ENDBRANCH   6   7
ENDBRANCH   5   6
ENDBRANCH   4   5
ENDBRANCH   3   4
ENDBRANCH   2   3
ENDBRANCH   1   2
BRANCH   1  12
ATOM     12  C   UNL     1      49.826  25.541  18.865  1.00  0.00     0.000 C 
BRANCH  12  13
ATOM     13  C   UNL     1      48.469  25.243  19.521  1.00  0.00    -0.000 C 
BRANCH  13  14
ATOM     14  C   UNL     1      48.523  25.311  21.056  1.00  0.00    -0.000 C 
BRANCH  14  15
ATOM     15  C   UNL     1      48.327  26.740  21.592  1.00  0.00    -0.000 C 
BRANCH  15  16
ATOM     16  C   UNL     1      49.363  27.117  22.664  1.00  0.00    -0.000 C 
BRANCH  16  17
ATOM     17  C   UNL     1      50.609  26.215  22.625  1.00  0.00    -0.000 C 
BRANCH  17  18
ATOM     18  C   UNL     1      51.899  27.006  22.355  1.00  0.00    -0.003 C 
ATOM     19  C   UNL     1      52.605  26.571  21.072  1.00  0.00     0.004 C 
ENDBRANCH  17  18
ENDBRANCH  16  17
ENDBRANCH  15  16
ENDBRANCH  14  15
ENDBRANCH  13  14
ENDBRANCH  12  13
ENDBRANCH   1  12
TORSDOF 14
ENDMDL
MODEL 3
REMARK VINA RESULT:    -5.400      2.968      8.038
REMARK INTER + INTRA:         -10.786
REMARK INTER:                  -9.802
REMARK INTRA:                  -0.984
REMARK UNBOUND:                -0.967
REMARK SMILES CCCCCCCCCCCCCC[C@H](C)C(=O)[O-]
REMARK SMILES IDX 9 1 10 2 11 3 12 4 13 5 14 6 15 7 16 8 17 9 18 10 19 11 8 12
REMARK SMILES IDX 7 13 6 14 5 15 4 16 3 17 2 18 1 19
REMARK H PARENT
REMARK Flexibility Score: inf
ROOT
ATOM      1  C   UNL     1      49.114  32.960  17.399  1.00  0.00     0.000 C 
ENDROOT
BRANCH   1   2
ATOM      2  C   UNL     1      48.224  31.995  18.196  1.00  0.00     0.000 C 
BRANCH   2   3
ATOM      3  C   UNL     1      48.319  30.547  17.689  1.00  0.00     0.000 C 
BRANCH   3   4
ATOM      4  C   UNL     1      47.693  30.366  16.294  1.00  0.00     0.000 C 
BRANCH   4   5
ATOM      5  C   UNL     1      47.502  28.888  15.920  1.00  0.00     0.001 C 
BRANCH   5   6
ATOM      6  C   UNL     1      48.771  28.047  16.170  1.00  0.00     0.009 C 
BRANCH   6   7
ATOM      7  C   UNL     1      48.525  26.523  16.200  1.00  0.00     0.032 C 
ATOM      8  C   UNL     1      48.498  25.955  17.627  1.00  0.00     0.014 C 
BRANCH   7   9
ATOM      9  C   UNL     1      49.499  25.785  15.317  1.00  0.00     0.044 C 
ATOM     10  O   UNL     1      50.397  25.052  15.812  1.00  0.00    -0.550 OA
ATOM     11  O   UNL     1      49.440  25.953  13.939  1.00  0.00    -0.550 OA
ENDBRANCH   7   9
ENDBRANCH   6   7
ENDBRANCH   5   6
ENDBRANCH   4   5
ENDBRANCH   3   4
ENDBRANCH   2   3
ENDBRANCH   1   2
BRANCH   1  12
ATOM     12  C   UNL     1      48.342  34.227  17.012  1.00  0.00     0.000 C 
BRANCH  12  13
ATOM     13  C   UNL     1      47.408  33.960  15.821  1.00  0.00    -0.000 C 
BRANCH  13  14
ATOM     14  C   UNL     1      48.153  33.414  14.592  1.00  0.00    -0.000 C 
BRANCH  14  15
ATOM     15  C   UNL     1      48.422  34.498  13.534  1.00  0.00    -0.000 C 
BRANCH  15  16
ATOM     16  C   UNL     1      47.482  34.387  12.323  1.00  0.00    -0.000 C 
BRANCH  16  17
ATOM     17  C   UNL     1      48.146  33.695  11.120  1.00  0.00    -0.000 C 
BRANCH  17  18
ATOM     18  C   UNL     1      49.667  33.557  11.286  1.00  0.00    -0.003 C 
ATOM     19  C   UNL     1      50.402  33.439   9.951  1.00  0.00     0.004 C 
ENDBRANCH  17  18
ENDBRANCH  16  17
ENDBRANCH  15  16
ENDBRANCH  14  15
ENDBRANCH  13  14
ENDBRANCH  12  13
ENDBRANCH   1  12
TORSDOF 14
ENDMDL
MODEL 4
REMARK VINA RESULT:    -5.321      3.167      8.080
REMARK INTER + INTRA:         -10.642
REMARK INTER:                  -9.350
REMARK INTRA:                  -1.292
REMARK UNBOUND:                -0.967
REMARK SMILES CCCCCCCCCCCCCC[C@H](C)C(=O)[O-]
REMARK SMILES IDX 9 1 10 2 11 3 12 4 13 5 14 6 15 7 16 8 17 9 18 10 19 11 8 12
REMARK SMILES IDX 7 13 6 14 5 15 4 16 3 17 2 18 1 19
REMARK H PARENT
REMARK Flexibility Score: inf
ROOT
ATOM      1  C   UNL     1      49.399  31.064  17.290  1.00  0.00     0.000 C 
ENDROOT
BRANCH   1   2
ATOM      2  C   UNL     1      48.890  30.612  15.913  1.00  0.00     0.000 C 
BRANCH   2   3
ATOM      3  C   UNL     1      47.469  30.029  15.970  1.00  0.00     0.000 C 
BRANCH   3   4
ATOM      4  C   UNL     1      47.461  28.520  16.274  1.00  0.00     0.000 C 
BRANCH   4   5
ATOM      5  C   UNL     1      48.746  27.816  15.808  1.00  0.00     0.001 C 
BRANCH   5   6
ATOM      6  C   UNL     1      48.634  26.280  15.874  1.00  0.00     0.009 C 
BRANCH   6   7
ATOM      7  C   UNL     1      49.453  25.633  17.013  1.00  0.00     0.032 C 
ATOM      8  C   UNL     1      48.722  25.669  18.364  1.00  0.00     0.014 C 
BRANCH   7   9
ATOM      9  C   UNL     1      50.838  26.220  17.105  1.00  0.00     0.044 C 
ATOM     10  O   UNL     1      51.229  26.800  18.155  1.00  0.00    -0.550 OA
ATOM     11  O   UNL     1      51.681  26.169  16.002  1.00  0.00    -0.550 OA
ENDBRANCH   7   9
ENDBRANCH   6   7
ENDBRANCH   5   6
ENDBRANCH   4   5
ENDBRANCH   3   4
ENDBRANCH   2   3
ENDBRANCH   1   2
BRANCH   1  12
ATOM     12  C   UNL     1      48.444  32.084  17.921  1.00  0.00     0.000 C 
BRANCH  12  13
ATOM     13  C   UNL     1      48.675  33.487  17.339  1.00  0.00    -0.000 C 
BRANCH  13  14
ATOM     14  C   UNL     1      47.383  34.134  16.816  1.00  0.00    -0.000 C 
BRANCH  14  15
ATOM     15  C   UNL     1      47.173  33.901  15.310  1.00  0.00    -0.000 C 
BRANCH  15  16
ATOM     16  C   UNL     1      48.490  33.937  14.517  1.00  0.00    -0.000 C 
BRANCH  16  17
ATOM     17  C   UNL     1      48.279  34.289  13.034  1.00  0.00    -0.000 C 
BRANCH  17  18
ATOM     18  C   UNL     1      48.819  33.205  12.089  1.00  0.00    -0.003 C 
ATOM     19  C   UNL     1      50.059  33.654  11.316  1.00  0.00     0.004 C 
ENDBRANCH  17  18
ENDBRANCH  16  17
ENDBRANCH  15  16
ENDBRANCH  14  15
ENDBRANCH  13  14
ENDBRANCH  12  13
ENDBRANCH   1  12
TORSDOF 14
ENDMDL
MODEL 5
REMARK VINA RESULT:    -5.317      4.308      9.070
REMARK INTER + INTRA:         -10.636
REMARK INTER:                  -9.452
REMARK INTRA:                  -1.184
REMARK UNBOUND:                -0.967
REMARK SMILES CCCCCCCCCCCCCC[C@H](C)C(=O)[O-]
REMARK SMILES IDX 9 1 10 2 11 3 12 4 13 5 14 6 15 7 16 8 17 9 18 10 19 11 8 12
REMARK SMILES IDX 7 13 6 14 5 15 4 16 3 17 2 18 1 19
REMARK H PARENT
REMARK Flexibility Score: inf
ROOT
ATOM      1  C   UNL     1      48.504  27.537  16.443  1.00  0.00     0.000 C 
ENDROOT
BRANCH   1   2
ATOM      2  C   UNL     1      48.724  26.019  16.531  1.00  0.00     0.000 C 
BRANCH   2   3
ATOM      3  C   UNL     1      49.343  25.589  17.870  1.00  0.00     0.000 C 
BRANCH   3   4
ATOM      4  C   UNL     1      48.319  25.581  19.019  1.00  0.00     0.000 C 
BRANCH   4   5
ATOM      5  C   UNL     1      48.949  25.205  20.370  1.00  0.00     0.001 C 
BRANCH   5   6
ATOM      6  C   UNL     1      50.450  25.553  20.437  1.00  0.00     0.009 C 
BRANCH   6   7
ATOM      7  C   UNL     1      50.966  25.864  21.859  1.00  0.00     0.032 C 
ATOM      8  C   UNL     1      50.001  26.752  22.659  1.00  0.00     0.014 C 
BRANCH   7   9
ATOM      9  C   UNL     1      52.364  26.429  21.833  1.00  0.00     0.044 C 
ATOM     10  O   UNL     1      53.068  26.466  22.878  1.00  0.00    -0.550 OA
ATOM     11  O   UNL     1      52.867  26.962  20.654  1.00  0.00    -0.550 OA
ENDBRANCH   7   9
ENDBRANCH   6   7
ENDBRANCH   5   6
ENDBRANCH   4   5
ENDBRANCH   3   4
ENDBRANCH   2   3
ENDBRANCH   1   2
BRANCH   1  12
ATOM     12  C   UNL     1      49.810  28.298  16.702  1.00  0.00     0.000 C 
BRANCH  12  13
ATOM     13  C   UNL     1      49.576  29.816  16.679  1.00  0.00    -0.000 C 
BRANCH  13  14
ATOM     14  C   UNL     1      48.159  30.206  17.130  1.00  0.00    -0.000 C 
BRANCH  14  15
ATOM     15  C   UNL     1      48.149  31.452  18.033  1.00  0.00    -0.000 C 
BRANCH  15  16
ATOM     16  C   UNL     1      49.364  32.364  17.795  1.00  0.00    -0.000 C 
BRANCH  16  17
ATOM     17  C   UNL     1      48.962  33.785  17.363  1.00  0.00    -0.000 C 
BRANCH  17  18
ATOM     18  C   UNL     1      47.678  33.802  16.519  1.00  0.00    -0.003 C 
ATOM     19  C   UNL     1      47.948  33.631  15.025  1.00  0.00     0.004 C 
ENDBRANCH  17  18
ENDBRANCH  16  17
ENDBRANCH  15  16
ENDBRANCH  14  15
ENDBRANCH  13  14
ENDBRANCH  12  13
ENDBRANCH   1  12
TORSDOF 14
ENDMDL
MODEL 6
REMARK VINA RESULT:    -5.296      3.358      6.390
REMARK INTER + INTRA:         -10.598
REMARK INTER:                  -9.079
REMARK INTRA:                  -1.519
REMARK UNBOUND:                -0.967
REMARK SMILES CCCCCCCCCCCCCC[C@H](C)C(=O)[O-]
REMARK SMILES IDX 9 1 10 2 11 3 12 4 13 5 14 6 15 7 16 8 17 9 18 10 19 11 8 12
REMARK SMILES IDX 7 13 6 14 5 15 4 16 3 17 2 18 1 19
REMARK H PARENT
REMARK Flexibility Score: inf
ROOT
ATOM      1  C   UNL     1      48.908  25.244  20.573  1.00  0.00     0.000 C 
ENDROOT
BRANCH   1   2
ATOM      2  C   UNL     1      48.522  25.611  19.132  1.00  0.00     0.000 C 
BRANCH   2   3
ATOM      3  C   UNL     1      49.658  25.350  18.131  1.00  0.00     0.000 C 
BRANCH   3   4
ATOM      4  C   UNL     1      49.278  25.738  16.691  1.00  0.00     0.000 C 
BRANCH   4   5
ATOM      5  C   UNL     1      48.201  26.834  16.638  1.00  0.00     0.001 C 
BRANCH   5   6
ATOM      6  C   UNL     1      48.798  28.253  16.726  1.00  0.00     0.009 C 
BRANCH   6   7
ATOM      7  C   UNL     1      47.756  29.387  16.616  1.00  0.00     0.032 C 
ATOM      8  C   UNL     1      47.453  29.775  15.161  1.00  0.00     0.014 C 
BRANCH   7   9
ATOM      9  C   UNL     1      48.143  30.581  17.451  1.00  0.00     0.044 C 
ATOM     10  O   UNL     1      49.023  31.392  17.054  1.00  0.00    -0.550 OA
ATOM     11  O   UNL     1      47.559  30.766  18.698  1.00  0.00    -0.550 OA
ENDBRANCH   7   9
ENDBRANCH   6   7
ENDBRANCH   5   6
ENDBRANCH   4   5
ENDBRANCH   3   4
ENDBRANCH   2   3
ENDBRANCH   1   2
BRANCH   1  12
ATOM     12  C   UNL     1      48.195  26.154  21.581  1.00  0.00     0.000 C 
BRANCH  12  13
ATOM     13  C   UNL     1      49.206  26.844  22.510  1.00  0.00    -0.000 C 
BRANCH  13  14
ATOM     14  C   UNL     1      50.532  26.075  22.621  1.00  0.00    -0.000 C 
BRANCH  14  15
ATOM     15  C   UNL     1      51.759  26.982  22.419  1.00  0.00    -0.000 C 
BRANCH  15  16
ATOM     16  C   UNL     1      52.858  26.309  21.579  1.00  0.00    -0.000 C 
BRANCH  16  17
ATOM     17  C   UNL     1      52.553  26.338  20.072  1.00  0.00    -0.000 C 
BRANCH  17  18
ATOM     18  C   UNL     1      53.170  27.558  19.370  1.00  0.00    -0.003 C 
ATOM     19  C   UNL     1      52.683  27.725  17.931  1.00  0.00     0.004 C 
ENDBRANCH  17  18
ENDBRANCH  16  17
ENDBRANCH  15  16
ENDBRANCH  14  15
ENDBRANCH  13  14
ENDBRANCH  12  13
ENDBRANCH   1  12
TORSDOF 14
ENDMDL
MODEL 7
REMARK VINA RESULT:    -5.199      4.330      6.940
REMARK INTER + INTRA:         -10.422
REMARK INTER:                  -9.355
REMARK INTRA:                  -1.066
REMARK UNBOUND:                -0.967
REMARK SMILES CCCCCCCCCCCCCC[C@H](C)C(=O)[O-]
REMARK SMILES IDX 9 1 10 2 11 3 12 4 13 5 14 6 15 7 16 8 17 9 18 10 19 11 8 12
REMARK SMILES IDX 7 13 6 14 5 15 4 16 3 17 2 18 1 19
REMARK H PARENT
REMARK Flexibility Score: inf
ROOT
ATOM      1  C   UNL     1      48.211  34.601  13.596  1.00  0.00     0.000 C 
ENDROOT
BRANCH   1   2
ATOM      2  C   UNL     1      47.068  34.554  12.570  1.00  0.00     0.000 C 
BRANCH   2   3
ATOM      3  C   UNL     1      46.266  35.863  12.519  1.00  0.00     0.000 C 
BRANCH   3   4
ATOM      4  C   UNL     1      44.817  35.688  13.010  1.00  0.00     0.000 C 
BRANCH   4   5
ATOM      5  C   UNL     1      43.876  36.779  12.474  1.00  0.00     0.001 C 
BRANCH   5   6
ATOM      6  C   UNL     1      42.634  36.193  11.772  1.00  0.00     0.009 C 
BRANCH   6   7
ATOM      7  C   UNL     1      41.887  37.195  10.864  1.00  0.00     0.032 C 
ATOM      8  C   UNL     1      42.744  38.415  10.497  1.00  0.00     0.014 C 
BRANCH   7   9
ATOM      9  C   UNL     1      40.557  37.595  11.451  1.00  0.00     0.044 C 
ATOM     10  O   UNL     1      40.490  38.412  12.409  1.00  0.00    -0.550 OA
ATOM     11  O   UNL     1      39.391  37.018  10.966  1.00  0.00    -0.550 OA
ENDBRANCH   7   9
ENDBRANCH   6   7
ENDBRANCH   5   6
ENDBRANCH   4   5
ENDBRANCH   3   4
ENDBRANCH   2   3
ENDBRANCH   1   2
BRANCH   1  12
ATOM     12  C   UNL     1      48.127  33.415  14.565  1.00  0.00     0.000 C 
BRANCH  12  13
ATOM     13  C   UNL     1      47.482  33.836  15.894  1.00  0.00    -0.000 C 
BRANCH  13  14
ATOM     14  C   UNL     1      48.516  34.092  17.002  1.00  0.00    -0.000 C 
BRANCH  14  15
ATOM     15  C   UNL     1      49.193  32.799  17.489  1.00  0.00    -0.000 C 
BRANCH  15  16
ATOM     16  C   UNL     1      48.178  31.722  17.907  1.00  0.00    -0.000 C 
BRANCH  16  17
ATOM     17  C   UNL     1      48.532  30.330  17.356  1.00  0.00    -0.000 C 
BRANCH  17  18
ATOM     18  C   UNL     1      47.409  29.736  16.493  1.00  0.00    -0.003 C 
ATOM     19  C   UNL     1      47.650  29.920  14.995  1.00  0.00     0.004 C 
ENDBRANCH  17  18
ENDBRANCH  16  17
ENDBRANCH  15  16
ENDBRANCH  14  15
ENDBRANCH  13  14
ENDBRANCH  12  13
ENDBRANCH   1  12
TORSDOF 14
ENDMDL
MODEL 8
REMARK VINA RESULT:    -5.185      2.947      8.360
REMARK INTER + INTRA:         -10.395
REMARK INTER:                  -9.253
REMARK INTRA:                  -1.142
REMARK UNBOUND:                -0.967
REMARK SMILES CCCCCCCCCCCCCC[C@H](C)C(=O)[O-]
REMARK SMILES IDX 9 1 10 2 11 3 12 4 13 5 14 6 15 7 16 8 17 9 18 10 19 11 8 12
REMARK SMILES IDX 7 13 6 14 5 15 4 16 3 17 2 18 1 19
REMARK H PARENT
REMARK Flexibility Score: inf
ROOT
ATOM      1  C   UNL     1      48.290  33.549  17.121  1.00  0.00     0.000 C 
ENDROOT
BRANCH   1   2
ATOM      2  C   UNL     1      48.928  32.154  17.040  1.00  0.00     0.000 C 
BRANCH   2   3
ATOM      3  C   UNL     1      48.007  31.050  17.583  1.00  0.00     0.000 C 
BRANCH   3   4
ATOM      4  C   UNL     1      47.380  30.199  16.464  1.00  0.00     0.000 C 
BRANCH   4   5
ATOM      5  C   UNL     1      48.357  29.156  15.897  1.00  0.00     0.001 C 
BRANCH   5   6
ATOM      6  C   UNL     1      48.829  28.149  16.964  1.00  0.00     0.009 C 
BRANCH   6   7
ATOM      7  C   UNL     1      48.548  26.672  16.610  1.00  0.00     0.032 C 
ATOM      8  C   UNL     1      48.662  25.739  17.825  1.00  0.00     0.014 C 
BRANCH   7   9
ATOM      9  C   UNL     1      49.399  26.204  15.457  1.00  0.00     0.044 C 
ATOM     10  O   UNL     1      48.888  25.600  14.476  1.00  0.00    -0.550 OA
ATOM     11  O   UNL     1      50.775  26.397  15.496  1.00  0.00    -0.550 OA
ENDBRANCH   7   9
ENDBRANCH   6   7
ENDBRANCH   5   6
ENDBRANCH   4   5
ENDBRANCH   3   4
ENDBRANCH   2   3
ENDBRANCH   1   2
BRANCH   1  12
ATOM     12  C   UNL     1      47.442  33.838  15.876  1.00  0.00     0.000 C 
BRANCH  12  13
ATOM     13  C   UNL     1      48.117  33.285  14.611  1.00  0.00    -0.000 C 
BRANCH  13  14
ATOM     14  C   UNL     1      48.558  34.392  13.640  1.00  0.00    -0.000 C 
BRANCH  14  15
ATOM     15  C   UNL     1      48.059  34.153  12.204  1.00  0.00    -0.000 C 
BRANCH  15  16
ATOM     16  C   UNL     1      46.570  34.496  12.032  1.00  0.00    -0.000 C 
BRANCH  16  17
ATOM     17  C   UNL     1      46.177  35.802  12.744  1.00  0.00    -0.000 C 
BRANCH  17  18
ATOM     18  C   UNL     1      44.761  35.746  13.338  1.00  0.00    -0.003 C 
ATOM     19  C   UNL     1      43.716  36.412  12.444  1.00  0.00     0.004 C 
ENDBRANCH  17  18
ENDBRANCH  16  17
ENDBRANCH  15  16
ENDBRANCH  14  15
ENDBRANCH  13  14
ENDBRANCH  12  13
ENDBRANCH   1  12
TORSDOF 14
ENDMDL
MODEL 9
REMARK VINA RESULT:    -5.162      4.128      9.047
REMARK INTER + INTRA:         -10.354
REMARK INTER:                  -9.422
REMARK INTRA:                  -0.932
REMARK UNBOUND:                -0.967
REMARK SMILES CCCCCCCCCCCCCC[C@H](C)C(=O)[O-]
REMARK SMILES IDX 9 1 10 2 11 3 12 4 13 5 14 6 15 7 16 8 17 9 18 10 19 11 8 12
REMARK SMILES IDX 7 13 6 14 5 15 4 16 3 17 2 18 1 19
REMARK H PARENT
REMARK Flexibility Score: inf
ROOT
ATOM      1  C   UNL     1      48.069  30.178  17.407  1.00  0.00     0.000 C 
ENDROOT
BRANCH   1   2
ATOM      2  C   UNL     1      47.760  29.036  16.428  1.00  0.00     0.000 C 
BRANCH   2   3
ATOM      3  C   UNL     1      48.886  27.992  16.362  1.00  0.00     0.000 C 
BRANCH   3   4
ATOM      4  C   UNL     1      48.353  26.551  16.272  1.00  0.00     0.000 C 
BRANCH   4   5
ATOM      5  C   UNL     1      48.968  25.626  17.335  1.00  0.00     0.001 C 
BRANCH   5   6
ATOM      6  C   UNL     1      49.218  26.351  18.673  1.00  0.00     0.009 C 
BRANCH   6   7
ATOM      7  C   UNL     1      49.346  25.408  19.890  1.00  0.00     0.032 C 
ATOM      8  C   UNL     1      48.104  25.435  20.794  1.00  0.00     0.014 C 
BRANCH   7   9
ATOM      9  C   UNL     1      50.614  25.667  20.664  1.00  0.00     0.044 C 
ATOM     10  O   UNL     1      51.582  26.279  20.138  1.00  0.00    -0.550 OA
ATOM     11  O   UNL     1      50.739  25.182  21.960  1.00  0.00    -0.550 OA
ENDBRANCH   7   9
ENDBRANCH   6   7
ENDBRANCH   5   6
ENDBRANCH   4   5
ENDBRANCH   3   4
ENDBRANCH   2   3
ENDBRANCH   1   2
BRANCH   1  12
ATOM     12  C   UNL     1      48.966  31.236  16.752  1.00  0.00     0.000 C 
BRANCH  12  13
ATOM     13  C   UNL     1      49.222  32.409  17.710  1.00  0.00    -0.000 C 
BRANCH  13  14
ATOM     14  C   UNL     1      48.815  33.765  17.111  1.00  0.00    -0.000 C 
BRANCH  14  15
ATOM     15  C   UNL     1      47.313  33.842  16.788  1.00  0.00    -0.000 C 
BRANCH  15  16
ATOM     16  C   UNL     1      47.042  34.207  15.319  1.00  0.00    -0.000 C 
BRANCH  16  17
ATOM     17  C   UNL     1      48.224  33.862  14.396  1.00  0.00    -0.000 C 
BRANCH  17  18
ATOM     18  C   UNL     1      48.079  34.483  12.998  1.00  0.00    -0.003 C 
ATOM     19  C   UNL     1      48.230  33.458  11.874  1.00  0.00     0.004 C 
ENDBRANCH  17  18
ENDBRANCH  16  17
ENDBRANCH  15  16
ENDBRANCH  14  15
ENDBRANCH  13  14
ENDBRANCH  12  13
ENDBRANCH   1  12
TORSDOF 14
ENDMDL
