MODEL 1
REMARK VINA RESULT:    -4.441      0.000      0.000
REMARK INTER + INTRA:          -6.744
REMARK INTER:                  -6.258
REMARK INTRA:                  -0.486
REMARK UNBOUND:                -0.486
REMARK SMILES CCCCCCCCC(=O)[O-]
REMARK SMILES IDX 6 1 7 2 8 3 9 4 10 5 11 6 5 7 4 8 3 9 2 10 1 11
REMARK H PARENT
REMARK Flexibility Score: inf
ROOT
ATOM      1  C   UNL     1     -17.306  34.604  81.734  1.00  0.00     0.000 C 
ENDROOT
BRANCH   1   2
ATOM      2  C   UNL     1     -18.310  34.712  80.572  1.00  0.00     0.006 C 
BRANCH   2   3
ATOM      3  C   UNL     1     -17.825  35.671  79.476  1.00  0.00     0.053 C 
BRANCH   3   4
ATOM      4  C   UNL     1     -18.766  36.822  79.289  1.00  0.00     0.041 C 
ATOM      5  O   UNL     1     -19.503  37.200  80.237  1.00  0.00    -0.550 OA
ATOM      6  O   UNL     1     -18.809  37.493  78.073  1.00  0.00    -0.550 OA
ENDBRANCH   3   4
ENDBRANCH   2   3
ENDBRANCH   1   2
BRANCH   1   7
ATOM      7  C   UNL     1     -16.507  35.899  81.947  1.00  0.00     0.000 C 
BRANCH   7   8
ATOM      8  C   UNL     1     -16.381  36.281  83.431  1.00  0.00    -0.000 C 
BRANCH   8   9
ATOM      9  C   UNL     1     -17.748  36.221  84.130  1.00  0.00    -0.000 C 
BRANCH   9  10
ATOM     10  C   UNL     1     -18.640  37.425  83.788  1.00  0.00    -0.003 C 
ATOM     11  C   UNL     1     -19.546  37.839  84.947  1.00  0.00     0.004 C 
ENDBRANCH   9  10
ENDBRANCH   8   9
ENDBRANCH   7   8
ENDBRANCH   1   7
TORSDOF 7
ENDMDL
MODEL 2
REMARK VINA RESULT:    -4.395      2.595      4.861
REMARK INTER + INTRA:          -6.680
REMARK INTER:                  -6.331
REMARK INTRA:                  -0.349
REMARK UNBOUND:                -0.486
REMARK SMILES CCCCCCCCC(=O)[O-]
REMARK SMILES IDX 6 1 7 2 8 3 9 4 10 5 11 6 5 7 4 8 3 9 2 10 1 11
REMARK H PARENT
REMARK Flexibility Score: inf
ROOT
ATOM      1  C   UNL     1     -17.851  35.110  80.310  1.00  0.00     0.000 C 
ENDROOT
BRANCH   1   2
ATOM      2  C   UNL     1     -17.444  34.544  81.682  1.00  0.00     0.006 C 
BRANCH   2   3
ATOM      3  C   UNL     1     -16.530  35.505  82.456  1.00  0.00     0.053 C 
BRANCH   3   4
ATOM      4  C   UNL     1     -17.056  35.784  83.831  1.00  0.00     0.041 C 
ATOM      5  O   UNL     1     -16.499  35.275  84.839  1.00  0.00    -0.550 OA
ATOM      6  O   UNL     1     -18.145  36.629  84.000  1.00  0.00    -0.550 OA
ENDBRANCH   3   4
ENDBRANCH   2   3
ENDBRANCH   1   2
BRANCH   1   7
ATOM      7  C   UNL     1     -18.334  36.566  80.390  1.00  0.00     0.000 C 
BRANCH   7   8
ATOM      8  C   UNL     1     -17.943  37.391  79.155  1.00  0.00    -0.000 C 
BRANCH   8   9
ATOM      9  C   UNL     1     -19.102  37.455  78.148  1.00  0.00    -0.000 C 
BRANCH   9  10
ATOM     10  C   UNL     1     -20.443  37.799  78.813  1.00  0.00    -0.003 C 
ATOM     11  C   UNL     1     -21.443  38.426  77.840  1.00  0.00     0.004 C 
ENDBRANCH   9  10
ENDBRANCH   8   9
ENDBRANCH   7   8
ENDBRANCH   1   7
TORSDOF 7
ENDMDL
MODEL 3
REMARK VINA RESULT:    -4.296      2.148      4.393
REMARK INTER + INTRA:          -6.540
REMARK INTER:                  -6.372
REMARK INTRA:                  -0.168
REMARK UNBOUND:                -0.486
REMARK SMILES CCCCCCCCC(=O)[O-]
REMARK SMILES IDX 6 1 7 2 8 3 9 4 10 5 11 6 5 7 4 8 3 9 2 10 1 11
REMARK H PARENT
REMARK Flexibility Score: inf
ROOT
ATOM      1  C   UNL     1     -17.993  35.127  81.873  1.00  0.00     0.000 C 
ENDROOT
BRANCH   1   2
ATOM      2  C   UNL     1     -16.882  34.936  82.921  1.00  0.00     0.006 C 
BRANCH   2   3
ATOM      3  C   UNL     1     -16.952  35.988  84.036  1.00  0.00     0.053 C 
BRANCH   3   4
ATOM      4  C   UNL     1     -17.723  37.200  83.609  1.00  0.00     0.041 C 
ATOM      5  O   UNL     1     -17.190  38.060  82.859  1.00  0.00    -0.550 OA
ATOM      6  O   UNL     1     -19.041  37.365  84.017  1.00  0.00    -0.550 OA
ENDBRANCH   3   4
ENDBRANCH   2   3
ENDBRANCH   1   2
BRANCH   1   7
ATOM      7  C   UNL     1     -17.719  34.356  80.573  1.00  0.00     0.000 C 
BRANCH   7   8
ATOM      8  C   UNL     1     -18.093  35.157  79.316  1.00  0.00    -0.000 C 
BRANCH   8   9
ATOM      9  C   UNL     1     -18.306  36.641  79.655  1.00  0.00    -0.000 C 
BRANCH   9  10
ATOM     10  C   UNL     1     -18.962  37.421  78.504  1.00  0.00    -0.003 C 
ATOM     11  C   UNL     1     -20.413  37.801  78.798  1.00  0.00     0.004 C 
ENDBRANCH   9  10
ENDBRANCH   8   9
ENDBRANCH   7   8
ENDBRANCH   1   7
TORSDOF 7
ENDMDL
MODEL 4
REMARK VINA RESULT:    -4.218      8.193      9.876
REMARK INTER + INTRA:          -6.430
REMARK INTER:                  -5.963
REMARK INTRA:                  -0.467
REMARK UNBOUND:                -0.486
REMARK SMILES CCCCCCCCC(=O)[O-]
REMARK SMILES IDX 6 1 7 2 8 3 9 4 10 5 11 6 5 7 4 8 3 9 2 10 1 11
REMARK H PARENT
REMARK Flexibility Score: inf
ROOT
ATOM      1  C   UNL     1     -18.878  44.831  85.744  1.00  0.00     0.000 C 
ENDROOT
BRANCH   1   2
ATOM      2  C   UNL     1     -19.324  43.365  85.607  1.00  0.00     0.006 C 
BRANCH   2   3
ATOM      3  C   UNL     1     -20.506  43.031  86.527  1.00  0.00     0.053 C 
BRANCH   3   4
ATOM      4  C   UNL     1     -20.464  41.608  86.992  1.00  0.00     0.041 C 
ATOM      5  O   UNL     1     -19.387  40.957  86.946  1.00  0.00    -0.550 OA
ATOM      6  O   UNL     1     -21.609  41.009  87.502  1.00  0.00    -0.550 OA
ENDBRANCH   3   4
ENDBRANCH   2   3
ENDBRANCH   1   2
BRANCH   1   7
ATOM      7  C   UNL     1     -17.621  45.147  84.918  1.00  0.00     0.000 C 
BRANCH   7   8
ATOM      8  C   UNL     1     -17.591  46.598  84.414  1.00  0.00    -0.000 C 
BRANCH   8   9
ATOM      9  C   UNL     1     -19.006  47.089  84.071  1.00  0.00    -0.000 C 
BRANCH   9  10
ATOM     10  C   UNL     1     -19.459  46.652  82.669  1.00  0.00    -0.003 C 
ATOM     11  C   UNL     1     -20.825  45.965  82.675  1.00  0.00     0.004 C 
ENDBRANCH   9  10
ENDBRANCH   8   9
ENDBRANCH   7   8
ENDBRANCH   1   7
TORSDOF 7
ENDMDL
MODEL 5
REMARK VINA RESULT:    -4.162      3.507      5.474
REMARK INTER + INTRA:          -6.351
REMARK INTER:                  -5.990
REMARK INTRA:                  -0.362
REMARK UNBOUND:                -0.486
REMARK SMILES CCCCCCCCC(=O)[O-]
REMARK SMILES IDX 6 1 7 2 8 3 9 4 10 5 11 6 5 7 4 8 3 9 2 10 1 11
REMARK H PARENT
REMARK Flexibility Score: inf
ROOT
ATOM      1  C   UNL     1     -18.483  37.002  83.244  1.00  0.00     0.000 C 
ENDROOT
BRANCH   1   2
ATOM      2  C   UNL     1     -18.708  37.188  84.755  1.00  0.00     0.006 C 
BRANCH   2   3
ATOM      3  C   UNL     1     -19.932  38.064  85.054  1.00  0.00     0.053 C 
BRANCH   3   4
ATOM      4  C   UNL     1     -19.892  38.618  86.446  1.00  0.00     0.041 C 
ATOM      5  O   UNL     1     -20.133  37.873  87.432  1.00  0.00    -0.550 OA
ATOM      6  O   UNL     1     -19.561  39.951  86.654  1.00  0.00    -0.550 OA
ENDBRANCH   3   4
ENDBRANCH   2   3
ENDBRANCH   1   2
BRANCH   1   7
ATOM      7  C   UNL     1     -17.006  37.142  82.844  1.00  0.00     0.000 C 
BRANCH   7   8
ATOM      8  C   UNL     1     -16.565  36.083  81.822  1.00  0.00    -0.000 C 
BRANCH   8   9
ATOM      9  C   UNL     1     -17.755  35.217  81.380  1.00  0.00    -0.000 C 
BRANCH   9  10
ATOM     10  C   UNL     1     -18.041  35.330  79.875  1.00  0.00    -0.003 C 
ATOM     11  C   UNL     1     -18.447  36.742  79.453  1.00  0.00     0.004 C 
ENDBRANCH   9  10
ENDBRANCH   8   9
ENDBRANCH   7   8
ENDBRANCH   1   7
TORSDOF 7
ENDMDL
MODEL 6
REMARK VINA RESULT:    -4.125     12.290     14.773
REMARK INTER + INTRA:          -6.299
REMARK INTER:                  -5.700
REMARK INTRA:                  -0.599
REMARK UNBOUND:                -0.486
REMARK SMILES CCCCCCCCC(=O)[O-]
REMARK SMILES IDX 6 1 7 2 8 3 9 4 10 5 11 6 5 7 4 8 3 9 2 10 1 11
REMARK H PARENT
REMARK Flexibility Score: inf
ROOT
ATOM      1  C   UNL     1     -26.931  45.769  90.666  1.00  0.00     0.000 C 
ENDROOT
BRANCH   1   2
ATOM      2  C   UNL     1     -26.129  44.476  90.898  1.00  0.00     0.006 C 
BRANCH   2   3
ATOM      3  C   UNL     1     -26.948  43.415  91.645  1.00  0.00     0.053 C 
BRANCH   3   4
ATOM      4  C   UNL     1     -28.064  42.878  90.802  1.00  0.00     0.041 C 
ATOM      5  O   UNL     1     -29.221  42.756  91.282  1.00  0.00    -0.550 OA
ATOM      6  O   UNL     1     -27.830  42.538  89.475  1.00  0.00    -0.550 OA
ENDBRANCH   3   4
ENDBRANCH   2   3
ENDBRANCH   1   2
BRANCH   1   7
ATOM      7  C   UNL     1     -26.586  46.447  89.331  1.00  0.00     0.000 C 
BRANCH   7   8
ATOM      8  C   UNL     1     -26.198  45.441  88.237  1.00  0.00    -0.000 C 
BRANCH   8   9
ATOM      9  C   UNL     1     -25.232  46.077  87.225  1.00  0.00    -0.000 C 
BRANCH   9  10
ATOM     10  C   UNL     1     -23.764  45.727  87.509  1.00  0.00    -0.003 C 
ATOM     11  C   UNL     1     -23.577  44.281  87.968  1.00  0.00     0.004 C 
ENDBRANCH   9  10
ENDBRANCH   8   9
ENDBRANCH   7   8
ENDBRANCH   1   7
TORSDOF 7
ENDMDL
MODEL 7
REMARK VINA RESULT:    -4.106      8.262     10.044
REMARK INTER + INTRA:          -6.272
REMARK INTER:                  -5.565
REMARK INTRA:                  -0.708
REMARK UNBOUND:                -0.486
REMARK SMILES CCCCCCCCC(=O)[O-]
REMARK SMILES IDX 6 1 7 2 8 3 9 4 10 5 11 6 5 7 4 8 3 9 2 10 1 11
REMARK H PARENT
REMARK Flexibility Score: inf
ROOT
ATOM      1  C   UNL     1     -21.327  45.439  85.782  1.00  0.00     0.000 C 
ENDROOT
BRANCH   1   2
ATOM      2  C   UNL     1     -20.601  44.479  86.741  1.00  0.00     0.006 C 
BRANCH   2   3
ATOM      3  C   UNL     1     -20.072  43.231  86.019  1.00  0.00     0.053 C 
BRANCH   3   4
ATOM      4  C   UNL     1     -20.370  41.979  86.786  1.00  0.00     0.041 C 
ATOM      5  O   UNL     1     -21.456  41.860  87.411  1.00  0.00    -0.550 OA
ATOM      6  O   UNL     1     -19.458  40.930  86.785  1.00  0.00    -0.550 OA
ENDBRANCH   3   4
ENDBRANCH   2   3
ENDBRANCH   1   2
BRANCH   1   7
ATOM      7  C   UNL     1     -20.915  45.234  84.316  1.00  0.00     0.000 C 
BRANCH   7   8
ATOM      8  C   UNL     1     -20.064  46.391  83.770  1.00  0.00    -0.000 C 
BRANCH   8   9
ATOM      9  C   UNL     1     -18.652  45.908  83.405  1.00  0.00    -0.000 C 
BRANCH   9  10
ATOM     10  C   UNL     1     -17.589  46.369  84.414  1.00  0.00    -0.003 C 
ATOM     11  C   UNL     1     -17.071  45.230  85.292  1.00  0.00     0.004 C 
ENDBRANCH   9  10
ENDBRANCH   8   9
ENDBRANCH   7   8
ENDBRANCH   1   7
TORSDOF 7
ENDMDL
MODEL 8
REMARK VINA RESULT:    -4.037      6.372      8.449
REMARK INTER + INTRA:          -6.175
REMARK INTER:                  -5.359
REMARK INTRA:                  -0.816
REMARK UNBOUND:                -0.486
REMARK SMILES CCCCCCCCC(=O)[O-]
REMARK SMILES IDX 6 1 7 2 8 3 9 4 10 5 11 6 5 7 4 8 3 9 2 10 1 11
REMARK H PARENT
REMARK Flexibility Score: inf
ROOT
ATOM      1  C   UNL     1     -20.660  41.754  88.721  1.00  0.00     0.000 C 
ENDROOT
BRANCH   1   2
ATOM      2  C   UNL     1     -20.585  41.147  87.309  1.00  0.00     0.006 C 
BRANCH   2   3
ATOM      3  C   UNL     1     -19.558  40.010  87.222  1.00  0.00     0.053 C 
BRANCH   3   4
ATOM      4  C   UNL     1     -20.200  38.710  86.845  1.00  0.00     0.041 C 
ATOM      5  O   UNL     1     -21.056  38.181  87.602  1.00  0.00    -0.550 OA
ATOM      6  O   UNL     1     -19.873  38.096  85.642  1.00  0.00    -0.550 OA
ENDBRANCH   3   4
ENDBRANCH   2   3
ENDBRANCH   1   2
BRANCH   1   7
ATOM      7  C   UNL     1     -19.820  40.975  89.745  1.00  0.00     0.000 C 
BRANCH   7   8
ATOM      8  C   UNL     1     -20.680  40.265  90.802  1.00  0.00    -0.000 C 
BRANCH   8   9
ATOM      9  C   UNL     1     -20.252  38.798  90.961  1.00  0.00    -0.000 C 
BRANCH   9  10
ATOM     10  C   UNL     1     -18.743  38.597  90.752  1.00  0.00    -0.003 C 
ATOM     11  C   UNL     1     -18.423  37.402  89.853  1.00  0.00     0.004 C 
ENDBRANCH   9  10
ENDBRANCH   8   9
ENDBRANCH   7   8
ENDBRANCH   1   7
TORSDOF 7
ENDMDL
MODEL 9
REMARK VINA RESULT:    -4.021      9.311     10.694
REMARK INTER + INTRA:          -6.153
REMARK INTER:                  -5.480
REMARK INTRA:                  -0.673
REMARK UNBOUND:                -0.486
REMARK SMILES CCCCCCCCC(=O)[O-]
REMARK SMILES IDX 6 1 7 2 8 3 9 4 10 5 11 6 5 7 4 8 3 9 2 10 1 11
REMARK H PARENT
REMARK Flexibility Score: inf
ROOT
ATOM      1  C   UNL     1     -19.149  43.795  85.382  1.00  0.00     0.000 C 
ENDROOT
BRANCH   1   2
ATOM      2  C   UNL     1     -20.236  44.041  86.443  1.00  0.00     0.006 C 
BRANCH   2   3
ATOM      3  C   UNL     1     -20.758  45.484  86.413  1.00  0.00     0.053 C 
BRANCH   3   4
ATOM      4  C   UNL     1     -22.255  45.534  86.453  1.00  0.00     0.041 C 
ATOM      5  O   UNL     1     -22.880  46.375  85.755  1.00  0.00    -0.550 OA
ATOM      6  O   UNL     1     -22.960  44.633  87.240  1.00  0.00    -0.550 OA
ENDBRANCH   3   4
ENDBRANCH   2   3
ENDBRANCH   1   2
BRANCH   1   7
ATOM      7  C   UNL     1     -18.058  44.877  85.392  1.00  0.00     0.000 C 
BRANCH   7   8
ATOM      8  C   UNL     1     -17.829  45.502  84.006  1.00  0.00    -0.000 C 
BRANCH   8   9
ATOM      9  C   UNL     1     -18.556  46.850  83.886  1.00  0.00    -0.000 C 
BRANCH   9  10
ATOM     10  C   UNL     1     -19.449  46.930  82.639  1.00  0.00    -0.003 C 
ATOM     11  C   UNL     1     -20.652  45.989  82.710  1.00  0.00     0.004 C 
ENDBRANCH   9  10
ENDBRANCH   8   9
ENDBRANCH   7   8
ENDBRANCH   1   7
TORSDOF 7
ENDMDL
