MODEL 1
REMARK VINA RESULT:    -3.646      0.000      0.000
REMARK INTER + INTRA:          -6.462
REMARK INTER:                  -5.564
REMARK INTRA:                  -0.898
REMARK UNBOUND:                -0.898
REMARK SMILES O=C([O-])CCCCCCCCC(=O)[O-]
REMARK SMILES IDX 7 1 6 2 5 3 4 4 2 5 1 6 3 7 8 8 9 9 10 10 11 11 12 12 13 13
REMARK SMILES IDX 14 14
REMARK H PARENT
REMARK Flexibility Score: inf
ROOT
ATOM      1  C   UNL     1      -2.667  -0.974  37.389  1.00  0.00     0.000 C 
ENDROOT
BRANCH   1   2
ATOM      2  C   UNL     1      -2.198  -0.829  35.931  1.00  0.00     0.000 C 
BRANCH   2   3
ATOM      3  C   UNL     1      -1.558  -2.113  35.373  1.00  0.00     0.006 C 
BRANCH   3   4
ATOM      4  C   UNL     1      -0.516  -2.749  36.310  1.00  0.00     0.053 C 
BRANCH   4   5
ATOM      5  C   UNL     1       0.883  -2.322  35.987  1.00  0.00     0.041 C 
ATOM      6  O   UNL     1       1.677  -3.126  35.429  1.00  0.00    -0.550 OA
ATOM      7  O   UNL     1       1.304  -1.029  36.271  1.00  0.00    -0.550 OA
ENDBRANCH   4   5
ENDBRANCH   3   4
ENDBRANCH   2   3
ENDBRANCH   1   2
BRANCH   1   8
ATOM      8  C   UNL     1      -4.182  -0.763  37.548  1.00  0.00     0.000 C 
BRANCH   8   9
ATOM      9  C   UNL     1      -4.928  -2.071  37.866  1.00  0.00     0.000 C 
BRANCH   9  10
ATOM     10  C   UNL     1      -5.845  -2.520  36.718  1.00  0.00     0.006 C 
BRANCH  10  11
ATOM     11  C   UNL     1      -5.137  -3.451  35.724  1.00  0.00     0.053 C 
BRANCH  11  12
ATOM     12  C   UNL     1      -4.974  -2.773  34.400  1.00  0.00     0.041 C 
ATOM     13  O   UNL     1      -4.301  -3.321  33.487  1.00  0.00    -0.550 OA
ATOM     14  O   UNL     1      -5.522  -1.515  34.190  1.00  0.00    -0.550 OA
ENDBRANCH  11  12
ENDBRANCH  10  11
ENDBRANCH   9  10
ENDBRANCH   8   9
ENDBRANCH   1   8
TORSDOF 9
ENDMDL
MODEL 2
REMARK VINA RESULT:    -3.576      1.230      4.736
REMARK INTER + INTRA:          -6.356
REMARK INTER:                  -5.216
REMARK INTRA:                  -1.140
REMARK UNBOUND:                -0.898
REMARK SMILES O=C([O-])CCCCCCCCC(=O)[O-]
REMARK SMILES IDX 7 1 6 2 5 3 4 4 2 5 1 6 3 7 8 8 9 9 10 10 11 11 12 12 13 13
REMARK SMILES IDX 14 14
REMARK H PARENT
REMARK Flexibility Score: inf
ROOT
ATOM      1  C   UNL     1      -3.971  -0.946  38.037  1.00  0.00     0.000 C 
ENDROOT
BRANCH   1   2
ATOM      2  C   UNL     1      -5.000  -2.089  38.068  1.00  0.00     0.000 C 
BRANCH   2   3
ATOM      3  C   UNL     1      -5.829  -2.191  36.775  1.00  0.00     0.006 C 
BRANCH   3   4
ATOM      4  C   UNL     1      -5.321  -3.259  35.791  1.00  0.00     0.053 C 
BRANCH   4   5
ATOM      5  C   UNL     1      -4.998  -2.691  34.443  1.00  0.00     0.041 C 
ATOM      6  O   UNL     1      -5.474  -1.577  34.095  1.00  0.00    -0.550 OA
ATOM      7  O   UNL     1      -4.147  -3.372  33.582  1.00  0.00    -0.550 OA
ENDBRANCH   4   5
ENDBRANCH   3   4
ENDBRANCH   2   3
ENDBRANCH   1   2
BRANCH   1   8
ATOM      8  C   UNL     1      -4.337   0.155  37.028  1.00  0.00     0.000 C 
BRANCH   8   9
ATOM      9  C   UNL     1      -3.232   0.388  35.983  1.00  0.00     0.000 C 
BRANCH   9  10
ATOM     10  C   UNL     1      -1.940  -0.376  36.312  1.00  0.00     0.006 C 
BRANCH  10  11
ATOM     11  C   UNL     1      -1.564  -1.398  35.231  1.00  0.00     0.053 C 
BRANCH  11  12
ATOM     12  C   UNL     1      -1.122  -2.682  35.858  1.00  0.00     0.041 C 
ATOM     13  O   UNL     1      -1.970  -3.560  36.167  1.00  0.00    -0.550 OA
ATOM     14  O   UNL     1       0.221  -2.891  36.145  1.00  0.00    -0.550 OA
ENDBRANCH  11  12
ENDBRANCH  10  11
ENDBRANCH   9  10
ENDBRANCH   8   9
ENDBRANCH   1   8
TORSDOF 9
ENDMDL
MODEL 3
REMARK VINA RESULT:    -3.528      1.766      2.941
REMARK INTER + INTRA:          -6.282
REMARK INTER:                  -5.336
REMARK INTRA:                  -0.945
REMARK UNBOUND:                -0.898
REMARK SMILES O=C([O-])CCCCCCCCC(=O)[O-]
REMARK SMILES IDX 7 1 6 2 5 3 4 4 2 5 1 6 3 7 8 8 9 9 10 10 11 11 12 12 13 13
REMARK SMILES IDX 14 14
REMARK H PARENT
REMARK Flexibility Score: inf
ROOT
ATOM      1  C   UNL     1      -3.529  -3.023  34.002  1.00  0.00     0.000 C 
ENDROOT
BRANCH   1   2
ATOM      2  C   UNL     1      -2.433  -2.182  34.677  1.00  0.00     0.000 C 
BRANCH   2   3
ATOM      3  C   UNL     1      -1.751  -2.907  35.851  1.00  0.00     0.006 C 
BRANCH   3   4
ATOM      4  C   UNL     1      -0.723  -2.045  36.604  1.00  0.00     0.053 C 
BRANCH   4   5
ATOM      5  C   UNL     1       0.588  -1.954  35.885  1.00  0.00     0.041 C 
ATOM      6  O   UNL     1       0.979  -0.849  35.420  1.00  0.00    -0.550 OA
ATOM      7  O   UNL     1       1.395  -3.077  35.755  1.00  0.00    -0.550 OA
ENDBRANCH   4   5
ENDBRANCH   3   4
ENDBRANCH   2   3
ENDBRANCH   1   2
BRANCH   1   8
ATOM      8  C   UNL     1      -4.945  -2.614  34.439  1.00  0.00     0.000 C 
BRANCH   8   9
ATOM      9  C   UNL     1      -5.390  -3.319  35.733  1.00  0.00     0.000 C 
BRANCH   9  10
ATOM     10  C   UNL     1      -5.865  -2.331  36.809  1.00  0.00     0.006 C 
BRANCH  10  11
ATOM     11  C   UNL     1      -4.870  -2.195  37.969  1.00  0.00     0.053 C 
BRANCH  11  12
ATOM     12  C   UNL     1      -4.110  -0.911  37.858  1.00  0.00     0.041 C 
ATOM     13  O   UNL     1      -3.265  -0.597  38.737  1.00  0.00    -0.550 OA
ATOM     14  O   UNL     1      -4.369  -0.038  36.810  1.00  0.00    -0.550 OA
ENDBRANCH  11  12
ENDBRANCH  10  11
ENDBRANCH   9  10
ENDBRANCH   8   9
ENDBRANCH   1   8
TORSDOF 9
ENDMDL
MODEL 4
REMARK VINA RESULT:    -3.512      1.374      2.174
REMARK INTER + INTRA:          -6.258
REMARK INTER:                  -5.510
REMARK INTRA:                  -0.748
REMARK UNBOUND:                -0.898
REMARK SMILES O=C([O-])CCCCCCCCC(=O)[O-]
REMARK SMILES IDX 7 1 6 2 5 3 4 4 2 5 1 6 3 7 8 8 9 9 10 10 11 11 12 12 13 13
REMARK SMILES IDX 14 14
REMARK H PARENT
REMARK Flexibility Score: inf
ROOT
ATOM      1  C   UNL     1      -4.250  -1.168  38.473  1.00  0.00     0.000 C 
ENDROOT
BRANCH   1   2
ATOM      2  C   UNL     1      -3.406   0.118  38.474  1.00  0.00     0.000 C 
BRANCH   2   3
ATOM      3  C   UNL     1      -2.044  -0.053  37.777  1.00  0.00     0.006 C 
BRANCH   3   4
ATOM      4  C   UNL     1      -1.947  -1.313  36.898  1.00  0.00     0.053 C 
BRANCH   4   5
ATOM      5  C   UNL     1      -0.531  -1.676  36.569  1.00  0.00     0.041 C 
ATOM      6  O   UNL     1       0.340  -0.775  36.440  1.00  0.00    -0.550 OA
ATOM      7  O   UNL     1      -0.164  -3.009  36.436  1.00  0.00    -0.550 OA
ENDBRANCH   4   5
ENDBRANCH   3   4
ENDBRANCH   2   3
ENDBRANCH   1   2
BRANCH   1   8
ATOM      8  C   UNL     1      -5.756  -0.890  38.347  1.00  0.00     0.000 C 
BRANCH   8   9
ATOM      9  C   UNL     1      -6.357  -1.472  37.056  1.00  0.00     0.000 C 
BRANCH   9  10
ATOM     10  C   UNL     1      -5.509  -2.614  36.474  1.00  0.00     0.006 C 
BRANCH  10  11
ATOM     11  C   UNL     1      -5.314  -2.493  34.957  1.00  0.00     0.053 C 
BRANCH  11  12
ATOM     12  C   UNL     1      -4.221  -3.406  34.497  1.00  0.00     0.041 C 
ATOM     13  O   UNL     1      -3.948  -3.500  33.271  1.00  0.00    -0.550 OA
ATOM     14  O   UNL     1      -3.537  -4.191  35.416  1.00  0.00    -0.550 OA
ENDBRANCH  11  12
ENDBRANCH  10  11
ENDBRANCH   9  10
ENDBRANCH   8   9
ENDBRANCH   1   8
TORSDOF 9
ENDMDL
MODEL 5
REMARK VINA RESULT:    -3.428      0.548      5.125
REMARK INTER + INTRA:          -6.129
REMARK INTER:                  -5.459
REMARK INTRA:                  -0.670
REMARK UNBOUND:                -0.898
REMARK SMILES O=C([O-])CCCCCCCCC(=O)[O-]
REMARK SMILES IDX 7 1 6 2 5 3 4 4 2 5 1 6 3 7 8 8 9 9 10 10 11 11 12 12 13 13
REMARK SMILES IDX 14 14
REMARK H PARENT
REMARK Flexibility Score: inf
ROOT
ATOM      1  C   UNL     1      -4.271  -0.730  37.437  1.00  0.00     0.000 C 
ENDROOT
BRANCH   1   2
ATOM      2  C   UNL     1      -4.941  -2.089  37.700  1.00  0.00     0.000 C 
BRANCH   2   3
ATOM      3  C   UNL     1      -5.680  -2.646  36.469  1.00  0.00     0.006 C 
BRANCH   3   4
ATOM      4  C   UNL     1      -4.799  -3.510  35.550  1.00  0.00     0.053 C 
BRANCH   4   5
ATOM      5  C   UNL     1      -4.604  -2.896  34.197  1.00  0.00     0.041 C 
ATOM      6  O   UNL     1      -5.040  -1.738  33.959  1.00  0.00    -0.550 OA
ATOM      7  O   UNL     1      -3.913  -3.585  33.209  1.00  0.00    -0.550 OA
ENDBRANCH   4   5
ENDBRANCH   3   4
ENDBRANCH   2   3
ENDBRANCH   1   2
BRANCH   1   8
ATOM      8  C   UNL     1      -2.923  -0.582  38.161  1.00  0.00     0.000 C 
BRANCH   8   9
ATOM      9  C   UNL     1      -1.772  -0.239  37.199  1.00  0.00     0.000 C 
BRANCH   9  10
ATOM     10  C   UNL     1      -1.600  -1.286  36.089  1.00  0.00     0.006 C 
BRANCH  10  11
ATOM     11  C   UNL     1      -0.679  -2.442  36.502  1.00  0.00     0.053 C 
BRANCH  11  12
ATOM     12  C   UNL     1       0.724  -2.179  36.050  1.00  0.00     0.041 C 
ATOM     13  O   UNL     1       1.209  -1.020  36.136  1.00  0.00    -0.550 OA
ATOM     14  O   UNL     1       1.477  -3.201  35.489  1.00  0.00    -0.550 OA
ENDBRANCH  11  12
ENDBRANCH  10  11
ENDBRANCH   9  10
ENDBRANCH   8   9
ENDBRANCH   1   8
TORSDOF 9
ENDMDL
MODEL 6
REMARK VINA RESULT:    -3.424      1.793      5.371
REMARK INTER + INTRA:          -6.124
REMARK INTER:                  -5.192
REMARK INTRA:                  -0.932
REMARK UNBOUND:                -0.898
REMARK SMILES O=C([O-])CCCCCCCCC(=O)[O-]
REMARK SMILES IDX 7 1 6 2 5 3 4 4 2 5 1 6 3 7 8 8 9 9 10 10 11 11 12 12 13 13
REMARK SMILES IDX 14 14
REMARK H PARENT
REMARK Flexibility Score: inf
ROOT
ATOM      1  C   UNL     1      -4.896  -2.439  34.466  1.00  0.00     0.000 C 
ENDROOT
BRANCH   1   2
ATOM      2  C   UNL     1      -5.372  -3.323  35.631  1.00  0.00     0.000 C 
BRANCH   2   3
ATOM      3  C   UNL     1      -5.835  -2.511  36.855  1.00  0.00     0.006 C 
BRANCH   3   4
ATOM      4  C   UNL     1      -4.691  -2.087  37.791  1.00  0.00     0.053 C 
BRANCH   4   5
ATOM      5  C   UNL     1      -4.515  -0.600  37.847  1.00  0.00     0.041 C 
ATOM      6  O   UNL     1      -3.943   0.005  36.901  1.00  0.00    -0.550 OA
ATOM      7  O   UNL     1      -5.009   0.123  38.925  1.00  0.00    -0.550 OA
ENDBRANCH   4   5
ENDBRANCH   3   4
ENDBRANCH   2   3
ENDBRANCH   1   2
BRANCH   1   8
ATOM      8  C   UNL     1      -3.513  -2.849  33.935  1.00  0.00     0.000 C 
BRANCH   8   9
ATOM      9  C   UNL     1      -2.375  -2.020  34.554  1.00  0.00     0.000 C 
BRANCH   9  10
ATOM     10  C   UNL     1      -1.678  -2.747  35.713  1.00  0.00     0.006 C 
BRANCH  10  11
ATOM     11  C   UNL     1      -0.859  -1.801  36.601  1.00  0.00     0.053 C 
BRANCH  11  12
ATOM     12  C   UNL     1       0.570  -1.778  36.160  1.00  0.00     0.041 C 
ATOM     13  O   UNL     1       1.272  -0.748  36.341  1.00  0.00    -0.550 OA
ATOM     14  O   UNL     1       1.114  -2.874  35.504  1.00  0.00    -0.550 OA
ENDBRANCH  11  12
ENDBRANCH  10  11
ENDBRANCH   9  10
ENDBRANCH   8   9
ENDBRANCH   1   8
TORSDOF 9
ENDMDL
MODEL 7
REMARK VINA RESULT:    -3.365      2.345      3.369
REMARK INTER + INTRA:          -6.033
REMARK INTER:                  -5.067
REMARK INTRA:                  -0.966
REMARK UNBOUND:                -0.898
REMARK SMILES O=C([O-])CCCCCCCCC(=O)[O-]
REMARK SMILES IDX 7 1 6 2 5 3 4 4 2 5 1 6 3 7 8 8 9 9 10 10 11 11 12 12 13 13
REMARK SMILES IDX 14 14
REMARK H PARENT
REMARK Flexibility Score: inf
ROOT
ATOM      1  C   UNL     1      -5.364  -2.474  36.954  1.00  0.00     0.000 C 
ENDROOT
BRANCH   1   2
ATOM      2  C   UNL     1      -5.361  -3.491  35.800  1.00  0.00     0.000 C 
BRANCH   2   3
ATOM      3  C   UNL     1      -3.972  -3.672  35.160  1.00  0.00     0.006 C 
BRANCH   3   4
ATOM      4  C   UNL     1      -2.808  -3.588  36.162  1.00  0.00     0.053 C 
BRANCH   4   5
ATOM      5  C   UNL     1      -1.759  -2.603  35.742  1.00  0.00     0.041 C 
ATOM      6  O   UNL     1      -1.956  -1.854  34.748  1.00  0.00    -0.550 OA
ATOM      7  O   UNL     1      -0.579  -2.487  36.465  1.00  0.00    -0.550 OA
ENDBRANCH   4   5
ENDBRANCH   3   4
ENDBRANCH   2   3
ENDBRANCH   1   2
BRANCH   1   8
ATOM      8  C   UNL     1      -5.870  -1.088  36.523  1.00  0.00     0.000 C 
BRANCH   8   9
ATOM      9  C   UNL     1      -4.723  -0.087  36.295  1.00  0.00     0.000 C 
BRANCH   9  10
ATOM     10  C   UNL     1      -4.690   0.454  34.858  1.00  0.00     0.006 C 
BRANCH  10  11
ATOM     11  C   UNL     1      -5.513  -0.400  33.884  1.00  0.00     0.053 C 
BRANCH  11  12
ATOM     12  C   UNL     1      -6.512   0.448  33.162  1.00  0.00     0.041 C 
ATOM     13  O   UNL     1      -7.696   0.528  33.583  1.00  0.00    -0.550 OA
ATOM     14  O   UNL     1      -6.149   1.111  31.997  1.00  0.00    -0.550 OA
ENDBRANCH  11  12
ENDBRANCH  10  11
ENDBRANCH   9  10
ENDBRANCH   8   9
ENDBRANCH   1   8
TORSDOF 9
ENDMDL
MODEL 8
REMARK VINA RESULT:    -3.359      1.858      5.374
REMARK INTER + INTRA:          -6.024
REMARK INTER:                  -4.956
REMARK INTRA:                  -1.069
REMARK UNBOUND:                -0.898
REMARK SMILES O=C([O-])CCCCCCCCC(=O)[O-]
REMARK SMILES IDX 7 1 6 2 5 3 4 4 2 5 1 6 3 7 8 8 9 9 10 10 11 11 12 12 13 13
REMARK SMILES IDX 14 14
REMARK H PARENT
REMARK Flexibility Score: inf
ROOT
ATOM      1  C   UNL     1      -5.379  -3.394  35.785  1.00  0.00     0.000 C 
ENDROOT
BRANCH   1   2
ATOM      2  C   UNL     1      -5.350  -2.421  36.976  1.00  0.00     0.000 C 
BRANCH   2   3
ATOM      3  C   UNL     1      -6.035  -1.076  36.674  1.00  0.00     0.006 C 
BRANCH   3   4
ATOM      4  C   UNL     1      -5.119  -0.051  35.982  1.00  0.00     0.053 C 
BRANCH   4   5
ATOM      5  C   UNL     1      -5.546   0.246  34.577  1.00  0.00     0.041 C 
ATOM      6  O   UNL     1      -5.146   1.294  34.003  1.00  0.00    -0.550 OA
ATOM      7  O   UNL     1      -6.358  -0.647  33.889  1.00  0.00    -0.550 OA
ENDBRANCH   4   5
ENDBRANCH   3   4
ENDBRANCH   2   3
ENDBRANCH   1   2
BRANCH   1   8
ATOM      8  C   UNL     1      -3.972  -3.793  35.309  1.00  0.00     0.000 C 
BRANCH   8   9
ATOM      9  C   UNL     1      -3.479  -2.925  34.138  1.00  0.00     0.000 C 
BRANCH   9  10
ATOM     10  C   UNL     1      -2.326  -1.992  34.540  1.00  0.00     0.006 C 
BRANCH  10  11
ATOM     11  C   UNL     1      -1.559  -2.495  35.770  1.00  0.00     0.053 C 
BRANCH  11  12
ATOM     12  C   UNL     1      -1.204  -1.351  36.667  1.00  0.00     0.041 C 
ATOM     13  O   UNL     1      -0.062  -0.825  36.599  1.00  0.00    -0.550 OA
ATOM     14  O   UNL     1      -2.115  -0.899  37.612  1.00  0.00    -0.550 OA
ENDBRANCH  11  12
ENDBRANCH  10  11
ENDBRANCH   9  10
ENDBRANCH   8   9
ENDBRANCH   1   8
TORSDOF 9
ENDMDL
MODEL 9
REMARK VINA RESULT:    -3.347      2.284      3.019
REMARK INTER + INTRA:          -6.006
REMARK INTER:                  -5.106
REMARK INTRA:                  -0.900
REMARK UNBOUND:                -0.898
REMARK SMILES O=C([O-])CCCCCCCCC(=O)[O-]
REMARK SMILES IDX 7 1 6 2 5 3 4 4 2 5 1 6 3 7 8 8 9 9 10 10 11 11 12 12 13 13
REMARK SMILES IDX 14 14
REMARK H PARENT
REMARK Flexibility Score: inf
ROOT
ATOM      1  C   UNL     1      -5.888  -0.638  38.361  1.00  0.00     0.000 C 
ENDROOT
BRANCH   1   2
ATOM      2  C   UNL     1      -4.628  -1.346  38.887  1.00  0.00     0.000 C 
BRANCH   2   3
ATOM      3  C   UNL     1      -3.416  -0.405  39.016  1.00  0.00     0.006 C 
BRANCH   3   4
ATOM      4  C   UNL     1      -3.088   0.368  37.727  1.00  0.00     0.053 C 
BRANCH   4   5
ATOM      5  C   UNL     1      -1.944  -0.236  36.970  1.00  0.00     0.041 C 
ATOM      6  O   UNL     1      -1.567  -1.411  37.225  1.00  0.00    -0.550 OA
ATOM      7  O   UNL     1      -1.314   0.483  35.962  1.00  0.00    -0.550 OA
ENDBRANCH   4   5
ENDBRANCH   3   4
ENDBRANCH   2   3
ENDBRANCH   1   2
BRANCH   1   8
ATOM      8  C   UNL     1      -6.578  -1.417  37.229  1.00  0.00     0.000 C 
BRANCH   8   9
ATOM      9  C   UNL     1      -5.643  -1.672  36.034  1.00  0.00     0.000 C 
BRANCH   9  10
ATOM     10  C   UNL     1      -5.382  -3.167  35.798  1.00  0.00     0.006 C 
BRANCH  10  11
ATOM     11  C   UNL     1      -3.906  -3.473  35.511  1.00  0.00     0.053 C 
BRANCH  11  12
ATOM     12  C   UNL     1      -3.535  -3.015  34.136  1.00  0.00     0.041 C 
ATOM     13  O   UNL     1      -3.928  -3.658  33.127  1.00  0.00    -0.550 OA
ATOM     14  O   UNL     1      -2.715  -1.907  33.969  1.00  0.00    -0.550 OA
ENDBRANCH  11  12
ENDBRANCH  10  11
ENDBRANCH   9  10
ENDBRANCH   8   9
ENDBRANCH   1   8
TORSDOF 9
ENDMDL
