MODEL 1
REMARK VINA RESULT:    -2.821      0.000      0.000
REMARK INTER + INTRA:          -5.406
REMARK INTER:                  -4.306
REMARK INTRA:                  -1.100
REMARK UNBOUND:                -1.100
REMARK SMILES CCCCCCCCCCC(=O)[O-]
REMARK SMILES IDX 7 1 8 2 9 3 10 4 11 5 12 6 13 7 6 8 5 9 4 10 3 11 2 12 1 13
REMARK H PARENT
REMARK Flexibility Score: inf
ROOT
ATOM      1  C   UNL     1     143.379 139.923 144.702  1.00  0.00     0.000 C 
ENDROOT
BRANCH   1   2
ATOM      2  C   UNL     1     144.572 140.887 144.621  1.00  0.00     0.000 C 
BRANCH   2   3
ATOM      3  C   UNL     1     144.207 142.228 143.964  1.00  0.00     0.006 C 
BRANCH   3   4
ATOM      4  C   UNL     1     145.440 143.085 143.647  1.00  0.00     0.053 C 
BRANCH   4   5
ATOM      5  C   UNL     1     145.320 143.684 142.282  1.00  0.00     0.041 C 
ATOM      6  O   UNL     1     145.970 143.202 141.318  1.00  0.00    -0.550 OA
ATOM      7  O   UNL     1     144.526 144.806 142.083  1.00  0.00    -0.550 OA
ENDBRANCH   4   5
ENDBRANCH   3   4
ENDBRANCH   2   3
ENDBRANCH   1   2
BRANCH   1   8
ATOM      8  C   UNL     1     142.488 140.251 145.907  1.00  0.00     0.000 C 
BRANCH   8   9
ATOM      9  C   UNL     1     141.208 140.975 145.463  1.00  0.00    -0.000 C 
BRANCH   9  10
ATOM     10  C   UNL     1     141.028 142.339 146.151  1.00  0.00    -0.000 C 
BRANCH  10  11
ATOM     11  C   UNL     1     141.994 142.536 147.332  1.00  0.00    -0.000 C 
BRANCH  11  12
ATOM     12  C   UNL     1     142.956 143.714 147.112  1.00  0.00    -0.003 C 
ATOM     13  C   UNL     1     144.393 143.392 147.524  1.00  0.00     0.004 C 
ENDBRANCH  11  12
ENDBRANCH  10  11
ENDBRANCH   9  10
ENDBRANCH   8   9
ENDBRANCH   1   8
TORSDOF 9
ENDMDL
MODEL 2
REMARK VINA RESULT:    -2.807      1.106      1.907
REMARK INTER + INTRA:          -5.385
REMARK INTER:                  -4.264
REMARK INTRA:                  -1.120
REMARK UNBOUND:                -1.100
REMARK SMILES CCCCCCCCCCC(=O)[O-]
REMARK SMILES IDX 7 1 8 2 9 3 10 4 11 5 12 6 13 7 6 8 5 9 4 10 3 11 2 12 1 13
REMARK H PARENT
REMARK Flexibility Score: inf
ROOT
ATOM      1  C   UNL     1     144.944 141.408 145.482  1.00  0.00     0.000 C 
ENDROOT
BRANCH   1   2
ATOM      2  C   UNL     1     145.351 142.663 144.694  1.00  0.00     0.000 C 
BRANCH   2   3
ATOM      3  C   UNL     1     144.535 142.843 143.404  1.00  0.00     0.006 C 
BRANCH   3   4
ATOM      4  C   UNL     1     144.444 144.311 142.965  1.00  0.00     0.053 C 
BRANCH   4   5
ATOM      5  C   UNL     1     144.976 144.472 141.576  1.00  0.00     0.041 C 
ATOM      6  O   UNL     1     144.744 145.526 140.927  1.00  0.00    -0.550 OA
ATOM      7  O   UNL     1     145.687 143.439 140.980  1.00  0.00    -0.550 OA
ENDBRANCH   4   5
ENDBRANCH   3   4
ENDBRANCH   2   3
ENDBRANCH   1   2
BRANCH   1   8
ATOM      8  C   UNL     1     143.847 140.629 144.746  1.00  0.00     0.000 C 
BRANCH   8   9
ATOM      9  C   UNL     1     142.700 140.261 145.700  1.00  0.00    -0.000 C 
BRANCH   9  10
ATOM     10  C   UNL     1     141.394 141.004 145.375  1.00  0.00    -0.000 C 
BRANCH  10  11
ATOM     11  C   UNL     1     140.901 141.871 146.547  1.00  0.00    -0.000 C 
BRANCH  11  12
ATOM     12  C   UNL     1     141.887 142.994 146.901  1.00  0.00    -0.003 C 
ATOM     13  C   UNL     1     141.988 144.062 145.810  1.00  0.00     0.004 C 
ENDBRANCH  11  12
ENDBRANCH  10  11
ENDBRANCH   9  10
ENDBRANCH   8   9
ENDBRANCH   1   8
TORSDOF 9
ENDMDL
MODEL 3
REMARK VINA RESULT:    -2.803      4.073      5.805
REMARK INTER + INTRA:          -5.377
REMARK INTER:                  -4.334
REMARK INTRA:                  -1.044
REMARK UNBOUND:                -1.100
REMARK SMILES CCCCCCCCCCC(=O)[O-]
REMARK SMILES IDX 7 1 8 2 9 3 10 4 11 5 12 6 13 7 6 8 5 9 4 10 3 11 2 12 1 13
REMARK H PARENT
REMARK Flexibility Score: inf
ROOT
ATOM      1  C   UNL     1     141.159 140.988 145.476  1.00  0.00     0.000 C 
ENDROOT
BRANCH   1   2
ATOM      2  C   UNL     1     141.092 142.145 146.484  1.00  0.00     0.000 C 
BRANCH   2   3
ATOM      3  C   UNL     1     141.882 141.857 147.770  1.00  0.00     0.006 C 
BRANCH   3   4
ATOM      4  C   UNL     1     141.462 142.762 148.936  1.00  0.00     0.053 C 
BRANCH   4   5
ATOM      5  C   UNL     1     141.393 141.975 150.207  1.00  0.00     0.041 C 
ATOM      6  O   UNL     1     140.281 141.739 150.747  1.00  0.00    -0.550 OA
ATOM      7  O   UNL     1     142.561 141.543 150.821  1.00  0.00    -0.550 OA
ENDBRANCH   4   5
ENDBRANCH   3   4
ENDBRANCH   2   3
ENDBRANCH   1   2
BRANCH   1   8
ATOM      8  C   UNL     1     142.353 140.072 145.768  1.00  0.00     0.000 C 
BRANCH   8   9
ATOM      9  C   UNL     1     143.231 139.897 144.520  1.00  0.00    -0.000 C 
BRANCH   9  10
ATOM     10  C   UNL     1     144.552 140.678 144.607  1.00  0.00    -0.000 C 
BRANCH  10  11
ATOM     11  C   UNL     1     144.422 142.119 144.083  1.00  0.00    -0.000 C 
BRANCH  11  12
ATOM     12  C   UNL     1     144.464 143.160 145.213  1.00  0.00    -0.003 C 
ATOM     13  C   UNL     1     143.573 144.372 144.937  1.00  0.00     0.004 C 
ENDBRANCH  11  12
ENDBRANCH  10  11
ENDBRANCH   9  10
ENDBRANCH   8   9
ENDBRANCH   1   8
TORSDOF 9
ENDMDL
MODEL 4
REMARK VINA RESULT:    -2.755      1.515      2.433
REMARK INTER + INTRA:          -5.305
REMARK INTER:                  -4.792
REMARK INTRA:                  -0.512
REMARK UNBOUND:                -1.100
REMARK SMILES CCCCCCCCCCC(=O)[O-]
REMARK SMILES IDX 7 1 8 2 9 3 10 4 11 5 12 6 13 7 6 8 5 9 4 10 3 11 2 12 1 13
REMARK H PARENT
REMARK Flexibility Score: inf
ROOT
ATOM      1  C   UNL     1     144.035 141.473 144.335  1.00  0.00     0.000 C 
ENDROOT
BRANCH   1   2
ATOM      2  C   UNL     1     145.570 141.535 144.338  1.00  0.00     0.000 C 
BRANCH   2   3
ATOM      3  C   UNL     1     146.110 142.884 143.839  1.00  0.00     0.006 C 
BRANCH   3   4
ATOM      4  C   UNL     1     147.573 142.801 143.382  1.00  0.00     0.053 C 
BRANCH   4   5
ATOM      5  C   UNL     1     147.646 142.443 141.932  1.00  0.00     0.041 C 
ATOM      6  O   UNL     1     146.753 142.836 141.136  1.00  0.00    -0.550 OA
ATOM      7  O   UNL     1     148.675 141.635 141.466  1.00  0.00    -0.550 OA
ENDBRANCH   4   5
ENDBRANCH   3   4
ENDBRANCH   2   3
ENDBRANCH   1   2
BRANCH   1   8
ATOM      8  C   UNL     1     143.541 140.062 144.678  1.00  0.00     0.000 C 
BRANCH   8   9
ATOM      9  C   UNL     1     142.495 140.103 145.802  1.00  0.00    -0.000 C 
BRANCH   9  10
ATOM     10  C   UNL     1     141.282 140.980 145.453  1.00  0.00    -0.000 C 
BRANCH  10  11
ATOM     11  C   UNL     1     141.018 142.069 146.508  1.00  0.00    -0.000 C 
BRANCH  11  12
ATOM     12  C   UNL     1     142.012 142.004 147.679  1.00  0.00    -0.003 C 
ATOM     13  C   UNL     1     141.353 141.589 148.994  1.00  0.00     0.004 C 
ENDBRANCH  11  12
ENDBRANCH  10  11
ENDBRANCH   9  10
ENDBRANCH   8   9
ENDBRANCH   1   8
TORSDOF 9
ENDMDL
MODEL 5
REMARK VINA RESULT:    -2.731      1.703      2.929
REMARK INTER + INTRA:          -5.268
REMARK INTER:                  -3.987
REMARK INTRA:                  -1.281
REMARK UNBOUND:                -1.100
REMARK SMILES CCCCCCCCCCC(=O)[O-]
REMARK SMILES IDX 7 1 8 2 9 3 10 4 11 5 12 6 13 7 6 8 5 9 4 10 3 11 2 12 1 13
REMARK H PARENT
REMARK Flexibility Score: inf
ROOT
ATOM      1  C   UNL     1     142.425 143.997 146.872  1.00  0.00     0.000 C 
ENDROOT
BRANCH   1   2
ATOM      2  C   UNL     1     142.102 144.511 145.461  1.00  0.00     0.000 C 
BRANCH   2   3
ATOM      3  C   UNL     1     143.352 144.640 144.576  1.00  0.00     0.006 C 
BRANCH   3   4
ATOM      4  C   UNL     1     144.375 143.525 144.834  1.00  0.00     0.053 C 
BRANCH   4   5
ATOM      5  C   UNL     1     144.636 142.758 143.576  1.00  0.00     0.041 C 
ATOM      6  O   UNL     1     144.713 143.357 142.472  1.00  0.00    -0.550 OA
ATOM      7  O   UNL     1     144.747 141.374 143.617  1.00  0.00    -0.550 OA
ENDBRANCH   4   5
ENDBRANCH   3   4
ENDBRANCH   2   3
ENDBRANCH   1   2
BRANCH   1   8
ATOM      8  C   UNL     1     141.533 142.806 147.241  1.00  0.00     0.000 C 
BRANCH   8   9
ATOM      9  C   UNL     1     141.063 142.060 145.983  1.00  0.00    -0.000 C 
BRANCH   9  10
ATOM     10  C   UNL     1     141.882 140.789 145.705  1.00  0.00    -0.000 C 
BRANCH  10  11
ATOM     11  C   UNL     1     142.605 140.267 146.959  1.00  0.00    -0.000 C 
BRANCH  11  12
ATOM     12  C   UNL     1     144.117 140.100 146.737  1.00  0.00    -0.003 C 
ATOM     13  C   UNL     1     144.945 141.149 147.481  1.00  0.00     0.004 C 
ENDBRANCH  11  12
ENDBRANCH  10  11
ENDBRANCH   9  10
ENDBRANCH   8   9
ENDBRANCH   1   8
TORSDOF 9
ENDMDL
MODEL 6
REMARK VINA RESULT:    -2.705      5.086      6.832
REMARK INTER + INTRA:          -5.228
REMARK INTER:                  -4.215
REMARK INTRA:                  -1.013
REMARK UNBOUND:                -1.100
REMARK SMILES CCCCCCCCCCC(=O)[O-]
REMARK SMILES IDX 7 1 8 2 9 3 10 4 11 5 12 6 13 7 6 8 5 9 4 10 3 11 2 12 1 13
REMARK H PARENT
REMARK Flexibility Score: inf
ROOT
ATOM      1  C   UNL     1     143.623 140.601 148.792  1.00  0.00     0.000 C 
ENDROOT
BRANCH   1   2
ATOM      2  C   UNL     1     142.224 140.733 149.414  1.00  0.00     0.000 C 
BRANCH   2   3
ATOM      3  C   UNL     1     141.824 142.194 149.670  1.00  0.00     0.006 C 
BRANCH   3   4
ATOM      4  C   UNL     1     142.132 142.648 151.104  1.00  0.00     0.053 C 
BRANCH   4   5
ATOM      5  C   UNL     1     141.094 142.130 152.048  1.00  0.00     0.041 C 
ATOM      6  O   UNL     1     139.880 142.123 151.713  1.00  0.00    -0.550 OA
ATOM      7  O   UNL     1     141.461 141.698 153.316  1.00  0.00    -0.550 OA
ENDBRANCH   4   5
ENDBRANCH   3   4
ENDBRANCH   2   3
ENDBRANCH   1   2
BRANCH   1   8
ATOM      8  C   UNL     1     143.557 139.883 147.438  1.00  0.00     0.000 C 
BRANCH   8   9
ATOM      9  C   UNL     1     144.218 140.726 146.337  1.00  0.00    -0.000 C 
BRANCH   9  10
ATOM     10  C   UNL     1     143.214 141.212 145.277  1.00  0.00    -0.000 C 
BRANCH  10  11
ATOM     11  C   UNL     1     141.807 140.626 145.486  1.00  0.00    -0.000 C 
BRANCH  11  12
ATOM     12  C   UNL     1     140.779 141.697 145.884  1.00  0.00    -0.003 C 
ATOM     13  C   UNL     1     141.408 143.075 146.093  1.00  0.00     0.004 C 
ENDBRANCH  11  12
ENDBRANCH  10  11
ENDBRANCH   9  10
ENDBRANCH   8   9
ENDBRANCH   1   8
TORSDOF 9
ENDMDL
MODEL 7
REMARK VINA RESULT:    -2.614     16.036     18.086
REMARK INTER + INTRA:          -5.089
REMARK INTER:                  -4.575
REMARK INTRA:                  -0.513
REMARK UNBOUND:                -1.100
REMARK SMILES CCCCCCCCCCC(=O)[O-]
REMARK SMILES IDX 7 1 8 2 9 3 10 4 11 5 12 6 13 7 6 8 5 9 4 10 3 11 2 12 1 13
REMARK H PARENT
REMARK Flexibility Score: inf
ROOT
ATOM      1  C   UNL     1     140.632 158.433 149.102  1.00  0.00     0.000 C 
ENDROOT
BRANCH   1   2
ATOM      2  C   UNL     1     141.727 159.382 149.611  1.00  0.00     0.000 C 
BRANCH   2   3
ATOM      3  C   UNL     1     141.324 160.116 150.899  1.00  0.00     0.006 C 
BRANCH   3   4
ATOM      4  C   UNL     1     142.224 159.756 152.090  1.00  0.00     0.053 C 
BRANCH   4   5
ATOM      5  C   UNL     1     141.408 159.175 153.201  1.00  0.00     0.041 C 
ATOM      6  O   UNL     1     140.412 159.800 153.650  1.00  0.00    -0.550 OA
ATOM      7  O   UNL     1     141.777 157.965 153.774  1.00  0.00    -0.550 OA
ENDBRANCH   4   5
ENDBRANCH   3   4
ENDBRANCH   2   3
ENDBRANCH   1   2
BRANCH   1   8
ATOM      8  C   UNL     1     140.040 158.937 147.779  1.00  0.00     0.000 C 
BRANCH   8   9
ATOM      9  C   UNL     1     141.114 159.625 146.923  1.00  0.00    -0.000 C 
BRANCH   9  10
ATOM     10  C   UNL     1     141.124 159.126 145.468  1.00  0.00    -0.000 C 
BRANCH  10  11
ATOM     11  C   UNL     1     139.940 158.194 145.156  1.00  0.00    -0.000 C 
BRANCH  11  12
ATOM     12  C   UNL     1     140.393 156.763 144.823  1.00  0.00    -0.003 C 
ATOM     13  C   UNL     1     141.822 156.704 144.282  1.00  0.00     0.004 C 
ENDBRANCH  11  12
ENDBRANCH  10  11
ENDBRANCH   9  10
ENDBRANCH   8   9
ENDBRANCH   1   8
TORSDOF 9
ENDMDL
MODEL 8
REMARK VINA RESULT:    -2.548      3.697      4.949
REMARK INTER + INTRA:          -4.989
REMARK INTER:                  -4.406
REMARK INTRA:                  -0.584
REMARK UNBOUND:                -1.100
REMARK SMILES CCCCCCCCCCC(=O)[O-]
REMARK SMILES IDX 7 1 8 2 9 3 10 4 11 5 12 6 13 7 6 8 5 9 4 10 3 11 2 12 1 13
REMARK H PARENT
REMARK Flexibility Score: inf
ROOT
ATOM      1  C   UNL     1     142.220 140.983 148.330  1.00  0.00     0.000 C 
ENDROOT
BRANCH   1   2
ATOM      2  C   UNL     1     141.345 141.829 147.392  1.00  0.00     0.000 C 
BRANCH   2   3
ATOM      3  C   UNL     1     141.540 141.466 145.911  1.00  0.00     0.006 C 
BRANCH   3   4
ATOM      4  C   UNL     1     142.587 140.362 145.707  1.00  0.00     0.053 C 
BRANCH   4   5
ATOM      5  C   UNL     1     143.635 140.812 144.739  1.00  0.00     0.041 C 
ATOM      6  O   UNL     1     143.853 142.040 144.566  1.00  0.00    -0.550 OA
ATOM      7  O   UNL     1     144.339 139.876 143.993  1.00  0.00    -0.550 OA
ENDBRANCH   4   5
ENDBRANCH   3   4
ENDBRANCH   2   3
ENDBRANCH   1   2
BRANCH   1   8
ATOM      8  C   UNL     1     142.012 141.393 149.793  1.00  0.00     0.000 C 
BRANCH   8   9
ATOM      9  C   UNL     1     141.535 142.850 149.894  1.00  0.00    -0.000 C 
BRANCH   9  10
ATOM     10  C   UNL     1     141.197 143.267 151.334  1.00  0.00    -0.000 C 
BRANCH  10  11
ATOM     11  C   UNL     1     139.877 142.652 151.832  1.00  0.00    -0.000 C 
BRANCH  11  12
ATOM     12  C   UNL     1     140.065 141.807 153.101  1.00  0.00    -0.003 C 
ATOM     13  C   UNL     1     141.361 142.133 153.845  1.00  0.00     0.004 C 
ENDBRANCH  11  12
ENDBRANCH  10  11
ENDBRANCH   9  10
ENDBRANCH   8   9
ENDBRANCH   1   8
TORSDOF 9
ENDMDL
