MODEL 1
REMARK VINA RESULT:    -3.570      0.000      0.000
REMARK INTER + INTRA:          -6.596
REMARK INTER:                  -5.658
REMARK INTRA:                  -0.938
REMARK UNBOUND:                -0.938
REMARK SMILES CCCCCCCCCCCC(=O)[O-]
REMARK SMILES IDX 7 1 8 2 9 3 10 4 11 5 12 6 13 7 14 8 6 9 5 10 4 11 3 12 2 13
REMARK SMILES IDX 1 14
REMARK H PARENT
REMARK Flexibility Score: inf
ROOT
ATOM      1  C   UNL     1      60.621  31.930  60.215  1.00  0.00     0.000 C 
ENDROOT
BRANCH   1   2
ATOM      2  C   UNL     1      60.867  31.463  61.659  1.00  0.00     0.000 C 
BRANCH   2   3
ATOM      3  C   UNL     1      61.716  30.186  61.732  1.00  0.00     0.000 C 
BRANCH   3   4
ATOM      4  C   UNL     1      63.212  30.516  61.667  1.00  0.00     0.006 C 
BRANCH   4   5
ATOM      5  C   UNL     1      63.878  29.822  60.475  1.00  0.00     0.053 C 
BRANCH   5   6
ATOM      6  C   UNL     1      65.206  30.443  60.182  1.00  0.00     0.041 C 
ATOM      7  O   UNL     1      65.278  31.484  59.479  1.00  0.00    -0.550 OA
ATOM      8  O   UNL     1      66.363  29.900  60.728  1.00  0.00    -0.550 OA
ENDBRANCH   5   6
ENDBRANCH   4   5
ENDBRANCH   3   4
ENDBRANCH   2   3
ENDBRANCH   1   2
BRANCH   1   9
ATOM      9  C   UNL     1      60.969  33.411  60.003  1.00  0.00     0.000 C 
BRANCH   9  10
ATOM     10  C   UNL     1      62.467  33.588  59.729  1.00  0.00    -0.000 C 
BRANCH  10  11
ATOM     11  C   UNL     1      63.134  34.420  60.836  1.00  0.00    -0.000 C 
BRANCH  11  12
ATOM     12  C   UNL     1      62.433  35.769  61.078  1.00  0.00    -0.000 C 
BRANCH  12  13
ATOM     13  C   UNL     1      63.329  36.861  61.692  1.00  0.00    -0.003 C 
ATOM     14  C   UNL     1      64.731  36.360  62.037  1.00  0.00     0.004 C 
ENDBRANCH  12  13
ENDBRANCH  11  12
ENDBRANCH  10  11
ENDBRANCH   9  10
ENDBRANCH   1   9
TORSDOF 10
ENDMDL
MODEL 2
REMARK VINA RESULT:    -3.471      2.425      5.488
REMARK INTER + INTRA:          -6.439
REMARK INTER:                  -5.770
REMARK INTRA:                  -0.670
REMARK UNBOUND:                -0.938
REMARK SMILES CCCCCCCCCCCC(=O)[O-]
REMARK SMILES IDX 7 1 8 2 9 3 10 4 11 5 12 6 13 7 14 8 6 9 5 10 4 11 3 12 2 13
REMARK SMILES IDX 1 14
REMARK H PARENT
REMARK Flexibility Score: inf
ROOT
ATOM      1  C   UNL     1      62.383  30.596  61.792  1.00  0.00     0.000 C 
ENDROOT
BRANCH   1   2
ATOM      2  C   UNL     1      60.939  31.098  61.635  1.00  0.00     0.000 C 
BRANCH   2   3
ATOM      3  C   UNL     1      60.846  32.387  60.806  1.00  0.00     0.000 C 
BRANCH   3   4
ATOM      4  C   UNL     1      62.223  33.045  60.657  1.00  0.00     0.006 C 
BRANCH   4   5
ATOM      5  C   UNL     1      62.092  34.554  60.433  1.00  0.00     0.053 C 
BRANCH   5   6
ATOM      6  C   UNL     1      63.122  35.293  61.226  1.00  0.00     0.041 C 
ATOM      7  O   UNL     1      64.234  34.759  61.475  1.00  0.00    -0.550 OA
ATOM      8  O   UNL     1      62.873  36.593  61.649  1.00  0.00    -0.550 OA
ENDBRANCH   5   6
ENDBRANCH   4   5
ENDBRANCH   3   4
ENDBRANCH   2   3
ENDBRANCH   1   2
BRANCH   1   9
ATOM      9  C   UNL     1      62.526  29.097  61.491  1.00  0.00     0.000 C 
BRANCH   9  10
ATOM     10  C   UNL     1      63.959  28.757  61.065  1.00  0.00    -0.000 C 
BRANCH  10  11
ATOM     11  C   UNL     1      64.745  30.028  60.712  1.00  0.00    -0.000 C 
BRANCH  11  12
ATOM     12  C   UNL     1      66.189  29.736  60.267  1.00  0.00    -0.000 C 
BRANCH  12  13
ATOM     13  C   UNL     1      66.853  28.538  60.969  1.00  0.00    -0.003 C 
ATOM     14  C   UNL     1      67.952  28.951  61.948  1.00  0.00     0.004 C 
ENDBRANCH  12  13
ENDBRANCH  11  12
ENDBRANCH  10  11
ENDBRANCH   9  10
ENDBRANCH   1   9
TORSDOF 10
ENDMDL
MODEL 3
REMARK VINA RESULT:    -3.453     12.001     13.472
REMARK INTER + INTRA:          -6.410
REMARK INTER:                  -5.263
REMARK INTRA:                  -1.146
REMARK UNBOUND:                -0.938
REMARK SMILES CCCCCCCCCCCC(=O)[O-]
REMARK SMILES IDX 7 1 8 2 9 3 10 4 11 5 12 6 13 7 14 8 6 9 5 10 4 11 3 12 2 13
REMARK SMILES IDX 1 14
REMARK H PARENT
REMARK Flexibility Score: inf
ROOT
ATOM      1  C   UNL     1      56.782  27.272  51.390  1.00  0.00     0.000 C 
ENDROOT
BRANCH   1   2
ATOM      2  C   UNL     1      57.963  28.226  51.151  1.00  0.00     0.000 C 
BRANCH   2   3
ATOM      3  C   UNL     1      57.702  29.216  50.006  1.00  0.00     0.000 C 
BRANCH   3   4
ATOM      4  C   UNL     1      58.870  29.226  49.011  1.00  0.00     0.006 C 
BRANCH   4   5
ATOM      5  C   UNL     1      59.770  28.003  49.207  1.00  0.00     0.053 C 
BRANCH   5   6
ATOM      6  C   UNL     1      61.160  28.427  49.561  1.00  0.00     0.041 C 
ATOM      7  O   UNL     1      61.348  29.401  50.335  1.00  0.00    -0.550 OA
ATOM      8  O   UNL     1      62.249  27.713  49.075  1.00  0.00    -0.550 OA
ENDBRANCH   5   6
ENDBRANCH   4   5
ENDBRANCH   3   4
ENDBRANCH   2   3
ENDBRANCH   1   2
BRANCH   1   9
ATOM      9  C   UNL     1      56.605  26.252  50.256  1.00  0.00     0.000 C 
BRANCH   9  10
ATOM     10  C   UNL     1      55.185  26.311  49.681  1.00  0.00    -0.000 C 
BRANCH  10  11
ATOM     11  C   UNL     1      54.283  27.215  50.534  1.00  0.00    -0.000 C 
BRANCH  11  12
ATOM     12  C   UNL     1      53.513  28.255  49.699  1.00  0.00    -0.000 C 
BRANCH  12  13
ATOM     13  C   UNL     1      53.148  29.547  50.454  1.00  0.00    -0.003 C 
ATOM     14  C   UNL     1      54.247  30.012  51.409  1.00  0.00     0.004 C 
ENDBRANCH  12  13
ENDBRANCH  11  12
ENDBRANCH  10  11
ENDBRANCH   9  10
ENDBRANCH   1   9
TORSDOF 10
ENDMDL
MODEL 4
REMARK VINA RESULT:    -3.386     11.749     13.605
REMARK INTER + INTRA:          -6.304
REMARK INTER:                  -5.168
REMARK INTRA:                  -1.137
REMARK UNBOUND:                -0.938
REMARK SMILES CCCCCCCCCCCC(=O)[O-]
REMARK SMILES IDX 7 1 8 2 9 3 10 4 11 5 12 6 13 7 14 8 6 9 5 10 4 11 3 12 2 13
REMARK SMILES IDX 1 14
REMARK H PARENT
REMARK Flexibility Score: inf
ROOT
ATOM      1  C   UNL     1      56.901  27.751  52.441  1.00  0.00     0.000 C 
ENDROOT
BRANCH   1   2
ATOM      2  C   UNL     1      58.149  26.897  52.165  1.00  0.00     0.000 C 
BRANCH   2   3
ATOM      3  C   UNL     1      57.886  25.774  51.151  1.00  0.00     0.000 C 
BRANCH   3   4
ATOM      4  C   UNL     1      58.311  26.197  49.739  1.00  0.00     0.006 C 
BRANCH   4   5
ATOM      5  C   UNL     1      59.836  26.270  49.623  1.00  0.00     0.053 C 
BRANCH   5   6
ATOM      6  C   UNL     1      60.269  27.659  49.273  1.00  0.00     0.041 C 
ATOM      7  O   UNL     1      61.491  27.959  49.264  1.00  0.00    -0.550 OA
ATOM      8  O   UNL     1      59.324  28.611  48.910  1.00  0.00    -0.550 OA
ENDBRANCH   5   6
ENDBRANCH   4   5
ENDBRANCH   3   4
ENDBRANCH   2   3
ENDBRANCH   1   2
BRANCH   1   9
ATOM      9  C   UNL     1      56.931  29.099  51.705  1.00  0.00     0.000 C 
BRANCH   9  10
ATOM     10  C   UNL     1      56.180  29.012  50.371  1.00  0.00    -0.000 C 
BRANCH  10  11
ATOM     11  C   UNL     1      54.682  29.294  50.563  1.00  0.00    -0.000 C 
BRANCH  11  12
ATOM     12  C   UNL     1      53.797  28.074  50.249  1.00  0.00    -0.000 C 
BRANCH  12  13
ATOM     13  C   UNL     1      54.554  26.849  49.705  1.00  0.00    -0.003 C 
ATOM     14  C   UNL     1      53.640  25.845  49.002  1.00  0.00     0.004 C 
ENDBRANCH  12  13
ENDBRANCH  11  12
ENDBRANCH  10  11
ENDBRANCH   9  10
ENDBRANCH   1   9
TORSDOF 10
ENDMDL
MODEL 5
REMARK VINA RESULT:    -3.380      2.401      5.766
REMARK INTER + INTRA:          -6.295
REMARK INTER:                  -5.479
REMARK INTRA:                  -0.816
REMARK UNBOUND:                -0.938
REMARK SMILES CCCCCCCCCCCC(=O)[O-]
REMARK SMILES IDX 7 1 8 2 9 3 10 4 11 5 12 6 13 7 14 8 6 9 5 10 4 11 3 12 2 13
REMARK SMILES IDX 1 14
REMARK H PARENT
REMARK Flexibility Score: inf
ROOT
ATOM      1  C   UNL     1      60.952  31.925  61.207  1.00  0.00     0.000 C 
ENDROOT
BRANCH   1   2
ATOM      2  C   UNL     1      61.773  32.846  60.291  1.00  0.00     0.000 C 
BRANCH   2   3
ATOM      3  C   UNL     1      61.202  34.270  60.217  1.00  0.00     0.000 C 
BRANCH   3   4
ATOM      4  C   UNL     1      62.160  35.281  60.861  1.00  0.00     0.006 C 
BRANCH   4   5
ATOM      5  C   UNL     1      63.568  34.696  60.995  1.00  0.00     0.053 C 
BRANCH   5   6
ATOM      6  C   UNL     1      64.564  35.781  61.255  1.00  0.00     0.041 C 
ATOM      7  O   UNL     1      64.747  36.206  62.426  1.00  0.00    -0.550 OA
ATOM      8  O   UNL     1      65.326  36.291  60.211  1.00  0.00    -0.550 OA
ENDBRANCH   5   6
ENDBRANCH   4   5
ENDBRANCH   3   4
ENDBRANCH   2   3
ENDBRANCH   1   2
BRANCH   1   9
ATOM      9  C   UNL     1      61.779  30.760  61.771  1.00  0.00     0.000 C 
BRANCH   9  10
ATOM     10  C   UNL     1      63.269  30.942  61.456  1.00  0.00    -0.000 C 
BRANCH  10  11
ATOM     11  C   UNL     1      63.978  29.584  61.348  1.00  0.00    -0.000 C 
BRANCH  11  12
ATOM     12  C   UNL     1      63.172  28.547  60.544  1.00  0.00    -0.000 C 
BRANCH  12  13
ATOM     13  C   UNL     1      63.051  27.165  61.211  1.00  0.00    -0.003 C 
ATOM     14  C   UNL     1      61.827  27.044  62.119  1.00  0.00     0.004 C 
ENDBRANCH  12  13
ENDBRANCH  11  12
ENDBRANCH  10  11
ENDBRANCH   9  10
ENDBRANCH   1   9
TORSDOF 10
ENDMDL
MODEL 6
REMARK VINA RESULT:    -3.375      2.375      5.145
REMARK INTER + INTRA:          -6.286
REMARK INTER:                  -5.241
REMARK INTRA:                  -1.046
REMARK UNBOUND:                -0.938
REMARK SMILES CCCCCCCCCCCC(=O)[O-]
REMARK SMILES IDX 7 1 8 2 9 3 10 4 11 5 12 6 13 7 14 8 6 9 5 10 4 11 3 12 2 13
REMARK SMILES IDX 1 14
REMARK H PARENT
REMARK Flexibility Score: inf
ROOT
ATOM      1  C   UNL     1      60.859  32.739  59.952  1.00  0.00     0.000 C 
ENDROOT
BRANCH   1   2
ATOM      2  C   UNL     1      61.831  33.925  59.836  1.00  0.00     0.000 C 
BRANCH   2   3
ATOM      3  C   UNL     1      61.221  35.242  60.337  1.00  0.00     0.000 C 
BRANCH   3   4
ATOM      4  C   UNL     1      62.260  36.076  61.096  1.00  0.00     0.006 C 
BRANCH   4   5
ATOM      5  C   UNL     1      63.603  35.344  61.172  1.00  0.00     0.053 C 
BRANCH   5   6
ATOM      6  C   UNL     1      64.683  36.277  61.619  1.00  0.00     0.041 C 
ATOM      7  O   UNL     1      64.585  36.881  62.719  1.00  0.00    -0.550 OA
ATOM      8  O   UNL     1      65.824  36.443  60.843  1.00  0.00    -0.550 OA
ENDBRANCH   5   6
ENDBRANCH   4   5
ENDBRANCH   3   4
ENDBRANCH   2   3
ENDBRANCH   1   2
BRANCH   1   9
ATOM      9  C   UNL     1      60.705  32.239  61.396  1.00  0.00     0.000 C 
BRANCH   9  10
ATOM     10  C   UNL     1      60.768  30.709  61.457  1.00  0.00    -0.000 C 
BRANCH  10  11
ATOM     11  C   UNL     1      62.171  30.232  61.862  1.00  0.00    -0.000 C 
BRANCH  11  12
ATOM     12  C   UNL     1      62.895  29.472  60.736  1.00  0.00    -0.000 C 
BRANCH  12  13
ATOM     13  C   UNL     1      64.084  30.225  60.109  1.00  0.00    -0.003 C 
ATOM     14  C   UNL     1      64.400  31.540  60.820  1.00  0.00     0.004 C 
ENDBRANCH  12  13
ENDBRANCH  11  12
ENDBRANCH  10  11
ENDBRANCH   9  10
ENDBRANCH   1   9
TORSDOF 10
ENDMDL
MODEL 7
REMARK VINA RESULT:    -3.375      1.450      2.307
REMARK INTER + INTRA:          -6.286
REMARK INTER:                  -5.154
REMARK INTRA:                  -1.132
REMARK UNBOUND:                -0.938
REMARK SMILES CCCCCCCCCCCC(=O)[O-]
REMARK SMILES IDX 7 1 8 2 9 3 10 4 11 5 12 6 13 7 14 8 6 9 5 10 4 11 3 12 2 13
REMARK SMILES IDX 1 14
REMARK H PARENT
REMARK Flexibility Score: inf
ROOT
ATOM      1  C   UNL     1      61.743  33.501  59.539  1.00  0.00     0.000 C 
ENDROOT
BRANCH   1   2
ATOM      2  C   UNL     1      60.684  32.435  59.863  1.00  0.00     0.000 C 
BRANCH   2   3
ATOM      3  C   UNL     1      60.784  31.922  61.308  1.00  0.00     0.000 C 
BRANCH   3   4
ATOM      4  C   UNL     1      61.155  30.434  61.338  1.00  0.00     0.006 C 
BRANCH   4   5
ATOM      5  C   UNL     1      62.623  30.241  61.728  1.00  0.00     0.053 C 
BRANCH   5   6
ATOM      6  C   UNL     1      63.252  29.173  60.891  1.00  0.00     0.041 C 
ATOM      7  O   UNL     1      63.372  28.004  61.339  1.00  0.00    -0.550 OA
ATOM      8  O   UNL     1      63.661  29.458  59.593  1.00  0.00    -0.550 OA
ENDBRANCH   5   6
ENDBRANCH   4   5
ENDBRANCH   3   4
ENDBRANCH   2   3
ENDBRANCH   1   2
BRANCH   1   9
ATOM      9  C   UNL     1      63.111  32.893  59.197  1.00  0.00     0.000 C 
BRANCH   9  10
ATOM     10  C   UNL     1      64.197  33.419  60.142  1.00  0.00    -0.000 C 
BRANCH  10  11
ATOM     11  C   UNL     1      63.586  34.269  61.265  1.00  0.00    -0.000 C 
BRANCH  11  12
ATOM     12  C   UNL     1      64.504  35.419  61.716  1.00  0.00    -0.000 C 
BRANCH  12  13
ATOM     13  C   UNL     1      63.838  36.807  61.736  1.00  0.00    -0.003 C 
ATOM     14  C   UNL     1      62.354  36.764  61.373  1.00  0.00     0.004 C 
ENDBRANCH  12  13
ENDBRANCH  11  12
ENDBRANCH  10  11
ENDBRANCH   9  10
ENDBRANCH   1   9
TORSDOF 10
ENDMDL
MODEL 8
REMARK VINA RESULT:    -3.326      1.561      2.627
REMARK INTER + INTRA:          -6.209
REMARK INTER:                  -5.686
REMARK INTRA:                  -0.523
REMARK UNBOUND:                -0.938
REMARK SMILES CCCCCCCCCCCC(=O)[O-]
REMARK SMILES IDX 7 1 8 2 9 3 10 4 11 5 12 6 13 7 14 8 6 9 5 10 4 11 3 12 2 13
REMARK SMILES IDX 1 14
REMARK H PARENT
REMARK Flexibility Score: inf
ROOT
ATOM      1  C   UNL     1      61.854  30.041  61.743  1.00  0.00     0.000 C 
ENDROOT
BRANCH   1   2
ATOM      2  C   UNL     1      63.355  30.367  61.685  1.00  0.00     0.000 C 
BRANCH   2   3
ATOM      3  C   UNL     1      64.140  29.391  60.797  1.00  0.00     0.000 C 
BRANCH   3   4
ATOM      4  C   UNL     1      65.625  29.769  60.743  1.00  0.00     0.006 C 
BRANCH   4   5
ATOM      5  C   UNL     1      66.512  28.571  61.094  1.00  0.00     0.053 C 
BRANCH   5   6
ATOM      6  C   UNL     1      67.952  28.898  60.855  1.00  0.00     0.041 C 
ATOM      7  O   UNL     1      68.467  28.703  59.724  1.00  0.00    -0.550 OA
ATOM      8  O   UNL     1      68.714  29.464  61.870  1.00  0.00    -0.550 OA
ENDBRANCH   5   6
ENDBRANCH   4   5
ENDBRANCH   3   4
ENDBRANCH   2   3
ENDBRANCH   1   2
BRANCH   1   9
ATOM      9  C   UNL     1      60.972  31.297  61.685  1.00  0.00     0.000 C 
BRANCH   9  10
ATOM     10  C   UNL     1      61.140  32.024  60.345  1.00  0.00    -0.000 C 
BRANCH  10  11
ATOM     11  C   UNL     1      61.350  33.530  60.558  1.00  0.00    -0.000 C 
BRANCH  11  12
ATOM     12  C   UNL     1      62.827  33.905  60.778  1.00  0.00    -0.000 C 
BRANCH  12  13
ATOM     13  C   UNL     1      63.075  35.389  61.105  1.00  0.00    -0.003 C 
ATOM     14  C   UNL     1      64.412  35.632  61.805  1.00  0.00     0.004 C 
ENDBRANCH  12  13
ENDBRANCH  11  12
ENDBRANCH  10  11
ENDBRANCH   9  10
ENDBRANCH   1   9
TORSDOF 10
ENDMDL
MODEL 9
REMARK VINA RESULT:    -3.282     12.855     14.503
REMARK INTER + INTRA:          -6.138
REMARK INTER:                  -5.353
REMARK INTRA:                  -0.785
REMARK UNBOUND:                -0.938
REMARK SMILES CCCCCCCCCCCC(=O)[O-]
REMARK SMILES IDX 7 1 8 2 9 3 10 4 11 5 12 6 13 7 14 8 6 9 5 10 4 11 3 12 2 13
REMARK SMILES IDX 1 14
REMARK H PARENT
REMARK Flexibility Score: inf
ROOT
ATOM      1  C   UNL     1      59.734  28.336  49.276  1.00  0.00     0.000 C 
ENDROOT
BRANCH   1   2
ATOM      2  C   UNL     1      58.446  29.175  49.260  1.00  0.00     0.000 C 
BRANCH   2   3
ATOM      3  C   UNL     1      57.759  29.231  50.633  1.00  0.00     0.000 C 
BRANCH   3   4
ATOM      4  C   UNL     1      56.259  28.936  50.508  1.00  0.00     0.006 C 
BRANCH   4   5
ATOM      5  C   UNL     1      56.001  27.432  50.387  1.00  0.00     0.053 C 
BRANCH   5   6
ATOM      6  C   UNL     1      54.705  27.177  49.684  1.00  0.00     0.041 C 
ATOM      7  O   UNL     1      54.463  26.044  49.193  1.00  0.00    -0.550 OA
ATOM      8  O   UNL     1      53.744  28.178  49.615  1.00  0.00    -0.550 OA
ENDBRANCH   5   6
ENDBRANCH   4   5
ENDBRANCH   3   4
ENDBRANCH   2   3
ENDBRANCH   1   2
BRANCH   1   9
ATOM      9  C   UNL     1      59.457  26.827  49.351  1.00  0.00     0.000 C 
BRANCH   9  10
ATOM     10  C   UNL     1      60.030  26.228  50.640  1.00  0.00    -0.000 C 
BRANCH  10  11
ATOM     11  C   UNL     1      61.557  26.084  50.550  1.00  0.00    -0.000 C 
BRANCH  11  12
ATOM     12  C   UNL     1      62.007  24.641  50.256  1.00  0.00    -0.000 C 
BRANCH  12  13
ATOM     13  C   UNL     1      60.951  23.561  50.553  1.00  0.00    -0.003 C 
ATOM     14  C   UNL     1      60.693  22.634  49.365  1.00  0.00     0.004 C 
ENDBRANCH  12  13
ENDBRANCH  11  12
ENDBRANCH  10  11
ENDBRANCH   9  10
ENDBRANCH   1   9
TORSDOF 10
ENDMDL
