MODEL 1
REMARK VINA RESULT:    -4.423      0.000      0.000
REMARK INTER + INTRA:          -8.820
REMARK INTER:                  -7.785
REMARK INTRA:                  -1.035
REMARK UNBOUND:                -1.035
REMARK SMILES CCCCCCC=CCCCCCCCC(=O)[O-]
REMARK SMILES IDX 10 1 11 2 12 3 13 4 14 5 15 6 16 7 17 8 18 9 9 10 8 11 7 12
REMARK SMILES IDX 6 13 5 14 4 15 3 16 2 17 1 18
REMARK H PARENT
REMARK Flexibility Score: inf
ROOT
ATOM      1  C   UNL     1      41.344  -5.555  -3.937  1.00  0.00     0.004 C 
ENDROOT
BRANCH   1   2
ATOM      2  C   UNL     1      40.979  -4.608  -5.093  1.00  0.00     0.000 C 
BRANCH   2   3
ATOM      3  C   UNL     1      40.718  -5.355  -6.411  1.00  0.00     0.000 C 
BRANCH   3   4
ATOM      4  C   UNL     1      39.398  -6.139  -6.393  1.00  0.00     0.000 C 
BRANCH   4   5
ATOM      5  C   UNL     1      38.268  -5.327  -7.043  1.00  0.00     0.006 C 
BRANCH   5   6
ATOM      6  C   UNL     1      36.983  -6.147  -7.206  1.00  0.00     0.053 C 
BRANCH   6   7
ATOM      7  C   UNL     1      35.883  -5.340  -7.825  1.00  0.00     0.041 C 
ATOM      8  O   UNL     1      34.826  -5.901  -8.215  1.00  0.00    -0.550 OA
ATOM      9  O   UNL     1      36.014  -3.961  -7.941  1.00  0.00    -0.550 OA
ENDBRANCH   6   7
ENDBRANCH   5   6
ENDBRANCH   4   5
ENDBRANCH   3   4
ENDBRANCH   2   3
ENDBRANCH   1   2
BRANCH   1  10
ATOM     10  C   UNL     1      41.603  -4.796  -2.630  1.00  0.00     0.027 C 
BRANCH  10  11
ATOM     11  C   UNL     1      41.807  -5.741  -1.476  1.00  0.00    -0.031 C 
ATOM     12  C   UNL     1      41.416  -7.023  -1.536  1.00  0.00    -0.031 C 
BRANCH  12  13
ATOM     13  C   UNL     1      41.676  -7.979  -0.406  1.00  0.00     0.027 C 
BRANCH  13  14
ATOM     14  C   UNL     1      40.621  -9.092  -0.366  1.00  0.00     0.004 C 
BRANCH  14  15
ATOM     15  C   UNL     1      39.314  -8.586   0.261  1.00  0.00     0.000 C 
BRANCH  15  16
ATOM     16  C   UNL     1      39.543  -7.838   1.585  1.00  0.00    -0.000 C 
BRANCH  16  17
ATOM     17  C   UNL     1      38.835  -6.475   1.623  1.00  0.00    -0.003 C 
ATOM     18  C   UNL     1      39.846  -5.334   1.699  1.00  0.00     0.004 C 
ENDBRANCH  16  17
ENDBRANCH  15  16
ENDBRANCH  14  15
ENDBRANCH  13  14
ENDBRANCH  12  13
ENDBRANCH  10  11
ENDBRANCH   1  10
TORSDOF 13
ENDMDL
MODEL 2
REMARK VINA RESULT:    -4.355      1.951      4.138
REMARK INTER + INTRA:          -8.700
REMARK INTER:                  -7.982
REMARK INTRA:                  -0.718
REMARK UNBOUND:                -1.035
REMARK SMILES CCCCCCC=CCCCCCCCC(=O)[O-]
REMARK SMILES IDX 10 1 11 2 12 3 13 4 14 5 15 6 16 7 17 8 18 9 9 10 8 11 7 12
REMARK SMILES IDX 6 13 5 14 4 15 3 16 2 17 1 18
REMARK H PARENT
REMARK Flexibility Score: inf
ROOT
ATOM      1  C   UNL     1      38.778  -6.550  -6.294  1.00  0.00     0.004 C 
ENDROOT
BRANCH   1   2
ATOM      2  C   UNL     1      37.308  -6.294  -6.669  1.00  0.00     0.000 C 
BRANCH   2   3
ATOM      3  C   UNL     1      37.139  -5.093  -7.613  1.00  0.00     0.000 C 
BRANCH   3   4
ATOM      4  C   UNL     1      35.712  -4.973  -8.166  1.00  0.00     0.000 C 
BRANCH   4   5
ATOM      5  C   UNL     1      35.668  -4.020  -9.370  1.00  0.00     0.006 C 
BRANCH   5   6
ATOM      6  C   UNL     1      35.350  -2.577  -8.958  1.00  0.00     0.053 C 
BRANCH   6   7
ATOM      7  C   UNL     1      33.975  -2.167  -9.387  1.00  0.00     0.041 C 
ATOM      8  O   UNL     1      33.025  -2.992  -9.343  1.00  0.00    -0.550 OA
ATOM      9  O   UNL     1      33.736  -0.863  -9.803  1.00  0.00    -0.550 OA
ENDBRANCH   6   7
ENDBRANCH   5   6
ENDBRANCH   4   5
ENDBRANCH   3   4
ENDBRANCH   2   3
ENDBRANCH   1   2
BRANCH   1  10
ATOM     10  C   UNL     1      39.743  -5.690  -7.119  1.00  0.00     0.027 C 
BRANCH  10  11
ATOM     11  C   UNL     1      40.776  -5.029  -6.246  1.00  0.00    -0.031 C 
ATOM     12  C   UNL     1      40.649  -4.988  -4.910  1.00  0.00    -0.031 C 
BRANCH  12  13
ATOM     13  C   UNL     1      41.712  -4.381  -4.038  1.00  0.00     0.027 C 
BRANCH  13  14
ATOM     14  C   UNL     1      41.528  -4.793  -2.572  1.00  0.00     0.004 C 
BRANCH  14  15
ATOM     15  C   UNL     1      41.708  -6.308  -2.401  1.00  0.00     0.000 C 
BRANCH  15  16
ATOM     16  C   UNL     1      41.865  -6.725  -0.929  1.00  0.00    -0.000 C 
BRANCH  16  17
ATOM     17  C   UNL     1      40.986  -7.928  -0.559  1.00  0.00    -0.003 C 
ATOM     18  C   UNL     1      40.206  -7.663   0.726  1.00  0.00     0.004 C 
ENDBRANCH  16  17
ENDBRANCH  15  16
ENDBRANCH  14  15
ENDBRANCH  13  14
ENDBRANCH  12  13
ENDBRANCH  10  11
ENDBRANCH   1  10
TORSDOF 13
ENDMDL
MODEL 3
REMARK VINA RESULT:    -4.346     16.460     19.792
REMARK INTER + INTRA:          -8.684
REMARK INTER:                  -8.309
REMARK INTRA:                  -0.375
REMARK UNBOUND:                -1.035
REMARK SMILES CCCCCCC=CCCCCCCCC(=O)[O-]
REMARK SMILES IDX 10 1 11 2 12 3 13 4 14 5 15 6 16 7 17 8 18 9 9 10 8 11 7 12
REMARK SMILES IDX 6 13 5 14 4 15 3 16 2 17 1 18
REMARK H PARENT
REMARK Flexibility Score: inf
ROOT
ATOM      1  C   UNL     1      32.126   7.318   9.023  1.00  0.00     0.004 C 
ENDROOT
BRANCH   1   2
ATOM      2  C   UNL     1      33.597   7.482   9.441  1.00  0.00     0.000 C 
BRANCH   2   3
ATOM      3  C   UNL     1      34.245   6.152   9.861  1.00  0.00     0.000 C 
BRANCH   3   4
ATOM      4  C   UNL     1      35.662   5.981   9.296  1.00  0.00     0.000 C 
BRANCH   4   5
ATOM      5  C   UNL     1      36.381   4.800   9.965  1.00  0.00     0.006 C 
BRANCH   5   6
ATOM      6  C   UNL     1      35.875   3.446   9.452  1.00  0.00     0.053 C 
BRANCH   6   7
ATOM      7  C   UNL     1      36.647   2.981   8.256  1.00  0.00     0.041 C 
ATOM      8  O   UNL     1      37.322   3.800   7.580  1.00  0.00    -0.550 OA
ATOM      9  O   UNL     1      36.646   1.635   7.908  1.00  0.00    -0.550 OA
ENDBRANCH   6   7
ENDBRANCH   5   6
ENDBRANCH   4   5
ENDBRANCH   3   4
ENDBRANCH   2   3
ENDBRANCH   1   2
BRANCH   1  10
ATOM     10  C   UNL     1      31.576   5.931   9.378  1.00  0.00     0.027 C 
BRANCH  10  11
ATOM     11  C   UNL     1      30.103   5.984   9.685  1.00  0.00    -0.031 C 
ATOM     12  C   UNL     1      29.214   5.246   9.002  1.00  0.00    -0.031 C 
BRANCH  12  13
ATOM     13  C   UNL     1      27.752   5.256   9.351  1.00  0.00     0.027 C 
BRANCH  13  14
ATOM     14  C   UNL     1      27.132   3.863   9.185  1.00  0.00     0.004 C 
BRANCH  14  15
ATOM     15  C   UNL     1      25.639   3.881   9.545  1.00  0.00     0.000 C 
BRANCH  15  16
ATOM     16  C   UNL     1      24.960   2.519   9.326  1.00  0.00    -0.000 C 
BRANCH  16  17
ATOM     17  C   UNL     1      23.509   2.653   8.841  1.00  0.00    -0.003 C 
ATOM     18  C   UNL     1      22.712   1.386   9.140  1.00  0.00     0.004 C 
ENDBRANCH  16  17
ENDBRANCH  15  16
ENDBRANCH  14  15
ENDBRANCH  13  14
ENDBRANCH  12  13
ENDBRANCH  10  11
ENDBRANCH   1  10
TORSDOF 13
ENDMDL
MODEL 4
REMARK VINA RESULT:    -4.212     14.803     16.650
REMARK INTER + INTRA:          -8.447
REMARK INTER:                  -6.214
REMARK INTRA:                  -2.233
REMARK UNBOUND:                -1.035
REMARK SMILES CCCCCCC=CCCCCCCCC(=O)[O-]
REMARK SMILES IDX 10 1 11 2 12 3 13 4 14 5 15 6 16 7 17 8 18 9 9 10 8 11 7 12
REMARK SMILES IDX 6 13 5 14 4 15 3 16 2 17 1 18
REMARK H PARENT
REMARK Flexibility Score: inf
ROOT
ATOM      1  C   UNL     1      39.892   5.046   5.620  1.00  0.00     0.004 C 
ENDROOT
BRANCH   1   2
ATOM      2  C   UNL     1      40.603   6.264   6.234  1.00  0.00     0.000 C 
BRANCH   2   3
ATOM      3  C   UNL     1      39.659   7.458   6.441  1.00  0.00     0.000 C 
BRANCH   3   4
ATOM      4  C   UNL     1      39.427   7.777   7.925  1.00  0.00     0.000 C 
BRANCH   4   5
ATOM      5  C   UNL     1      37.926   7.830   8.247  1.00  0.00     0.006 C 
BRANCH   5   6
ATOM      6  C   UNL     1      37.063   7.340   7.078  1.00  0.00     0.053 C 
BRANCH   6   7
ATOM      7  C   UNL     1      35.654   7.836   7.181  1.00  0.00     0.041 C 
ATOM      8  O   UNL     1      35.096   7.932   8.305  1.00  0.00    -0.550 OA
ATOM      9  O   UNL     1      34.967   8.223   6.036  1.00  0.00    -0.550 OA
ENDBRANCH   6   7
ENDBRANCH   5   6
ENDBRANCH   4   5
ENDBRANCH   3   4
ENDBRANCH   2   3
ENDBRANCH   1   2
BRANCH   1  10
ATOM     10  C   UNL     1      39.785   3.880   6.612  1.00  0.00     0.027 C 
BRANCH  10  11
ATOM     11  C   UNL     1      38.609   4.049   7.536  1.00  0.00    -0.031 C 
ATOM     12  C   UNL     1      38.771   4.230   8.856  1.00  0.00    -0.031 C 
BRANCH  12  13
ATOM     13  C   UNL     1      37.597   4.459   9.768  1.00  0.00     0.027 C 
BRANCH  13  14
ATOM     14  C   UNL     1      36.273   4.164   9.052  1.00  0.00     0.004 C 
BRANCH  14  15
ATOM     15  C   UNL     1      35.271   3.498  10.007  1.00  0.00     0.000 C 
BRANCH  15  16
ATOM     16  C   UNL     1      35.003   2.026   9.650  1.00  0.00    -0.000 C 
BRANCH  16  17
ATOM     17  C   UNL     1      35.906   1.519   8.516  1.00  0.00    -0.003 C 
ATOM     18  C   UNL     1      36.873   0.451   9.020  1.00  0.00     0.004 C 
ENDBRANCH  16  17
ENDBRANCH  15  16
ENDBRANCH  14  15
ENDBRANCH  13  14
ENDBRANCH  12  13
ENDBRANCH  10  11
ENDBRANCH   1  10
TORSDOF 13
ENDMDL
MODEL 5
REMARK VINA RESULT:    -4.134     16.655     19.922
REMARK INTER + INTRA:          -8.311
REMARK INTER:                  -7.762
REMARK INTRA:                  -0.549
REMARK UNBOUND:                -1.035
REMARK SMILES CCCCCCC=CCCCCCCCC(=O)[O-]
REMARK SMILES IDX 10 1 11 2 12 3 13 4 14 5 15 6 16 7 17 8 18 9 9 10 8 11 7 12
REMARK SMILES IDX 6 13 5 14 4 15 3 16 2 17 1 18
REMARK H PARENT
REMARK Flexibility Score: inf
ROOT
ATOM      1  C   UNL     1      32.239   7.135   9.234  1.00  0.00     0.004 C 
ENDROOT
BRANCH   1   2
ATOM      2  C   UNL     1      33.643   7.232   9.854  1.00  0.00     0.000 C 
BRANCH   2   3
ATOM      3  C   UNL     1      34.401   5.895   9.815  1.00  0.00     0.000 C 
BRANCH   3   4
ATOM      4  C   UNL     1      35.723   5.988   9.040  1.00  0.00     0.000 C 
BRANCH   4   5
ATOM      5  C   UNL     1      36.610   4.765   9.318  1.00  0.00     0.006 C 
BRANCH   5   6
ATOM      6  C   UNL     1      36.944   3.988   8.039  1.00  0.00     0.053 C 
BRANCH   6   7
ATOM      7  C   UNL     1      38.350   4.240   7.587  1.00  0.00     0.041 C 
ATOM      8  O   UNL     1      38.865   3.526   6.688  1.00  0.00    -0.550 OA
ATOM      9  O   UNL     1      39.079   5.288   8.137  1.00  0.00    -0.550 OA
ENDBRANCH   6   7
ENDBRANCH   5   6
ENDBRANCH   4   5
ENDBRANCH   3   4
ENDBRANCH   2   3
ENDBRANCH   1   2
BRANCH   1  10
ATOM     10  C   UNL     1      31.615   5.747   9.433  1.00  0.00     0.027 C 
BRANCH  10  11
ATOM     11  C   UNL     1      30.166   5.847   9.829  1.00  0.00    -0.031 C 
ATOM     12  C   UNL     1      29.193   5.296   9.086  1.00  0.00    -0.031 C 
BRANCH  12  13
ATOM     13  C   UNL     1      27.753   5.345   9.516  1.00  0.00     0.027 C 
BRANCH  13  14
ATOM     14  C   UNL     1      26.870   4.490   8.598  1.00  0.00     0.004 C 
BRANCH  14  15
ATOM     15  C   UNL     1      25.567   4.092   9.306  1.00  0.00     0.000 C 
BRANCH  15  16
ATOM     16  C   UNL     1      24.321   4.701   8.641  1.00  0.00    -0.000 C 
BRANCH  16  17
ATOM     17  C   UNL     1      24.642   5.970   7.838  1.00  0.00    -0.003 C 
ATOM     18  C   UNL     1      24.002   5.920   6.454  1.00  0.00     0.004 C 
ENDBRANCH  16  17
ENDBRANCH  15  16
ENDBRANCH  14  15
ENDBRANCH  13  14
ENDBRANCH  12  13
ENDBRANCH  10  11
ENDBRANCH   1  10
TORSDOF 13
ENDMDL
MODEL 6
REMARK VINA RESULT:    -4.107     14.885     17.126
REMARK INTER + INTRA:          -8.263
REMARK INTER:                  -6.718
REMARK INTRA:                  -1.545
REMARK UNBOUND:                -1.035
REMARK SMILES CCCCCCC=CCCCCCCCC(=O)[O-]
REMARK SMILES IDX 10 1 11 2 12 3 13 4 14 5 15 6 16 7 17 8 18 9 9 10 8 11 7 12
REMARK SMILES IDX 6 13 5 14 4 15 3 16 2 17 1 18
REMARK H PARENT
REMARK Flexibility Score: inf
ROOT
ATOM      1  C   UNL     1      39.730   3.963   6.813  1.00  0.00     0.004 C 
ENDROOT
BRANCH   1   2
ATOM      2  C   UNL     1      40.783   4.135   7.921  1.00  0.00     0.000 C 
BRANCH   2   3
ATOM      3  C   UNL     1      40.557   3.182   9.105  1.00  0.00     0.000 C 
BRANCH   3   4
ATOM      4  C   UNL     1      39.171   3.352   9.744  1.00  0.00     0.000 C 
BRANCH   4   5
ATOM      5  C   UNL     1      38.465   1.996   9.893  1.00  0.00     0.006 C 
BRANCH   5   6
ATOM      6  C   UNL     1      36.943   2.144  10.015  1.00  0.00     0.053 C 
BRANCH   6   7
ATOM      7  C   UNL     1      36.249   1.815   8.730  1.00  0.00     0.041 C 
ATOM      8  O   UNL     1      35.056   1.412   8.738  1.00  0.00    -0.550 OA
ATOM      9  O   UNL     1      36.909   1.986   7.519  1.00  0.00    -0.550 OA
ENDBRANCH   6   7
ENDBRANCH   5   6
ENDBRANCH   4   5
ENDBRANCH   3   4
ENDBRANCH   2   3
ENDBRANCH   1   2
BRANCH   1  10
ATOM     10  C   UNL     1      39.312   5.306   6.200  1.00  0.00     0.027 C 
BRANCH  10  11
ATOM     11  C   UNL     1      38.415   6.080   7.129  1.00  0.00    -0.031 C 
ATOM     12  C   UNL     1      37.188   5.642   7.452  1.00  0.00    -0.031 C 
BRANCH  12  13
ATOM     13  C   UNL     1      36.320   6.386   8.427  1.00  0.00     0.027 C 
BRANCH  13  14
ATOM     14  C   UNL     1      35.634   5.425   9.406  1.00  0.00     0.004 C 
BRANCH  14  15
ATOM     15  C   UNL     1      34.252   5.954   9.816  1.00  0.00     0.000 C 
BRANCH  15  16
ATOM     16  C   UNL     1      33.935   7.326   9.198  1.00  0.00    -0.000 C 
BRANCH  16  17
ATOM     17  C   UNL     1      32.435   7.522   8.932  1.00  0.00    -0.003 C 
ATOM     18  C   UNL     1      31.634   6.303   9.382  1.00  0.00     0.004 C 
ENDBRANCH  16  17
ENDBRANCH  15  16
ENDBRANCH  14  15
ENDBRANCH  13  14
ENDBRANCH  12  13
ENDBRANCH  10  11
ENDBRANCH   1  10
TORSDOF 13
ENDMDL
MODEL 7
REMARK VINA RESULT:    -4.080     19.438     21.862
REMARK INTER + INTRA:          -8.216
REMARK INTER:                  -7.516
REMARK INTRA:                  -0.700
REMARK UNBOUND:                -1.035
REMARK SMILES CCCCCCC=CCCCCCCCC(=O)[O-]
REMARK SMILES IDX 10 1 11 2 12 3 13 4 14 5 15 6 16 7 17 8 18 9 9 10 8 11 7 12
REMARK SMILES IDX 6 13 5 14 4 15 3 16 2 17 1 18
REMARK H PARENT
REMARK Flexibility Score: inf
ROOT
ATOM      1  C   UNL     1      27.396   5.344   9.423  1.00  0.00     0.004 C 
ENDROOT
BRANCH   1   2
ATOM      2  C   UNL     1      28.853   5.073   9.012  1.00  0.00     0.000 C 
BRANCH   2   3
ATOM      3  C   UNL     1      29.864   5.852   9.867  1.00  0.00     0.000 C 
BRANCH   3   4
ATOM      4  C   UNL     1      31.309   5.685   9.373  1.00  0.00     0.000 C 
BRANCH   4   5
ATOM      5  C   UNL     1      31.988   7.051   9.191  1.00  0.00     0.006 C 
BRANCH   5   6
ATOM      6  C   UNL     1      33.495   6.991   9.467  1.00  0.00     0.053 C 
BRANCH   6   7
ATOM      7  C   UNL     1      34.261   7.918   8.574  1.00  0.00     0.041 C 
ATOM      8  O   UNL     1      35.484   8.131   8.780  1.00  0.00    -0.550 OA
ATOM      9  O   UNL     1      33.629   8.521   7.492  1.00  0.00    -0.550 OA
ENDBRANCH   6   7
ENDBRANCH   5   6
ENDBRANCH   4   5
ENDBRANCH   3   4
ENDBRANCH   2   3
ENDBRANCH   1   2
BRANCH   1  10
ATOM     10  C   UNL     1      26.443   4.247   8.931  1.00  0.00     0.027 C 
BRANCH  10  11
ATOM     11  C   UNL     1      25.099   4.812   8.556  1.00  0.00    -0.031 C 
ATOM     12  C   UNL     1      24.972   6.039   8.027  1.00  0.00    -0.031 C 
BRANCH  12  13
ATOM     13  C   UNL     1      23.635   6.576   7.598  1.00  0.00     0.027 C 
BRANCH  13  14
ATOM     14  C   UNL     1      22.861   5.541   6.772  1.00  0.00     0.004 C 
BRANCH  14  15
ATOM     15  C   UNL     1      22.167   6.205   5.574  1.00  0.00     0.000 C 
BRANCH  15  16
ATOM     16  C   UNL     1      23.162   6.863   4.603  1.00  0.00    -0.000 C 
BRANCH  16  17
ATOM     17  C   UNL     1      23.919   5.836   3.748  1.00  0.00    -0.003 C 
ATOM     18  C   UNL     1      22.954   4.994   2.918  1.00  0.00     0.004 C 
ENDBRANCH  16  17
ENDBRANCH  15  16
ENDBRANCH  14  15
ENDBRANCH  13  14
ENDBRANCH  12  13
ENDBRANCH  10  11
ENDBRANCH   1  10
TORSDOF 13
ENDMDL
MODEL 8
REMARK VINA RESULT:    -4.042     14.149     17.449
REMARK INTER + INTRA:          -8.148
REMARK INTER:                  -6.276
REMARK INTRA:                  -1.872
REMARK UNBOUND:                -1.035
REMARK SMILES CCCCCCC=CCCCCCCCC(=O)[O-]
REMARK SMILES IDX 10 1 11 2 12 3 13 4 14 5 15 6 16 7 17 8 18 9 9 10 8 11 7 12
REMARK SMILES IDX 6 13 5 14 4 15 3 16 2 17 1 18
REMARK H PARENT
REMARK Flexibility Score: inf
ROOT
ATOM      1  C   UNL     1      36.531   3.426   8.652  1.00  0.00     0.004 C 
ENDROOT
BRANCH   1   2
ATOM      2  C   UNL     1      37.572   2.398   9.128  1.00  0.00     0.000 C 
BRANCH   2   3
ATOM      3  C   UNL     1      39.000   2.966   9.144  1.00  0.00     0.000 C 
BRANCH   3   4
ATOM      4  C   UNL     1      39.051   4.447   8.742  1.00  0.00     0.000 C 
BRANCH   4   5
ATOM      5  C   UNL     1      40.378   4.782   8.044  1.00  0.00     0.006 C 
BRANCH   5   6
ATOM      6  C   UNL     1      40.807   3.689   7.058  1.00  0.00     0.053 C 
BRANCH   6   7
ATOM      7  C   UNL     1      40.238   3.920   5.691  1.00  0.00     0.041 C 
ATOM      8  O   UNL     1      39.923   2.944   4.962  1.00  0.00    -0.550 OA
ATOM      9  O   UNL     1      40.025   5.216   5.237  1.00  0.00    -0.550 OA
ENDBRANCH   6   7
ENDBRANCH   5   6
ENDBRANCH   4   5
ENDBRANCH   3   4
ENDBRANCH   2   3
ENDBRANCH   1   2
BRANCH   1  10
ATOM     10  C   UNL     1      35.609   3.882   9.789  1.00  0.00     0.027 C 
BRANCH  10  11
ATOM     11  C   UNL     1      35.483   5.382   9.828  1.00  0.00    -0.031 C 
ATOM     12  C   UNL     1      34.291   5.992   9.743  1.00  0.00    -0.031 C 
BRANCH  12  13
ATOM     13  C   UNL     1      34.164   7.486   9.843  1.00  0.00     0.027 C 
BRANCH  13  14
ATOM     14  C   UNL     1      33.909   8.115   8.467  1.00  0.00     0.004 C 
BRANCH  14  15
ATOM     15  C   UNL     1      35.220   8.606   7.838  1.00  0.00     0.000 C 
BRANCH  15  16
ATOM     16  C   UNL     1      35.729   7.674   6.725  1.00  0.00    -0.000 C 
BRANCH  16  17
ATOM     17  C   UNL     1      37.116   7.091   7.032  1.00  0.00    -0.003 C 
ATOM     18  C   UNL     1      37.785   7.840   8.181  1.00  0.00     0.004 C 
ENDBRANCH  16  17
ENDBRANCH  15  16
ENDBRANCH  14  15
ENDBRANCH  13  14
ENDBRANCH  12  13
ENDBRANCH  10  11
ENDBRANCH   1  10
TORSDOF 13
ENDMDL
MODEL 9
REMARK VINA RESULT:    -3.988     14.516     16.884
REMARK INTER + INTRA:          -8.054
REMARK INTER:                  -6.344
REMARK INTRA:                  -1.710
REMARK UNBOUND:                -1.035
REMARK SMILES CCCCCCC=CCCCCCCCC(=O)[O-]
REMARK SMILES IDX 10 1 11 2 12 3 13 4 14 5 15 6 16 7 17 8 18 9 9 10 8 11 7 12
REMARK SMILES IDX 6 13 5 14 4 15 3 16 2 17 1 18
REMARK H PARENT
REMARK Flexibility Score: inf
ROOT
ATOM      1  C   UNL     1      36.899   7.153   7.120  1.00  0.00     0.004 C 
ENDROOT
BRANCH   1   2
ATOM      2  C   UNL     1      36.788   6.433   8.475  1.00  0.00     0.000 C 
BRANCH   2   3
ATOM      3  C   UNL     1      35.385   6.548   9.093  1.00  0.00     0.000 C 
BRANCH   3   4
ATOM      4  C   UNL     1      34.951   5.263   9.812  1.00  0.00     0.000 C 
BRANCH   4   5
ATOM      5  C   UNL     1      35.955   4.127   9.562  1.00  0.00     0.006 C 
BRANCH   5   6
ATOM      6  C   UNL     1      35.364   2.748   9.881  1.00  0.00     0.053 C 
BRANCH   6   7
ATOM      7  C   UNL     1      35.973   1.674   9.034  1.00  0.00     0.041 C 
ATOM      8  O   UNL     1      36.287   0.567   9.543  1.00  0.00    -0.550 OA
ATOM      9  O   UNL     1      36.161   1.884   7.673  1.00  0.00    -0.550 OA
ENDBRANCH   6   7
ENDBRANCH   5   6
ENDBRANCH   4   5
ENDBRANCH   3   4
ENDBRANCH   2   3
ENDBRANCH   1   2
BRANCH   1  10
ATOM     10  C   UNL     1      37.852   8.353   7.180  1.00  0.00     0.027 C 
BRANCH  10  11
ATOM     11  C   UNL     1      39.291   7.914   7.198  1.00  0.00    -0.031 C 
ATOM     12  C   UNL     1      39.852   7.292   6.150  1.00  0.00    -0.031 C 
BRANCH  12  13
ATOM     13  C   UNL     1      41.306   6.909   6.149  1.00  0.00     0.027 C 
BRANCH  13  14
ATOM     14  C   UNL     1      41.537   5.610   5.366  1.00  0.00     0.004 C 
BRANCH  14  15
ATOM     15  C   UNL     1      40.280   4.728   5.384  1.00  0.00     0.000 C 
BRANCH  15  16
ATOM     16  C   UNL     1      40.311   3.673   6.502  1.00  0.00    -0.000 C 
BRANCH  16  17
ATOM     17  C   UNL     1      39.077   3.740   7.413  1.00  0.00    -0.003 C 
ATOM     18  C   UNL     1      39.481   3.753   8.884  1.00  0.00     0.004 C 
ENDBRANCH  16  17
ENDBRANCH  15  16
ENDBRANCH  14  15
ENDBRANCH  13  14
ENDBRANCH  12  13
ENDBRANCH  10  11
ENDBRANCH   1  10
TORSDOF 13
ENDMDL
