MODEL 1
REMARK VINA RESULT:    -4.320      0.000      0.000
REMARK INTER + INTRA:          -4.714
REMARK INTER:                  -4.699
REMARK INTRA:                  -0.016
REMARK UNBOUND:                -0.016
REMARK SMILES OCc1ccco1
REMARK SMILES IDX 2 1 3 2 5 3 6 4 4 5 7 6 1 7
REMARK H PARENT 1 8
REMARK Flexibility Score: inf
ROOT
ATOM      1  C   UNL     1      46.721  43.866  77.702  1.00  0.00     0.231 C 
ENDROOT
BRANCH   1   2
ATOM      2  C   UNL     1      46.168  44.059  79.079  1.00  0.00     0.129 A 
ATOM      3  C   UNL     1      45.938  44.099  81.263  1.00  0.00     0.042 A 
ATOM      4  C   UNL     1      44.842  44.659  80.636  1.00  0.00     0.195 A 
ATOM      5  C   UNL     1      46.797  43.713  80.257  1.00  0.00     0.048 A 
ATOM      6  O   UNL     1      45.011  44.624  79.334  1.00  0.00    -0.467 OA
ENDBRANCH   1   2
BRANCH   1   7
ATOM      7  O   UNL     1      45.858  43.061  76.948  1.00  0.00    -0.388 OA
ATOM      8  H   UNL     1      46.235  42.143  76.968  1.00  0.00     0.211 HD
ENDBRANCH   1   7
TORSDOF 2
ENDMDL
MODEL 2
REMARK VINA RESULT:    -4.229      1.374      3.140
REMARK INTER + INTRA:          -4.615
REMARK INTER:                  -4.599
REMARK INTRA:                  -0.016
REMARK UNBOUND:                -0.016
REMARK SMILES OCc1ccco1
REMARK SMILES IDX 2 1 3 2 5 3 6 4 4 5 7 6 1 7
REMARK H PARENT 1 8
REMARK Flexibility Score: inf
ROOT
ATOM      1  C   UNL     1      45.336  44.316  80.723  1.00  0.00     0.231 C 
ENDROOT
BRANCH   1   2
ATOM      2  C   UNL     1      46.209  44.170  79.517  1.00  0.00     0.129 A 
ATOM      3  C   UNL     1      47.956  43.949  78.204  1.00  0.00     0.042 A 
ATOM      4  C   UNL     1      46.780  43.908  77.480  1.00  0.00     0.195 A 
ATOM      5  C   UNL     1      47.589  44.115  79.521  1.00  0.00     0.048 A 
ATOM      6  O   UNL     1      45.756  44.039  78.293  1.00  0.00    -0.467 OA
ENDBRANCH   1   2
BRANCH   1   7
ATOM      7  O   UNL     1      46.113  44.652  81.839  1.00  0.00    -0.388 OA
ATOM      8  H   UNL     1      46.045  45.637  81.947  1.00  0.00     0.211 HD
ENDBRANCH   1   7
TORSDOF 2
ENDMDL
MODEL 3
REMARK VINA RESULT:    -4.059     13.026     13.724
REMARK INTER + INTRA:          -4.430
REMARK INTER:                  -4.416
REMARK INTRA:                  -0.014
REMARK UNBOUND:                -0.016
REMARK SMILES OCc1ccco1
REMARK SMILES IDX 2 1 3 2 5 3 6 4 4 5 7 6 1 7
REMARK H PARENT 1 8
REMARK Flexibility Score: inf
ROOT
ATOM      1  C   UNL     1      35.861  39.115  70.524  1.00  0.00     0.231 C 
ENDROOT
BRANCH   1   2
ATOM      2  C   UNL     1      36.308  38.046  71.470  1.00  0.00     0.129 A 
ATOM      3  C   UNL     1      36.980  36.130  72.307  1.00  0.00     0.042 A 
ATOM      4  C   UNL     1      36.940  37.112  73.278  1.00  0.00     0.195 A 
ATOM      5  C   UNL     1      36.575  36.734  71.137  1.00  0.00     0.048 A 
ATOM      6  O   UNL     1      36.539  38.244  72.747  1.00  0.00    -0.467 OA
ENDBRANCH   1   2
BRANCH   1   7
ATOM      7  O   UNL     1      36.921  39.489  69.688  1.00  0.00    -0.388 OA
ATOM      8  H   UNL     1      36.523  40.007  68.939  1.00  0.00     0.211 HD
ENDBRANCH   1   7
TORSDOF 2
ENDMDL
MODEL 4
REMARK VINA RESULT:    -4.015      4.160      6.125
REMARK INTER + INTRA:          -4.382
REMARK INTER:                  -4.364
REMARK INTRA:                  -0.018
REMARK UNBOUND:                -0.016
REMARK SMILES OCc1ccco1
REMARK SMILES IDX 2 1 3 2 5 3 6 4 4 5 7 6 1 7
REMARK H PARENT 1 8
REMARK Flexibility Score: inf
ROOT
ATOM      1  C   UNL     1      47.561  42.069  76.870  1.00  0.00     0.231 C 
ENDROOT
BRANCH   1   2
ATOM      2  C   UNL     1      47.545  41.017  75.806  1.00  0.00     0.129 A 
ATOM      3  C   UNL     1      47.633  39.992  73.866  1.00  0.00     0.042 A 
ATOM      4  C   UNL     1      47.485  39.089  74.900  1.00  0.00     0.195 A 
ATOM      5  C   UNL     1      47.675  41.239  74.450  1.00  0.00     0.048 A 
ATOM      6  O   UNL     1      47.439  39.731  76.045  1.00  0.00    -0.467 OA
ENDBRANCH   1   2
BRANCH   1   7
ATOM      7  O   UNL     1      48.482  41.726  77.868  1.00  0.00    -0.388 OA
ATOM      8  H   UNL     1      47.960  41.324  78.611  1.00  0.00     0.211 HD
ENDBRANCH   1   7
TORSDOF 2
ENDMDL
MODEL 5
REMARK VINA RESULT:    -3.932     11.266     11.633
REMARK INTER + INTRA:          -4.292
REMARK INTER:                  -4.277
REMARK INTRA:                  -0.016
REMARK UNBOUND:                -0.016
REMARK SMILES OCc1ccco1
REMARK SMILES IDX 2 1 3 2 5 3 6 4 4 5 7 6 1 7
REMARK H PARENT 1 8
REMARK Flexibility Score: inf
ROOT
ATOM      1  C   UNL     1      38.801  38.629  75.210  1.00  0.00     0.231 C 
ENDROOT
BRANCH   1   2
ATOM      2  C   UNL     1      37.632  37.736  75.481  1.00  0.00     0.129 A 
ATOM      3  C   UNL     1      35.660  36.773  75.392  1.00  0.00     0.042 A 
ATOM      4  C   UNL     1      36.476  36.153  76.318  1.00  0.00     0.195 A 
ATOM      5  C   UNL     1      36.407  37.795  74.848  1.00  0.00     0.048 A 
ATOM      6  O   UNL     1      37.647  36.748  76.345  1.00  0.00    -0.467 OA
ENDBRANCH   1   2
BRANCH   1   7
ATOM      7  O   UNL     1      38.389  39.748  74.475  1.00  0.00    -0.388 OA
ATOM      8  H   UNL     1      39.179  40.344  74.396  1.00  0.00     0.211 HD
ENDBRANCH   1   7
TORSDOF 2
ENDMDL
MODEL 6
REMARK VINA RESULT:    -3.854     12.100     12.399
REMARK INTER + INTRA:          -4.208
REMARK INTER:                  -4.194
REMARK INTRA:                  -0.014
REMARK UNBOUND:                -0.016
REMARK SMILES OCc1ccco1
REMARK SMILES IDX 2 1 3 2 5 3 6 4 4 5 7 6 1 7
REMARK H PARENT 1 8
REMARK Flexibility Score: inf
ROOT
ATOM      1  C   UNL     1      36.482  39.028  73.774  1.00  0.00     0.231 C 
ENDROOT
BRANCH   1   2
ATOM      2  C   UNL     1      35.897  38.216  74.886  1.00  0.00     0.129 A 
ATOM      3  C   UNL     1      35.547  36.641  76.377  1.00  0.00     0.042 A 
ATOM      4  C   UNL     1      34.630  37.665  76.509  1.00  0.00     0.195 A 
ATOM      5  C   UNL     1      36.369  36.997  75.330  1.00  0.00     0.048 A 
ATOM      6  O   UNL     1      34.867  38.591  75.608  1.00  0.00    -0.467 OA
ENDBRANCH   1   2
BRANCH   1   7
ATOM      7  O   UNL     1      37.713  39.566  74.171  1.00  0.00    -0.388 OA
ATOM      8  H   UNL     1      38.278  39.614  73.356  1.00  0.00     0.211 HD
ENDBRANCH   1   7
TORSDOF 2
ENDMDL
MODEL 7
REMARK VINA RESULT:    -3.782     12.704     13.170
REMARK INTER + INTRA:          -4.130
REMARK INTER:                  -4.114
REMARK INTRA:                  -0.016
REMARK UNBOUND:                -0.016
REMARK SMILES OCc1ccco1
REMARK SMILES IDX 2 1 3 2 5 3 6 4 4 5 7 6 1 7
REMARK H PARENT 1 8
REMARK Flexibility Score: inf
ROOT
ATOM      1  C   UNL     1      37.064  36.791  71.464  1.00  0.00     0.231 C 
ENDROOT
BRANCH   1   2
ATOM      2  C   UNL     1      36.756  36.916  72.923  1.00  0.00     0.129 A 
ATOM      3  C   UNL     1      36.370  37.733  74.924  1.00  0.00     0.042 A 
ATOM      4  C   UNL     1      36.204  36.362  74.906  1.00  0.00     0.195 A 
ATOM      5  C   UNL     1      36.723  38.094  73.642  1.00  0.00     0.048 A 
ATOM      6  O   UNL     1      36.438  35.905  73.696  1.00  0.00    -0.467 OA
ENDBRANCH   1   2
BRANCH   1   7
ATOM      7  O   UNL     1      36.696  37.965  70.794  1.00  0.00    -0.388 OA
ATOM      8  H   UNL     1      35.709  37.934  70.689  1.00  0.00     0.211 HD
ENDBRANCH   1   7
TORSDOF 2
ENDMDL
MODEL 8
REMARK VINA RESULT:    -3.745      2.138      2.274
REMARK INTER + INTRA:          -4.089
REMARK INTER:                  -4.075
REMARK INTRA:                  -0.014
REMARK UNBOUND:                -0.016
REMARK SMILES OCc1ccco1
REMARK SMILES IDX 2 1 3 2 5 3 6 4 4 5 7 6 1 7
REMARK H PARENT 1 8
REMARK Flexibility Score: inf
ROOT
ATOM      1  C   UNL     1      48.693  44.638  78.593  1.00  0.00     0.231 C 
ENDROOT
BRANCH   1   2
ATOM      2  C   UNL     1      47.498  44.263  79.410  1.00  0.00     0.129 A 
ATOM      3  C   UNL     1      46.207  43.486  81.008  1.00  0.00     0.042 A 
ATOM      4  C   UNL     1      45.464  44.119  80.031  1.00  0.00     0.195 A 
ATOM      5  C   UNL     1      47.522  43.581  80.609  1.00  0.00     0.048 A 
ATOM      6  O   UNL     1      46.263  44.575  79.093  1.00  0.00    -0.467 OA
ENDBRANCH   1   2
BRANCH   1   7
ATOM      7  O   UNL     1      49.563  45.431  79.353  1.00  0.00    -0.388 OA
ATOM      8  H   UNL     1      49.702  44.956  80.214  1.00  0.00     0.211 HD
ENDBRANCH   1   7
TORSDOF 2
ENDMDL
MODEL 9
REMARK VINA RESULT:    -3.741     10.893     11.308
REMARK INTER + INTRA:          -4.085
REMARK INTER:                  -4.067
REMARK INTRA:                  -0.017
REMARK UNBOUND:                -0.016
REMARK SMILES OCc1ccco1
REMARK SMILES IDX 2 1 3 2 5 3 6 4 4 5 7 6 1 7
REMARK H PARENT 1 8
REMARK Flexibility Score: inf
ROOT
ATOM      1  C   UNL     1      36.170  36.996  74.972  1.00  0.00     0.231 C 
ENDROOT
BRANCH   1   2
ATOM      2  C   UNL     1      37.515  37.561  75.302  1.00  0.00     0.129 A 
ATOM      3  C   UNL     1      39.333  38.793  75.298  1.00  0.00     0.042 A 
ATOM      4  C   UNL     1      39.358  37.872  76.327  1.00  0.00     0.195 A 
ATOM      5  C   UNL     1      38.141  38.595  74.635  1.00  0.00     0.048 A 
ATOM      6  O   UNL     1      38.258  37.155  76.304  1.00  0.00    -0.467 OA
ENDBRANCH   1   2
BRANCH   1   7
ATOM      7  O   UNL     1      36.222  35.596  74.983  1.00  0.00    -0.388 OA
ATOM      8  H   UNL     1      35.331  35.277  74.683  1.00  0.00     0.211 HD
ENDBRANCH   1   7
TORSDOF 2
ENDMDL
