MODEL 1
REMARK VINA RESULT:    -4.227      0.000      0.000
REMARK INTER + INTRA:          -8.111
REMARK INTER:                  -6.698
REMARK INTRA:                  -1.413
REMARK UNBOUND:                -1.413
REMARK SMILES CCCCCCCCCCCC(=O)[O-]
REMARK SMILES IDX 7 1 8 2 9 3 10 4 11 5 12 6 13 7 14 8 6 9 5 10 4 11 3 12 2 13
REMARK SMILES IDX 1 14
REMARK H PARENT
REMARK Flexibility Score: inf
ROOT
ATOM      1  C   UNL     1      -6.996 -26.354  31.489  1.00  0.00     0.000 C 
ENDROOT
BRANCH   1   2
ATOM      2  C   UNL     1      -7.493 -24.958  31.084  1.00  0.00     0.000 C 
BRANCH   2   3
ATOM      3  C   UNL     1      -8.941 -24.695  31.534  1.00  0.00     0.000 C 
BRANCH   3   4
ATOM      4  C   UNL     1      -9.318 -25.468  32.810  1.00  0.00     0.006 C 
BRANCH   4   5
ATOM      5  C   UNL     1     -10.697 -26.147  32.757  1.00  0.00     0.053 C 
BRANCH   5   6
ATOM      6  C   UNL     1     -11.466 -25.954  34.027  1.00  0.00     0.041 C 
ATOM      7  O   UNL     1     -12.723 -25.877  34.002  1.00  0.00    -0.550 OA
ATOM      8  O   UNL     1     -10.797 -25.891  35.243  1.00  0.00    -0.550 OA
ENDBRANCH   5   6
ENDBRANCH   4   5
ENDBRANCH   3   4
ENDBRANCH   2   3
ENDBRANCH   1   2
BRANCH   1   9
ATOM      9  C   UNL     1      -7.410 -27.448  30.488  1.00  0.00     0.000 C 
BRANCH   9  10
ATOM     10  C   UNL     1      -7.267 -27.002  29.022  1.00  0.00    -0.000 C 
BRANCH  10  11
ATOM     11  C   UNL     1      -8.536 -27.160  28.165  1.00  0.00    -0.000 C 
BRANCH  11  12
ATOM     12  C   UNL     1      -9.802 -27.398  29.007  1.00  0.00    -0.000 C 
BRANCH  12  13
ATOM     13  C   UNL     1     -10.787 -26.220  28.933  1.00  0.00    -0.003 C 
ATOM     14  C   UNL     1     -10.270 -25.068  28.072  1.00  0.00     0.004 C 
ENDBRANCH  12  13
ENDBRANCH  11  12
ENDBRANCH  10  11
ENDBRANCH   9  10
ENDBRANCH   1   9
TORSDOF 10
ENDMDL
MODEL 2
REMARK VINA RESULT:    -4.171      2.571      3.822
REMARK INTER + INTRA:          -8.023
REMARK INTER:                  -6.724
REMARK INTRA:                  -1.299
REMARK UNBOUND:                -1.413
REMARK SMILES CCCCCCCCCCCC(=O)[O-]
REMARK SMILES IDX 7 1 8 2 9 3 10 4 11 5 12 6 13 7 14 8 6 9 5 10 4 11 3 12 2 13
REMARK SMILES IDX 1 14
REMARK H PARENT
REMARK Flexibility Score: inf
ROOT
ATOM      1  C   UNL     1      -9.781 -26.781  31.580  1.00  0.00     0.000 C 
ENDROOT
BRANCH   1   2
ATOM      2  C   UNL     1      -8.792 -27.947  31.421  1.00  0.00     0.000 C 
BRANCH   2   3
ATOM      3  C   UNL     1      -7.351 -27.552  31.785  1.00  0.00     0.000 C 
BRANCH   3   4
ATOM      4  C   UNL     1      -6.655 -26.746  30.673  1.00  0.00     0.006 C 
BRANCH   4   5
ATOM      5  C   UNL     1      -5.848 -25.538  31.175  1.00  0.00     0.053 C 
BRANCH   5   6
ATOM      6  C   UNL     1      -6.628 -24.705  32.145  1.00  0.00     0.041 C 
ATOM      7  O   UNL     1      -7.585 -23.993  31.743  1.00  0.00    -0.550 OA
ATOM      8  O   UNL     1      -6.318 -24.740  33.498  1.00  0.00    -0.550 OA
ENDBRANCH   5   6
ENDBRANCH   4   5
ENDBRANCH   3   4
ENDBRANCH   2   3
ENDBRANCH   1   2
BRANCH   1   9
ATOM      9  C   UNL     1     -10.517 -26.443  30.272  1.00  0.00     0.000 C 
BRANCH   9  10
ATOM     10  C   UNL     1      -9.880 -25.263  29.515  1.00  0.00    -0.000 C 
BRANCH  10  11
ATOM     11  C   UNL     1      -9.305 -25.613  28.131  1.00  0.00    -0.000 C 
BRANCH  11  12
ATOM     12  C   UNL     1      -9.090 -27.123  27.935  1.00  0.00    -0.000 C 
BRANCH  12  13
ATOM     13  C   UNL     1      -9.925 -27.689  26.775  1.00  0.00    -0.003 C 
ATOM     14  C   UNL     1     -10.986 -28.688  27.239  1.00  0.00     0.004 C 
ENDBRANCH  12  13
ENDBRANCH  11  12
ENDBRANCH  10  11
ENDBRANCH   9  10
ENDBRANCH   1   9
TORSDOF 10
ENDMDL
MODEL 3
REMARK VINA RESULT:    -4.161      1.750      3.167
REMARK INTER + INTRA:          -8.007
REMARK INTER:                  -6.979
REMARK INTRA:                  -1.028
REMARK UNBOUND:                -1.413
REMARK SMILES CCCCCCCCCCCC(=O)[O-]
REMARK SMILES IDX 7 1 8 2 9 3 10 4 11 5 12 6 13 7 14 8 6 9 5 10 4 11 3 12 2 13
REMARK SMILES IDX 1 14
REMARK H PARENT
REMARK Flexibility Score: inf
ROOT
ATOM      1  C   UNL     1      -7.923 -27.235  28.180  1.00  0.00     0.000 C 
ENDROOT
BRANCH   1   2
ATOM      2  C   UNL     1      -6.773 -27.123  29.192  1.00  0.00     0.000 C 
BRANCH   2   3
ATOM      3  C   UNL     1      -7.272 -26.889  30.629  1.00  0.00     0.000 C 
BRANCH   3   4
ATOM      4  C   UNL     1      -7.082 -25.435  31.095  1.00  0.00     0.006 C 
BRANCH   4   5
ATOM      5  C   UNL     1      -8.391 -24.648  31.273  1.00  0.00     0.053 C 
BRANCH   5   6
ATOM      6  C   UNL     1      -9.352 -25.356  32.177  1.00  0.00     0.041 C 
ATOM      7  O   UNL     1     -10.479 -25.718  31.747  1.00  0.00    -0.550 OA
ATOM      8  O   UNL     1      -8.991 -25.644  33.487  1.00  0.00    -0.550 OA
ENDBRANCH   5   6
ENDBRANCH   4   5
ENDBRANCH   3   4
ENDBRANCH   2   3
ENDBRANCH   1   2
BRANCH   1   9
ATOM      9  C   UNL     1      -9.301 -27.360  28.855  1.00  0.00     0.000 C 
BRANCH   9  10
ATOM     10  C   UNL     1     -10.403 -26.583  28.113  1.00  0.00    -0.000 C 
BRANCH  10  11
ATOM     11  C   UNL     1     -10.250 -25.051  28.139  1.00  0.00    -0.000 C 
BRANCH  11  12
ATOM     12  C   UNL     1     -10.358 -24.414  26.743  1.00  0.00    -0.000 C 
BRANCH  12  13
ATOM     13  C   UNL     1     -10.946 -22.995  26.788  1.00  0.00    -0.003 C 
ATOM     14  C   UNL     1     -11.865 -22.696  25.604  1.00  0.00     0.004 C 
ENDBRANCH  12  13
ENDBRANCH  11  12
ENDBRANCH  10  11
ENDBRANCH   9  10
ENDBRANCH   1   9
TORSDOF 10
ENDMDL
MODEL 4
REMARK VINA RESULT:    -4.117      3.431      5.464
REMARK INTER + INTRA:          -7.937
REMARK INTER:                  -6.615
REMARK INTRA:                  -1.322
REMARK UNBOUND:                -1.413
REMARK SMILES CCCCCCCCCCCC(=O)[O-]
REMARK SMILES IDX 7 1 8 2 9 3 10 4 11 5 12 6 13 7 14 8 6 9 5 10 4 11 3 12 2 13
REMARK SMILES IDX 1 14
REMARK H PARENT
REMARK Flexibility Score: inf
ROOT
ATOM      1  C   UNL     1     -10.509 -26.460  31.689  1.00  0.00     0.000 C 
ENDROOT
BRANCH   1   2
ATOM      2  C   UNL     1     -10.645 -26.184  30.183  1.00  0.00     0.000 C 
BRANCH   2   3
ATOM      3  C   UNL     1     -10.031 -27.301  29.321  1.00  0.00     0.000 C 
BRANCH   3   4
ATOM      4  C   UNL     1      -9.376 -26.768  28.034  1.00  0.00     0.006 C 
BRANCH   4   5
ATOM      5  C   UNL     1      -9.446 -25.241  27.872  1.00  0.00     0.053 C 
BRANCH   5   6
ATOM      6  C   UNL     1     -10.328 -24.838  26.730  1.00  0.00     0.041 C 
ATOM      7  O   UNL     1     -10.829 -25.713  25.976  1.00  0.00    -0.550 OA
ATOM      8  O   UNL     1     -10.622 -23.497  26.518  1.00  0.00    -0.550 OA
ENDBRANCH   5   6
ENDBRANCH   4   5
ENDBRANCH   3   4
ENDBRANCH   2   3
ENDBRANCH   1   2
BRANCH   1   9
ATOM      9  C   UNL     1      -9.479 -25.541  32.371  1.00  0.00     0.000 C 
BRANCH   9  10
ATOM     10  C   UNL     1      -8.902 -24.478  31.418  1.00  0.00    -0.000 C 
BRANCH  10  11
ATOM     11  C   UNL     1      -7.392 -24.220  31.568  1.00  0.00    -0.000 C 
BRANCH  11  12
ATOM     12  C   UNL     1      -6.611 -25.469  32.010  1.00  0.00    -0.000 C 
BRANCH  12  13
ATOM     13  C   UNL     1      -5.757 -26.059  30.877  1.00  0.00    -0.003 C 
ATOM     14  C   UNL     1      -6.417 -27.259  30.198  1.00  0.00     0.004 C 
ENDBRANCH  12  13
ENDBRANCH  11  12
ENDBRANCH  10  11
ENDBRANCH   9  10
ENDBRANCH   1   9
TORSDOF 10
ENDMDL
MODEL 5
REMARK VINA RESULT:    -4.117      3.415      5.102
REMARK INTER + INTRA:          -7.937
REMARK INTER:                  -6.612
REMARK INTRA:                  -1.325
REMARK UNBOUND:                -1.413
REMARK SMILES CCCCCCCCCCCC(=O)[O-]
REMARK SMILES IDX 7 1 8 2 9 3 10 4 11 5 12 6 13 7 14 8 6 9 5 10 4 11 3 12 2 13
REMARK SMILES IDX 1 14
REMARK H PARENT
REMARK Flexibility Score: inf
ROOT
ATOM      1  C   UNL     1      -6.404 -27.290  28.983  1.00  0.00     0.000 C 
ENDROOT
BRANCH   1   2
ATOM      2  C   UNL     1      -7.777 -27.241  28.295  1.00  0.00     0.000 C 
BRANCH   2   3
ATOM      3  C   UNL     1      -8.941 -27.240  29.301  1.00  0.00     0.000 C 
BRANCH   3   4
ATOM      4  C   UNL     1     -10.220 -26.600  28.731  1.00  0.00     0.006 C 
BRANCH   4   5
ATOM      5  C   UNL     1     -10.068 -25.124  28.331  1.00  0.00     0.053 C 
BRANCH   5   6
ATOM      6  C   UNL     1     -10.305 -24.912  26.868  1.00  0.00     0.041 C 
ATOM      7  O   UNL     1     -10.213 -23.759  26.370  1.00  0.00    -0.550 OA
ATOM      8  O   UNL     1     -10.597 -25.993  26.047  1.00  0.00    -0.550 OA
ENDBRANCH   5   6
ENDBRANCH   4   5
ENDBRANCH   3   4
ENDBRANCH   2   3
ENDBRANCH   1   2
BRANCH   1   9
ATOM      9  C   UNL     1      -6.497 -27.126  30.510  1.00  0.00     0.000 C 
BRANCH   9  10
ATOM     10  C   UNL     1      -5.783 -25.861  31.021  1.00  0.00    -0.000 C 
BRANCH  10  11
ATOM     11  C   UNL     1      -6.691 -24.631  31.208  1.00  0.00    -0.000 C 
BRANCH  11  12
ATOM     12  C   UNL     1      -7.681 -24.790  32.374  1.00  0.00    -0.000 C 
BRANCH  12  13
ATOM     13  C   UNL     1      -9.145 -24.794  31.905  1.00  0.00    -0.003 C 
ATOM     14  C   UNL     1     -10.002 -25.822  32.644  1.00  0.00     0.004 C 
ENDBRANCH  12  13
ENDBRANCH  11  12
ENDBRANCH  10  11
ENDBRANCH   9  10
ENDBRANCH   1   9
TORSDOF 10
ENDMDL
MODEL 6
REMARK VINA RESULT:    -4.105      3.338      5.201
REMARK INTER + INTRA:          -7.917
REMARK INTER:                  -6.540
REMARK INTRA:                  -1.378
REMARK UNBOUND:                -1.413
REMARK SMILES CCCCCCCCCCCC(=O)[O-]
REMARK SMILES IDX 7 1 8 2 9 3 10 4 11 5 12 6 13 7 14 8 6 9 5 10 4 11 3 12 2 13
REMARK SMILES IDX 1 14
REMARK H PARENT
REMARK Flexibility Score: inf
ROOT
ATOM      1  C   UNL     1      -9.270 -25.007  31.602  1.00  0.00     0.000 C 
ENDROOT
BRANCH   1   2
ATOM      2  C   UNL     1      -9.979 -25.411  30.300  1.00  0.00     0.000 C 
BRANCH   2   3
ATOM      3  C   UNL     1      -9.012 -25.510  29.108  1.00  0.00     0.000 C 
BRANCH   3   4
ATOM      4  C   UNL     1      -9.123 -26.851  28.360  1.00  0.00     0.006 C 
BRANCH   4   5
ATOM      5  C   UNL     1     -10.389 -27.659  28.691  1.00  0.00     0.053 C 
BRANCH   5   6
ATOM      6  C   UNL     1     -11.095 -28.127  27.456  1.00  0.00     0.041 C 
ATOM      7  O   UNL     1     -10.649 -29.106  26.803  1.00  0.00    -0.550 OA
ATOM      8  O   UNL     1     -12.264 -27.500  27.044  1.00  0.00    -0.550 OA
ENDBRANCH   5   6
ENDBRANCH   4   5
ENDBRANCH   3   4
ENDBRANCH   2   3
ENDBRANCH   1   2
BRANCH   1   9
ATOM      9  C   UNL     1      -8.039 -24.115  31.357  1.00  0.00     0.000 C 
BRANCH   9  10
ATOM     10  C   UNL     1      -6.803 -24.572  32.152  1.00  0.00    -0.000 C 
BRANCH  10  11
ATOM     11  C   UNL     1      -5.664 -25.163  31.301  1.00  0.00    -0.000 C 
BRANCH  11  12
ATOM     12  C   UNL     1      -5.430 -26.660  31.569  1.00  0.00    -0.000 C 
BRANCH  12  13
ATOM     13  C   UNL     1      -6.382 -27.557  30.762  1.00  0.00    -0.003 C 
ATOM     14  C   UNL     1      -7.486 -28.174  31.620  1.00  0.00     0.004 C 
ENDBRANCH  12  13
ENDBRANCH  11  12
ENDBRANCH  10  11
ENDBRANCH   9  10
ENDBRANCH   1   9
TORSDOF 10
ENDMDL
MODEL 7
REMARK VINA RESULT:    -4.083      3.357      4.447
REMARK INTER + INTRA:          -7.883
REMARK INTER:                  -6.907
REMARK INTRA:                  -0.976
REMARK UNBOUND:                -1.413
REMARK SMILES CCCCCCCCCCCC(=O)[O-]
REMARK SMILES IDX 7 1 8 2 9 3 10 4 11 5 12 6 13 7 14 8 6 9 5 10 4 11 3 12 2 13
REMARK SMILES IDX 1 14
REMARK H PARENT
REMARK Flexibility Score: inf
ROOT
ATOM      1  C   UNL     1      -9.827 -25.889  31.408  1.00  0.00     0.000 C 
ENDROOT
BRANCH   1   2
ATOM      2  C   UNL     1      -8.911 -24.667  31.243  1.00  0.00     0.000 C 
BRANCH   2   3
ATOM      3  C   UNL     1      -7.423 -25.051  31.172  1.00  0.00     0.000 C 
BRANCH   3   4
ATOM      4  C   UNL     1      -7.106 -26.350  31.935  1.00  0.00     0.006 C 
BRANCH   4   5
ATOM      5  C   UNL     1      -6.819 -27.561  31.032  1.00  0.00     0.053 C 
BRANCH   5   6
ATOM      6  C   UNL     1      -5.918 -27.208  29.890  1.00  0.00     0.041 C 
ATOM      7  O   UNL     1      -6.342 -27.266  28.706  1.00  0.00    -0.550 OA
ATOM      8  O   UNL     1      -4.618 -26.785  30.134  1.00  0.00    -0.550 OA
ENDBRANCH   5   6
ENDBRANCH   4   5
ENDBRANCH   3   4
ENDBRANCH   2   3
ENDBRANCH   1   2
BRANCH   1   9
ATOM      9  C   UNL     1     -10.684 -26.165  30.159  1.00  0.00     0.000 C 
BRANCH   9  10
ATOM     10  C   UNL     1      -9.886 -26.827  29.021  1.00  0.00    -0.000 C 
BRANCH  10  11
ATOM     11  C   UNL     1      -9.495 -25.886  27.867  1.00  0.00    -0.000 C 
BRANCH  11  12
ATOM     12  C   UNL     1     -10.405 -24.650  27.767  1.00  0.00    -0.000 C 
BRANCH  12  13
ATOM     13  C   UNL     1     -10.503 -24.107  26.332  1.00  0.00    -0.003 C 
ATOM     14  C   UNL     1     -11.129 -22.714  26.266  1.00  0.00     0.004 C 
ENDBRANCH  12  13
ENDBRANCH  11  12
ENDBRANCH  10  11
ENDBRANCH   9  10
ENDBRANCH   1   9
TORSDOF 10
ENDMDL
MODEL 8
REMARK VINA RESULT:    -4.069      3.512      4.671
REMARK INTER + INTRA:          -7.862
REMARK INTER:                  -6.623
REMARK INTRA:                  -1.238
REMARK UNBOUND:                -1.413
REMARK SMILES CCCCCCCCCCCC(=O)[O-]
REMARK SMILES IDX 7 1 8 2 9 3 10 4 11 5 12 6 13 7 14 8 6 9 5 10 4 11 3 12 2 13
REMARK SMILES IDX 1 14
REMARK H PARENT
REMARK Flexibility Score: inf
ROOT
ATOM      1  C   UNL     1      -9.985 -25.725  31.649  1.00  0.00     0.000 C 
ENDROOT
BRANCH   1   2
ATOM      2  C   UNL     1      -8.911 -24.625  31.646  1.00  0.00     0.000 C 
BRANCH   2   3
ATOM      3  C   UNL     1      -7.557 -25.122  32.181  1.00  0.00     0.000 C 
BRANCH   3   4
ATOM      4  C   UNL     1      -6.652 -25.693  31.074  1.00  0.00     0.006 C 
BRANCH   4   5
ATOM      5  C   UNL     1      -6.573 -27.228  31.047  1.00  0.00     0.053 C 
BRANCH   5   6
ATOM      6  C   UNL     1      -5.442 -27.716  30.195  1.00  0.00     0.041 C 
ATOM      7  O   UNL     1      -4.697 -28.645  30.603  1.00  0.00    -0.550 OA
ATOM      8  O   UNL     1      -5.231 -27.166  28.938  1.00  0.00    -0.550 OA
ENDBRANCH   5   6
ENDBRANCH   4   5
ENDBRANCH   3   4
ENDBRANCH   2   3
ENDBRANCH   1   2
BRANCH   1   9
ATOM      9  C   UNL     1     -10.483 -26.073  30.235  1.00  0.00     0.000 C 
BRANCH   9  10
ATOM     10  C   UNL     1     -10.084 -25.021  29.184  1.00  0.00    -0.000 C 
BRANCH  10  11
ATOM     11  C   UNL     1      -9.553 -25.593  27.858  1.00  0.00    -0.000 C 
BRANCH  11  12
ATOM     12  C   UNL     1      -8.710 -26.866  28.049  1.00  0.00    -0.000 C 
BRANCH  12  13
ATOM     13  C   UNL     1      -9.144 -28.004  27.112  1.00  0.00    -0.003 C 
ATOM     14  C   UNL     1     -10.641 -28.302  27.193  1.00  0.00     0.004 C 
ENDBRANCH  12  13
ENDBRANCH  11  12
ENDBRANCH  10  11
ENDBRANCH   9  10
ENDBRANCH   1   9
TORSDOF 10
ENDMDL
MODEL 9
REMARK VINA RESULT:    -4.061      3.170      4.946
REMARK INTER + INTRA:          -7.848
REMARK INTER:                  -6.357
REMARK INTRA:                  -1.491
REMARK UNBOUND:                -1.413
REMARK SMILES CCCCCCCCCCCC(=O)[O-]
REMARK SMILES IDX 7 1 8 2 9 3 10 4 11 5 12 6 13 7 14 8 6 9 5 10 4 11 3 12 2 13
REMARK SMILES IDX 1 14
REMARK H PARENT
REMARK Flexibility Score: inf
ROOT
ATOM      1  C   UNL     1      -6.112 -27.545  30.270  1.00  0.00     0.000 C 
ENDROOT
BRANCH   1   2
ATOM      2  C   UNL     1      -6.760 -27.248  28.908  1.00  0.00     0.000 C 
BRANCH   2   3
ATOM      3  C   UNL     1      -8.296 -27.207  28.982  1.00  0.00     0.000 C 
BRANCH   3   4
ATOM      4  C   UNL     1      -8.888 -25.927  28.366  1.00  0.00     0.006 C 
BRANCH   4   5
ATOM      5  C   UNL     1     -10.422 -25.924  28.259  1.00  0.00     0.053 C 
BRANCH   5   6
ATOM      6  C   UNL     1     -10.899 -26.625  27.024  1.00  0.00     0.041 C 
ATOM      7  O   UNL     1     -10.953 -26.011  25.927  1.00  0.00    -0.550 OA
ATOM      8  O   UNL     1     -11.254 -27.967  27.080  1.00  0.00    -0.550 OA
ENDBRANCH   5   6
ENDBRANCH   4   5
ENDBRANCH   3   4
ENDBRANCH   2   3
ENDBRANCH   1   2
BRANCH   1   9
ATOM      9  C   UNL     1      -5.389 -26.323  30.864  1.00  0.00     0.000 C 
BRANCH   9  10
ATOM     10  C   UNL     1      -6.266 -25.531  31.851  1.00  0.00    -0.000 C 
BRANCH  10  11
ATOM     11  C   UNL     1      -7.093 -24.394  31.221  1.00  0.00    -0.000 C 
BRANCH  11  12
ATOM     12  C   UNL     1      -8.562 -24.398  31.677  1.00  0.00    -0.000 C 
BRANCH  12  13
ATOM     13  C   UNL     1      -8.967 -25.723  32.343  1.00  0.00    -0.003 C 
ATOM     14  C   UNL     1     -10.392 -26.151  31.995  1.00  0.00     0.004 C 
ENDBRANCH  12  13
ENDBRANCH  11  12
ENDBRANCH  10  11
ENDBRANCH   9  10
ENDBRANCH   1   9
TORSDOF 10
ENDMDL
