MODEL 1
REMARK VINA RESULT:    -4.276      0.000      0.000
REMARK INTER + INTRA:          -4.620
REMARK INTER:                  -4.526
REMARK INTRA:                  -0.094
REMARK UNBOUND:                -0.094
REMARK SMILES C=C(C)[C@@H]1CC=C(C)C(=O)C1
REMARK SMILES IDX 8 1 7 2 6 3 5 4 4 5 11 6 9 7 10 8 2 9 1 10 3 11
REMARK H PARENT
REMARK Flexibility Score: inf
ROOT
ATOM      1  C   UNL     1      10.527   6.413   0.214  1.00  0.00     0.048 C 
ATOM      2  C   UNL     1      10.968   7.316   1.332  1.00  0.00    -0.012 C 
ATOM      3  C   UNL     1      11.856   6.880   2.244  1.00  0.00    -0.019 C 
ATOM      4  C   UNL     1      12.388   7.773   3.333  1.00  0.00     0.036 C 
ATOM      5  C   UNL     1      11.348   8.834   3.740  1.00  0.00     0.025 C 
ATOM      6  C   UNL     1      10.883   9.631   2.508  1.00  0.00     0.089 C 
ATOM      7  C   UNL     1      10.440   8.701   1.412  1.00  0.00     0.158 C 
ATOM      8  O   UNL     1       9.646   9.126   0.530  1.00  0.00    -0.295 OA
ENDROOT
BRANCH   5   9
ATOM      9  C   UNL     1      11.874   9.747   4.836  1.00  0.00    -0.077 C 
ATOM     10  C   UNL     1      13.120  10.254   4.789  1.00  0.00     0.008 C 
ATOM     11  C   UNL     1      10.969  10.081   5.993  1.00  0.00     0.039 C 
ENDBRANCH   5   9
TORSDOF 1
ENDMDL
MODEL 2
REMARK VINA RESULT:    -4.269      0.986      1.428
REMARK INTER + INTRA:          -4.613
REMARK INTER:                  -4.522
REMARK INTRA:                  -0.091
REMARK UNBOUND:                -0.094
REMARK SMILES C=C(C)[C@@H]1CC=C(C)C(=O)C1
REMARK SMILES IDX 8 1 7 2 6 3 5 4 4 5 11 6 9 7 10 8 2 9 1 10 3 11
REMARK H PARENT
REMARK Flexibility Score: inf
ROOT
ATOM      1  C   UNL     1       9.913   5.690   0.361  1.00  0.00     0.048 C 
ATOM      2  C   UNL     1      10.503   6.840   1.128  1.00  0.00    -0.012 C 
ATOM      3  C   UNL     1      11.564   6.643   1.932  1.00  0.00    -0.019 C 
ATOM      4  C   UNL     1      12.238   7.777   2.657  1.00  0.00     0.036 C 
ATOM      5  C   UNL     1      11.236   8.898   2.991  1.00  0.00     0.025 C 
ATOM      6  C   UNL     1      10.513   9.369   1.716  1.00  0.00     0.089 C 
ATOM      7  C   UNL     1       9.927   8.199   0.976  1.00  0.00     0.158 C 
ATOM      8  O   UNL     1       8.964   8.392   0.186  1.00  0.00    -0.295 OA
ENDROOT
BRANCH   5   9
ATOM      9  C   UNL     1      11.905  10.054   3.719  1.00  0.00    -0.077 C 
ATOM     10  C   UNL     1      11.661  10.299   5.019  1.00  0.00     0.008 C 
ATOM     11  C   UNL     1      12.857  10.934   2.953  1.00  0.00     0.039 C 
ENDBRANCH   5   9
TORSDOF 1
ENDMDL
MODEL 3
REMARK VINA RESULT:    -4.025     22.404     23.187
REMARK INTER + INTRA:          -4.355
REMARK INTER:                  -4.262
REMARK INTRA:                  -0.092
REMARK UNBOUND:                -0.094
REMARK SMILES C=C(C)[C@@H]1CC=C(C)C(=O)C1
REMARK SMILES IDX 8 1 7 2 6 3 5 4 4 5 11 6 9 7 10 8 2 9 1 10 3 11
REMARK H PARENT
REMARK Flexibility Score: inf
ROOT
ATOM      1  C   UNL     1       2.625  -5.894  14.607  1.00  0.00     0.048 C 
ATOM      2  C   UNL     1       1.312  -5.771  15.328  1.00  0.00    -0.012 C 
ATOM      3  C   UNL     1       1.108  -4.762  16.193  1.00  0.00    -0.019 C 
ATOM      4  C   UNL     1      -0.217  -4.550  16.877  1.00  0.00     0.036 C 
ATOM      5  C   UNL     1      -0.952  -5.887  17.090  1.00  0.00     0.025 C 
ATOM      6  C   UNL     1      -1.099  -6.637  15.753  1.00  0.00     0.089 C 
ATOM      7  C   UNL     1       0.231  -6.752  15.061  1.00  0.00     0.158 C 
ATOM      8  O   UNL     1       0.404  -7.669  14.214  1.00  0.00    -0.295 OA
ENDROOT
BRANCH   5   9
ATOM      9  C   UNL     1      -2.296  -5.688  17.775  1.00  0.00    -0.077 C 
ATOM     10  C   UNL     1      -2.403  -5.664  19.116  1.00  0.00     0.008 C 
ATOM     11  C   UNL     1      -3.524  -5.519  16.919  1.00  0.00     0.039 C 
ENDBRANCH   5   9
TORSDOF 1
ENDMDL
MODEL 4
REMARK VINA RESULT:    -4.013      1.093      4.324
REMARK INTER + INTRA:          -4.341
REMARK INTER:                  -4.249
REMARK INTRA:                  -0.092
REMARK UNBOUND:                -0.094
REMARK SMILES C=C(C)[C@@H]1CC=C(C)C(=O)C1
REMARK SMILES IDX 8 1 7 2 6 3 5 4 4 5 11 6 9 7 10 8 2 9 1 10 3 11
REMARK H PARENT
REMARK Flexibility Score: inf
ROOT
ATOM      1  C   UNL     1      12.065  10.246   4.504  1.00  0.00     0.048 C 
ATOM      2  C   UNL     1      11.685   9.268   3.428  1.00  0.00    -0.012 C 
ATOM      3  C   UNL     1      12.077   7.984   3.513  1.00  0.00    -0.019 C 
ATOM      4  C   UNL     1      11.655   6.950   2.503  1.00  0.00     0.036 C 
ATOM      5  C   UNL     1      11.441   7.583   1.116  1.00  0.00     0.025 C 
ATOM      6  C   UNL     1      10.443   8.752   1.207  1.00  0.00     0.089 C 
ATOM      7  C   UNL     1      10.854   9.717   2.284  1.00  0.00     0.158 C 
ATOM      8  O   UNL     1      10.445  10.908   2.230  1.00  0.00    -0.295 OA
ENDROOT
BRANCH   5   9
ATOM      9  C   UNL     1      11.008   6.551   0.086  1.00  0.00    -0.077 C 
ATOM     10  C   UNL     1      11.670   6.398  -1.075  1.00  0.00     0.008 C 
ATOM     11  C   UNL     1       9.808   5.693   0.386  1.00  0.00     0.039 C 
ENDBRANCH   5   9
TORSDOF 1
ENDMDL
MODEL 5
REMARK VINA RESULT:    -3.951     22.574     23.337
REMARK INTER + INTRA:          -4.276
REMARK INTER:                  -4.183
REMARK INTRA:                  -0.093
REMARK UNBOUND:                -0.094
REMARK SMILES C=C(C)[C@@H]1CC=C(C)C(=O)C1
REMARK SMILES IDX 8 1 7 2 6 3 5 4 4 5 11 6 9 7 10 8 2 9 1 10 3 11
REMARK H PARENT
REMARK Flexibility Score: inf
ROOT
ATOM      1  C   UNL     1       2.227  -5.884  14.608  1.00  0.00     0.048 C 
ATOM      2  C   UNL     1       0.927  -5.940  15.360  1.00  0.00    -0.012 C 
ATOM      3  C   UNL     1       0.061  -6.946  15.139  1.00  0.00    -0.019 C 
ATOM      4  C   UNL     1      -1.215  -7.089  15.925  1.00  0.00     0.036 C 
ATOM      5  C   UNL     1      -1.752  -5.715  16.368  1.00  0.00     0.025 C 
ATOM      6  C   UNL     1      -0.672  -4.942  17.147  1.00  0.00     0.089 C 
ATOM      7  C   UNL     1       0.613  -4.896  16.366  1.00  0.00     0.158 C 
ATOM      8  O   UNL     1       1.445  -3.980  16.608  1.00  0.00    -0.295 OA
ENDROOT
BRANCH   5   9
ATOM      9  C   UNL     1      -3.039  -5.844  17.168  1.00  0.00    -0.077 C 
ATOM     10  C   UNL     1      -3.100  -6.595  18.283  1.00  0.00     0.008 C 
ATOM     11  C   UNL     1      -4.264  -5.111  16.687  1.00  0.00     0.039 C 
ENDBRANCH   5   9
TORSDOF 1
ENDMDL
MODEL 6
REMARK VINA RESULT:    -3.925      3.765      6.645
REMARK INTER + INTRA:          -4.248
REMARK INTER:                  -4.155
REMARK INTRA:                  -0.093
REMARK UNBOUND:                -0.094
REMARK SMILES C=C(C)[C@@H]1CC=C(C)C(=O)C1
REMARK SMILES IDX 8 1 7 2 6 3 5 4 4 5 11 6 9 7 10 8 2 9 1 10 3 11
REMARK H PARENT
REMARK Flexibility Score: inf
ROOT
ATOM      1  C   UNL     1      10.819  11.221  10.498  1.00  0.00     0.048 C 
ATOM      2  C   UNL     1      11.273  10.887   9.104  1.00  0.00    -0.012 C 
ATOM      3  C   UNL     1      10.776  11.561   8.051  1.00  0.00    -0.019 C 
ATOM      4  C   UNL     1      11.259  11.318   6.646  1.00  0.00     0.036 C 
ATOM      5  C   UNL     1      11.718   9.859   6.460  1.00  0.00     0.025 C 
ATOM      6  C   UNL     1      12.779   9.492   7.514  1.00  0.00     0.089 C 
ATOM      7  C   UNL     1      12.292   9.829   8.896  1.00  0.00     0.158 C 
ATOM      8  O   UNL     1      12.794   9.231   9.886  1.00  0.00    -0.295 OA
ENDROOT
BRANCH   5   9
ATOM      9  C   UNL     1      12.215   9.600   5.046  1.00  0.00    -0.077 C 
ATOM     10  C   UNL     1      13.125  10.402   4.465  1.00  0.00     0.008 C 
ATOM     11  C   UNL     1      11.664   8.418   4.294  1.00  0.00     0.039 C 
ENDBRANCH   5   9
TORSDOF 1
ENDMDL
MODEL 7
REMARK VINA RESULT:    -3.658     23.021     23.903
REMARK INTER + INTRA:          -3.966
REMARK INTER:                  -3.868
REMARK INTRA:                  -0.098
REMARK UNBOUND:                -0.094
REMARK SMILES C=C(C)[C@@H]1CC=C(C)C(=O)C1
REMARK SMILES IDX 8 1 7 2 6 3 5 4 4 5 11 6 9 7 10 8 2 9 1 10 3 11
REMARK H PARENT
REMARK Flexibility Score: inf
ROOT
ATOM      1  C   UNL     1      -2.904  -5.456  19.125  1.00  0.00     0.048 C 
ATOM      2  C   UNL     1      -1.913  -5.803  18.050  1.00  0.00    -0.012 C 
ATOM      3  C   UNL     1      -0.732  -5.161  17.987  1.00  0.00    -0.019 C 
ATOM      4  C   UNL     1       0.325  -5.529  16.979  1.00  0.00     0.036 C 
ATOM      5  C   UNL     1      -0.307  -6.076  15.685  1.00  0.00     0.025 C 
ATOM      6  C   UNL     1      -1.245  -7.255  16.003  1.00  0.00     0.089 C 
ATOM      7  C   UNL     1      -2.230  -6.875  17.074  1.00  0.00     0.158 C 
ATOM      8  O   UNL     1      -3.315  -7.509  17.163  1.00  0.00    -0.295 OA
ENDROOT
BRANCH   5   9
ATOM      9  C   UNL     1       0.749  -6.457  14.659  1.00  0.00    -0.077 C 
ATOM     10  C   UNL     1       1.991  -5.941  14.706  1.00  0.00     0.008 C 
ATOM     11  C   UNL     1       0.381  -7.433  13.573  1.00  0.00     0.039 C 
ENDBRANCH   5   9
TORSDOF 1
ENDMDL
MODEL 8
REMARK VINA RESULT:    -3.549     23.254     23.897
REMARK INTER + INTRA:          -3.851
REMARK INTER:                  -3.749
REMARK INTRA:                  -0.102
REMARK UNBOUND:                -0.094
REMARK SMILES C=C(C)[C@@H]1CC=C(C)C(=O)C1
REMARK SMILES IDX 8 1 7 2 6 3 5 4 4 5 11 6 9 7 10 8 2 9 1 10 3 11
REMARK H PARENT
REMARK Flexibility Score: inf
ROOT
ATOM      1  C   UNL     1      -4.396  -8.125  16.432  1.00  0.00     0.048 C 
ATOM      2  C   UNL     1      -3.092  -7.415  16.201  1.00  0.00    -0.012 C 
ATOM      3  C   UNL     1      -2.125  -7.998  15.469  1.00  0.00    -0.019 C 
ATOM      4  C   UNL     1      -0.835  -7.294  15.143  1.00  0.00     0.036 C 
ATOM      5  C   UNL     1      -0.444  -6.304  16.257  1.00  0.00     0.025 C 
ATOM      6  C   UNL     1      -1.595  -5.317  16.526  1.00  0.00     0.089 C 
ATOM      7  C   UNL     1      -2.883  -6.057  16.761  1.00  0.00     0.158 C 
ATOM      8  O   UNL     1      -3.807  -5.491  17.406  1.00  0.00    -0.295 OA
ENDROOT
BRANCH   5   9
ATOM      9  C   UNL     1       0.855  -5.581  15.939  1.00  0.00    -0.077 C 
ATOM     10  C   UNL     1       1.141  -4.382  16.478  1.00  0.00     0.008 C 
ATOM     11  C   UNL     1       1.831  -6.234  14.995  1.00  0.00     0.039 C 
ENDBRANCH   5   9
TORSDOF 1
ENDMDL
