MODEL 1
REMARK VINA RESULT:    -3.287      0.000      0.000
REMARK INTER + INTRA:          -5.314
REMARK INTER:                  -5.017
REMARK INTRA:                  -0.297
REMARK UNBOUND:                -0.297
REMARK SMILES CC1=CCC[C@H](C)C(=O)C[C@H](C(C)C)C(=O)C1
REMARK SMILES IDX 8 1 9 2 6 3 7 4 5 5 4 6 3 7 2 8 1 9 10 11 11 12 15 13 16 14
REMARK SMILES IDX 17 15 12 17 13 18 14 19
REMARK H PARENT
REMARK Flexibility Score: 70.00
ROOT
ATOM      1  C   UNL     1      13.824  19.441  15.779  1.00  0.00     0.136 C 
ATOM      2  O   UNL     1      14.286  20.572  15.769  1.00  0.00    -0.299 OA
ENDROOT
BRANCH   1   3
ATOM      3  C   UNL     1      13.443  18.792  17.092  1.00  0.00     0.053 C 
ATOM      4  C   UNL     1      14.670  18.748  18.009  1.00  0.00     0.016 C 
BRANCH   3   5
ATOM      5  C   UNL     1      12.273  19.515  17.798  1.00  0.00     0.015 C 
BRANCH   5   6
ATOM      6  C   UNL     1      11.231  20.104  16.827  1.00  0.00     0.028 C 
BRANCH   6   7
ATOM      7  C   UNL     1      10.084  19.146  16.590  1.00  0.00    -0.028 C 
ATOM      8  C   UNL     1       9.864  18.415  15.472  1.00  0.00    -0.070 CG0
ATOM      9  C   UNL     1       8.672  17.491  15.459  1.00  0.00     0.039 C 
ATOM     10  G   UNL     1      10.699  18.528  14.213  1.00  0.00     0.000 G0
ENDBRANCH   6   7
ENDBRANCH   5   6
ENDBRANCH   3   5
ENDBRANCH   1   3
BRANCH   1  11
ATOM     11  C   UNL     1      13.666  18.692  14.477  1.00  0.00     0.087 C 
BRANCH  11  12
ATOM     12  C   UNL     1      12.981  17.322  14.674  1.00  0.00     0.066 C 
BRANCH  12  13
ATOM     13  C   UNL     1      11.585  17.327  14.080  1.00  0.00     0.140 C 
ATOM     14  O   UNL     1      11.188  16.362  13.445  1.00  0.00    -0.299 OA
BRANCH  13  15
ATOM     15  C   UNL     1      10.685  18.526  14.216  1.00  0.00     0.106 CG0
ATOM     16  G   UNL     1       9.859  18.416  15.480  1.00  0.00     0.000 G0
ENDBRANCH  13  15
ENDBRANCH  12  13
BRANCH  12  17
ATOM     17  C   UNL     1      13.856  16.140  14.157  1.00  0.00    -0.006 C 
ATOM     18  C   UNL     1      13.834  14.892  15.058  1.00  0.00     0.008 C 
ATOM     19  C   UNL     1      15.306  16.588  13.916  1.00  0.00     0.008 C 
ENDBRANCH  12  17
ENDBRANCH  11  12
ENDBRANCH   1  11
TORSDOF 1
ENDMDL
MODEL 2
REMARK VINA RESULT:    -3.267      1.816      3.210
REMARK INTER + INTRA:          -5.283
REMARK INTER:                  -4.879
REMARK INTRA:                  -0.404
REMARK UNBOUND:                -0.297
REMARK SMILES CC1=CCC[C@H](C)C(=O)C[C@H](C(C)C)C(=O)C1
REMARK SMILES IDX 8 1 9 2 6 3 7 4 5 5 4 6 3 7 2 8 1 9 10 11 11 12 15 13 16 14
REMARK SMILES IDX 17 15 12 17 13 18 14 19
REMARK H PARENT
REMARK Flexibility Score: 70.00
ROOT
ATOM      1  C   UNL     1      14.218  18.071  14.692  1.00  0.00     0.136 C 
ATOM      2  O   UNL     1      15.269  18.655  14.470  1.00  0.00    -0.299 OA
ENDROOT
BRANCH   1   3
ATOM      3  C   UNL     1      14.075  17.220  15.936  1.00  0.00     0.053 C 
ATOM      4  C   UNL     1      15.018  16.016  15.836  1.00  0.00     0.016 C 
BRANCH   3   5
ATOM      5  C   UNL     1      14.352  18.010  17.235  1.00  0.00     0.015 C 
BRANCH   5   6
ATOM      6  C   UNL     1      13.119  18.752  17.786  1.00  0.00     0.028 C 
BRANCH   6   7
ATOM      7  C   UNL     1      13.049  20.175  17.276  1.00  0.00    -0.028 C 
ATOM      8  C   UNL     1      12.046  20.720  16.548  1.00  0.00    -0.070 CG0
ATOM      9  C   UNL     1      12.161  22.176  16.171  1.00  0.00     0.039 C 
ATOM     10  G   UNL     1      10.859  19.936  16.029  1.00  0.00     0.000 G0
ENDBRANCH   6   7
ENDBRANCH   5   6
ENDBRANCH   3   5
ENDBRANCH   1   3
BRANCH   1  11
ATOM     11  C   UNL     1      13.083  18.185  13.703  1.00  0.00     0.087 C 
BRANCH  11  12
ATOM     12  C   UNL     1      11.703  18.066  14.387  1.00  0.00     0.066 C 
BRANCH  12  13
ATOM     13  C   UNL     1      11.101  19.438  14.628  1.00  0.00     0.140 C 
ATOM     14  O   UNL     1      10.863  20.174  13.681  1.00  0.00    -0.299 OA
BRANCH  13  15
ATOM     15  C   UNL     1      10.834  19.938  16.022  1.00  0.00     0.106 CG0
ATOM     16  G   UNL     1      12.031  20.711  16.535  1.00  0.00     0.000 G0
ENDBRANCH  13  15
ENDBRANCH  12  13
BRANCH  12  17
ATOM     17  C   UNL     1      10.741  17.107  13.622  1.00  0.00    -0.006 C 
ATOM     18  C   UNL     1       9.273  17.185  14.077  1.00  0.00     0.008 C 
ATOM     19  C   UNL     1      11.236  15.654  13.692  1.00  0.00     0.008 C 
ENDBRANCH  12  17
ENDBRANCH  11  12
ENDBRANCH   1  11
TORSDOF 1
ENDMDL
MODEL 3
REMARK VINA RESULT:    -3.190      1.526      2.013
REMARK INTER + INTRA:          -5.165
REMARK INTER:                  -4.703
REMARK INTRA:                  -0.463
REMARK UNBOUND:                -0.297
REMARK SMILES CC1=CCC[C@H](C)C(=O)C[C@H](C(C)C)C(=O)C1
REMARK SMILES IDX 8 1 9 2 6 3 7 4 5 5 4 6 3 7 2 8 1 9 10 11 11 12 15 13 16 14
REMARK SMILES IDX 17 15 12 17 13 18 14 19
REMARK H PARENT
REMARK Flexibility Score: 70.00
ROOT
ATOM      1  C   UNL     1      12.252  19.793  15.697  1.00  0.00     0.136 C 
ATOM      2  O   UNL     1      12.212  21.014  15.682  1.00  0.00    -0.299 OA
ENDROOT
BRANCH   1   3
ATOM      3  C   UNL     1      11.506  19.025  16.768  1.00  0.00     0.053 C 
ATOM      4  C   UNL     1      11.958  19.516  18.148  1.00  0.00     0.016 C 
BRANCH   3   5
ATOM      5  C   UNL     1       9.972  19.149  16.632  1.00  0.00     0.015 C 
BRANCH   5   6
ATOM      6  C   UNL     1       9.466  19.037  15.181  1.00  0.00     0.028 C 
BRANCH   6   7
ATOM      7  C   UNL     1       9.166  17.603  14.802  1.00  0.00    -0.028 C 
ATOM      8  C   UNL     1       9.890  16.824  13.964  1.00  0.00    -0.070 CG0
ATOM      9  C   UNL     1       9.431  15.403  13.752  1.00  0.00     0.039 C 
ATOM     10  G   UNL     1      11.083  17.319  13.173  1.00  0.00     0.000 G0
ENDBRANCH   6   7
ENDBRANCH   5   6
ENDBRANCH   3   5
ENDBRANCH   1   3
BRANCH   1  11
ATOM     11  C   UNL     1      13.071  19.064  14.658  1.00  0.00     0.087 C 
BRANCH  11  12
ATOM     12  C   UNL     1      13.081  17.538  14.893  1.00  0.00     0.066 C 
BRANCH  12  13
ATOM     13  C   UNL     1      12.377  16.814  13.760  1.00  0.00     0.140 C 
ATOM     14  O   UNL     1      12.873  15.804  13.280  1.00  0.00    -0.299 OA
BRANCH  13  15
ATOM     15  C   UNL     1      11.096  17.343  13.174  1.00  0.00     0.106 CG0
ATOM     16  G   UNL     1       9.911  16.823  13.963  1.00  0.00     0.000 G0
ENDBRANCH  13  15
ENDBRANCH  12  13
BRANCH  12  17
ATOM     17  C   UNL     1      14.514  16.988  15.167  1.00  0.00    -0.006 C 
ATOM     18  C   UNL     1      14.609  16.038  16.375  1.00  0.00     0.008 C 
ATOM     19  C   UNL     1      15.527  18.133  15.318  1.00  0.00     0.008 C 
ENDBRANCH  12  17
ENDBRANCH  11  12
ENDBRANCH   1  11
TORSDOF 1
ENDMDL
MODEL 4
REMARK VINA RESULT:    -3.138      1.435      1.722
REMARK INTER + INTRA:          -5.086
REMARK INTER:                  -4.962
REMARK INTRA:                  -0.124
REMARK UNBOUND:                -0.297
REMARK SMILES CC1=CCC[C@H](C)C(=O)C[C@H](C(C)C)C(=O)C1
REMARK SMILES IDX 8 1 9 2 6 3 7 4 5 5 4 6 3 7 2 8 1 9 10 11 11 12 15 13 16 14
REMARK SMILES IDX 17 15 12 17 13 18 14 19
REMARK H PARENT
REMARK Flexibility Score: 70.00
ROOT
ATOM      1  C   UNL     1      15.323  18.216  16.077  1.00  0.00     0.136 C 
ATOM      2  O   UNL     1      16.538  18.079  16.100  1.00  0.00    -0.299 OA
ENDROOT
BRANCH   1   3
ATOM      3  C   UNL     1      14.586  18.630  17.332  1.00  0.00     0.053 C 
ATOM      4  C   UNL     1      15.577  18.704  18.499  1.00  0.00     0.016 C 
BRANCH   3   5
ATOM      5  C   UNL     1      13.845  19.977  17.173  1.00  0.00     0.015 C 
BRANCH   5   6
ATOM      6  C   UNL     1      12.312  19.859  17.270  1.00  0.00     0.028 C 
BRANCH   6   7
ATOM      7  C   UNL     1      11.631  20.380  16.025  1.00  0.00    -0.028 C 
ATOM      8  C   UNL     1      10.999  19.640  15.083  1.00  0.00    -0.070 CG0
ATOM      9  C   UNL     1      10.352  20.369  13.932  1.00  0.00     0.039 C 
ATOM     10  G   UNL     1      10.970  18.126  15.081  1.00  0.00     0.000 G0
ENDBRANCH   6   7
ENDBRANCH   5   6
ENDBRANCH   3   5
ENDBRANCH   1   3
BRANCH   1  11
ATOM     11  C   UNL     1      14.570  17.943  14.797  1.00  0.00     0.087 C 
BRANCH  11  12
ATOM     12  C   UNL     1      13.347  17.028  15.029  1.00  0.00     0.066 C 
BRANCH  12  13
ATOM     13  C   UNL     1      12.127  17.566  14.304  1.00  0.00     0.140 C 
ATOM     14  O   UNL     1      12.105  17.591  13.082  1.00  0.00    -0.299 OA
BRANCH  13  15
ATOM     15  C   UNL     1      10.951  18.119  15.063  1.00  0.00     0.106 CG0
ATOM     16  G   UNL     1      11.014  19.633  15.087  1.00  0.00     0.000 G0
ENDBRANCH  13  15
ENDBRANCH  12  13
BRANCH  12  17
ATOM     17  C   UNL     1      13.647  15.537  14.687  1.00  0.00    -0.006 C 
ATOM     18  C   UNL     1      14.351  14.757  15.811  1.00  0.00     0.008 C 
ATOM     19  C   UNL     1      14.451  15.419  13.383  1.00  0.00     0.008 C 
ENDBRANCH  12  17
ENDBRANCH  11  12
ENDBRANCH   1  11
TORSDOF 1
ENDMDL
MODEL 5
REMARK VINA RESULT:    -3.060      1.355      1.731
REMARK INTER + INTRA:          -4.967
REMARK INTER:                  -4.878
REMARK INTRA:                  -0.089
REMARK UNBOUND:                -0.297
REMARK SMILES CC1=CCC[C@H](C)C(=O)C[C@H](C(C)C)C(=O)C1
REMARK SMILES IDX 8 1 9 2 6 3 7 4 5 5 4 6 3 7 2 8 1 9 10 11 11 12 15 13 16 14
REMARK SMILES IDX 17 15 12 17 13 18 14 19
REMARK H PARENT
REMARK Flexibility Score: 70.00
ROOT
ATOM      1  C   UNL     1      13.448  18.560  16.842  1.00  0.00     0.136 C 
ATOM      2  O   UNL     1      14.079  18.010  17.734  1.00  0.00    -0.299 OA
ENDROOT
BRANCH   1   3
ATOM      3  C   UNL     1      12.405  19.601  17.187  1.00  0.00     0.053 C 
ATOM      4  C   UNL     1      12.645  20.856  16.341  1.00  0.00     0.016 C 
BRANCH   3   5
ATOM      5  C   UNL     1      10.961  19.088  16.984  1.00  0.00     0.015 C 
BRANCH   5   6
ATOM      6  C   UNL     1      10.290  19.612  15.700  1.00  0.00     0.028 C 
BRANCH   6   7
ATOM      7  C   UNL     1       9.556  18.513  14.964  1.00  0.00    -0.028 C 
ATOM      8  C   UNL     1      10.096  17.629  14.092  1.00  0.00    -0.070 CG0
ATOM      9  C   UNL     1       9.186  16.585  13.494  1.00  0.00     0.039 C 
ATOM     10  G   UNL     1      11.537  17.676  13.628  1.00  0.00     0.000 G0
ENDBRANCH   6   7
ENDBRANCH   5   6
ENDBRANCH   3   5
ENDBRANCH   1   3
BRANCH   1  11
ATOM     11  C   UNL     1      13.701  18.170  15.406  1.00  0.00     0.087 C 
BRANCH  11  12
ATOM     12  C   UNL     1      13.419  16.672  15.153  1.00  0.00     0.066 C 
BRANCH  12  13
ATOM     13  C   UNL     1      12.323  16.497  14.119  1.00  0.00     0.140 C 
ATOM     14  O   UNL     1      12.090  15.388  13.659  1.00  0.00    -0.299 OA
BRANCH  13  15
ATOM     15  C   UNL     1      11.540  17.675  13.606  1.00  0.00     0.106 CG0
ATOM     16  G   UNL     1      10.111  17.606  14.103  1.00  0.00     0.000 G0
ENDBRANCH  13  15
ENDBRANCH  12  13
BRANCH  12  17
ATOM     17  C   UNL     1      14.714  15.875  14.806  1.00  0.00    -0.006 C 
ATOM     18  C   UNL     1      15.135  14.851  15.875  1.00  0.00     0.008 C 
ATOM     19  C   UNL     1      15.883  16.824  14.498  1.00  0.00     0.008 C 
ENDBRANCH  12  17
ENDBRANCH  11  12
ENDBRANCH   1  11
TORSDOF 1
ENDMDL
MODEL 6
REMARK VINA RESULT:    -2.955      2.192      4.645
REMARK INTER + INTRA:          -4.806
REMARK INTER:                  -4.456
REMARK INTRA:                  -0.350
REMARK UNBOUND:                -0.297
REMARK SMILES CC1=CCC[C@H](C)C(=O)C[C@H](C(C)C)C(=O)C1
REMARK SMILES IDX 8 1 9 2 6 3 7 4 5 5 4 6 3 7 2 8 1 9 10 11 11 12 15 13 16 14
REMARK SMILES IDX 17 15 12 17 13 18 14 19
REMARK H PARENT
REMARK Flexibility Score: 70.00
ROOT
ATOM      1  C   UNL     1      11.411  18.901  14.329  1.00  0.00     0.136 C 
ATOM      2  O   UNL     1      10.942  19.808  13.656  1.00  0.00    -0.299 OA
ENDROOT
BRANCH   1   3
ATOM      3  C   UNL     1      10.518  17.776  14.807  1.00  0.00     0.053 C 
ATOM      4  C   UNL     1       9.134  18.339  15.148  1.00  0.00     0.016 C 
BRANCH   3   5
ATOM      5  C   UNL     1      10.391  16.634  13.772  1.00  0.00     0.015 C 
BRANCH   5   6
ATOM      6  C   UNL     1      11.726  16.246  13.109  1.00  0.00     0.028 C 
BRANCH   6   7
ATOM      7  C   UNL     1      12.410  15.117  13.848  1.00  0.00    -0.028 C 
ATOM      8  C   UNL     1      13.596  15.184  14.499  1.00  0.00    -0.070 CG0
ATOM      9  C   UNL     1      14.082  13.944  15.205  1.00  0.00     0.039 C 
ATOM     10  G   UNL     1      14.492  16.406  14.495  1.00  0.00     0.000 G0
ENDBRANCH   6   7
ENDBRANCH   5   6
ENDBRANCH   3   5
ENDBRANCH   1   3
BRANCH   1  11
ATOM     11  C   UNL     1      12.875  18.931  14.698  1.00  0.00     0.087 C 
BRANCH  11  12
ATOM     12  C   UNL     1      13.164  18.132  15.989  1.00  0.00     0.066 C 
BRANCH  12  13
ATOM     13  C   UNL     1      14.332  17.186  15.786  1.00  0.00     0.140 C 
ATOM     14  O   UNL     1      15.183  17.071  16.657  1.00  0.00    -0.299 OA
BRANCH  13  15
ATOM     15  C   UNL     1      14.496  16.413  14.505  1.00  0.00     0.106 CG0
ATOM     16  G   UNL     1      13.593  15.196  14.513  1.00  0.00     0.000 G0
ENDBRANCH  13  15
ENDBRANCH  12  13
BRANCH  12  17
ATOM     17  C   UNL     1      13.340  19.056  17.232  1.00  0.00    -0.006 C 
ATOM     18  C   UNL     1      12.081  19.187  18.109  1.00  0.00     0.008 C 
ATOM     19  C   UNL     1      13.840  20.449  16.821  1.00  0.00     0.008 C 
ENDBRANCH  12  17
ENDBRANCH  11  12
ENDBRANCH   1  11
TORSDOF 1
ENDMDL
MODEL 7
REMARK VINA RESULT:    -2.918      2.160      3.897
REMARK INTER + INTRA:          -4.750
REMARK INTER:                  -4.643
REMARK INTRA:                  -0.107
REMARK UNBOUND:                -0.297
REMARK SMILES CC1=CCC[C@H](C)C(=O)C[C@H](C(C)C)C(=O)C1
REMARK SMILES IDX 8 1 9 2 6 3 7 4 5 5 4 6 3 7 2 8 1 9 10 11 11 12 15 13 16 14
REMARK SMILES IDX 17 15 12 17 13 18 14 19
REMARK H PARENT
REMARK Flexibility Score: 70.00
ROOT
ATOM      1  C   UNL     1      12.930  19.410  17.158  1.00  0.00     0.136 C 
ATOM      2  O   UNL     1      12.183  18.751  17.867  1.00  0.00    -0.299 OA
ENDROOT
BRANCH   1   3
ATOM      3  C   UNL     1      14.311  18.889  16.824  1.00  0.00     0.053 C 
ATOM      4  C   UNL     1      15.133  18.776  18.112  1.00  0.00     0.016 C 
BRANCH   3   5
ATOM      5  C   UNL     1      14.274  17.528  16.092  1.00  0.00     0.015 C 
BRANCH   5   6
ATOM      6  C   UNL     1      13.865  17.632  14.610  1.00  0.00     0.028 C 
BRANCH   6   7
ATOM      7  C   UNL     1      12.515  16.997  14.357  1.00  0.00    -0.028 C 
ATOM      8  C   UNL     1      11.442  17.590  13.783  1.00  0.00    -0.070 CG0
ATOM      9  C   UNL     1      10.197  16.760  13.593  1.00  0.00     0.039 C 
ATOM     10  G   UNL     1      11.395  19.053  13.393  1.00  0.00     0.000 G0
ENDBRANCH   6   7
ENDBRANCH   5   6
ENDBRANCH   3   5
ENDBRANCH   1   3
BRANCH   1  11
ATOM     11  C   UNL     1      12.471  20.755  16.647  1.00  0.00     0.087 C 
BRANCH  11  12
ATOM     12  C   UNL     1      12.384  20.791  15.105  1.00  0.00     0.066 C 
BRANCH  12  13
ATOM     13  C   UNL     1      11.240  19.928  14.610  1.00  0.00     0.140 C 
ATOM     14  O   UNL     1      10.185  19.899  15.227  1.00  0.00    -0.299 OA
BRANCH  13  15
ATOM     15  C   UNL     1      11.391  19.060  13.389  1.00  0.00     0.106 CG0
ATOM     16  G   UNL     1      11.440  17.601  13.793  1.00  0.00     0.000 G0
ENDBRANCH  13  15
ENDBRANCH  12  13
BRANCH  12  17
ATOM     17  C   UNL     1      12.332  22.247  14.547  1.00  0.00    -0.006 C 
ATOM     18  C   UNL     1      13.583  22.668  13.756  1.00  0.00     0.008 C 
ATOM     19  C   UNL     1      12.055  23.260  15.669  1.00  0.00     0.008 C 
ENDBRANCH  12  17
ENDBRANCH  11  12
ENDBRANCH   1  11
TORSDOF 1
ENDMDL
MODEL 8
REMARK VINA RESULT:    -2.904      1.845      3.985
REMARK INTER + INTRA:          -4.729
REMARK INTER:                  -4.620
REMARK INTRA:                  -0.109
REMARK UNBOUND:                -0.297
REMARK SMILES CC1=CCC[C@H](C)C(=O)C[C@H](C(C)C)C(=O)C1
REMARK SMILES IDX 8 1 9 2 6 3 7 4 5 5 4 6 3 7 2 8 1 9 10 11 11 12 15 13 16 14
REMARK SMILES IDX 17 15 12 17 13 18 14 19
REMARK H PARENT
REMARK Flexibility Score: 70.00
ROOT
ATOM      1  C   UNL     1      14.764  17.857  16.537  1.00  0.00     0.136 C 
ATOM      2  O   UNL     1      15.430  18.279  17.471  1.00  0.00    -0.299 OA
ENDROOT
BRANCH   1   3
ATOM      3  C   UNL     1      15.451  17.271  15.323  1.00  0.00     0.053 C 
ATOM      4  C   UNL     1      16.970  17.379  15.500  1.00  0.00     0.016 C 
BRANCH   3   5
ATOM      5  C   UNL     1      15.047  15.803  15.058  1.00  0.00     0.015 C 
BRANCH   5   6
ATOM      6  C   UNL     1      14.387  15.578  13.684  1.00  0.00     0.028 C 
BRANCH   6   7
ATOM      7  C   UNL     1      12.967  15.075  13.821  1.00  0.00    -0.028 C 
ATOM      8  C   UNL     1      11.837  15.805  13.670  1.00  0.00    -0.070 CG0
ATOM      9  C   UNL     1      10.515  15.095  13.816  1.00  0.00     0.039 C 
ATOM     10  G   UNL     1      11.825  17.303  13.439  1.00  0.00     0.000 G0
ENDBRANCH   6   7
ENDBRANCH   5   6
ENDBRANCH   3   5
ENDBRANCH   1   3
BRANCH   1  11
ATOM     11  C   UNL     1      13.258  17.952  16.597  1.00  0.00     0.087 C 
BRANCH  11  12
ATOM     12  C   UNL     1      12.684  18.801  15.442  1.00  0.00     0.066 C 
BRANCH  12  13
ATOM     13  C   UNL     1      11.576  18.054  14.723  1.00  0.00     0.140 C 
ATOM     14  O   UNL     1      10.457  18.005  15.210  1.00  0.00    -0.299 OA
BRANCH  13  15
ATOM     15  C   UNL     1      11.839  17.323  13.434  1.00  0.00     0.106 CG0
ATOM     16  G   UNL     1      11.841  15.827  13.676  1.00  0.00     0.000 G0
ENDBRANCH  13  15
ENDBRANCH  12  13
BRANCH  12  17
ATOM     17  C   UNL     1      12.252  20.225  15.908  1.00  0.00    -0.006 C 
ATOM     18  C   UNL     1      13.310  21.318  15.675  1.00  0.00     0.008 C 
ATOM     19  C   UNL     1      11.820  20.217  17.383  1.00  0.00     0.008 C 
ENDBRANCH  12  17
ENDBRANCH  11  12
ENDBRANCH   1  11
TORSDOF 1
ENDMDL
MODEL 9
REMARK VINA RESULT:    -2.860      5.698      7.732
REMARK INTER + INTRA:          -4.661
REMARK INTER:                  -4.370
REMARK INTRA:                  -0.291
REMARK UNBOUND:                -0.297
REMARK SMILES CC1=CCC[C@H](C)C(=O)C[C@H](C(C)C)C(=O)C1
REMARK SMILES IDX 8 1 9 2 6 3 7 4 5 5 4 6 3 7 2 8 1 9 10 11 11 12 15 13 16 14
REMARK SMILES IDX 17 15 12 17 13 18 14 19
REMARK H PARENT
REMARK Flexibility Score: 70.00
ROOT
ATOM      1  C   UNL     1      15.231  25.880  15.565  1.00  0.00     0.136 C 
ATOM      2  O   UNL     1      16.236  25.998  16.251  1.00  0.00    -0.299 OA
ENDROOT
BRANCH   1   3
ATOM      3  C   UNL     1      15.351  25.449  14.118  1.00  0.00     0.053 C 
ATOM      4  C   UNL     1      16.493  26.225  13.453  1.00  0.00     0.016 C 
BRANCH   3   5
ATOM      5  C   UNL     1      15.577  23.928  13.965  1.00  0.00     0.015 C 
BRANCH   5   6
ATOM      6  C   UNL     1      14.317  23.153  13.535  1.00  0.00     0.028 C 
BRANCH   6   7
ATOM      7  C   UNL     1      13.815  22.247  14.637  1.00  0.00    -0.028 C 
ATOM      8  C   UNL     1      12.614  22.323  15.258  1.00  0.00    -0.070 CG0
ATOM      9  C   UNL     1      12.299  21.292  16.312  1.00  0.00     0.039 C 
ATOM     10  G   UNL     1      11.605  23.426  15.008  1.00  0.00     0.000 G0
ENDBRANCH   6   7
ENDBRANCH   5   6
ENDBRANCH   3   5
ENDBRANCH   1   3
BRANCH   1  11
ATOM     11  C   UNL     1      13.881  26.193  16.165  1.00  0.00     0.087 C 
BRANCH  11  12
ATOM     12  C   UNL     1      12.722  25.797  15.224  1.00  0.00     0.066 C 
BRANCH  12  13
ATOM     13  C   UNL     1      11.915  24.656  15.813  1.00  0.00     0.140 C 
ATOM     14  O   UNL     1      11.551  24.704  16.979  1.00  0.00    -0.299 OA
BRANCH  13  15
ATOM     15  C   UNL     1      11.589  23.431  15.001  1.00  0.00     0.106 CG0
ATOM     16  G   UNL     1      12.617  22.348  15.260  1.00  0.00     0.000 G0
ENDBRANCH  13  15
ENDBRANCH  12  13
BRANCH  12  17
ATOM     17  C   UNL     1      11.841  27.019  14.821  1.00  0.00    -0.006 C 
ATOM     18  C   UNL     1      11.278  26.952  13.390  1.00  0.00     0.008 C 
ATOM     19  C   UNL     1      12.599  28.340  15.025  1.00  0.00     0.008 C 
ENDBRANCH  12  17
ENDBRANCH  11  12
ENDBRANCH   1  11
TORSDOF 1
ENDMDL
