MODEL 1
REMARK VINA RESULT:    -3.023      0.000      0.000
REMARK INTER + INTRA:          -3.753
REMARK INTER:                  -3.642
REMARK INTRA:                  -0.112
REMARK UNBOUND:                -0.112
REMARK SMILES CC[C@@H](C)[C@@H]([NH3+])C(=O)[O-]
REMARK SMILES IDX 3 1 4 2 5 3 6 4 7 8 8 9 9 10 2 11 1 12
REMARK H PARENT 6 5 6 6 6 7
REMARK Flexibility Score: inf
ROOT
ATOM      1  C   UNL     1      15.490  10.335  28.792  1.00  0.00     0.050 C 
ATOM      2  C   UNL     1      15.872   9.066  27.997  1.00  0.00     0.014 C 
ENDROOT
BRANCH   1   3
ATOM      3  C   UNL     1      16.550  11.461  28.558  1.00  0.00     0.230 C 
BRANCH   3   4
ATOM      4  N   UNL     1      16.062  12.783  28.983  1.00  0.00    -0.350 N 
ATOM      5  H   UNL     1      15.019  12.831  28.920  1.00  0.00     0.345 HD
ATOM      6  H   UNL     1      16.351  12.974  29.971  1.00  0.00     0.345 HD
ATOM      7  H   UNL     1      16.488  13.533  28.394  1.00  0.00     0.345 HD
ENDBRANCH   3   4
BRANCH   3   8
ATOM      8  C   UNL     1      17.838  11.150  29.282  1.00  0.00     0.099 C 
ATOM      9  O   UNL     1      17.880  11.163  30.541  1.00  0.00    -0.544 OA
ATOM     10  O   UNL     1      18.985  10.846  28.560  1.00  0.00    -0.544 OA
ENDBRANCH   3   8
ENDBRANCH   1   3
BRANCH   1  11
ATOM     11  C   UNL     1      14.061  10.808  28.412  1.00  0.00     0.006 C 
ATOM     12  C   UNL     1      13.648  10.427  26.988  1.00  0.00     0.004 C 
ENDBRANCH   1  11
TORSDOF 4
ENDMDL
MODEL 2
REMARK VINA RESULT:    -2.993      1.439      1.548
REMARK INTER + INTRA:          -3.717
REMARK INTER:                  -3.821
REMARK INTRA:                   0.104
REMARK UNBOUND:                -0.112
REMARK SMILES CC[C@@H](C)[C@@H]([NH3+])C(=O)[O-]
REMARK SMILES IDX 3 1 4 2 5 3 6 4 7 8 8 9 9 10 2 11 1 12
REMARK H PARENT 6 5 6 6 6 7
REMARK Flexibility Score: inf
ROOT
ATOM      1  C   UNL     1      15.192  10.308  29.205  1.00  0.00     0.050 C 
ATOM      2  C   UNL     1      15.859   9.360  28.185  1.00  0.00     0.014 C 
ENDROOT
BRANCH   1   3
ATOM      3  C   UNL     1      16.236  11.336  29.754  1.00  0.00     0.230 C 
BRANCH   3   4
ATOM      4  N   UNL     1      16.923  10.844  30.960  1.00  0.00    -0.350 N 
ATOM      5  H   UNL     1      17.941  11.082  30.930  1.00  0.00     0.345 HD
ATOM      6  H   UNL     1      16.500  11.272  31.816  1.00  0.00     0.345 HD
ATOM      7  H   UNL     1      16.802   9.809  31.048  1.00  0.00     0.345 HD
ENDBRANCH   3   4
BRANCH   3   8
ATOM      8  C   UNL     1      17.264  11.677  28.702  1.00  0.00     0.099 C 
ATOM      9  O   UNL     1      17.048  12.602  27.875  1.00  0.00    -0.544 OA
ATOM     10  O   UNL     1      18.458  10.968  28.641  1.00  0.00    -0.544 OA
ENDBRANCH   3   8
ENDBRANCH   1   3
BRANCH   1  11
ATOM     11  C   UNL     1      13.969  11.022  28.569  1.00  0.00     0.006 C 
ATOM     12  C   UNL     1      13.648  10.541  27.153  1.00  0.00     0.004 C 
ENDBRANCH   1  11
TORSDOF 4
ENDMDL
MODEL 3
REMARK VINA RESULT:    -2.991     20.043     21.164
REMARK INTER + INTRA:          -3.714
REMARK INTER:                  -3.639
REMARK INTRA:                  -0.075
REMARK UNBOUND:                -0.112
REMARK SMILES CC[C@@H](C)[C@@H]([NH3+])C(=O)[O-]
REMARK SMILES IDX 3 1 4 2 5 3 6 4 7 8 8 9 9 10 2 11 1 12
REMARK H PARENT 6 5 6 6 6 7
REMARK Flexibility Score: inf
ROOT
ATOM      1  C   UNL     1      17.802  -5.648  16.849  1.00  0.00     0.050 C 
ATOM      2  C   UNL     1      19.035  -6.076  17.674  1.00  0.00     0.014 C 
ENDROOT
BRANCH   1   3
ATOM      3  C   UNL     1      17.869  -6.263  15.412  1.00  0.00     0.230 C 
BRANCH   3   4
ATOM      4  N   UNL     1      16.668  -7.048  15.085  1.00  0.00    -0.350 N 
ATOM      5  H   UNL     1      15.907  -6.428  14.722  1.00  0.00     0.345 HD
ATOM      6  H   UNL     1      16.893  -7.768  14.360  1.00  0.00     0.345 HD
ATOM      7  H   UNL     1      16.332  -7.564  15.930  1.00  0.00     0.345 HD
ENDBRANCH   3   4
BRANCH   3   8
ATOM      8  C   UNL     1      18.057  -5.185  14.372  1.00  0.00     0.099 C 
ATOM      9  O   UNL     1      18.771  -4.178  14.619  1.00  0.00    -0.544 OA
ATOM     10  O   UNL     1      17.440  -5.302  13.132  1.00  0.00    -0.544 OA
ENDBRANCH   3   8
ENDBRANCH   1   3
BRANCH   1  11
ATOM     11  C   UNL     1      16.491  -6.046  17.579  1.00  0.00     0.006 C 
ATOM     12  C   UNL     1      16.256  -5.275  18.880  1.00  0.00     0.004 C 
ENDBRANCH   1  11
TORSDOF 4
ENDMDL
MODEL 4
REMARK VINA RESULT:    -2.980      2.184      2.830
REMARK INTER + INTRA:          -3.701
REMARK INTER:                  -3.629
REMARK INTRA:                  -0.072
REMARK UNBOUND:                -0.112
REMARK SMILES CC[C@@H](C)[C@@H]([NH3+])C(=O)[O-]
REMARK SMILES IDX 3 1 4 2 5 3 6 4 7 8 8 9 9 10 2 11 1 12
REMARK H PARENT 6 5 6 6 6 7
REMARK Flexibility Score: inf
ROOT
ATOM      1  C   UNL     1      15.484  10.433  29.208  1.00  0.00     0.050 C 
ATOM      2  C   UNL     1      16.713  10.957  28.433  1.00  0.00     0.014 C 
ENDROOT
BRANCH   1   3
ATOM      3  C   UNL     1      15.344  11.181  30.575  1.00  0.00     0.230 C 
BRANCH   3   4
ATOM      4  N   UNL     1      13.992  11.728  30.775  1.00  0.00    -0.350 N 
ATOM      5  H   UNL     1      13.929  12.706  30.409  1.00  0.00     0.345 HD
ATOM      6  H   UNL     1      13.285  11.135  30.280  1.00  0.00     0.345 HD
ATOM      7  H   UNL     1      13.742  11.712  31.790  1.00  0.00     0.345 HD
ENDBRANCH   3   4
BRANCH   3   8
ATOM      8  C   UNL     1      15.687  10.269  31.727  1.00  0.00     0.099 C 
ATOM      9  O   UNL     1      16.516   9.333  31.574  1.00  0.00    -0.544 OA
ATOM     10  O   UNL     1      15.090  10.461  32.967  1.00  0.00    -0.544 OA
ENDBRANCH   3   8
ENDBRANCH   1   3
BRANCH   1  11
ATOM     11  C   UNL     1      14.198  10.570  28.348  1.00  0.00     0.006 C 
ATOM     12  C   UNL     1      14.292   9.872  26.990  1.00  0.00     0.004 C 
ENDBRANCH   1  11
TORSDOF 4
ENDMDL
MODEL 5
REMARK VINA RESULT:    -2.912      1.918      2.440
REMARK INTER + INTRA:          -3.619
REMARK INTER:                  -3.529
REMARK INTRA:                  -0.090
REMARK UNBOUND:                -0.112
REMARK SMILES CC[C@@H](C)[C@@H]([NH3+])C(=O)[O-]
REMARK SMILES IDX 3 1 4 2 5 3 6 4 7 8 8 9 9 10 2 11 1 12
REMARK H PARENT 6 5 6 6 6 7
REMARK Flexibility Score: inf
ROOT
ATOM      1  C   UNL     1      14.514  10.596  27.801  1.00  0.00     0.050 C 
ATOM      2  C   UNL     1      14.278   9.475  26.766  1.00  0.00     0.014 C 
ENDROOT
BRANCH   1   3
ATOM      3  C   UNL     1      15.840  10.337  28.590  1.00  0.00     0.230 C 
BRANCH   3   4
ATOM      4  N   UNL     1      16.889  11.313  28.253  1.00  0.00    -0.350 N 
ATOM      5  H   UNL     1      16.863  12.127  28.910  1.00  0.00     0.345 HD
ATOM      6  H   UNL     1      17.833  10.862  28.310  1.00  0.00     0.345 HD
ATOM      7  H   UNL     1      16.772  11.645  27.270  1.00  0.00     0.345 HD
ENDBRANCH   3   4
BRANCH   3   8
ATOM      8  C   UNL     1      15.596  10.365  30.080  1.00  0.00     0.099 C 
ATOM      9  O   UNL     1      16.299   9.663  30.854  1.00  0.00    -0.544 OA
ATOM     10  O   UNL     1      14.591  11.169  30.605  1.00  0.00    -0.544 OA
ENDBRANCH   3   8
ENDBRANCH   1   3
BRANCH   1  11
ATOM     11  C   UNL     1      14.526  11.985  27.107  1.00  0.00     0.006 C 
ATOM     12  C   UNL     1      13.977  11.962  25.679  1.00  0.00     0.004 C 
ENDBRANCH   1  11
TORSDOF 4
ENDMDL
MODEL 6
REMARK VINA RESULT:    -2.887      1.333      2.063
REMARK INTER + INTRA:          -3.589
REMARK INTER:                  -3.441
REMARK INTRA:                  -0.147
REMARK UNBOUND:                -0.112
REMARK SMILES CC[C@@H](C)[C@@H]([NH3+])C(=O)[O-]
REMARK SMILES IDX 3 1 4 2 5 3 6 4 7 8 8 9 9 10 2 11 1 12
REMARK H PARENT 6 5 6 6 6 7
REMARK Flexibility Score: inf
ROOT
ATOM      1  C   UNL     1      15.812  10.495  28.775  1.00  0.00     0.050 C 
ATOM      2  C   UNL     1      14.753  10.030  27.751  1.00  0.00     0.014 C 
ENDROOT
BRANCH   1   3
ATOM      3  C   UNL     1      16.534  11.785  28.261  1.00  0.00     0.230 C 
BRANCH   3   4
ATOM      4  N   UNL     1      15.936  13.014  28.809  1.00  0.00    -0.350 N 
ATOM      5  H   UNL     1      16.680  13.687  29.105  1.00  0.00     0.345 HD
ATOM      6  H   UNL     1      15.331  13.473  28.088  1.00  0.00     0.345 HD
ATOM      7  H   UNL     1      15.319  12.786  29.621  1.00  0.00     0.345 HD
ENDBRANCH   3   4
BRANCH   3   8
ATOM      8  C   UNL     1      18.004  11.752  28.602  1.00  0.00     0.099 C 
ATOM      9  O   UNL     1      18.602  12.807  28.944  1.00  0.00    -0.544 OA
ATOM     10  O   UNL     1      18.705  10.555  28.540  1.00  0.00    -0.544 OA
ENDBRANCH   3   8
ENDBRANCH   1   3
BRANCH   1  11
ATOM     11  C   UNL     1      15.163  10.721  30.167  1.00  0.00     0.006 C 
ATOM     12  C   UNL     1      16.024  10.227  31.331  1.00  0.00     0.004 C 
ENDBRANCH   1  11
TORSDOF 4
ENDMDL
MODEL 7
REMARK VINA RESULT:    -2.850      1.534      2.205
REMARK INTER + INTRA:          -3.545
REMARK INTER:                  -3.439
REMARK INTRA:                  -0.106
REMARK UNBOUND:                -0.112
REMARK SMILES CC[C@@H](C)[C@@H]([NH3+])C(=O)[O-]
REMARK SMILES IDX 3 1 4 2 5 3 6 4 7 8 8 9 9 10 2 11 1 12
REMARK H PARENT 6 5 6 6 6 7
REMARK Flexibility Score: inf
ROOT
ATOM      1  C   UNL     1      16.449  10.980  28.561  1.00  0.00     0.050 C 
ATOM      2  C   UNL     1      15.918  12.206  27.787  1.00  0.00     0.014 C 
ENDROOT
BRANCH   1   3
ATOM      3  C   UNL     1      16.521  11.294  30.092  1.00  0.00     0.230 C 
BRANCH   3   4
ATOM      4  N   UNL     1      15.840  10.272  30.904  1.00  0.00    -0.350 N 
ATOM      5  H   UNL     1      16.518   9.793  31.542  1.00  0.00     0.345 HD
ATOM      6  H   UNL     1      15.086  10.713  31.481  1.00  0.00     0.345 HD
ATOM      7  H   UNL     1      15.376   9.569  30.286  1.00  0.00     0.345 HD
ENDBRANCH   3   4
BRANCH   3   8
ATOM      8  C   UNL     1      17.954  11.419  30.551  1.00  0.00     0.099 C 
ATOM      9  O   UNL     1      18.901  11.238  29.740  1.00  0.00    -0.544 OA
ATOM     10  O   UNL     1      18.235  11.737  31.874  1.00  0.00    -0.544 OA
ENDBRANCH   3   8
ENDBRANCH   1   3
BRANCH   1  11
ATOM     11  C   UNL     1      15.570   9.732  28.276  1.00  0.00     0.006 C 
ATOM     12  C   UNL     1      14.417  10.003  27.308  1.00  0.00     0.004 C 
ENDBRANCH   1  11
TORSDOF 4
ENDMDL
MODEL 8
REMARK VINA RESULT:    -2.846      1.733      2.300
REMARK INTER + INTRA:          -3.540
REMARK INTER:                  -3.413
REMARK INTRA:                  -0.127
REMARK UNBOUND:                -0.112
REMARK SMILES CC[C@@H](C)[C@@H]([NH3+])C(=O)[O-]
REMARK SMILES IDX 3 1 4 2 5 3 6 4 7 8 8 9 9 10 2 11 1 12
REMARK H PARENT 6 5 6 6 6 7
REMARK Flexibility Score: inf
ROOT
ATOM      1  C   UNL     1      14.591  11.375  28.375  1.00  0.00     0.050 C 
ATOM      2  C   UNL     1      13.653  11.592  29.582  1.00  0.00     0.014 C 
ENDROOT
BRANCH   1   3
ATOM      3  C   UNL     1      15.802  10.472  28.784  1.00  0.00     0.230 C 
BRANCH   3   4
ATOM      4  N   UNL     1      15.823   9.200  28.044  1.00  0.00    -0.350 N 
ATOM      5  H   UNL     1      16.342   8.467  28.581  1.00  0.00     0.345 HD
ATOM      6  H   UNL     1      14.846   8.865  27.872  1.00  0.00     0.345 HD
ATOM      7  H   UNL     1      16.265   9.334  27.106  1.00  0.00     0.345 HD
ENDBRANCH   3   4
BRANCH   3   8
ATOM      8  C   UNL     1      17.110  11.193  28.570  1.00  0.00     0.099 C 
ATOM      9  O   UNL     1      18.190  10.548  28.502  1.00  0.00    -0.544 OA
ATOM     10  O   UNL     1      17.129  12.577  28.444  1.00  0.00    -0.544 OA
ENDBRANCH   3   8
ENDBRANCH   1   3
BRANCH   1  11
ATOM     11  C   UNL     1      13.809  10.773  27.177  1.00  0.00     0.006 C 
ATOM     12  C   UNL     1      13.943  11.586  25.887  1.00  0.00     0.004 C 
ENDBRANCH   1  11
TORSDOF 4
ENDMDL
MODEL 9
REMARK VINA RESULT:    -2.840      2.891      3.896
REMARK INTER + INTRA:          -3.533
REMARK INTER:                  -3.460
REMARK INTRA:                  -0.072
REMARK UNBOUND:                -0.112
REMARK SMILES CC[C@@H](C)[C@@H]([NH3+])C(=O)[O-]
REMARK SMILES IDX 3 1 4 2 5 3 6 4 7 8 8 9 9 10 2 11 1 12
REMARK H PARENT 6 5 6 6 6 7
REMARK Flexibility Score: inf
ROOT
ATOM      1  C   UNL     1      15.717  10.395  28.890  1.00  0.00     0.050 C 
ATOM      2  C   UNL     1      15.749  10.324  30.432  1.00  0.00     0.014 C 
ENDROOT
BRANCH   1   3
ATOM      3  C   UNL     1      14.242  10.520  28.383  1.00  0.00     0.230 C 
BRANCH   3   4
ATOM      4  N   UNL     1      13.668  11.847  28.660  1.00  0.00    -0.350 N 
ATOM      5  H   UNL     1      12.739  11.954  28.188  1.00  0.00     0.345 HD
ATOM      6  H   UNL     1      13.541  11.978  29.690  1.00  0.00     0.345 HD
ATOM      7  H   UNL     1      14.319  12.598  28.337  1.00  0.00     0.345 HD
ENDBRANCH   3   4
BRANCH   3   8
ATOM      8  C   UNL     1      14.154  10.239  26.903  1.00  0.00     0.099 C 
ATOM      9  O   UNL     1      13.959  11.178  26.086  1.00  0.00    -0.544 OA
ATOM     10  O   UNL     1      14.290   8.939  26.432  1.00  0.00    -0.544 OA
ENDBRANCH   3   8
ENDBRANCH   1   3
BRANCH   1  11
ATOM     11  C   UNL     1      16.597  11.567  28.379  1.00  0.00     0.006 C 
ATOM     12  C   UNL     1      18.084  11.400  28.695  1.00  0.00     0.004 C 
ENDBRANCH   1  11
TORSDOF 4
ENDMDL
