MODEL 1
REMARK VINA RESULT:    -3.869      0.000      0.000
REMARK INTER + INTRA:          -6.256
REMARK INTER:                  -5.678
REMARK INTRA:                  -0.578
REMARK UNBOUND:                -0.578
REMARK SMILES O=C([O-])CCCCCCCC(=O)[O-]
REMARK SMILES IDX 7 1 6 2 5 3 4 4 2 5 1 6 3 7 8 8 9 9 10 10 11 11 12 12 13 13
REMARK H PARENT
REMARK Flexibility Score: inf
ROOT
ATOM      1  C   UNL     1      -2.300  16.841  -5.292  1.00  0.00     0.000 C 
ENDROOT
BRANCH   1   2
ATOM      2  C   UNL     1      -0.771  16.979  -5.394  1.00  0.00     0.000 C 
BRANCH   2   3
ATOM      3  C   UNL     1      -0.092  17.054  -4.018  1.00  0.00     0.006 C 
BRANCH   3   4
ATOM      4  C   UNL     1      -0.124  15.714  -3.272  1.00  0.00     0.053 C 
BRANCH   4   5
ATOM      5  C   UNL     1      -0.781  15.874  -1.938  1.00  0.00     0.041 C 
ATOM      6  O   UNL     1      -0.088  15.892  -0.887  1.00  0.00    -0.550 OA
ATOM      7  O   UNL     1      -2.165  15.955  -1.851  1.00  0.00    -0.550 OA
ENDBRANCH   4   5
ENDBRANCH   3   4
ENDBRANCH   2   3
ENDBRANCH   1   2
BRANCH   1   8
ATOM      8  C   UNL     1      -2.831  15.567  -5.974  1.00  0.00     0.000 C 
BRANCH   8   9
ATOM      9  C   UNL     1      -3.141  14.399  -5.016  1.00  0.00     0.006 C 
BRANCH   9  10
ATOM     10  C   UNL     1      -3.003  13.004  -5.645  1.00  0.00     0.053 C 
BRANCH  10  11
ATOM     11  C   UNL     1      -2.246  12.062  -4.759  1.00  0.00     0.041 C 
ATOM     12  O   UNL     1      -2.805  11.029  -4.307  1.00  0.00    -0.550 OA
ATOM     13  O   UNL     1      -0.932  12.344  -4.407  1.00  0.00    -0.550 OA
ENDBRANCH  10  11
ENDBRANCH   9  10
ENDBRANCH   8   9
ENDBRANCH   1   8
TORSDOF 8
ENDMDL
MODEL 2
REMARK VINA RESULT:    -3.847      0.834      4.229
REMARK INTER + INTRA:          -6.224
REMARK INTER:                  -5.494
REMARK INTRA:                  -0.730
REMARK UNBOUND:                -0.578
REMARK SMILES O=C([O-])CCCCCCCC(=O)[O-]
REMARK SMILES IDX 7 1 6 2 5 3 4 4 2 5 1 6 3 7 8 8 9 9 10 10 11 11 12 12 13 13
REMARK H PARENT
REMARK Flexibility Score: inf
ROOT
ATOM      1  C   UNL     1      -2.265  17.807  -5.649  1.00  0.00     0.000 C 
ENDROOT
BRANCH   1   2
ATOM      2  C   UNL     1      -3.074  16.588  -6.125  1.00  0.00     0.000 C 
BRANCH   2   3
ATOM      3  C   UNL     1      -2.267  15.282  -6.063  1.00  0.00     0.006 C 
BRANCH   3   4
ATOM      4  C   UNL     1      -3.152  14.057  -5.801  1.00  0.00     0.053 C 
BRANCH   4   5
ATOM      5  C   UNL     1      -2.434  13.071  -4.934  1.00  0.00     0.041 C 
ATOM      6  O   UNL     1      -1.235  13.269  -4.606  1.00  0.00    -0.550 OA
ATOM      7  O   UNL     1      -3.075  11.908  -4.527  1.00  0.00    -0.550 OA
ENDBRANCH   4   5
ENDBRANCH   3   4
ENDBRANCH   2   3
ENDBRANCH   1   2
BRANCH   1   8
ATOM      8  C   UNL     1      -0.747  17.556  -5.657  1.00  0.00     0.000 C 
BRANCH   8   9
ATOM      9  C   UNL     1      -0.058  17.694  -4.284  1.00  0.00     0.006 C 
BRANCH   9  10
ATOM     10  C   UNL     1       0.344  16.360  -3.636  1.00  0.00     0.053 C 
BRANCH  10  11
ATOM     11  C   UNL     1      -0.565  15.990  -2.504  1.00  0.00     0.041 C 
ATOM     12  O   UNL     1      -1.807  15.904  -2.689  1.00  0.00    -0.550 OA
ATOM     13  O   UNL     1      -0.042  15.775  -1.235  1.00  0.00    -0.550 OA
ENDBRANCH  10  11
ENDBRANCH   9  10
ENDBRANCH   8   9
ENDBRANCH   1   8
TORSDOF 8
ENDMDL
MODEL 3
REMARK VINA RESULT:    -3.376      1.632      2.227
REMARK INTER + INTRA:          -5.534
REMARK INTER:                  -5.007
REMARK INTRA:                  -0.527
REMARK UNBOUND:                -0.578
REMARK SMILES O=C([O-])CCCCCCCC(=O)[O-]
REMARK SMILES IDX 7 1 6 2 5 3 4 4 2 5 1 6 3 7 8 8 9 9 10 10 11 11 12 12 13 13
REMARK H PARENT
REMARK Flexibility Score: inf
ROOT
ATOM      1  C   UNL     1      -2.520  17.830  -5.322  1.00  0.00     0.000 C 
ENDROOT
BRANCH   1   2
ATOM      2  C   UNL     1      -1.527  18.690  -6.123  1.00  0.00     0.000 C 
BRANCH   2   3
ATOM      3  C   UNL     1      -0.088  18.159  -6.044  1.00  0.00     0.006 C 
BRANCH   3   4
ATOM      4  C   UNL     1       0.413  18.030  -4.600  1.00  0.00     0.053 C 
BRANCH   4   5
ATOM      5  C   UNL     1       0.551  16.588  -4.223  1.00  0.00     0.041 C 
ATOM      6  O   UNL     1       1.105  15.777  -5.010  1.00  0.00    -0.550 OA
ATOM      7  O   UNL     1       0.024  16.131  -3.022  1.00  0.00    -0.550 OA
ENDBRANCH   4   5
ENDBRANCH   3   4
ENDBRANCH   2   3
ENDBRANCH   1   2
BRANCH   1   8
ATOM      8  C   UNL     1      -2.841  16.491  -6.010  1.00  0.00     0.000 C 
BRANCH   8   9
ATOM      9  C   UNL     1      -2.854  15.266  -5.073  1.00  0.00     0.006 C 
BRANCH   9  10
ATOM     10  C   UNL     1      -2.881  13.910  -5.795  1.00  0.00     0.053 C 
BRANCH  10  11
ATOM     11  C   UNL     1      -2.287  12.818  -4.958  1.00  0.00     0.041 C 
ATOM     12  O   UNL     1      -1.125  12.937  -4.491  1.00  0.00    -0.550 OA
ATOM     13  O   UNL     1      -3.007  11.653  -4.724  1.00  0.00    -0.550 OA
ENDBRANCH  10  11
ENDBRANCH   9  10
ENDBRANCH   8   9
ENDBRANCH   1   8
TORSDOF 8
ENDMDL
MODEL 4
REMARK VINA RESULT:    -3.336      2.181      4.997
REMARK INTER + INTRA:          -5.475
REMARK INTER:                  -5.079
REMARK INTRA:                  -0.396
REMARK UNBOUND:                -0.578
REMARK SMILES O=C([O-])CCCCCCCC(=O)[O-]
REMARK SMILES IDX 7 1 6 2 5 3 4 4 2 5 1 6 3 7 8 8 9 9 10 10 11 11 12 12 13 13
REMARK H PARENT
REMARK Flexibility Score: inf
ROOT
ATOM      1  C   UNL     1      -2.549  17.199  -5.917  1.00  0.00     0.000 C 
ENDROOT
BRANCH   1   2
ATOM      2  C   UNL     1      -2.104  15.728  -5.978  1.00  0.00     0.000 C 
BRANCH   2   3
ATOM      3  C   UNL     1      -3.038  14.795  -5.193  1.00  0.00     0.006 C 
BRANCH   3   4
ATOM      4  C   UNL     1      -3.092  13.382  -5.788  1.00  0.00     0.053 C 
BRANCH   4   5
ATOM      5  C   UNL     1      -2.419  12.405  -4.875  1.00  0.00     0.041 C 
ATOM      6  O   UNL     1      -3.057  11.420  -4.419  1.00  0.00    -0.550 OA
ATOM      7  O   UNL     1      -1.101  12.611  -4.490  1.00  0.00    -0.550 OA
ENDBRANCH   4   5
ENDBRANCH   3   4
ENDBRANCH   2   3
ENDBRANCH   1   2
BRANCH   1   8
ATOM      8  C   UNL     1      -1.381  18.167  -5.653  1.00  0.00     0.000 C 
BRANCH   8   9
ATOM      9  C   UNL     1      -0.383  17.701  -4.574  1.00  0.00     0.006 C 
BRANCH   9  10
ATOM     10  C   UNL     1       1.080  18.081  -4.852  1.00  0.00     0.053 C 
BRANCH  10  11
ATOM     11  C   UNL     1       1.970  16.877  -4.914  1.00  0.00     0.041 C 
ATOM     12  O   UNL     1       3.188  16.973  -4.613  1.00  0.00    -0.550 OA
ATOM     13  O   UNL     1       1.459  15.657  -5.338  1.00  0.00    -0.550 OA
ENDBRANCH  10  11
ENDBRANCH   9  10
ENDBRANCH   8   9
ENDBRANCH   1   8
TORSDOF 8
ENDMDL
MODEL 5
REMARK VINA RESULT:    -3.322      2.442      2.787
REMARK INTER + INTRA:          -5.454
REMARK INTER:                  -4.831
REMARK INTRA:                  -0.624
REMARK UNBOUND:                -0.578
REMARK SMILES O=C([O-])CCCCCCCC(=O)[O-]
REMARK SMILES IDX 7 1 6 2 5 3 4 4 2 5 1 6 3 7 8 8 9 9 10 10 11 11 12 12 13 13
REMARK H PARENT
REMARK Flexibility Score: inf
ROOT
ATOM      1  C   UNL     1      -1.779  15.925  -3.918  1.00  0.00     0.000 C 
ENDROOT
BRANCH   1   2
ATOM      2  C   UNL     1      -0.303  15.594  -3.639  1.00  0.00     0.000 C 
BRANCH   2   3
ATOM      3  C   UNL     1       0.597  15.836  -4.860  1.00  0.00     0.006 C 
BRANCH   3   4
ATOM      4  C   UNL     1       1.780  16.762  -4.544  1.00  0.00     0.053 C 
BRANCH   4   5
ATOM      5  C   UNL     1       1.531  18.132  -5.090  1.00  0.00     0.041 C 
ATOM      6  O   UNL     1       2.467  18.973  -5.144  1.00  0.00    -0.550 OA
ATOM      7  O   UNL     1       0.253  18.497  -5.495  1.00  0.00    -0.550 OA
ENDBRANCH   4   5
ENDBRANCH   3   4
ENDBRANCH   2   3
ENDBRANCH   1   2
BRANCH   1   8
ATOM      8  C   UNL     1      -2.137  15.848  -5.413  1.00  0.00     0.000 C 
BRANCH   8   9
ATOM      9  C   UNL     1      -2.623  14.466  -5.894  1.00  0.00     0.006 C 
BRANCH   9  10
ATOM     10  C   UNL     1      -3.294  13.612  -4.807  1.00  0.00     0.053 C 
BRANCH  10  11
ATOM     11  C   UNL     1      -2.580  12.311  -4.595  1.00  0.00     0.041 C 
ATOM     12  O   UNL     1      -3.234  11.251  -4.418  1.00  0.00    -0.550 OA
ATOM     13  O   UNL     1      -1.192  12.278  -4.561  1.00  0.00    -0.550 OA
ENDBRANCH  10  11
ENDBRANCH   9  10
ENDBRANCH   8   9
ENDBRANCH   1   8
TORSDOF 8
ENDMDL
MODEL 6
REMARK VINA RESULT:    -3.309      5.991      7.542
REMARK INTER + INTRA:          -5.435
REMARK INTER:                  -5.063
REMARK INTRA:                  -0.372
REMARK UNBOUND:                -0.578
REMARK SMILES O=C([O-])CCCCCCCC(=O)[O-]
REMARK SMILES IDX 7 1 6 2 5 3 4 4 2 5 1 6 3 7 8 8 9 9 10 10 11 11 12 12 13 13
REMARK H PARENT
REMARK Flexibility Score: inf
ROOT
ATOM      1  C   UNL     1       2.146   9.697  -1.847  1.00  0.00     0.000 C 
ENDROOT
BRANCH   1   2
ATOM      2  C   UNL     1       1.096   9.849  -0.733  1.00  0.00     0.000 C 
BRANCH   2   3
ATOM      3  C   UNL     1       1.068   8.646   0.222  1.00  0.00     0.006 C 
BRANCH   3   4
ATOM      4  C   UNL     1       2.153   7.612  -0.104  1.00  0.00     0.053 C 
BRANCH   4   5
ATOM      5  C   UNL     1       3.082   7.445   1.057  1.00  0.00     0.041 C 
ATOM      6  O   UNL     1       3.019   6.414   1.777  1.00  0.00    -0.550 OA
ATOM      7  O   UNL     1       3.984   8.452   1.374  1.00  0.00    -0.550 OA
ENDBRANCH   4   5
ENDBRANCH   3   4
ENDBRANCH   2   3
ENDBRANCH   1   2
BRANCH   1   8
ATOM      8  C   UNL     1       1.867  10.603  -3.059  1.00  0.00     0.000 C 
BRANCH   8   9
ATOM      9  C   UNL     1       0.484  11.285  -3.056  1.00  0.00     0.006 C 
BRANCH   9  10
ATOM     10  C   UNL     1       0.401  12.562  -3.907  1.00  0.00     0.053 C 
BRANCH  10  11
ATOM     11  C   UNL     1      -0.959  12.746  -4.509  1.00  0.00     0.041 C 
ATOM     12  O   UNL     1      -1.718  11.756  -4.678  1.00  0.00    -0.550 OA
ATOM     13  O   UNL     1      -1.374  14.009  -4.914  1.00  0.00    -0.550 OA
ENDBRANCH  10  11
ENDBRANCH   9  10
ENDBRANCH   8   9
ENDBRANCH   1   8
TORSDOF 8
ENDMDL
MODEL 7
REMARK VINA RESULT:    -3.284      2.661      3.445
REMARK INTER + INTRA:          -5.399
REMARK INTER:                  -4.651
REMARK INTRA:                  -0.748
REMARK UNBOUND:                -0.578
REMARK SMILES O=C([O-])CCCCCCCC(=O)[O-]
REMARK SMILES IDX 7 1 6 2 5 3 4 4 2 5 1 6 3 7 8 8 9 9 10 10 11 11 12 12 13 13
REMARK H PARENT
REMARK Flexibility Score: inf
ROOT
ATOM      1  C   UNL     1      -2.638  17.511  -5.478  1.00  0.00     0.000 C 
ENDROOT
BRANCH   1   2
ATOM      2  C   UNL     1      -1.614  18.470  -6.109  1.00  0.00     0.000 C 
BRANCH   2   3
ATOM      3  C   UNL     1      -0.179  17.924  -6.052  1.00  0.00     0.006 C 
BRANCH   3   4
ATOM      4  C   UNL     1       0.518  18.242  -4.722  1.00  0.00     0.053 C 
BRANCH   4   5
ATOM      5  C   UNL     1       1.998  18.067  -4.854  1.00  0.00     0.041 C 
ATOM      6  O   UNL     1       2.558  17.036  -4.396  1.00  0.00    -0.550 OA
ATOM      7  O   UNL     1       2.766  19.065  -5.439  1.00  0.00    -0.550 OA
ENDBRANCH   4   5
ENDBRANCH   3   4
ENDBRANCH   2   3
ENDBRANCH   1   2
BRANCH   1   8
ATOM      8  C   UNL     1      -2.521  16.073  -6.016  1.00  0.00     0.000 C 
BRANCH   8   9
ATOM      9  C   UNL     1      -2.767  14.966  -4.971  1.00  0.00     0.006 C 
BRANCH   9  10
ATOM     10  C   UNL     1      -1.642  13.925  -4.869  1.00  0.00     0.053 C 
BRANCH  10  11
ATOM     11  C   UNL     1      -0.366  14.525  -4.363  1.00  0.00     0.041 C 
ATOM     12  O   UNL     1       0.717  14.315  -4.967  1.00  0.00    -0.550 OA
ATOM     13  O   UNL     1      -0.370  15.290  -3.203  1.00  0.00    -0.550 OA
ENDBRANCH  10  11
ENDBRANCH   9  10
ENDBRANCH   8   9
ENDBRANCH   1   8
TORSDOF 8
ENDMDL
MODEL 8
REMARK VINA RESULT:    -3.074      3.186      5.700
REMARK INTER + INTRA:          -5.090
REMARK INTER:                  -4.660
REMARK INTRA:                  -0.429
REMARK UNBOUND:                -0.578
REMARK SMILES O=C([O-])CCCCCCCC(=O)[O-]
REMARK SMILES IDX 7 1 6 2 5 3 4 4 2 5 1 6 3 7 8 8 9 9 10 10 11 11 12 12 13 13
REMARK H PARENT
REMARK Flexibility Score: inf
ROOT
ATOM      1  C   UNL     1       0.153  16.903  -3.723  1.00  0.00     0.000 C 
ENDROOT
BRANCH   1   2
ATOM      2  C   UNL     1      -0.869  15.873  -3.213  1.00  0.00     0.000 C 
BRANCH   2   3
ATOM      3  C   UNL     1      -1.771  15.331  -4.333  1.00  0.00     0.006 C 
BRANCH   3   4
ATOM      4  C   UNL     1      -1.383  13.912  -4.766  1.00  0.00     0.053 C 
BRANCH   4   5
ATOM      5  C   UNL     1      -2.606  13.109  -5.080  1.00  0.00     0.041 C 
ATOM      6  O   UNL     1      -2.701  11.916  -4.685  1.00  0.00    -0.550 OA
ATOM      7  O   UNL     1      -3.621  13.661  -5.850  1.00  0.00    -0.550 OA
ENDBRANCH   4   5
ENDBRANCH   3   4
ENDBRANCH   2   3
ENDBRANCH   1   2
BRANCH   1   8
ATOM      8  C   UNL     1      -0.429  17.841  -4.797  1.00  0.00     0.000 C 
BRANCH   8   9
ATOM      9  C   UNL     1       0.520  18.148  -5.973  1.00  0.00     0.006 C 
BRANCH   9  10
ATOM     10  C   UNL     1       1.843  17.367  -5.946  1.00  0.00     0.053 C 
BRANCH  10  11
ATOM     11  C   UNL     1       3.014  18.257  -5.660  1.00  0.00     0.041 C 
ATOM     12  O   UNL     1       4.000  17.818  -5.012  1.00  0.00    -0.550 OA
ATOM     13  O   UNL     1       2.999  19.581  -6.080  1.00  0.00    -0.550 OA
ENDBRANCH  10  11
ENDBRANCH   9  10
ENDBRANCH   8   9
ENDBRANCH   1   8
TORSDOF 8
ENDMDL
MODEL 9
REMARK VINA RESULT:    -3.059     10.631     12.205
REMARK INTER + INTRA:          -5.067
REMARK INTER:                  -4.347
REMARK INTRA:                  -0.720
REMARK UNBOUND:                -0.578
REMARK SMILES O=C([O-])CCCCCCCC(=O)[O-]
REMARK SMILES IDX 7 1 6 2 5 3 4 4 2 5 1 6 3 7 8 8 9 9 10 10 11 11 12 12 13 13
REMARK H PARENT
REMARK Flexibility Score: inf
ROOT
ATOM      1  C   UNL     1     -10.079  23.246  -1.887  1.00  0.00     0.000 C 
ENDROOT
BRANCH   1   2
ATOM      2  C   UNL     1      -9.038  23.812  -2.867  1.00  0.00     0.000 C 
BRANCH   2   3
ATOM      3  C   UNL     1      -8.951  23.002  -4.170  1.00  0.00     0.006 C 
BRANCH   3   4
ATOM      4  C   UNL     1      -8.683  21.512  -3.919  1.00  0.00     0.053 C 
BRANCH   4   5
ATOM      5  C   UNL     1      -8.747  20.746  -5.203  1.00  0.00     0.041 C 
ATOM      6  O   UNL     1      -9.619  21.029  -6.067  1.00  0.00    -0.550 OA
ATOM      7  O   UNL     1      -7.875  19.689  -5.425  1.00  0.00    -0.550 OA
ENDBRANCH   4   5
ENDBRANCH   3   4
ENDBRANCH   2   3
ENDBRANCH   1   2
BRANCH   1   8
ATOM      8  C   UNL     1     -11.442  23.953  -1.988  1.00  0.00     0.000 C 
BRANCH   8   9
ATOM      9  C   UNL     1     -12.663  23.051  -1.716  1.00  0.00     0.006 C 
BRANCH   9  10
ATOM     10  C   UNL     1     -13.480  22.690  -2.966  1.00  0.00     0.053 C 
BRANCH  10  11
ATOM     11  C   UNL     1     -12.634  22.045  -4.021  1.00  0.00     0.041 C 
ATOM     12  O   UNL     1     -12.123  20.913  -3.820  1.00  0.00    -0.550 OA
ATOM     13  O   UNL     1     -12.384  22.711  -5.214  1.00  0.00    -0.550 OA
ENDBRANCH  10  11
ENDBRANCH   9  10
ENDBRANCH   8   9
ENDBRANCH   1   8
TORSDOF 8
ENDMDL
