MODEL 1
REMARK VINA RESULT:    -3.868      0.000      0.000
REMARK INTER + INTRA:          -6.118
REMARK INTER:                  -5.225
REMARK INTRA:                  -0.893
REMARK UNBOUND:                -0.893
REMARK SMILES O=C[C@@H](O)[C@H](O)[C@@H](O)CO
REMARK SMILES IDX 7 1 9 2 10 3 5 5 3 6 2 7 1 8 4 9 6 11 8 13
REMARK H PARENT 10 4 4 10 6 12 8 14
REMARK Flexibility Score: inf
ROOT
ATOM      1  C   UNL     1      -3.388 -20.385  -9.485  1.00  0.00     0.171 C 
ENDROOT
BRANCH   1   2
ATOM      2  C   UNL     1      -4.266 -21.600  -9.847  1.00  0.00     0.190 C 
BRANCH   2   3
ATOM      3  O   UNL     1      -4.603 -21.592 -11.207  1.00  0.00    -0.394 OA
ATOM      4  H   UNL     1      -3.807 -21.936 -11.690  1.00  0.00     0.210 HD
ENDBRANCH   2   3
ENDBRANCH   1   2
BRANCH   1   5
ATOM      5  C   UNL     1      -1.870 -20.659  -9.682  1.00  0.00     0.181 C 
BRANCH   5   6
ATOM      6  C   UNL     1      -0.987 -19.455  -9.271  1.00  0.00     0.209 C 
BRANCH   6   7
ATOM      7  C   UNL     1      -0.397 -18.762 -10.472  1.00  0.00     0.258 C 
ATOM      8  O   UNL     1      -1.120 -18.265 -11.321  1.00  0.00    -0.300 OA
ENDBRANCH   6   7
BRANCH   6   9
ATOM      9  O   UNL     1      -1.763 -18.538  -8.541  1.00  0.00    -0.383 OA
ATOM     10  H   UNL     1      -2.151 -19.036  -7.774  1.00  0.00     0.211 HD
ENDBRANCH   6   9
ENDBRANCH   5   6
BRANCH   5  11
ATOM     11  O   UNL     1      -1.592 -21.050 -11.006  1.00  0.00    -0.387 OA
ATOM     12  H   UNL     1      -1.371 -22.018 -11.001  1.00  0.00     0.211 HD
ENDBRANCH   5  11
ENDBRANCH   1   5
BRANCH   1  13
ATOM     13  O   UNL     1      -3.807 -19.228 -10.169  1.00  0.00    -0.388 OA
ATOM     14  H   UNL     1      -3.765 -19.411 -11.142  1.00  0.00     0.211 HD
ENDBRANCH   1  13
TORSDOF 8
ENDMDL
MODEL 2
REMARK VINA RESULT:    -3.818     13.593     14.772
REMARK INTER + INTRA:          -6.049
REMARK INTER:                  -5.453
REMARK INTRA:                  -0.596
REMARK UNBOUND:                -0.893
REMARK SMILES O=C[C@@H](O)[C@H](O)[C@@H](O)CO
REMARK SMILES IDX 7 1 9 2 10 3 5 5 3 6 2 7 1 8 4 9 6 11 8 13
REMARK H PARENT 10 4 4 10 6 12 8 14
REMARK Flexibility Score: inf
ROOT
ATOM      1  C   UNL     1      11.206 -13.864 -12.215  1.00  0.00     0.171 C 
ENDROOT
BRANCH   1   2
ATOM      2  C   UNL     1      10.788 -12.392 -12.034  1.00  0.00     0.190 C 
BRANCH   2   3
ATOM      3  O   UNL     1       9.393 -12.256 -12.063  1.00  0.00    -0.394 OA
ATOM      4  H   UNL     1       9.088 -12.346 -11.123  1.00  0.00     0.210 HD
ENDBRANCH   2   3
ENDBRANCH   1   2
BRANCH   1   5
ATOM      5  C   UNL     1      11.611 -14.545 -10.876  1.00  0.00     0.181 C 
BRANCH   5   6
ATOM      6  C   UNL     1      11.150 -16.022 -10.793  1.00  0.00     0.209 C 
BRANCH   6   7
ATOM      7  C   UNL     1      11.773 -16.732  -9.620  1.00  0.00     0.258 C 
ATOM      8  O   UNL     1      12.647 -16.194  -8.958  1.00  0.00    -0.300 OA
ENDBRANCH   6   7
BRANCH   6   9
ATOM      9  O   UNL     1       9.751 -16.065 -10.673  1.00  0.00    -0.383 OA
ATOM     10  H   UNL     1       9.447 -16.884 -11.145  1.00  0.00     0.211 HD
ENDBRANCH   6   9
ENDBRANCH   5   6
BRANCH   5  11
ATOM     11  O   UNL     1      11.137 -13.813  -9.771  1.00  0.00    -0.387 OA
ATOM     12  H   UNL     1      11.651 -14.098  -8.971  1.00  0.00     0.211 HD
ENDBRANCH   5  11
ENDBRANCH   1   5
BRANCH   1  13
ATOM     13  O   UNL     1      10.218 -14.598 -12.899  1.00  0.00    -0.388 OA
ATOM     14  H   UNL     1       9.367 -14.514 -12.398  1.00  0.00     0.211 HD
ENDBRANCH   1  13
TORSDOF 8
ENDMDL
MODEL 3
REMARK VINA RESULT:    -3.814     14.861     15.502
REMARK INTER + INTRA:          -6.045
REMARK INTER:                  -5.386
REMARK INTRA:                  -0.658
REMARK UNBOUND:                -0.893
REMARK SMILES O=C[C@@H](O)[C@H](O)[C@@H](O)CO
REMARK SMILES IDX 7 1 9 2 10 3 5 5 3 6 2 7 1 8 4 9 6 11 8 13
REMARK H PARENT 10 4 4 10 6 12 8 14
REMARK Flexibility Score: inf
ROOT
ATOM      1  C   UNL     1      11.614 -13.087 -11.393  1.00  0.00     0.171 C 
ENDROOT
BRANCH   1   2
ATOM      2  C   UNL     1      11.535 -13.946 -12.670  1.00  0.00     0.190 C 
BRANCH   2   3
ATOM      3  O   UNL     1      10.233 -14.420 -12.881  1.00  0.00    -0.394 OA
ATOM      4  H   UNL     1      10.094 -15.146 -12.219  1.00  0.00     0.210 HD
ENDBRANCH   2   3
ENDBRANCH   1   2
BRANCH   1   5
ATOM      5  C   UNL     1      10.877 -11.724 -11.537  1.00  0.00     0.181 C 
BRANCH   5   6
ATOM      6  C   UNL     1      10.966 -10.858 -10.256  1.00  0.00     0.209 C 
BRANCH   6   7
ATOM      7  C   UNL     1      10.737  -9.399 -10.554  1.00  0.00     0.258 C 
ATOM      8  O   UNL     1       9.622  -8.989 -10.837  1.00  0.00    -0.300 OA
ENDBRANCH   6   7
BRANCH   6   9
ATOM      9  O   UNL     1      10.006 -11.299  -9.330  1.00  0.00    -0.383 OA
ATOM     10  H   UNL     1       9.603 -12.126  -9.705  1.00  0.00     0.211 HD
ENDBRANCH   6   9
ENDBRANCH   5   6
BRANCH   5  11
ATOM     11  O   UNL     1       9.536 -11.910 -11.919  1.00  0.00    -0.387 OA
ATOM     12  H   UNL     1       9.419 -12.861 -12.182  1.00  0.00     0.211 HD
ENDBRANCH   5  11
ENDBRANCH   1   5
BRANCH   1  13
ATOM     13  O   UNL     1      11.174 -13.804 -10.264  1.00  0.00    -0.388 OA
ATOM     14  H   UNL     1      10.763 -13.163  -9.630  1.00  0.00     0.211 HD
ENDBRANCH   1  13
TORSDOF 8
ENDMDL
MODEL 4
REMARK VINA RESULT:    -3.763      1.455      2.283
REMARK INTER + INTRA:          -5.976
REMARK INTER:                  -4.990
REMARK INTRA:                  -0.986
REMARK UNBOUND:                -0.893
REMARK SMILES O=C[C@@H](O)[C@H](O)[C@@H](O)CO
REMARK SMILES IDX 7 1 9 2 10 3 5 5 3 6 2 7 1 8 4 9 6 11 8 13
REMARK H PARENT 10 4 4 10 6 12 8 14
REMARK Flexibility Score: inf
ROOT
ATOM      1  C   UNL     1      -3.280 -20.290  -9.746  1.00  0.00     0.171 C 
ENDROOT
BRANCH   1   2
ATOM      2  C   UNL     1      -3.471 -20.817  -8.310  1.00  0.00     0.190 C 
BRANCH   2   3
ATOM      3  O   UNL     1      -2.287 -21.382  -7.818  1.00  0.00    -0.394 OA
ATOM      4  H   UNL     1      -2.308 -21.253  -6.834  1.00  0.00     0.210 HD
ENDBRANCH   2   3
ENDBRANCH   1   2
BRANCH   1   5
ATOM      5  C   UNL     1      -2.218 -19.157  -9.835  1.00  0.00     0.181 C 
BRANCH   5   6
ATOM      6  C   UNL     1      -0.937 -19.596 -10.587  1.00  0.00     0.209 C 
BRANCH   6   7
ATOM      7  C   UNL     1       0.000 -18.438 -10.811  1.00  0.00     0.258 C 
ATOM      8  O   UNL     1      -0.407 -17.288 -10.761  1.00  0.00    -0.300 OA
ENDBRANCH   6   7
BRANCH   6   9
ATOM      9  O   UNL     1      -0.279 -20.589  -9.842  1.00  0.00    -0.383 OA
ATOM     10  H   UNL     1      -0.319 -21.425 -10.378  1.00  0.00     0.211 HD
ENDBRANCH   6   9
ENDBRANCH   5   6
BRANCH   5  11
ATOM     11  O   UNL     1      -1.898 -18.659  -8.558  1.00  0.00    -0.387 OA
ATOM     12  H   UNL     1      -2.143 -19.350  -7.888  1.00  0.00     0.211 HD
ENDBRANCH   5  11
ENDBRANCH   1   5
BRANCH   1  13
ATOM     13  O   UNL     1      -3.006 -21.338 -10.645  1.00  0.00    -0.388 OA
ATOM     14  H   UNL     1      -2.120 -21.169 -11.058  1.00  0.00     0.211 HD
ENDBRANCH   1  13
TORSDOF 8
ENDMDL
MODEL 5
REMARK VINA RESULT:    -3.755      2.008      3.838
REMARK INTER + INTRA:          -5.965
REMARK INTER:                  -5.028
REMARK INTRA:                  -0.937
REMARK UNBOUND:                -0.893
REMARK SMILES O=C[C@@H](O)[C@H](O)[C@@H](O)CO
REMARK SMILES IDX 7 1 9 2 10 3 5 5 3 6 2 7 1 8 4 9 6 11 8 13
REMARK H PARENT 10 4 4 10 6 12 8 14
REMARK Flexibility Score: inf
ROOT
ATOM      1  C   UNL     1      -0.665 -19.430 -10.477  1.00  0.00     0.171 C 
ENDROOT
BRANCH   1   2
ATOM      2  C   UNL     1      -0.777 -18.172 -11.360  1.00  0.00     0.190 C 
BRANCH   2   3
ATOM      3  O   UNL     1      -0.410 -17.021 -10.649  1.00  0.00    -0.394 OA
ATOM      4  H   UNL     1      -0.505 -17.249  -9.688  1.00  0.00     0.210 HD
ENDBRANCH   2   3
ENDBRANCH   1   2
BRANCH   1   5
ATOM      5  C   UNL     1      -0.892 -19.128  -8.968  1.00  0.00     0.181 C 
BRANCH   5   6
ATOM      6  C   UNL     1      -0.666 -20.370  -8.069  1.00  0.00     0.209 C 
BRANCH   6   7
ATOM      7  C   UNL     1      -1.969 -20.942  -7.574  1.00  0.00     0.258 C 
ATOM      8  O   UNL     1      -2.817 -21.332  -8.361  1.00  0.00    -0.300 OA
ENDBRANCH   6   7
BRANCH   6   9
ATOM      9  O   UNL     1       0.025 -21.352  -8.800  1.00  0.00    -0.383 OA
ATOM     10  H   UNL     1       0.993 -21.151  -8.709  1.00  0.00     0.211 HD
ENDBRANCH   6   9
ENDBRANCH   5   6
BRANCH   5  11
ATOM     11  O   UNL     1      -2.169 -18.580  -8.746  1.00  0.00    -0.387 OA
ATOM     12  H   UNL     1      -2.437 -18.791  -7.813  1.00  0.00     0.211 HD
ENDBRANCH   5  11
ENDBRANCH   1   5
BRANCH   1  13
ATOM     13  O   UNL     1      -1.508 -20.458 -10.939  1.00  0.00    -0.388 OA
ATOM     14  H   UNL     1      -1.402 -20.528 -11.922  1.00  0.00     0.211 HD
ENDBRANCH   1  13
TORSDOF 8
ENDMDL
MODEL 6
REMARK VINA RESULT:    -3.737      1.511      3.914
REMARK INTER + INTRA:          -5.940
REMARK INTER:                  -5.196
REMARK INTRA:                  -0.743
REMARK UNBOUND:                -0.893
REMARK SMILES O=C[C@@H](O)[C@H](O)[C@@H](O)CO
REMARK SMILES IDX 7 1 9 2 10 3 5 5 3 6 2 7 1 8 4 9 6 11 8 13
REMARK H PARENT 10 4 4 10 6 12 8 14
REMARK Flexibility Score: inf
ROOT
ATOM      1  C   UNL     1      -2.053 -20.519  -9.783  1.00  0.00     0.171 C 
ENDROOT
BRANCH   1   2
ATOM      2  C   UNL     1      -0.764 -20.219  -8.994  1.00  0.00     0.190 C 
BRANCH   2   3
ATOM      3  O   UNL     1       0.026 -21.369  -8.860  1.00  0.00    -0.394 OA
ATOM      4  H   UNL     1      -0.598 -22.139  -8.909  1.00  0.00     0.210 HD
ENDBRANCH   2   3
ENDBRANCH   1   2
BRANCH   1   5
ATOM      5  C   UNL     1      -3.207 -21.036  -8.877  1.00  0.00     0.181 C 
BRANCH   5   6
ATOM      6  C   UNL     1      -4.433 -21.522  -9.690  1.00  0.00     0.209 C 
BRANCH   6   7
ATOM      7  C   UNL     1      -5.578 -20.546  -9.606  1.00  0.00     0.258 C 
ATOM      8  O   UNL     1      -5.486 -19.433 -10.101  1.00  0.00    -0.300 OA
ENDBRANCH   6   7
BRANCH   6   9
ATOM      9  O   UNL     1      -4.062 -21.687 -11.036  1.00  0.00    -0.383 OA
ATOM     10  H   UNL     1      -3.212 -22.201 -11.039  1.00  0.00     0.211 HD
ENDBRANCH   6   9
ENDBRANCH   5   6
BRANCH   5  11
ATOM     11  O   UNL     1      -3.590 -20.061  -7.936  1.00  0.00    -0.387 OA
ATOM     12  H   UNL     1      -3.897 -20.529  -7.116  1.00  0.00     0.211 HD
ENDBRANCH   5  11
ENDBRANCH   1   5
BRANCH   1  13
ATOM     13  O   UNL     1      -2.449 -19.413 -10.559  1.00  0.00    -0.388 OA
ATOM     14  H   UNL     1      -2.067 -19.519 -11.467  1.00  0.00     0.211 HD
ENDBRANCH   1  13
TORSDOF 8
ENDMDL
MODEL 7
REMARK VINA RESULT:    -3.683      1.917      3.769
REMARK INTER + INTRA:          -5.867
REMARK INTER:                  -5.259
REMARK INTRA:                  -0.608
REMARK UNBOUND:                -0.893
REMARK SMILES O=C[C@@H](O)[C@H](O)[C@@H](O)CO
REMARK SMILES IDX 7 1 9 2 10 3 5 5 3 6 2 7 1 8 4 9 6 11 8 13
REMARK H PARENT 10 4 4 10 6 12 8 14
REMARK Flexibility Score: inf
ROOT
ATOM      1  C   UNL     1      -0.211 -19.032 -10.365  1.00  0.00     0.171 C 
ENDROOT
BRANCH   1   2
ATOM      2  C   UNL     1      -0.288 -17.715 -11.162  1.00  0.00     0.190 C 
BRANCH   2   3
ATOM      3  O   UNL     1      -0.735 -16.660 -10.355  1.00  0.00    -0.394 OA
ATOM      4  H   UNL     1      -0.184 -16.692  -9.530  1.00  0.00     0.210 HD
ENDBRANCH   2   3
ENDBRANCH   1   2
BRANCH   1   5
ATOM      5  C   UNL     1      -1.611 -19.659 -10.103  1.00  0.00     0.181 C 
BRANCH   5   6
ATOM      6  C   UNL     1      -2.019 -19.603  -8.609  1.00  0.00     0.209 C 
BRANCH   6   7
ATOM      7  C   UNL     1      -0.926 -20.126  -7.714  1.00  0.00     0.258 C 
ATOM      8  O   UNL     1      -0.610 -21.305  -7.741  1.00  0.00    -0.300 OA
ENDBRANCH   6   7
BRANCH   6   9
ATOM      9  O   UNL     1      -2.313 -18.275  -8.257  1.00  0.00    -0.383 OA
ATOM     10  H   UNL     1      -1.465 -17.867  -7.940  1.00  0.00     0.211 HD
ENDBRANCH   6   9
ENDBRANCH   5   6
BRANCH   5  11
ATOM     11  O   UNL     1      -1.675 -20.979 -10.587  1.00  0.00    -0.387 OA
ATOM     12  H   UNL     1      -0.989 -21.515 -10.109  1.00  0.00     0.211 HD
ENDBRANCH   5  11
ENDBRANCH   1   5
BRANCH   1  13
ATOM     13  O   UNL     1       0.669 -19.948 -10.970  1.00  0.00    -0.388 OA
ATOM     14  H   UNL     1       0.516 -19.925 -11.950  1.00  0.00     0.211 HD
ENDBRANCH   1  13
TORSDOF 8
ENDMDL
MODEL 8
REMARK VINA RESULT:    -3.677     13.480     14.639
REMARK INTER + INTRA:          -5.860
REMARK INTER:                  -5.110
REMARK INTRA:                  -0.750
REMARK UNBOUND:                -0.893
REMARK SMILES O=C[C@@H](O)[C@H](O)[C@@H](O)CO
REMARK SMILES IDX 7 1 9 2 10 3 5 5 3 6 2 7 1 8 4 9 6 11 8 13
REMARK H PARENT 10 4 4 10 6 12 8 14
REMARK Flexibility Score: inf
ROOT
ATOM      1  C   UNL     1      11.037 -16.165  -9.218  1.00  0.00     0.171 C 
ENDROOT
BRANCH   1   2
ATOM      2  C   UNL     1      11.457 -17.405  -8.405  1.00  0.00     0.190 C 
BRANCH   2   3
ATOM      3  O   UNL     1      12.762 -17.268  -7.911  1.00  0.00    -0.394 OA
ATOM      4  H   UNL     1      12.683 -16.758  -7.064  1.00  0.00     0.210 HD
ENDBRANCH   2   3
ENDBRANCH   1   2
BRANCH   1   5
ATOM      5  C   UNL     1      12.105 -15.743 -10.267  1.00  0.00     0.181 C 
BRANCH   5   6
ATOM      6  C   UNL     1      11.991 -14.251 -10.669  1.00  0.00     0.209 C 
BRANCH   6   7
ATOM      7  C   UNL     1      11.416 -14.090 -12.052  1.00  0.00     0.258 C 
ATOM      8  O   UNL     1      10.298 -14.505 -12.314  1.00  0.00    -0.300 OA
ENDBRANCH   6   7
BRANCH   6   9
ATOM      9  O   UNL     1      11.170 -13.583  -9.745  1.00  0.00    -0.383 OA
ATOM     10  H   UNL     1      10.997 -14.218  -9.001  1.00  0.00     0.211 HD
ENDBRANCH   6   9
ENDBRANCH   5   6
BRANCH   5  11
ATOM     11  O   UNL     1      12.053 -16.569 -11.405  1.00  0.00    -0.387 OA
ATOM     12  H   UNL     1      12.939 -16.531 -11.853  1.00  0.00     0.211 HD
ENDBRANCH   5  11
ENDBRANCH   1   5
BRANCH   1  13
ATOM     13  O   UNL     1       9.768 -16.339  -9.802  1.00  0.00    -0.388 OA
ATOM     14  H   UNL     1       9.888 -16.441 -10.780  1.00  0.00     0.211 HD
ENDBRANCH   1  13
TORSDOF 8
ENDMDL
MODEL 9
REMARK VINA RESULT:    -3.662      1.640      3.711
REMARK INTER + INTRA:          -5.839
REMARK INTER:                  -4.853
REMARK INTRA:                  -0.986
REMARK UNBOUND:                -0.893
REMARK SMILES O=C[C@@H](O)[C@H](O)[C@@H](O)CO
REMARK SMILES IDX 7 1 9 2 10 3 5 5 3 6 2 7 1 8 4 9 6 11 8 13
REMARK H PARENT 10 4 4 10 6 12 8 14
REMARK Flexibility Score: inf
ROOT
ATOM      1  C   UNL     1      -1.905 -19.073  -9.912  1.00  0.00     0.171 C 
ENDROOT
BRANCH   1   2
ATOM      2  C   UNL     1      -0.641 -19.670 -10.562  1.00  0.00     0.190 C 
BRANCH   2   3
ATOM      3  O   UNL     1      -0.092 -20.682  -9.764  1.00  0.00    -0.394 OA
ATOM      4  H   UNL     1       0.253 -20.233  -8.948  1.00  0.00     0.210 HD
ENDBRANCH   2   3
ENDBRANCH   1   2
BRANCH   1   5
ATOM      5  C   UNL     1      -3.074 -20.094  -9.820  1.00  0.00     0.181 C 
BRANCH   5   6
ATOM      6  C   UNL     1      -3.369 -20.537  -8.364  1.00  0.00     0.209 C 
BRANCH   6   7
ATOM      7  C   UNL     1      -4.616 -21.376  -8.280  1.00  0.00     0.258 C 
ATOM      8  O   UNL     1      -4.665 -22.474  -8.813  1.00  0.00    -0.300 OA
ENDBRANCH   6   7
BRANCH   6   9
ATOM      9  O   UNL     1      -2.278 -21.275  -7.875  1.00  0.00    -0.383 OA
ATOM     10  H   UNL     1      -1.459 -20.758  -8.093  1.00  0.00     0.211 HD
ENDBRANCH   6   9
ENDBRANCH   5   6
BRANCH   5  11
ATOM     11  O   UNL     1      -2.838 -21.213 -10.641  1.00  0.00    -0.387 OA
ATOM     12  H   UNL     1      -3.567 -21.261 -11.313  1.00  0.00     0.211 HD
ENDBRANCH   5  11
ENDBRANCH   1   5
BRANCH   1  13
ATOM     13  O   UNL     1      -1.614 -18.494  -8.662  1.00  0.00    -0.388 OA
ATOM     14  H   UNL     1      -0.812 -17.920  -8.766  1.00  0.00     0.211 HD
ENDBRANCH   1  13
TORSDOF 8
ENDMDL
