MODEL 1
REMARK VINA RESULT:    -4.101      0.000      0.000
REMARK INTER + INTRA:          -4.357
REMARK INTER:                  -4.340
REMARK INTRA:                  -0.016
REMARK UNBOUND:                -0.016
REMARK SMILES O=C([O-])c1cccnc1
REMARK SMILES IDX 4 1 5 2 9 3 6 4 8 5 7 6 2 7 1 8 3 9
REMARK H PARENT
REMARK Flexibility Score: inf
ROOT
ATOM      1  C   UNL     1      24.005   2.297  39.921  1.00  0.00     0.016 A 
ATOM      2  C   UNL     1      25.084   3.066  39.451  1.00  0.00     0.013 A 
ATOM      3  C   UNL     1      23.601   2.461  41.257  1.00  0.00     0.120 A 
ATOM      4  C   UNL     1      25.728   3.964  40.303  1.00  0.00     0.021 A 
ATOM      5  N   UNL     1      24.247   3.343  42.066  1.00  0.00    -0.264 NA
ATOM      6  C   UNL     1      25.290   4.091  41.621  1.00  0.00     0.111 A 
ENDROOT
BRANCH   1   7
ATOM      7  C   UNL     1      23.309   1.340  39.035  1.00  0.00     0.073 C 
ATOM      8  O   UNL     1      22.494   1.748  38.164  1.00  0.00    -0.545 OA
ATOM      9  O   UNL     1      23.545  -0.025  39.149  1.00  0.00    -0.545 OA
ENDBRANCH   1   7
TORSDOF 1
ENDMDL
MODEL 2
REMARK VINA RESULT:    -3.953     10.769     11.703
REMARK INTER + INTRA:          -4.200
REMARK INTER:                  -4.182
REMARK INTRA:                  -0.018
REMARK UNBOUND:                -0.016
REMARK SMILES O=C([O-])c1cccnc1
REMARK SMILES IDX 4 1 5 2 9 3 6 4 8 5 7 6 2 7 1 8 3 9
REMARK H PARENT
REMARK Flexibility Score: inf
ROOT
ATOM      1  C   UNL     1      30.798   4.704  49.140  1.00  0.00     0.016 A 
ATOM      2  C   UNL     1      29.423   4.648  49.428  1.00  0.00     0.013 A 
ATOM      3  C   UNL     1      31.243   5.632  48.182  1.00  0.00     0.120 A 
ATOM      4  C   UNL     1      28.535   5.500  48.769  1.00  0.00     0.021 A 
ATOM      5  N   UNL     1      30.355   6.450  47.555  1.00  0.00    -0.264 NA
ATOM      6  C   UNL     1      29.025   6.404  47.827  1.00  0.00     0.111 A 
ENDROOT
BRANCH   1   7
ATOM      7  C   UNL     1      31.756   3.811  49.826  1.00  0.00     0.073 C 
ATOM      8  O   UNL     1      31.876   3.842  51.080  1.00  0.00    -0.545 OA
ATOM      9  O   UNL     1      32.538   2.924  49.096  1.00  0.00    -0.545 OA
ENDBRANCH   1   7
TORSDOF 1
ENDMDL
MODEL 3
REMARK VINA RESULT:    -3.629     16.961     17.840
REMARK INTER + INTRA:          -3.857
REMARK INTER:                  -3.841
REMARK INTRA:                  -0.017
REMARK UNBOUND:                -0.016
REMARK SMILES O=C([O-])c1cccnc1
REMARK SMILES IDX 4 1 5 2 9 3 6 4 8 5 7 6 2 7 1 8 3 9
REMARK H PARENT
REMARK Flexibility Score: inf
ROOT
ATOM      1  C   UNL     1      21.957  -1.946  57.117  1.00  0.00     0.016 A 
ATOM      2  C   UNL     1      22.840  -2.791  57.812  1.00  0.00     0.013 A 
ATOM      3  C   UNL     1      22.278  -1.585  55.797  1.00  0.00     0.120 A 
ATOM      4  C   UNL     1      24.003  -3.251  57.192  1.00  0.00     0.021 A 
ATOM      5  N   UNL     1      23.419  -2.048  55.217  1.00  0.00    -0.264 NA
ATOM      6  C   UNL     1      24.278  -2.865  55.880  1.00  0.00     0.111 A 
ENDROOT
BRANCH   1   7
ATOM      7  C   UNL     1      20.720  -1.448  57.755  1.00  0.00     0.073 C 
ATOM      8  O   UNL     1      20.628  -0.247  58.125  1.00  0.00    -0.545 OA
ATOM      9  O   UNL     1      19.639  -2.299  57.954  1.00  0.00    -0.545 OA
ENDBRANCH   1   7
TORSDOF 1
ENDMDL
MODEL 4
REMARK VINA RESULT:    -3.482      9.850     10.960
REMARK INTER + INTRA:          -3.702
REMARK INTER:                  -3.684
REMARK INTRA:                  -0.017
REMARK UNBOUND:                -0.016
REMARK SMILES O=C([O-])c1cccnc1
REMARK SMILES IDX 4 1 5 2 9 3 6 4 8 5 7 6 2 7 1 8 3 9
REMARK H PARENT
REMARK Flexibility Score: inf
ROOT
ATOM      1  C   UNL     1      30.956   6.086  47.303  1.00  0.00     0.016 A 
ATOM      2  C   UNL     1      31.441   5.542  48.505  1.00  0.00     0.013 A 
ATOM      3  C   UNL     1      29.568   6.073  47.076  1.00  0.00     0.120 A 
ATOM      4  C   UNL     1      30.554   5.006  49.439  1.00  0.00     0.021 A 
ATOM      5  N   UNL     1      28.727   5.543  48.004  1.00  0.00    -0.264 NA
ATOM      6  C   UNL     1      29.186   5.016  49.169  1.00  0.00     0.111 A 
ENDROOT
BRANCH   1   7
ATOM      7  C   UNL     1      31.878   6.659  46.299  1.00  0.00     0.073 C 
ATOM      8  O   UNL     1      31.980   6.144  45.154  1.00  0.00    -0.545 OA
ATOM      9  O   UNL     1      32.645   7.777  46.606  1.00  0.00    -0.545 OA
ENDBRANCH   1   7
TORSDOF 1
ENDMDL
MODEL 5
REMARK VINA RESULT:    -3.446      9.590     10.392
REMARK INTER + INTRA:          -3.664
REMARK INTER:                  -3.643
REMARK INTRA:                  -0.021
REMARK UNBOUND:                -0.016
REMARK SMILES O=C([O-])c1cccnc1
REMARK SMILES IDX 4 1 5 2 9 3 6 4 8 5 7 6 2 7 1 8 3 9
REMARK H PARENT
REMARK Flexibility Score: inf
ROOT
ATOM      1  C   UNL     1      28.726   5.368  48.481  1.00  0.00     0.016 A 
ATOM      2  C   UNL     1      29.366   4.611  49.477  1.00  0.00     0.013 A 
ATOM      3  C   UNL     1      29.523   6.111  47.593  1.00  0.00     0.120 A 
ATOM      4  C   UNL     1      30.758   4.607  49.569  1.00  0.00     0.021 A 
ATOM      5  N   UNL     1      30.878   6.090  47.705  1.00  0.00    -0.264 NA
ATOM      6  C   UNL     1      31.506   5.360  48.664  1.00  0.00     0.111 A 
ENDROOT
BRANCH   1   7
ATOM      7  C   UNL     1      27.252   5.386  48.366  1.00  0.00     0.073 C 
ATOM      8  O   UNL     1      26.653   6.420  47.969  1.00  0.00    -0.545 OA
ATOM      9  O   UNL     1      26.507   4.259  48.695  1.00  0.00    -0.545 OA
ENDBRANCH   1   7
TORSDOF 1
ENDMDL
MODEL 6
REMARK VINA RESULT:    -3.396     15.698     16.619
REMARK INTER + INTRA:          -3.611
REMARK INTER:                  -3.595
REMARK INTRA:                  -0.016
REMARK UNBOUND:                -0.016
REMARK SMILES O=C([O-])c1cccnc1
REMARK SMILES IDX 4 1 5 2 9 3 6 4 8 5 7 6 2 7 1 8 3 9
REMARK H PARENT
REMARK Flexibility Score: inf
ROOT
ATOM      1  C   UNL     1      23.238  -3.811  55.072  1.00  0.00     0.016 A 
ATOM      2  C   UNL     1      24.234  -3.226  55.873  1.00  0.00     0.013 A 
ATOM      3  C   UNL     1      22.007  -4.136  55.669  1.00  0.00     0.120 A 
ATOM      4  C   UNL     1      23.990  -2.979  57.225  1.00  0.00     0.021 A 
ATOM      5  N   UNL     1      21.797  -3.885  56.989  1.00  0.00    -0.264 NA
ATOM      6  C   UNL     1      22.752  -3.319  57.771  1.00  0.00     0.111 A 
ENDROOT
BRANCH   1   7
ATOM      7  C   UNL     1      23.475  -4.080  53.638  1.00  0.00     0.073 C 
ATOM      8  O   UNL     1      23.984  -5.171  53.266  1.00  0.00    -0.545 OA
ATOM      9  O   UNL     1      23.138  -3.132  52.679  1.00  0.00    -0.545 OA
ENDBRANCH   1   7
TORSDOF 1
ENDMDL
MODEL 7
REMARK VINA RESULT:    -3.363      3.052      3.877
REMARK INTER + INTRA:          -3.576
REMARK INTER:                  -3.559
REMARK INTRA:                  -0.017
REMARK UNBOUND:                -0.016
REMARK SMILES O=C([O-])c1cccnc1
REMARK SMILES IDX 4 1 5 2 9 3 6 4 8 5 7 6 2 7 1 8 3 9
REMARK H PARENT
REMARK Flexibility Score: inf
ROOT
ATOM      1  C   UNL     1      25.057   3.676  40.807  1.00  0.00     0.016 A 
ATOM      2  C   UNL     1      24.986   3.093  39.530  1.00  0.00     0.013 A 
ATOM      3  C   UNL     1      24.184   3.207  41.804  1.00  0.00     0.120 A 
ATOM      4  C   UNL     1      24.065   2.076  39.274  1.00  0.00     0.021 A 
ATOM      5  N   UNL     1      23.297   2.214  41.528  1.00  0.00    -0.264 NA
ATOM      6  C   UNL     1      23.220   1.644  40.297  1.00  0.00     0.111 A 
ENDROOT
BRANCH   1   7
ATOM      7  C   UNL     1      26.025   4.755  41.099  1.00  0.00     0.073 C 
ATOM      8  O   UNL     1      27.260   4.513  41.143  1.00  0.00    -0.545 OA
ATOM      9  O   UNL     1      25.583   6.053  41.329  1.00  0.00    -0.545 OA
ENDBRANCH   1   7
TORSDOF 1
ENDMDL
MODEL 8
REMARK VINA RESULT:    -3.263      9.613     10.612
REMARK INTER + INTRA:          -3.470
REMARK INTER:                  -3.450
REMARK INTRA:                  -0.021
REMARK UNBOUND:                -0.016
REMARK SMILES O=C([O-])c1cccnc1
REMARK SMILES IDX 4 1 5 2 9 3 6 4 8 5 7 6 2 7 1 8 3 9
REMARK H PARENT
REMARK Flexibility Score: inf
ROOT
ATOM      1  C   UNL     1      29.779   5.287  48.140  1.00  0.00     0.016 A 
ATOM      2  C   UNL     1      28.870   4.769  49.079  1.00  0.00     0.013 A 
ATOM      3  C   UNL     1      29.291   5.668  46.878  1.00  0.00     0.120 A 
ATOM      4  C   UNL     1      27.520   4.642  48.750  1.00  0.00     0.021 A 
ATOM      5  N   UNL     1      27.970   5.533  46.584  1.00  0.00    -0.264 NA
ATOM      6  C   UNL     1      27.083   5.034  47.485  1.00  0.00     0.111 A 
ENDROOT
BRANCH   1   7
ATOM      7  C   UNL     1      31.213   5.430  48.468  1.00  0.00     0.073 C 
ATOM      8  O   UNL     1      31.880   6.399  48.017  1.00  0.00    -0.545 OA
ATOM      9  O   UNL     1      31.846   4.496  49.280  1.00  0.00    -0.545 OA
ENDBRANCH   1   7
TORSDOF 1
ENDMDL
