MODEL 1
REMARK VINA RESULT:    19.446      0.000      0.000
REMARK INTER + INTRA:          49.978
REMARK INTER:                  51.276
REMARK INTRA:                  -1.297
REMARK UNBOUND:                -1.297
REMARK SMILES CCCCCCCCCCCCCCCCCCCCCCCCCCCCCC(=O)[O-]
REMARK SMILES IDX 16 1 17 2 18 3 19 4 20 5 21 6 22 7 23 8 24 9 25 10 26 11
REMARK SMILES IDX 27 12 28 13 29 14 30 15 31 16 32 17 15 18 14 19 13 20 12 21
REMARK SMILES IDX 11 22 10 23 9 24 8 25 7 26 6 27 5 28 4 29 3 30 2 31 1 32
REMARK H PARENT
REMARK Flexibility Score: inf
ROOT
ATOM      1  C   UNL     1       9.079 -53.562  -3.502  1.00  0.00     0.000 C 
ENDROOT
BRANCH   1   2
ATOM      2  C   UNL     1       8.432 -52.199  -3.799  1.00  0.00     0.000 C 
BRANCH   2   3
ATOM      3  C   UNL     1       8.630 -51.183  -2.651  1.00  0.00     0.000 C 
BRANCH   3   4
ATOM      4  C   UNL     1       9.918 -50.347  -2.775  1.00  0.00     0.000 C 
BRANCH   4   5
ATOM      5  C   UNL     1       9.921 -49.024  -1.986  1.00  0.00     0.000 C 
BRANCH   5   6
ATOM      6  C   UNL     1      10.435 -47.809  -2.792  1.00  0.00     0.000 C 
BRANCH   6   7
ATOM      7  C   UNL     1       9.299 -46.951  -3.375  1.00  0.00     0.000 C 
BRANCH   7   8
ATOM      8  C   UNL     1       8.412 -46.324  -2.283  1.00  0.00     0.000 C 
BRANCH   8   9
ATOM      9  C   UNL     1       7.459 -45.230  -2.800  1.00  0.00     0.000 C 
BRANCH   9  10
ATOM     10  C   UNL     1       6.376 -44.859  -1.770  1.00  0.00     0.000 C 
BRANCH  10  11
ATOM     11  C   UNL     1       5.992 -46.040  -0.860  1.00  0.00     0.000 C 
BRANCH  11  12
ATOM     12  C   UNL     1       5.696 -47.360  -1.598  1.00  0.00     0.000 C 
BRANCH  12  13
ATOM     13  C   UNL     1       4.203 -47.642  -1.865  1.00  0.00     0.006 C 
BRANCH  13  14
ATOM     14  C   UNL     1       3.411 -48.097  -0.629  1.00  0.00     0.053 C 
BRANCH  14  15
ATOM     15  C   UNL     1       2.290 -47.157  -0.304  1.00  0.00     0.041 C 
ATOM     16  O   UNL     1       1.189 -47.604   0.113  1.00  0.00    -0.550 OA
ATOM     17  O   UNL     1       2.451 -45.791  -0.495  1.00  0.00    -0.550 OA
ENDBRANCH  14  15
ENDBRANCH  13  14
ENDBRANCH  12  13
ENDBRANCH  11  12
ENDBRANCH  10  11
ENDBRANCH   9  10
ENDBRANCH   8   9
ENDBRANCH   7   8
ENDBRANCH   6   7
ENDBRANCH   5   6
ENDBRANCH   4   5
ENDBRANCH   3   4
ENDBRANCH   2   3
ENDBRANCH   1   2
BRANCH   1  18
ATOM     18  C   UNL     1      10.512 -53.665  -4.048  1.00  0.00     0.000 C 
BRANCH  18  19
ATOM     19  C   UNL     1      10.907 -55.111  -4.391  1.00  0.00     0.000 C 
BRANCH  19  20
ATOM     20  C   UNL     1      11.299 -55.924  -3.145  1.00  0.00     0.000 C 
BRANCH  20  21
ATOM     21  C   UNL     1      11.474 -57.435  -3.390  1.00  0.00     0.000 C 
BRANCH  21  22
ATOM     22  C   UNL     1      12.889 -57.985  -3.123  1.00  0.00     0.000 C 
BRANCH  22  23
ATOM     23  C   UNL     1      13.775 -58.150  -4.374  1.00  0.00     0.000 C 
BRANCH  23  24
ATOM     24  C   UNL     1      15.271 -58.281  -4.038  1.00  0.00    -0.000 C 
BRANCH  24  25
ATOM     25  C   UNL     1      15.635 -59.690  -3.522  1.00  0.00    -0.000 C 
BRANCH  25  26
ATOM     26  C   UNL     1      16.656 -59.685  -2.369  1.00  0.00    -0.000 C 
BRANCH  26  27
ATOM     27  C   UNL     1      18.094 -59.428  -2.848  1.00  0.00    -0.000 C 
BRANCH  27  28
ATOM     28  C   UNL     1      18.662 -58.093  -2.340  1.00  0.00    -0.000 C 
BRANCH  28  29
ATOM     29  C   UNL     1      17.602 -57.220  -1.652  1.00  0.00    -0.000 C 
BRANCH  29  30
ATOM     30  C   UNL     1      17.613 -55.793  -2.221  1.00  0.00    -0.000 C 
BRANCH  30  31
ATOM     31  C   UNL     1      17.357 -55.758  -3.736  1.00  0.00    -0.003 C 
ATOM     32  C   UNL     1      17.484 -54.355  -4.326  1.00  0.00     0.004 C 
ENDBRANCH  30  31
ENDBRANCH  29  30
ENDBRANCH  28  29
ENDBRANCH  27  28
ENDBRANCH  26  27
ENDBRANCH  25  26
ENDBRANCH  24  25
ENDBRANCH  23  24
ENDBRANCH  22  23
ENDBRANCH  21  22
ENDBRANCH  20  21
ENDBRANCH  19  20
ENDBRANCH  18  19
ENDBRANCH   1  18
TORSDOF 28
ENDMDL
MODEL 2
REMARK VINA RESULT:    19.600      4.662     13.868
REMARK INTER + INTRA:          50.385
REMARK INTER:                  50.375
REMARK INTRA:                   0.010
REMARK UNBOUND:                -1.297
REMARK SMILES CCCCCCCCCCCCCCCCCCCCCCCCCCCCCC(=O)[O-]
REMARK SMILES IDX 16 1 17 2 18 3 19 4 20 5 21 6 22 7 23 8 24 9 25 10 26 11
REMARK SMILES IDX 27 12 28 13 29 14 30 15 31 16 32 17 15 18 14 19 13 20 12 21
REMARK SMILES IDX 11 22 10 23 9 24 8 25 7 26 6 27 5 28 4 29 3 30 2 31 1 32
REMARK H PARENT
REMARK Flexibility Score: inf
ROOT
ATOM      1  C   UNL     1      10.277 -54.747  -4.444  1.00  0.00     0.000 C 
ENDROOT
BRANCH   1   2
ATOM      2  C   UNL     1      11.535 -55.555  -4.086  1.00  0.00     0.000 C 
BRANCH   2   3
ATOM      3  C   UNL     1      11.214 -56.823  -3.262  1.00  0.00     0.000 C 
BRANCH   3   4
ATOM      4  C   UNL     1      12.410 -57.781  -3.103  1.00  0.00     0.000 C 
BRANCH   4   5
ATOM      5  C   UNL     1      13.337 -57.885  -4.329  1.00  0.00     0.000 C 
BRANCH   5   6
ATOM      6  C   UNL     1      14.829 -58.082  -3.979  1.00  0.00     0.000 C 
BRANCH   6   7
ATOM      7  C   UNL     1      15.194 -59.552  -3.711  1.00  0.00     0.000 C 
BRANCH   7   8
ATOM      8  C   UNL     1      16.396 -59.699  -2.760  1.00  0.00     0.000 C 
BRANCH   8   9
ATOM      9  C   UNL     1      17.590 -60.457  -3.370  1.00  0.00     0.000 C 
BRANCH   9  10
ATOM     10  C   UNL     1      18.943 -59.946  -2.841  1.00  0.00     0.000 C 
BRANCH  10  11
ATOM     11  C   UNL     1      19.069 -58.414  -2.912  1.00  0.00     0.000 C 
BRANCH  11  12
ATOM     12  C   UNL     1      18.827 -57.679  -1.579  1.00  0.00     0.000 C 
BRANCH  12  13
ATOM     13  C   UNL     1      18.032 -56.362  -1.689  1.00  0.00     0.006 C 
BRANCH  13  14
ATOM     14  C   UNL     1      17.074 -56.297  -2.889  1.00  0.00     0.053 C 
BRANCH  14  15
ATOM     15  C   UNL     1      17.446 -55.206  -3.846  1.00  0.00     0.041 C 
ATOM     16  O   UNL     1      17.813 -55.487  -5.017  1.00  0.00    -0.550 OA
ATOM     17  O   UNL     1      17.419 -53.880  -3.432  1.00  0.00    -0.550 OA
ENDBRANCH  14  15
ENDBRANCH  13  14
ENDBRANCH  12  13
ENDBRANCH  11  12
ENDBRANCH  10  11
ENDBRANCH   9  10
ENDBRANCH   8   9
ENDBRANCH   7   8
ENDBRANCH   6   7
ENDBRANCH   5   6
ENDBRANCH   4   5
ENDBRANCH   3   4
ENDBRANCH   2   3
ENDBRANCH   1   2
BRANCH   1  18
ATOM     18  C   UNL     1      10.004 -53.610  -3.448  1.00  0.00     0.000 C 
BRANCH  18  19
ATOM     19  C   UNL     1       8.651 -52.922  -3.697  1.00  0.00     0.000 C 
BRANCH  19  20
ATOM     20  C   UNL     1       8.424 -51.717  -2.768  1.00  0.00     0.000 C 
BRANCH  20  21
ATOM     21  C   UNL     1       9.152 -50.427  -3.195  1.00  0.00     0.000 C 
BRANCH  21  22
ATOM     22  C   UNL     1      10.011 -49.764  -2.101  1.00  0.00     0.000 C 
BRANCH  22  23
ATOM     23  C   UNL     1      10.873 -48.577  -2.574  1.00  0.00     0.000 C 
BRANCH  23  24
ATOM     24  C   UNL     1      10.170 -47.707  -3.632  1.00  0.00    -0.000 C 
BRANCH  24  25
ATOM     25  C   UNL     1       9.541 -46.436  -3.021  1.00  0.00    -0.000 C 
BRANCH  25  26
ATOM     26  C   UNL     1       8.105 -46.159  -3.505  1.00  0.00    -0.000 C 
BRANCH  26  27
ATOM     27  C   UNL     1       7.564 -44.804  -3.020  1.00  0.00    -0.000 C 
BRANCH  27  28
ATOM     28  C   UNL     1       6.030 -44.732  -3.046  1.00  0.00    -0.000 C 
BRANCH  28  29
ATOM     29  C   UNL     1       5.449 -44.000  -1.826  1.00  0.00    -0.000 C 
BRANCH  29  30
ATOM     30  C   UNL     1       6.418 -44.062  -0.636  1.00  0.00    -0.000 C 
BRANCH  30  31
ATOM     31  C   UNL     1       7.183 -45.393  -0.565  1.00  0.00    -0.003 C 
ATOM     32  C   UNL     1       7.981 -45.550   0.728  1.00  0.00     0.004 C 
ENDBRANCH  30  31
ENDBRANCH  29  30
ENDBRANCH  28  29
ENDBRANCH  27  28
ENDBRANCH  26  27
ENDBRANCH  25  26
ENDBRANCH  24  25
ENDBRANCH  23  24
ENDBRANCH  22  23
ENDBRANCH  21  22
ENDBRANCH  20  21
ENDBRANCH  19  20
ENDBRANCH  18  19
ENDBRANCH   1  18
TORSDOF 28
ENDMDL
MODEL 3
REMARK VINA RESULT:    19.642      1.864      3.306
REMARK INTER + INTRA:          50.497
REMARK INTER:                  50.627
REMARK INTRA:                  -0.129
REMARK UNBOUND:                -1.297
REMARK SMILES CCCCCCCCCCCCCCCCCCCCCCCCCCCCCC(=O)[O-]
REMARK SMILES IDX 16 1 17 2 18 3 19 4 20 5 21 6 22 7 23 8 24 9 25 10 26 11
REMARK SMILES IDX 27 12 28 13 29 14 30 15 31 16 32 17 15 18 14 19 13 20 12 21
REMARK SMILES IDX 11 22 10 23 9 24 8 25 7 26 6 27 5 28 4 29 3 30 2 31 1 32
REMARK H PARENT
REMARK Flexibility Score: inf
ROOT
ATOM      1  C   UNL     1      11.350 -55.031  -3.853  1.00  0.00     0.000 C 
ENDROOT
BRANCH   1   2
ATOM      2  C   UNL     1      10.223 -54.175  -4.456  1.00  0.00     0.000 C 
BRANCH   2   3
ATOM      3  C   UNL     1       9.188 -53.724  -3.400  1.00  0.00     0.000 C 
BRANCH   3   4
ATOM      4  C   UNL     1       8.464 -52.413  -3.760  1.00  0.00     0.000 C 
BRANCH   4   5
ATOM      5  C   UNL     1       8.417 -51.358  -2.639  1.00  0.00     0.000 C 
BRANCH   5   6
ATOM      6  C   UNL     1       9.423 -50.198  -2.818  1.00  0.00     0.000 C 
BRANCH   6   7
ATOM      7  C   UNL     1       9.941 -49.641  -1.482  1.00  0.00     0.000 C 
BRANCH   7   8
ATOM      8  C   UNL     1      11.029 -48.568  -1.671  1.00  0.00     0.000 C 
BRANCH   8   9
ATOM      9  C   UNL     1      11.456 -48.358  -3.136  1.00  0.00     0.000 C 
BRANCH   9  10
ATOM     10  C   UNL     1      10.440 -47.517  -3.930  1.00  0.00     0.000 C 
BRANCH  10  11
ATOM     11  C   UNL     1       9.669 -46.522  -3.044  1.00  0.00     0.000 C 
BRANCH  11  12
ATOM     12  C   UNL     1       8.163 -46.409  -3.353  1.00  0.00     0.000 C 
BRANCH  12  13
ATOM     13  C   UNL     1       7.658 -44.980  -3.640  1.00  0.00     0.006 C 
BRANCH  13  14
ATOM     14  C   UNL     1       6.944 -44.308  -2.457  1.00  0.00     0.053 C 
BRANCH  14  15
ATOM     15  C   UNL     1       6.766 -45.247  -1.303  1.00  0.00     0.041 C 
ATOM     16  O   UNL     1       7.712 -45.445  -0.495  1.00  0.00    -0.550 OA
ATOM     17  O   UNL     1       5.567 -45.929  -1.140  1.00  0.00    -0.550 OA
ENDBRANCH  14  15
ENDBRANCH  13  14
ENDBRANCH  12  13
ENDBRANCH  11  12
ENDBRANCH  10  11
ENDBRANCH   9  10
ENDBRANCH   8   9
ENDBRANCH   7   8
ENDBRANCH   6   7
ENDBRANCH   5   6
ENDBRANCH   4   5
ENDBRANCH   3   4
ENDBRANCH   2   3
ENDBRANCH   1   2
BRANCH   1  18
ATOM     18  C   UNL     1      11.179 -56.528  -4.155  1.00  0.00     0.000 C 
BRANCH  18  19
ATOM     19  C   UNL     1      11.650 -57.419  -2.994  1.00  0.00     0.000 C 
BRANCH  19  20
ATOM     20  C   UNL     1      13.156 -57.723  -3.060  1.00  0.00     0.000 C 
BRANCH  20  21
ATOM     21  C   UNL     1      13.737 -57.799  -4.485  1.00  0.00     0.000 C 
BRANCH  21  22
ATOM     22  C   UNL     1      15.079 -58.549  -4.609  1.00  0.00     0.000 C 
BRANCH  22  23
ATOM     23  C   UNL     1      15.221 -59.792  -3.708  1.00  0.00     0.000 C 
BRANCH  23  24
ATOM     24  C   UNL     1      16.401 -59.690  -2.726  1.00  0.00    -0.000 C 
BRANCH  24  25
ATOM     25  C   UNL     1      17.632 -60.491  -3.204  1.00  0.00    -0.000 C 
BRANCH  25  26
ATOM     26  C   UNL     1      18.978 -59.883  -2.767  1.00  0.00    -0.000 C 
BRANCH  26  27
ATOM     27  C   UNL     1      18.910 -58.359  -2.582  1.00  0.00    -0.000 C 
BRANCH  27  28
ATOM     28  C   UNL     1      17.773 -57.921  -1.646  1.00  0.00    -0.000 C 
BRANCH  28  29
ATOM     29  C   UNL     1      17.448 -56.424  -1.765  1.00  0.00    -0.000 C 
BRANCH  29  30
ATOM     30  C   UNL     1      18.148 -55.806  -2.985  1.00  0.00    -0.000 C 
BRANCH  30  31
ATOM     31  C   UNL     1      17.334 -54.668  -3.621  1.00  0.00    -0.003 C 
ATOM     32  C   UNL     1      17.230 -54.791  -5.140  1.00  0.00     0.004 C 
ENDBRANCH  30  31
ENDBRANCH  29  30
ENDBRANCH  28  29
ENDBRANCH  27  28
ENDBRANCH  26  27
ENDBRANCH  25  26
ENDBRANCH  24  25
ENDBRANCH  23  24
ENDBRANCH  22  23
ENDBRANCH  21  22
ENDBRANCH  20  21
ENDBRANCH  19  20
ENDBRANCH  18  19
ENDBRANCH   1  18
TORSDOF 28
ENDMDL
MODEL 4
REMARK VINA RESULT:    19.860      1.769      4.074
REMARK INTER + INTRA:          51.072
REMARK INTER:                  52.198
REMARK INTRA:                  -1.126
REMARK UNBOUND:                -1.297
REMARK SMILES CCCCCCCCCCCCCCCCCCCCCCCCCCCCCC(=O)[O-]
REMARK SMILES IDX 16 1 17 2 18 3 19 4 20 5 21 6 22 7 23 8 24 9 25 10 26 11
REMARK SMILES IDX 27 12 28 13 29 14 30 15 31 16 32 17 15 18 14 19 13 20 12 21
REMARK SMILES IDX 11 22 10 23 9 24 8 25 7 26 6 27 5 28 4 29 3 30 2 31 1 32
REMARK H PARENT
REMARK Flexibility Score: inf
ROOT
ATOM      1  C   UNL     1      11.455 -57.167  -3.066  1.00  0.00     0.000 C 
ENDROOT
BRANCH   1   2
ATOM      2  C   UNL     1      11.404 -56.292  -4.329  1.00  0.00     0.000 C 
BRANCH   2   3
ATOM      3  C   UNL     1      11.442 -54.780  -4.008  1.00  0.00     0.000 C 
BRANCH   3   4
ATOM      4  C   UNL     1      10.073 -54.085  -4.123  1.00  0.00     0.000 C 
BRANCH   4   5
ATOM      5  C   UNL     1       9.995 -52.679  -3.499  1.00  0.00     0.000 C 
BRANCH   5   6
ATOM      6  C   UNL     1       8.555 -52.154  -3.299  1.00  0.00     0.000 C 
BRANCH   6   7
ATOM      7  C   UNL     1       8.475 -50.619  -3.263  1.00  0.00     0.000 C 
BRANCH   7   8
ATOM      8  C   UNL     1       8.973 -50.032  -1.930  1.00  0.00     0.000 C 
BRANCH   8   9
ATOM      9  C   UNL     1      10.380 -49.409  -2.004  1.00  0.00     0.000 C 
BRANCH   9  10
ATOM     10  C   UNL     1      10.446 -48.222  -2.982  1.00  0.00     0.000 C 
BRANCH  10  11
ATOM     11  C   UNL     1       9.339 -47.182  -2.731  1.00  0.00     0.000 C 
BRANCH  11  12
ATOM     12  C   UNL     1       8.844 -47.099  -1.274  1.00  0.00     0.000 C 
BRANCH  12  13
ATOM     13  C   UNL     1       8.239 -45.741  -0.863  1.00  0.00     0.006 C 
BRANCH  13  14
ATOM     14  C   UNL     1       7.419 -45.051  -1.965  1.00  0.00     0.053 C 
BRANCH  14  15
ATOM     15  C   UNL     1       5.953 -45.058  -1.660  1.00  0.00     0.041 C 
ATOM     16  O   UNL     1       5.334 -43.974  -1.495  1.00  0.00    -0.550 OA
ATOM     17  O   UNL     1       5.276 -46.264  -1.526  1.00  0.00    -0.550 OA
ENDBRANCH  14  15
ENDBRANCH  13  14
ENDBRANCH  12  13
ENDBRANCH  11  12
ENDBRANCH  10  11
ENDBRANCH   9  10
ENDBRANCH   8   9
ENDBRANCH   7   8
ENDBRANCH   6   7
ENDBRANCH   5   6
ENDBRANCH   4   5
ENDBRANCH   3   4
ENDBRANCH   2   3
ENDBRANCH   1   2
BRANCH   1  18
ATOM     18  C   UNL     1      12.613 -58.177  -3.095  1.00  0.00     0.000 C 
BRANCH  18  19
ATOM     19  C   UNL     1      13.920 -57.557  -3.617  1.00  0.00     0.000 C 
BRANCH  19  20
ATOM     20  C   UNL     1      14.860 -58.606  -4.236  1.00  0.00     0.000 C 
BRANCH  20  21
ATOM     21  C   UNL     1      15.150 -59.823  -3.336  1.00  0.00     0.000 C 
BRANCH  21  22
ATOM     22  C   UNL     1      16.500 -59.784  -2.592  1.00  0.00     0.000 C 
BRANCH  22  23
ATOM     23  C   UNL     1      17.741 -60.036  -3.470  1.00  0.00     0.000 C 
BRANCH  23  24
ATOM     24  C   UNL     1      19.043 -59.516  -2.836  1.00  0.00    -0.000 C 
BRANCH  24  25
ATOM     25  C   UNL     1      18.892 -58.084  -2.278  1.00  0.00    -0.000 C 
BRANCH  25  26
ATOM     26  C   UNL     1      18.176 -58.021  -0.915  1.00  0.00    -0.000 C 
BRANCH  26  27
ATOM     27  C   UNL     1      17.618 -56.623  -0.601  1.00  0.00    -0.000 C 
BRANCH  27  28
ATOM     28  C   UNL     1      18.058 -55.562  -1.621  1.00  0.00    -0.000 C 
BRANCH  28  29
ATOM     29  C   UNL     1      16.920 -55.130  -2.558  1.00  0.00    -0.000 C 
BRANCH  29  30
ATOM     30  C   UNL     1      16.956 -55.929  -3.870  1.00  0.00    -0.000 C 
BRANCH  30  31
ATOM     31  C   UNL     1      17.839 -55.267  -4.941  1.00  0.00    -0.003 C 
ATOM     32  C   UNL     1      17.774 -53.742  -4.902  1.00  0.00     0.004 C 
ENDBRANCH  30  31
ENDBRANCH  29  30
ENDBRANCH  28  29
ENDBRANCH  27  28
ENDBRANCH  26  27
ENDBRANCH  25  26
ENDBRANCH  24  25
ENDBRANCH  23  24
ENDBRANCH  22  23
ENDBRANCH  21  22
ENDBRANCH  20  21
ENDBRANCH  19  20
ENDBRANCH  18  19
ENDBRANCH   1  18
TORSDOF 28
ENDMDL
MODEL 5
REMARK VINA RESULT:    19.920      1.376      1.670
REMARK INTER + INTRA:          51.228
REMARK INTER:                  52.826
REMARK INTRA:                  -1.598
REMARK UNBOUND:                -1.297
REMARK SMILES CCCCCCCCCCCCCCCCCCCCCCCCCCCCCC(=O)[O-]
REMARK SMILES IDX 16 1 17 2 18 3 19 4 20 5 21 6 22 7 23 8 24 9 25 10 26 11
REMARK SMILES IDX 27 12 28 13 29 14 30 15 31 16 32 17 15 18 14 19 13 20 12 21
REMARK SMILES IDX 11 22 10 23 9 24 8 25 7 26 6 27 5 28 4 29 3 30 2 31 1 32
REMARK H PARENT
REMARK Flexibility Score: inf
ROOT
ATOM      1  C   UNL     1       8.797 -52.693  -3.886  1.00  0.00     0.000 C 
ENDROOT
BRANCH   1   2
ATOM      2  C   UNL     1       8.507 -51.850  -2.632  1.00  0.00     0.000 C 
BRANCH   2   3
ATOM      3  C   UNL     1       9.040 -50.404  -2.750  1.00  0.00     0.000 C 
BRANCH   3   4
ATOM      4  C   UNL     1       9.744 -49.895  -1.479  1.00  0.00     0.000 C 
BRANCH   4   5
ATOM      5  C   UNL     1      10.582 -48.615  -1.658  1.00  0.00     0.000 C 
BRANCH   5   6
ATOM      6  C   UNL     1      11.012 -48.339  -3.117  1.00  0.00     0.000 C 
BRANCH   6   7
ATOM      7  C   UNL     1      10.072 -47.364  -3.846  1.00  0.00     0.000 C 
BRANCH   7   8
ATOM      8  C   UNL     1       8.967 -46.810  -2.927  1.00  0.00     0.000 C 
BRANCH   8   9
ATOM      9  C   UNL     1       8.033 -45.794  -3.610  1.00  0.00     0.000 C 
BRANCH   9  10
ATOM     10  C   UNL     1       7.716 -44.587  -2.708  1.00  0.00     0.000 C 
BRANCH  10  11
ATOM     11  C   UNL     1       7.114 -45.000  -1.353  1.00  0.00     0.000 C 
BRANCH  11  12
ATOM     12  C   UNL     1       5.588 -44.818  -1.237  1.00  0.00     0.000 C 
BRANCH  12  13
ATOM     13  C   UNL     1       4.787 -46.117  -1.015  1.00  0.00     0.006 C 
BRANCH  13  14
ATOM     14  C   UNL     1       5.583 -47.406  -1.274  1.00  0.00     0.053 C 
BRANCH  14  15
ATOM     15  C   UNL     1       4.694 -48.545  -1.668  1.00  0.00     0.041 C 
ATOM     16  O   UNL     1       4.012 -48.481  -2.725  1.00  0.00    -0.550 OA
ATOM     17  O   UNL     1       4.593 -49.664  -0.850  1.00  0.00    -0.550 OA
ENDBRANCH  14  15
ENDBRANCH  13  14
ENDBRANCH  12  13
ENDBRANCH  11  12
ENDBRANCH  10  11
ENDBRANCH   9  10
ENDBRANCH   8   9
ENDBRANCH   7   8
ENDBRANCH   6   7
ENDBRANCH   5   6
ENDBRANCH   4   5
ENDBRANCH   3   4
ENDBRANCH   2   3
ENDBRANCH   1   2
BRANCH   1  18
ATOM     18  C   UNL     1       9.472 -54.032  -3.552  1.00  0.00     0.000 C 
BRANCH  18  19
ATOM     19  C   UNL     1      10.652 -54.344  -4.487  1.00  0.00     0.000 C 
BRANCH  19  20
ATOM     20  C   UNL     1      11.650 -55.335  -3.862  1.00  0.00     0.000 C 
BRANCH  20  21
ATOM     21  C   UNL     1      11.045 -56.695  -3.464  1.00  0.00     0.000 C 
BRANCH  21  22
ATOM     22  C   UNL     1      12.065 -57.766  -3.026  1.00  0.00     0.000 C 
BRANCH  22  23
ATOM     23  C   UNL     1      13.417 -57.723  -3.765  1.00  0.00     0.000 C 
BRANCH  23  24
ATOM     24  C   UNL     1      14.132 -59.086  -3.790  1.00  0.00    -0.000 C 
BRANCH  24  25
ATOM     25  C   UNL     1      15.668 -58.941  -3.854  1.00  0.00    -0.000 C 
BRANCH  25  26
ATOM     26  C   UNL     1      16.409 -59.659  -2.711  1.00  0.00    -0.000 C 
BRANCH  26  27
ATOM     27  C   UNL     1      17.936 -59.505  -2.802  1.00  0.00    -0.000 C 
BRANCH  27  28
ATOM     28  C   UNL     1      18.459 -58.281  -2.034  1.00  0.00    -0.000 C 
BRANCH  28  29
ATOM     29  C   UNL     1      18.312 -56.974  -2.829  1.00  0.00    -0.000 C 
BRANCH  29  30
ATOM     30  C   UNL     1      17.039 -56.221  -2.416  1.00  0.00    -0.000 C 
BRANCH  30  31
ATOM     31  C   UNL     1      16.847 -54.911  -3.198  1.00  0.00    -0.003 C 
ATOM     32  C   UNL     1      17.726 -54.831  -4.444  1.00  0.00     0.004 C 
ENDBRANCH  30  31
ENDBRANCH  29  30
ENDBRANCH  28  29
ENDBRANCH  27  28
ENDBRANCH  26  27
ENDBRANCH  25  26
ENDBRANCH  24  25
ENDBRANCH  23  24
ENDBRANCH  22  23
ENDBRANCH  21  22
ENDBRANCH  20  21
ENDBRANCH  19  20
ENDBRANCH  18  19
ENDBRANCH   1  18
TORSDOF 28
ENDMDL
MODEL 6
REMARK VINA RESULT:    20.036      4.399     13.733
REMARK INTER + INTRA:          51.535
REMARK INTER:                  52.937
REMARK INTRA:                  -1.402
REMARK UNBOUND:                -1.297
REMARK SMILES CCCCCCCCCCCCCCCCCCCCCCCCCCCCCC(=O)[O-]
REMARK SMILES IDX 16 1 17 2 18 3 19 4 20 5 21 6 22 7 23 8 24 9 25 10 26 11
REMARK SMILES IDX 27 12 28 13 29 14 30 15 31 16 32 17 15 18 14 19 13 20 12 21
REMARK SMILES IDX 11 22 10 23 9 24 8 25 7 26 6 27 5 28 4 29 3 30 2 31 1 32
REMARK H PARENT
REMARK Flexibility Score: inf
ROOT
ATOM      1  C   UNL     1       8.756 -53.059  -3.635  1.00  0.00     0.000 C 
ENDROOT
BRANCH   1   2
ATOM      2  C   UNL     1      10.276 -53.247  -3.772  1.00  0.00     0.000 C 
BRANCH   2   3
ATOM      3  C   UNL     1      10.649 -54.481  -4.626  1.00  0.00     0.000 C 
BRANCH   3   4
ATOM      4  C   UNL     1      11.614 -55.454  -3.924  1.00  0.00     0.000 C 
BRANCH   4   5
ATOM      5  C   UNL     1      10.977 -56.762  -3.418  1.00  0.00     0.000 C 
BRANCH   5   6
ATOM      6  C   UNL     1      11.998 -57.863  -3.052  1.00  0.00     0.000 C 
BRANCH   6   7
ATOM      7  C   UNL     1      13.391 -57.615  -3.655  1.00  0.00     0.000 C 
BRANCH   7   8
ATOM      8  C   UNL     1      14.212 -58.909  -3.798  1.00  0.00     0.000 C 
BRANCH   8   9
ATOM      9  C   UNL     1      15.721 -58.676  -4.001  1.00  0.00     0.000 C 
BRANCH   9  10
ATOM     10  C   UNL     1      16.580 -59.517  -3.039  1.00  0.00     0.000 C 
BRANCH  10  11
ATOM     11  C   UNL     1      16.648 -58.916  -1.623  1.00  0.00     0.000 C 
BRANCH  11  12
ATOM     12  C   UNL     1      17.994 -58.257  -1.261  1.00  0.00     0.000 C 
BRANCH  12  13
ATOM     13  C   UNL     1      18.026 -56.720  -1.383  1.00  0.00     0.006 C 
BRANCH  13  14
ATOM     14  C   UNL     1      18.374 -56.202  -2.787  1.00  0.00     0.053 C 
BRANCH  14  15
ATOM     15  C   UNL     1      17.249 -55.418  -3.390  1.00  0.00     0.041 C 
ATOM     16  O   UNL     1      17.332 -54.997  -4.574  1.00  0.00    -0.550 OA
ATOM     17  O   UNL     1      16.122 -55.124  -2.632  1.00  0.00    -0.550 OA
ENDBRANCH  14  15
ENDBRANCH  13  14
ENDBRANCH  12  13
ENDBRANCH  11  12
ENDBRANCH  10  11
ENDBRANCH   9  10
ENDBRANCH   8   9
ENDBRANCH   7   8
ENDBRANCH   6   7
ENDBRANCH   5   6
ENDBRANCH   4   5
ENDBRANCH   3   4
ENDBRANCH   2   3
ENDBRANCH   1   2
BRANCH   1  18
ATOM     18  C   UNL     1       8.387 -51.814  -2.814  1.00  0.00     0.000 C 
BRANCH  18  19
ATOM     19  C   UNL     1       9.358 -50.645  -3.051  1.00  0.00     0.000 C 
BRANCH  19  20
ATOM     20  C   UNL     1       9.515 -49.751  -1.809  1.00  0.00     0.000 C 
BRANCH  20  21
ATOM     21  C   UNL     1      10.698 -48.765  -1.869  1.00  0.00     0.000 C 
BRANCH  21  22
ATOM     22  C   UNL     1      10.827 -47.973  -3.186  1.00  0.00     0.000 C 
BRANCH  22  23
ATOM     23  C   UNL     1       9.589 -47.143  -3.576  1.00  0.00     0.000 C 
BRANCH  23  24
ATOM     24  C   UNL     1       8.720 -46.754  -2.367  1.00  0.00    -0.000 C 
BRANCH  24  25
ATOM     25  C   UNL     1       7.654 -45.696  -2.727  1.00  0.00    -0.000 C 
BRANCH  25  26
ATOM     26  C   UNL     1       7.064 -44.967  -1.505  1.00  0.00    -0.000 C 
BRANCH  26  27
ATOM     27  C   UNL     1       5.725 -45.566  -1.045  1.00  0.00    -0.000 C 
BRANCH  27  28
ATOM     28  C   UNL     1       5.216 -46.676  -1.978  1.00  0.00    -0.000 C 
BRANCH  28  29
ATOM     29  C   UNL     1       5.294 -48.071  -1.341  1.00  0.00    -0.000 C 
BRANCH  29  30
ATOM     30  C   UNL     1       3.932 -48.490  -0.768  1.00  0.00    -0.000 C 
BRANCH  30  31
ATOM     31  C   UNL     1       3.127 -47.298  -0.225  1.00  0.00    -0.003 C 
ATOM     32  C   UNL     1       1.693 -47.264  -0.751  1.00  0.00     0.004 C 
ENDBRANCH  30  31
ENDBRANCH  29  30
ENDBRANCH  28  29
ENDBRANCH  27  28
ENDBRANCH  26  27
ENDBRANCH  25  26
ENDBRANCH  24  25
ENDBRANCH  23  24
ENDBRANCH  22  23
ENDBRANCH  21  22
ENDBRANCH  20  21
ENDBRANCH  19  20
ENDBRANCH  18  19
ENDBRANCH   1  18
TORSDOF 28
ENDMDL
MODEL 7
REMARK VINA RESULT:    20.174      5.187     12.302
REMARK INTER + INTRA:          51.899
REMARK INTER:                  50.860
REMARK INTRA:                   1.039
REMARK UNBOUND:                -1.297
REMARK SMILES CCCCCCCCCCCCCCCCCCCCCCCCCCCCCC(=O)[O-]
REMARK SMILES IDX 16 1 17 2 18 3 19 4 20 5 21 6 22 7 23 8 24 9 25 10 26 11
REMARK SMILES IDX 27 12 28 13 29 14 30 15 31 16 32 17 15 18 14 19 13 20 12 21
REMARK SMILES IDX 11 22 10 23 9 24 8 25 7 26 6 27 5 28 4 29 3 30 2 31 1 32
REMARK H PARENT
REMARK Flexibility Score: inf
ROOT
ATOM      1  C   UNL     1      13.467 -58.683  -3.055  1.00  0.00     0.000 C 
ENDROOT
BRANCH   1   2
ATOM      2  C   UNL     1      14.615 -59.167  -3.956  1.00  0.00     0.000 C 
BRANCH   2   3
ATOM      3  C   UNL     1      15.996 -59.056  -3.272  1.00  0.00     0.000 C 
BRANCH   3   4
ATOM      4  C   UNL     1      16.531 -60.395  -2.729  1.00  0.00     0.000 C 
BRANCH   4   5
ATOM      5  C   UNL     1      17.977 -60.739  -3.133  1.00  0.00     0.000 C 
BRANCH   5   6
ATOM      6  C   UNL     1      19.042 -59.792  -2.537  1.00  0.00     0.000 C 
BRANCH   6   7
ATOM      7  C   UNL     1      19.124 -58.442  -3.270  1.00  0.00     0.000 C 
BRANCH   7   8
ATOM      8  C   UNL     1      18.565 -57.279  -2.432  1.00  0.00     0.000 C 
BRANCH   8   9
ATOM      9  C   UNL     1      19.081 -57.245  -0.981  1.00  0.00     0.000 C 
BRANCH   9  10
ATOM     10  C   UNL     1      17.942 -57.093   0.045  1.00  0.00     0.000 C 
BRANCH  10  11
ATOM     11  C   UNL     1      16.547 -57.127  -0.605  1.00  0.00     0.000 C 
BRANCH  11  12
ATOM     12  C   UNL     1      15.869 -55.752  -0.762  1.00  0.00     0.000 C 
BRANCH  12  13
ATOM     13  C   UNL     1      15.958 -55.133  -2.173  1.00  0.00     0.006 C 
BRANCH  13  14
ATOM     14  C   UNL     1      17.033 -55.760  -3.075  1.00  0.00     0.053 C 
BRANCH  14  15
ATOM     15  C   UNL     1      17.471 -54.823  -4.158  1.00  0.00     0.041 C 
ATOM     16  O   UNL     1      18.038 -53.737  -3.867  1.00  0.00    -0.550 OA
ATOM     17  O   UNL     1      17.224 -55.136  -5.489  1.00  0.00    -0.550 OA
ENDBRANCH  14  15
ENDBRANCH  13  14
ENDBRANCH  12  13
ENDBRANCH  11  12
ENDBRANCH  10  11
ENDBRANCH   9  10
ENDBRANCH   8   9
ENDBRANCH   7   8
ENDBRANCH   6   7
ENDBRANCH   5   6
ENDBRANCH   4   5
ENDBRANCH   3   4
ENDBRANCH   2   3
ENDBRANCH   1   2
BRANCH   1  18
ATOM     18  C   UNL     1      12.321 -58.041  -3.853  1.00  0.00     0.000 C 
BRANCH  18  19
ATOM     19  C   UNL     1      11.610 -56.927  -3.067  1.00  0.00     0.000 C 
BRANCH  19  20
ATOM     20  C   UNL     1      10.746 -56.031  -3.971  1.00  0.00     0.000 C 
BRANCH  20  21
ATOM     21  C   UNL     1      11.361 -54.656  -4.295  1.00  0.00     0.000 C 
BRANCH  21  22
ATOM     22  C   UNL     1      10.525 -53.439  -3.851  1.00  0.00     0.000 C 
BRANCH  22  23
ATOM     23  C   UNL     1       8.997 -53.641  -3.900  1.00  0.00     0.000 C 
BRANCH  23  24
ATOM     24  C   UNL     1       8.226 -52.596  -3.075  1.00  0.00    -0.000 C 
BRANCH  24  25
ATOM     25  C   UNL     1       8.608 -51.149  -3.457  1.00  0.00    -0.000 C 
BRANCH  25  26
ATOM     26  C   UNL     1       8.256 -50.108  -2.379  1.00  0.00    -0.000 C 
BRANCH  26  27
ATOM     27  C   UNL     1       9.497 -49.538  -1.673  1.00  0.00    -0.000 C 
BRANCH  27  28
ATOM     28  C   UNL     1       9.991 -48.226  -2.302  1.00  0.00    -0.000 C 
BRANCH  28  29
ATOM     29  C   UNL     1      11.347 -48.380  -3.008  1.00  0.00    -0.000 C 
BRANCH  29  30
ATOM     30  C   UNL     1      12.315 -49.218  -2.161  1.00  0.00    -0.000 C 
BRANCH  30  31
ATOM     31  C   UNL     1      12.958 -48.408  -1.023  1.00  0.00    -0.003 C 
ATOM     32  C   UNL     1      11.985 -48.118   0.119  1.00  0.00     0.004 C 
ENDBRANCH  30  31
ENDBRANCH  29  30
ENDBRANCH  28  29
ENDBRANCH  27  28
ENDBRANCH  26  27
ENDBRANCH  25  26
ENDBRANCH  24  25
ENDBRANCH  23  24
ENDBRANCH  22  23
ENDBRANCH  21  22
ENDBRANCH  20  21
ENDBRANCH  19  20
ENDBRANCH  18  19
ENDBRANCH   1  18
TORSDOF 28
ENDMDL
MODEL 8
REMARK VINA RESULT:    20.263      4.751     13.851
REMARK INTER + INTRA:          52.133
REMARK INTER:                  53.427
REMARK INTRA:                  -1.294
REMARK UNBOUND:                -1.297
REMARK SMILES CCCCCCCCCCCCCCCCCCCCCCCCCCCCCC(=O)[O-]
REMARK SMILES IDX 16 1 17 2 18 3 19 4 20 5 21 6 22 7 23 8 24 9 25 10 26 11
REMARK SMILES IDX 27 12 28 13 29 14 30 15 31 16 32 17 15 18 14 19 13 20 12 21
REMARK SMILES IDX 11 22 10 23 9 24 8 25 7 26 6 27 5 28 4 29 3 30 2 31 1 32
REMARK H PARENT
REMARK Flexibility Score: inf
ROOT
ATOM      1  C   UNL     1       9.350 -50.854  -2.986  1.00  0.00     0.000 C 
ENDROOT
BRANCH   1   2
ATOM      2  C   UNL     1       8.446 -52.080  -2.780  1.00  0.00     0.000 C 
BRANCH   2   3
ATOM      3  C   UNL     1       8.798 -53.247  -3.731  1.00  0.00     0.000 C 
BRANCH   3   4
ATOM      4  C   UNL     1      10.254 -53.733  -3.606  1.00  0.00     0.000 C 
BRANCH   4   5
ATOM      5  C   UNL     1      10.875 -54.290  -4.901  1.00  0.00     0.000 C 
BRANCH   5   6
ATOM      6  C   UNL     1      11.316 -55.769  -4.807  1.00  0.00     0.000 C 
BRANCH   6   7
ATOM      7  C   UNL     1      11.905 -56.133  -3.433  1.00  0.00     0.000 C 
BRANCH   7   8
ATOM      8  C   UNL     1      11.567 -57.573  -3.008  1.00  0.00     0.000 C 
BRANCH   8   9
ATOM      9  C   UNL     1      12.697 -58.587  -3.270  1.00  0.00     0.000 C 
BRANCH   9  10
ATOM     10  C   UNL     1      14.051 -57.903  -3.534  1.00  0.00     0.000 C 
BRANCH  10  11
ATOM     11  C   UNL     1      15.155 -58.902  -3.924  1.00  0.00     0.000 C 
BRANCH  11  12
ATOM     12  C   UNL     1      16.092 -59.318  -2.772  1.00  0.00     0.000 C 
BRANCH  12  13
ATOM     13  C   UNL     1      17.594 -59.343  -3.124  1.00  0.00     0.006 C 
BRANCH  13  14
ATOM     14  C   UNL     1      18.471 -58.458  -2.223  1.00  0.00     0.053 C 
BRANCH  14  15
ATOM     15  C   UNL     1      17.770 -57.197  -1.821  1.00  0.00     0.041 C 
ATOM     16  O   UNL     1      17.310 -56.420  -2.698  1.00  0.00    -0.550 OA
ATOM     17  O   UNL     1      17.653 -56.866  -0.477  1.00  0.00    -0.550 OA
ENDBRANCH  14  15
ENDBRANCH  13  14
ENDBRANCH  12  13
ENDBRANCH  11  12
ENDBRANCH  10  11
ENDBRANCH   9  10
ENDBRANCH   8   9
ENDBRANCH   7   8
ENDBRANCH   6   7
ENDBRANCH   5   6
ENDBRANCH   4   5
ENDBRANCH   3   4
ENDBRANCH   2   3
ENDBRANCH   1   2
BRANCH   1  18
ATOM     18  C   UNL     1       9.134 -49.775  -1.914  1.00  0.00     0.000 C 
BRANCH  18  19
ATOM     19  C   UNL     1      10.457 -49.183  -1.401  1.00  0.00     0.000 C 
BRANCH  19  20
ATOM     20  C   UNL     1      11.207 -48.392  -2.488  1.00  0.00     0.000 C 
BRANCH  20  21
ATOM     21  C   UNL     1      10.390 -48.121  -3.766  1.00  0.00     0.000 C 
BRANCH  21  22
ATOM     22  C   UNL     1       9.861 -46.680  -3.915  1.00  0.00     0.000 C 
BRANCH  22  23
ATOM     23  C   UNL     1       8.676 -46.319  -2.998  1.00  0.00     0.000 C 
BRANCH  23  24
ATOM     24  C   UNL     1       7.713 -45.300  -3.633  1.00  0.00    -0.000 C 
BRANCH  24  25
ATOM     25  C   UNL     1       6.625 -44.827  -2.644  1.00  0.00    -0.000 C 
BRANCH  25  26
ATOM     26  C   UNL     1       7.030 -44.959  -1.164  1.00  0.00    -0.000 C 
BRANCH  26  27
ATOM     27  C   UNL     1       6.347 -46.145  -0.464  1.00  0.00    -0.000 C 
BRANCH  27  28
ATOM     28  C   UNL     1       5.155 -46.701  -1.258  1.00  0.00    -0.000 C 
BRANCH  28  29
ATOM     29  C   UNL     1       4.835 -48.162  -0.907  1.00  0.00    -0.000 C 
BRANCH  29  30
ATOM     30  C   UNL     1       3.317 -48.399  -0.876  1.00  0.00    -0.000 C 
BRANCH  30  31
ATOM     31  C   UNL     1       2.565 -47.315  -0.087  1.00  0.00    -0.003 C 
ATOM     32  C   UNL     1       1.159 -47.059  -0.626  1.00  0.00     0.004 C 
ENDBRANCH  30  31
ENDBRANCH  29  30
ENDBRANCH  28  29
ENDBRANCH  27  28
ENDBRANCH  26  27
ENDBRANCH  25  26
ENDBRANCH  24  25
ENDBRANCH  23  24
ENDBRANCH  22  23
ENDBRANCH  21  22
ENDBRANCH  20  21
ENDBRANCH  19  20
ENDBRANCH  18  19
ENDBRANCH   1  18
TORSDOF 28
ENDMDL
MODEL 9
REMARK VINA RESULT:    20.656      2.712      3.928
REMARK INTER + INTRA:          53.171
REMARK INTER:                  54.846
REMARK INTRA:                  -1.676
REMARK UNBOUND:                -1.297
REMARK SMILES CCCCCCCCCCCCCCCCCCCCCCCCCCCCCC(=O)[O-]
REMARK SMILES IDX 16 1 17 2 18 3 19 4 20 5 21 6 22 7 23 8 24 9 25 10 26 11
REMARK SMILES IDX 27 12 28 13 29 14 30 15 31 16 32 17 15 18 14 19 13 20 12 21
REMARK SMILES IDX 11 22 10 23 9 24 8 25 7 26 6 27 5 28 4 29 3 30 2 31 1 32
REMARK H PARENT
REMARK Flexibility Score: inf
ROOT
ATOM      1  C   UNL     1       9.591 -53.680  -4.291  1.00  0.00     0.000 C 
ENDROOT
BRANCH   1   2
ATOM      2  C   UNL     1       8.950 -53.058  -3.040  1.00  0.00     0.000 C 
BRANCH   2   3
ATOM      3  C   UNL     1       8.588 -51.567  -3.234  1.00  0.00     0.000 C 
BRANCH   3   4
ATOM      4  C   UNL     1       7.934 -50.920  -1.999  1.00  0.00     0.000 C 
BRANCH   4   5
ATOM      5  C   UNL     1       6.891 -49.828  -2.302  1.00  0.00     0.000 C 
BRANCH   5   6
ATOM      6  C   UNL     1       5.442 -50.218  -1.935  1.00  0.00     0.000 C 
BRANCH   6   7
ATOM      7  C   UNL     1       4.676 -49.087  -1.228  1.00  0.00     0.000 C 
BRANCH   7   8
ATOM      8  C   UNL     1       4.823 -47.734  -1.948  1.00  0.00     0.000 C 
BRANCH   8   9
ATOM      9  C   UNL     1       5.270 -46.580  -1.032  1.00  0.00     0.000 C 
BRANCH   9  10
ATOM     10  C   UNL     1       5.955 -45.442  -1.812  1.00  0.00     0.000 C 
BRANCH  10  11
ATOM     11  C   UNL     1       7.399 -45.185  -1.343  1.00  0.00     0.000 C 
BRANCH  11  12
ATOM     12  C   UNL     1       8.186 -46.448  -0.940  1.00  0.00     0.000 C 
BRANCH  12  13
ATOM     13  C   UNL     1       8.989 -47.111  -2.078  1.00  0.00     0.006 C 
BRANCH  13  14
ATOM     14  C   UNL     1       9.862 -48.296  -1.633  1.00  0.00     0.053 C 
BRANCH  14  15
ATOM     15  C   UNL     1      11.026 -48.511  -2.549  1.00  0.00     0.041 C 
ATOM     16  O   UNL     1      12.153 -48.821  -2.081  1.00  0.00    -0.550 OA
ATOM     17  O   UNL     1      10.875 -48.335  -3.919  1.00  0.00    -0.550 OA
ENDBRANCH  14  15
ENDBRANCH  13  14
ENDBRANCH  12  13
ENDBRANCH  11  12
ENDBRANCH  10  11
ENDBRANCH   9  10
ENDBRANCH   8   9
ENDBRANCH   7   8
ENDBRANCH   6   7
ENDBRANCH   5   6
ENDBRANCH   4   5
ENDBRANCH   3   4
ENDBRANCH   2   3
ENDBRANCH   1   2
BRANCH   1  18
ATOM     18  C   UNL     1      11.042 -54.124  -4.051  1.00  0.00     0.000 C 
BRANCH  18  19
ATOM     19  C   UNL     1      11.242 -55.630  -4.285  1.00  0.00     0.000 C 
BRANCH  19  20
ATOM     20  C   UNL     1      11.808 -56.346  -3.046  1.00  0.00     0.000 C 
BRANCH  20  21
ATOM     21  C   UNL     1      12.294 -57.787  -3.300  1.00  0.00     0.000 C 
BRANCH  21  22
ATOM     22  C   UNL     1      13.516 -57.914  -4.232  1.00  0.00     0.000 C 
BRANCH  22  23
ATOM     23  C   UNL     1      14.362 -59.187  -4.033  1.00  0.00     0.000 C 
BRANCH  23  24
ATOM     24  C   UNL     1      15.461 -59.020  -2.968  1.00  0.00    -0.000 C 
BRANCH  24  25
ATOM     25  C   UNL     1      16.746 -59.798  -3.325  1.00  0.00    -0.000 C 
BRANCH  25  26
ATOM     26  C   UNL     1      17.909 -59.561  -2.343  1.00  0.00    -0.000 C 
BRANCH  26  27
ATOM     27  C   UNL     1      19.058 -58.753  -2.966  1.00  0.00    -0.000 C 
BRANCH  27  28
ATOM     28  C   UNL     1      19.104 -57.300  -2.467  1.00  0.00    -0.000 C 
BRANCH  28  29
ATOM     29  C   UNL     1      17.975 -56.976  -1.477  1.00  0.00    -0.000 C 
BRANCH  29  30
ATOM     30  C   UNL     1      16.816 -56.256  -2.183  1.00  0.00    -0.000 C 
BRANCH  30  31
ATOM     31  C   UNL     1      17.160 -55.857  -3.627  1.00  0.00    -0.003 C 
ATOM     32  C   UNL     1      17.628 -54.408  -3.746  1.00  0.00     0.004 C 
ENDBRANCH  30  31
ENDBRANCH  29  30
ENDBRANCH  28  29
ENDBRANCH  27  28
ENDBRANCH  26  27
ENDBRANCH  25  26
ENDBRANCH  24  25
ENDBRANCH  23  24
ENDBRANCH  22  23
ENDBRANCH  21  22
ENDBRANCH  20  21
ENDBRANCH  19  20
ENDBRANCH  18  19
ENDBRANCH   1  18
TORSDOF 28
ENDMDL
