MODEL 1
REMARK VINA RESULT:    -5.861      0.000      0.000
REMARK INTER + INTRA:          -6.501
REMARK INTER:                  -6.375
REMARK INTRA:                  -0.126
REMARK UNBOUND:                -0.126
REMARK SMILES Cc1ccc(C(C)C)cc1O
REMARK SMILES IDX 1 1 2 2 10 3 9 4 5 5 4 6 3 7 11 8 6 10 7 11 8 12
REMARK H PARENT 11 9
REMARK Flexibility Score: inf
ROOT
ATOM      1  C   UNL     1     -15.744  45.192  26.461  1.00  0.00     0.048 C 
ATOM      2  C   UNL     1     -14.907  45.096  25.215  1.00  0.00    -0.009 A 
ATOM      3  C   UNL     1     -13.788  45.935  25.019  1.00  0.00     0.118 A 
ATOM      4  C   UNL     1     -13.030  45.820  23.848  1.00  0.00     0.050 A 
ATOM      5  C   UNL     1     -13.366  44.879  22.858  1.00  0.00    -0.042 A 
ATOM      6  C   UNL     1     -14.479  44.049  23.061  1.00  0.00     0.004 A 
ATOM      7  C   UNL     1     -15.242  44.157  24.226  1.00  0.00     0.007 A 
ENDROOT
BRANCH   3   8
ATOM      8  O   UNL     1     -13.404  46.888  25.964  1.00  0.00    -0.508 OA
ATOM      9  H   UNL     1     -12.695  46.716  26.665  1.00  0.00     0.293 HD
ENDBRANCH   3   8
BRANCH   5  10
ATOM     10  C   UNL     1     -12.547  44.750  21.587  1.00  0.00     0.013 C 
ATOM     11  C   UNL     1     -12.632  43.331  21.015  1.00  0.00     0.012 C 
ATOM     12  C   UNL     1     -11.089  45.164  21.825  1.00  0.00     0.012 C 
ENDBRANCH   5  10
TORSDOF 2
ENDMDL
MODEL 2
REMARK VINA RESULT:    -5.759      1.506      2.099
REMARK INTER + INTRA:          -6.390
REMARK INTER:                  -6.264
REMARK INTRA:                  -0.127
REMARK UNBOUND:                -0.126
REMARK SMILES Cc1ccc(C(C)C)cc1O
REMARK SMILES IDX 1 1 2 2 10 3 9 4 5 5 4 6 3 7 11 8 6 10 7 11 8 12
REMARK H PARENT 11 9
REMARK Flexibility Score: inf
ROOT
ATOM      1  C   UNL     1     -15.408  45.277  26.226  1.00  0.00     0.048 C 
ATOM      2  C   UNL     1     -14.635  45.095  24.950  1.00  0.00    -0.009 A 
ATOM      3  C   UNL     1     -15.022  44.133  23.990  1.00  0.00     0.118 A 
ATOM      4  C   UNL     1     -14.280  43.989  22.812  1.00  0.00     0.050 A 
ATOM      5  C   UNL     1     -13.149  44.788  22.567  1.00  0.00    -0.042 A 
ATOM      6  C   UNL     1     -12.770  45.740  23.525  1.00  0.00     0.004 A 
ATOM      7  C   UNL     1     -13.505  45.892  24.704  1.00  0.00     0.007 A 
ENDROOT
BRANCH   3   8
ATOM      8  O   UNL     1     -16.135  43.311  24.176  1.00  0.00    -0.508 OA
ATOM      9  H   UNL     1     -16.062  42.329  24.410  1.00  0.00     0.293 HD
ENDBRANCH   3   8
BRANCH   5  10
ATOM     10  C   UNL     1     -12.342  44.634  21.291  1.00  0.00     0.013 C 
ATOM     11  C   UNL     1     -12.318  43.174  20.824  1.00  0.00     0.012 C 
ATOM     12  C   UNL     1     -10.920  45.181  21.468  1.00  0.00     0.012 C 
ENDBRANCH   5  10
TORSDOF 2
ENDMDL
MODEL 3
REMARK VINA RESULT:    -5.743      1.782      4.176
REMARK INTER + INTRA:          -6.373
REMARK INTER:                  -6.245
REMARK INTRA:                  -0.128
REMARK UNBOUND:                -0.126
REMARK SMILES Cc1ccc(C(C)C)cc1O
REMARK SMILES IDX 1 1 2 2 10 3 9 4 5 5 4 6 3 7 11 8 6 10 7 11 8 12
REMARK H PARENT 11 9
REMARK Flexibility Score: inf
ROOT
ATOM      1  C   UNL     1     -13.136  43.463  20.415  1.00  0.00     0.048 C 
ATOM      2  C   UNL     1     -13.308  44.136  21.748  1.00  0.00    -0.009 A 
ATOM      3  C   UNL     1     -12.404  45.128  22.189  1.00  0.00     0.118 A 
ATOM      4  C   UNL     1     -12.593  45.735  23.436  1.00  0.00     0.050 A 
ATOM      5  C   UNL     1     -13.672  45.371  24.262  1.00  0.00    -0.042 A 
ATOM      6  C   UNL     1     -14.566  44.385  23.816  1.00  0.00     0.004 A 
ATOM      7  C   UNL     1     -14.385  43.774  22.573  1.00  0.00     0.007 A 
ENDROOT
BRANCH   3   8
ATOM      8  O   UNL     1     -11.314  45.531  21.416  1.00  0.00    -0.508 OA
ATOM      9  H   UNL     1     -11.010  46.494  21.351  1.00  0.00     0.293 HD
ENDBRANCH   3   8
BRANCH   5  10
ATOM     10  C   UNL     1     -13.881  46.027  25.615  1.00  0.00     0.013 C 
ATOM     11  C   UNL     1     -15.169  45.526  26.279  1.00  0.00     0.012 C 
ATOM     12  C   UNL     1     -13.881  47.556  25.493  1.00  0.00     0.012 C 
ENDBRANCH   5  10
TORSDOF 2
ENDMDL
MODEL 4
REMARK VINA RESULT:    -5.492      1.326      4.189
REMARK INTER + INTRA:          -6.100
REMARK INTER:                  -5.975
REMARK INTRA:                  -0.125
REMARK UNBOUND:                -0.126
REMARK SMILES Cc1ccc(C(C)C)cc1O
REMARK SMILES IDX 1 1 2 2 10 3 9 4 5 5 4 6 3 7 11 8 6 10 7 11 8 12
REMARK H PARENT 11 9
REMARK Flexibility Score: inf
ROOT
ATOM      1  C   UNL     1     -11.293  44.695  21.088  1.00  0.00     0.048 C 
ATOM      2  C   UNL     1     -12.488  44.633  21.999  1.00  0.00    -0.009 A 
ATOM      3  C   UNL     1     -12.539  45.387  23.192  1.00  0.00     0.118 A 
ATOM      4  C   UNL     1     -13.666  45.307  24.018  1.00  0.00     0.050 A 
ATOM      5  C   UNL     1     -14.754  44.482  23.679  1.00  0.00    -0.042 A 
ATOM      6  C   UNL     1     -14.696  43.736  22.492  1.00  0.00     0.004 A 
ATOM      7  C   UNL     1     -13.575  43.810  21.662  1.00  0.00     0.007 A 
ENDROOT
BRANCH   3   8
ATOM      8  O   UNL     1     -11.491  46.223  23.584  1.00  0.00    -0.508 OA
ATOM      9  H   UNL     1     -11.616  47.008  24.209  1.00  0.00     0.293 HD
ENDBRANCH   3   8
BRANCH   5  10
ATOM     10  C   UNL     1     -15.978  44.392  24.571  1.00  0.00     0.013 C 
ATOM     11  C   UNL     1     -15.642  44.787  26.014  1.00  0.00     0.012 C 
ATOM     12  C   UNL     1     -16.602  42.992  24.513  1.00  0.00     0.012 C 
ENDBRANCH   5  10
TORSDOF 2
ENDMDL
MODEL 5
REMARK VINA RESULT:    -5.362      1.340      4.090
REMARK INTER + INTRA:          -5.958
REMARK INTER:                  -5.842
REMARK INTRA:                  -0.117
REMARK UNBOUND:                -0.126
REMARK SMILES Cc1ccc(C(C)C)cc1O
REMARK SMILES IDX 1 1 2 2 10 3 9 4 5 5 4 6 3 7 11 8 6 10 7 11 8 12
REMARK H PARENT 11 9
REMARK Flexibility Score: inf
ROOT
ATOM      1  C   UNL     1     -11.362  44.977  20.970  1.00  0.00     0.048 C 
ATOM      2  C   UNL     1     -12.474  44.824  21.970  1.00  0.00    -0.009 A 
ATOM      3  C   UNL     1     -12.430  45.482  23.219  1.00  0.00     0.118 A 
ATOM      4  C   UNL     1     -13.482  45.319  24.128  1.00  0.00     0.050 A 
ATOM      5  C   UNL     1     -14.587  44.506  23.817  1.00  0.00    -0.042 A 
ATOM      6  C   UNL     1     -14.623  43.856  22.574  1.00  0.00     0.004 A 
ATOM      7  C   UNL     1     -13.578  44.013  21.661  1.00  0.00     0.007 A 
ENDROOT
BRANCH   3   8
ATOM      8  O   UNL     1     -11.360  46.301  23.586  1.00  0.00    -0.508 OA
ATOM      9  H   UNL     1     -11.483  47.202  24.028  1.00  0.00     0.293 HD
ENDBRANCH   3   8
BRANCH   5  10
ATOM     10  C   UNL     1     -15.730  44.326  24.800  1.00  0.00     0.013 C 
ATOM     11  C   UNL     1     -17.057  44.801  24.197  1.00  0.00     0.012 C 
ATOM     12  C   UNL     1     -15.437  45.042  26.125  1.00  0.00     0.012 C 
ENDBRANCH   5  10
TORSDOF 2
ENDMDL
MODEL 6
REMARK VINA RESULT:    -5.295      2.189      4.760
REMARK INTER + INTRA:          -5.886
REMARK INTER:                  -5.759
REMARK INTRA:                  -0.126
REMARK UNBOUND:                -0.126
REMARK SMILES Cc1ccc(C(C)C)cc1O
REMARK SMILES IDX 1 1 2 2 10 3 9 4 5 5 4 6 3 7 11 8 6 10 7 11 8 12
REMARK H PARENT 11 9
REMARK Flexibility Score: inf
ROOT
ATOM      1  C   UNL     1     -11.197  44.696  21.050  1.00  0.00     0.048 C 
ATOM      2  C   UNL     1     -12.381  44.650  21.974  1.00  0.00    -0.009 A 
ATOM      3  C   UNL     1     -13.466  43.778  21.731  1.00  0.00     0.118 A 
ATOM      4  C   UNL     1     -14.555  43.760  22.610  1.00  0.00     0.050 A 
ATOM      5  C   UNL     1     -14.587  44.600  23.739  1.00  0.00    -0.042 A 
ATOM      6  C   UNL     1     -13.505  45.462  23.974  1.00  0.00     0.004 A 
ATOM      7  C   UNL     1     -12.415  45.488  23.101  1.00  0.00     0.007 A 
ENDROOT
BRANCH   3   8
ATOM      8  O   UNL     1     -13.493  42.922  20.628  1.00  0.00    -0.508 OA
ATOM      9  H   UNL     1     -13.065  43.152  19.741  1.00  0.00     0.293 HD
ENDBRANCH   3   8
BRANCH   5  10
ATOM     10  C   UNL     1     -15.765  44.583  24.696  1.00  0.00     0.013 C 
ATOM     11  C   UNL     1     -15.339  45.014  26.104  1.00  0.00     0.012 C 
ATOM     12  C   UNL     1     -16.438  43.205  24.719  1.00  0.00     0.012 C 
ENDBRANCH   5  10
TORSDOF 2
ENDMDL
MODEL 7
REMARK VINA RESULT:    -5.270     20.892     22.096
REMARK INTER + INTRA:          -5.859
REMARK INTER:                  -5.739
REMARK INTRA:                  -0.120
REMARK UNBOUND:                -0.126
REMARK SMILES Cc1ccc(C(C)C)cc1O
REMARK SMILES IDX 1 1 2 2 10 3 9 4 5 5 4 6 3 7 11 8 6 10 7 11 8 12
REMARK H PARENT 11 9
REMARK Flexibility Score: inf
ROOT
ATOM      1  C   UNL     1     -27.735  61.027  34.866  1.00  0.00     0.048 C 
ATOM      2  C   UNL     1     -26.657  61.140  33.825  1.00  0.00    -0.009 A 
ATOM      3  C   UNL     1     -26.891  61.799  32.598  1.00  0.00     0.118 A 
ATOM      4  C   UNL     1     -25.865  61.887  31.649  1.00  0.00     0.050 A 
ATOM      5  C   UNL     1     -24.599  61.326  31.899  1.00  0.00    -0.042 A 
ATOM      6  C   UNL     1     -24.375  60.673  33.121  1.00  0.00     0.004 A 
ATOM      7  C   UNL     1     -25.393  60.581  34.073  1.00  0.00     0.007 A 
ENDROOT
BRANCH   3   8
ATOM      8  O   UNL     1     -28.125  62.375  32.292  1.00  0.00    -0.508 OA
ATOM      9  H   UNL     1     -28.857  61.880  31.799  1.00  0.00     0.293 HD
ENDBRANCH   3   8
BRANCH   5  10
ATOM     10  C   UNL     1     -23.484  61.419  30.874  1.00  0.00     0.013 C 
ATOM     11  C   UNL     1     -22.207  61.996  31.496  1.00  0.00     0.012 C 
ATOM     12  C   UNL     1     -23.923  62.238  29.653  1.00  0.00     0.012 C 
ENDBRANCH   5  10
TORSDOF 2
ENDMDL
MODEL 8
REMARK VINA RESULT:    -5.249     19.363     21.268
REMARK INTER + INTRA:          -5.836
REMARK INTER:                  -5.711
REMARK INTRA:                  -0.125
REMARK UNBOUND:                -0.126
REMARK SMILES Cc1ccc(C(C)C)cc1O
REMARK SMILES IDX 1 1 2 2 10 3 9 4 5 5 4 6 3 7 11 8 6 10 7 11 8 12
REMARK H PARENT 11 9
REMARK Flexibility Score: inf
ROOT
ATOM      1  C   UNL     1     -27.351  62.087  33.420  1.00  0.00     0.048 C 
ATOM      2  C   UNL     1     -26.605  61.744  32.161  1.00  0.00    -0.009 A 
ATOM      3  C   UNL     1     -26.628  60.435  31.630  1.00  0.00     0.118 A 
ATOM      4  C   UNL     1     -25.923  60.149  30.455  1.00  0.00     0.050 A 
ATOM      5  C   UNL     1     -25.188  61.148  29.791  1.00  0.00    -0.042 A 
ATOM      6  C   UNL     1     -25.171  62.445  30.325  1.00  0.00     0.004 A 
ATOM      7  C   UNL     1     -25.871  62.740  31.496  1.00  0.00     0.007 A 
ENDROOT
BRANCH   3   8
ATOM      8  O   UNL     1     -27.338  59.401  32.243  1.00  0.00    -0.508 OA
ATOM      9  H   UNL     1     -27.261  59.189  33.230  1.00  0.00     0.293 HD
ENDBRANCH   3   8
BRANCH   5  10
ATOM     10  C   UNL     1     -24.422  60.842  28.517  1.00  0.00     0.013 C 
ATOM     11  C   UNL     1     -24.145  59.340  28.385  1.00  0.00     0.012 C 
ATOM     12  C   UNL     1     -23.121  61.652  28.446  1.00  0.00     0.012 C 
ENDBRANCH   5  10
TORSDOF 2
ENDMDL
MODEL 9
REMARK VINA RESULT:    -5.239      2.030      4.407
REMARK INTER + INTRA:          -5.824
REMARK INTER:                  -5.707
REMARK INTRA:                  -0.117
REMARK UNBOUND:                -0.126
REMARK SMILES Cc1ccc(C(C)C)cc1O
REMARK SMILES IDX 1 1 2 2 10 3 9 4 5 5 4 6 3 7 11 8 6 10 7 11 8 12
REMARK H PARENT 11 9
REMARK Flexibility Score: inf
ROOT
ATOM      1  C   UNL     1     -13.496  43.210  20.210  1.00  0.00     0.048 C 
ATOM      2  C   UNL     1     -13.537  43.952  21.517  1.00  0.00    -0.009 A 
ATOM      3  C   UNL     1     -14.597  43.765  22.432  1.00  0.00     0.118 A 
ATOM      4  C   UNL     1     -14.606  44.471  23.640  1.00  0.00     0.050 A 
ATOM      5  C   UNL     1     -13.571  45.368  23.961  1.00  0.00    -0.042 A 
ATOM      6  C   UNL     1     -12.521  45.548  23.047  1.00  0.00     0.004 A 
ATOM      7  C   UNL     1     -12.505  44.848  21.839  1.00  0.00     0.007 A 
ENDROOT
BRANCH   3   8
ATOM      8  O   UNL     1     -15.652  42.889  22.171  1.00  0.00    -0.508 OA
ATOM      9  H   UNL     1     -15.596  41.892  22.336  1.00  0.00     0.293 HD
ENDBRANCH   3   8
BRANCH   5  10
ATOM     10  C   UNL     1     -13.576  46.136  25.270  1.00  0.00     0.013 C 
ATOM     11  C   UNL     1     -14.772  45.736  26.142  1.00  0.00     0.012 C 
ATOM     12  C   UNL     1     -13.554  47.650  25.023  1.00  0.00     0.012 C 
ENDBRANCH   5  10
TORSDOF 2
ENDMDL
