MODEL 1
REMARK VINA RESULT:    -3.719      0.000      0.000
REMARK INTER + INTRA:          -4.811
REMARK INTER:                  -4.589
REMARK INTRA:                  -0.222
REMARK UNBOUND:                -0.222
REMARK SMILES CCCCCC(=O)[O-]
REMARK SMILES IDX 4 1 5 2 6 3 7 4 8 5 3 6 2 7 1 8
REMARK H PARENT
REMARK Flexibility Score: inf
ROOT
ATOM      1  C   UNL     1      14.223  50.913  95.473  1.00  0.00     0.006 C 
ENDROOT
BRANCH   1   2
ATOM      2  C   UNL     1      15.620  50.637  94.893  1.00  0.00     0.053 C 
BRANCH   2   3
ATOM      3  C   UNL     1      15.792  49.203  94.500  1.00  0.00     0.041 C 
ATOM      4  O   UNL     1      15.500  48.826  93.334  1.00  0.00    -0.550 OA
ATOM      5  O   UNL     1      16.306  48.288  95.411  1.00  0.00    -0.550 OA
ENDBRANCH   2   3
ENDBRANCH   1   2
BRANCH   1   6
ATOM      6  C   UNL     1      14.139  50.791  97.006  1.00  0.00     0.000 C 
BRANCH   6   7
ATOM      7  C   UNL     1      13.108  49.749  97.463  1.00  0.00    -0.003 C 
ATOM      8  C   UNL     1      12.498  49.019  96.270  1.00  0.00     0.004 C 
ENDBRANCH   6   7
ENDBRANCH   1   6
TORSDOF 4
ENDMDL
MODEL 2
REMARK VINA RESULT:    -3.692      3.256      4.507
REMARK INTER + INTRA:          -4.777
REMARK INTER:                  -4.648
REMARK INTRA:                  -0.129
REMARK UNBOUND:                -0.222
REMARK SMILES CCCCCC(=O)[O-]
REMARK SMILES IDX 4 1 5 2 6 3 7 4 8 5 3 6 2 7 1 8
REMARK H PARENT
REMARK Flexibility Score: inf
ROOT
ATOM      1  C   UNL     1      13.415  49.673  97.479  1.00  0.00     0.006 C 
ENDROOT
BRANCH   1   2
ATOM      2  C   UNL     1      12.309  49.069  96.598  1.00  0.00     0.053 C 
BRANCH   2   3
ATOM      3  C   UNL     1      11.055  48.807  97.372  1.00  0.00     0.041 C 
ATOM      4  O   UNL     1      10.782  49.499  98.389  1.00  0.00    -0.550 OA
ATOM      5  O   UNL     1      10.170  47.822  96.953  1.00  0.00    -0.550 OA
ENDBRANCH   2   3
ENDBRANCH   1   2
BRANCH   1   6
ATOM      6  C   UNL     1      14.120  50.895  96.861  1.00  0.00     0.000 C 
BRANCH   6   7
ATOM      7  C   UNL     1      14.201  50.823  95.330  1.00  0.00    -0.003 C 
ATOM      8  C   UNL     1      15.609  50.455  94.870  1.00  0.00     0.004 C 
ENDBRANCH   6   7
ENDBRANCH   1   6
TORSDOF 4
ENDMDL
MODEL 3
REMARK VINA RESULT:    -3.653      1.598      2.403
REMARK INTER + INTRA:          -4.729
REMARK INTER:                  -4.594
REMARK INTRA:                  -0.135
REMARK UNBOUND:                -0.222
REMARK SMILES CCCCCC(=O)[O-]
REMARK SMILES IDX 4 1 5 2 6 3 7 4 8 5 3 6 2 7 1 8
REMARK H PARENT
REMARK Flexibility Score: inf
ROOT
ATOM      1  C   UNL     1      13.250  49.339  97.270  1.00  0.00     0.006 C 
ENDROOT
BRANCH   1   2
ATOM      2  C   UNL     1      14.093  50.534  96.797  1.00  0.00     0.053 C 
BRANCH   2   3
ATOM      3  C   UNL     1      15.113  50.133  95.776  1.00  0.00     0.041 C 
ATOM      4  O   UNL     1      15.525  50.970  94.930  1.00  0.00    -0.550 OA
ATOM      5  O   UNL     1      15.633  48.845  95.780  1.00  0.00    -0.550 OA
ENDBRANCH   2   3
ENDBRANCH   1   2
BRANCH   1   6
ATOM      6  C   UNL     1      12.108  48.951  96.312  1.00  0.00     0.000 C 
BRANCH   6   7
ATOM      7  C   UNL     1      10.811  48.587  97.048  1.00  0.00    -0.003 C 
ATOM      8  C   UNL     1      10.615  49.465  98.281  1.00  0.00     0.004 C 
ENDBRANCH   6   7
ENDBRANCH   1   6
TORSDOF 4
ENDMDL
MODEL 4
REMARK VINA RESULT:    -3.446      2.406      3.303
REMARK INTER + INTRA:          -4.474
REMARK INTER:                  -4.386
REMARK INTRA:                  -0.088
REMARK UNBOUND:                -0.222
REMARK SMILES CCCCCC(=O)[O-]
REMARK SMILES IDX 4 1 5 2 6 3 7 4 8 5 3 6 2 7 1 8
REMARK H PARENT
REMARK Flexibility Score: inf
ROOT
ATOM      1  C   UNL     1      12.011  48.871  96.536  1.00  0.00     0.006 C 
ENDROOT
BRANCH   1   2
ATOM      2  C   UNL     1      13.154  49.593  97.270  1.00  0.00     0.053 C 
BRANCH   2   3
ATOM      3  C   UNL     1      14.223  50.054  96.328  1.00  0.00     0.041 C 
ATOM      4  O   UNL     1      14.227  51.242  95.907  1.00  0.00    -0.550 OA
ATOM      5  O   UNL     1      15.233  49.183  95.940  1.00  0.00    -0.550 OA
ENDBRANCH   2   3
ENDBRANCH   1   2
BRANCH   1   6
ATOM      6  C   UNL     1      10.816  48.504  97.434  1.00  0.00     0.000 C 
BRANCH   6   7
ATOM      7  C   UNL     1      10.461  49.613  98.434  1.00  0.00    -0.003 C 
ATOM      8  C   UNL     1       9.036  50.116  98.215  1.00  0.00     0.004 C 
ENDBRANCH   6   7
ENDBRANCH   1   6
TORSDOF 4
ENDMDL
MODEL 5
REMARK VINA RESULT:    -3.357      4.072      5.313
REMARK INTER + INTRA:          -4.364
REMARK INTER:                  -4.307
REMARK INTRA:                  -0.058
REMARK UNBOUND:                -0.222
REMARK SMILES CCCCCC(=O)[O-]
REMARK SMILES IDX 4 1 5 2 6 3 7 4 8 5 3 6 2 7 1 8
REMARK H PARENT
REMARK Flexibility Score: inf
ROOT
ATOM      1  C   UNL     1      12.032  49.095  97.121  1.00  0.00     0.006 C 
ENDROOT
BRANCH   1   2
ATOM      2  C   UNL     1      10.886  49.406  98.098  1.00  0.00     0.053 C 
BRANCH   2   3
ATOM      3  C   UNL     1       9.542  49.251  97.455  1.00  0.00     0.041 C 
ATOM      4  O   UNL     1       8.495  49.508  98.106  1.00  0.00    -0.550 OA
ATOM      5  O   UNL     1       9.447  48.856  96.127  1.00  0.00    -0.550 OA
ENDBRANCH   2   3
ENDBRANCH   1   2
BRANCH   1   6
ATOM      6  C   UNL     1      13.305  49.930  97.354  1.00  0.00     0.000 C 
BRANCH   6   7
ATOM      7  C   UNL     1      14.353  49.736  96.249  1.00  0.00    -0.003 C 
ATOM      8  C   UNL     1      14.393  50.941  95.312  1.00  0.00     0.004 C 
ENDBRANCH   6   7
ENDBRANCH   1   6
TORSDOF 4
ENDMDL
MODEL 6
REMARK VINA RESULT:    -3.340      2.249      3.193
REMARK INTER + INTRA:          -4.343
REMARK INTER:                  -4.287
REMARK INTRA:                  -0.056
REMARK UNBOUND:                -0.222
REMARK SMILES CCCCCC(=O)[O-]
REMARK SMILES IDX 4 1 5 2 6 3 7 4 8 5 3 6 2 7 1 8
REMARK H PARENT
REMARK Flexibility Score: inf
ROOT
ATOM      1  C   UNL     1      12.241  49.139  97.034  1.00  0.00     0.006 C 
ENDROOT
BRANCH   1   2
ATOM      2  C   UNL     1      13.491  49.991  97.311  1.00  0.00     0.053 C 
BRANCH   2   3
ATOM      3  C   UNL     1      14.376  50.098  96.108  1.00  0.00     0.041 C 
ATOM      4  O   UNL     1      15.259  49.226  95.892  1.00  0.00    -0.550 OA
ATOM      5  O   UNL     1      14.203  51.141  95.206  1.00  0.00    -0.550 OA
ENDBRANCH   2   3
ENDBRANCH   1   2
BRANCH   1   6
ATOM      6  C   UNL     1      11.115  49.312  98.070  1.00  0.00     0.000 C 
BRANCH   6   7
ATOM      7  C   UNL     1       9.737  48.912  97.523  1.00  0.00    -0.003 C 
ATOM      8  C   UNL     1       9.634  47.400  97.348  1.00  0.00     0.004 C 
ENDBRANCH   6   7
ENDBRANCH   1   6
TORSDOF 4
ENDMDL
MODEL 7
REMARK VINA RESULT:    -2.993      2.279      4.015
REMARK INTER + INTRA:          -3.915
REMARK INTER:                  -3.808
REMARK INTRA:                  -0.107
REMARK UNBOUND:                -0.222
REMARK SMILES CCCCCC(=O)[O-]
REMARK SMILES IDX 4 1 5 2 6 3 7 4 8 5 3 6 2 7 1 8
REMARK H PARENT
REMARK Flexibility Score: inf
ROOT
ATOM      1  C   UNL     1      15.424  49.534  94.180  1.00  0.00     0.006 C 
ENDROOT
BRANCH   1   2
ATOM      2  C   UNL     1      15.276  50.657  95.220  1.00  0.00     0.053 C 
BRANCH   2   3
ATOM      3  C   UNL     1      14.178  50.376  96.198  1.00  0.00     0.041 C 
ATOM      4  O   UNL     1      14.057  51.082  97.234  1.00  0.00    -0.550 OA
ATOM      5  O   UNL     1      13.267  49.357  95.949  1.00  0.00    -0.550 OA
ENDBRANCH   2   3
ENDBRANCH   1   2
BRANCH   1   6
ATOM      6  C   UNL     1      16.359  48.389  94.613  1.00  0.00     0.000 C 
BRANCH   6   7
ATOM      7  C   UNL     1      16.763  47.478  93.445  1.00  0.00    -0.003 C 
ATOM      8  C   UNL     1      16.302  48.058  92.110  1.00  0.00     0.004 C 
ENDBRANCH   6   7
ENDBRANCH   1   6
TORSDOF 4
ENDMDL
MODEL 8
REMARK VINA RESULT:    -2.957     11.588     12.032
REMARK INTER + INTRA:          -3.870
REMARK INTER:                  -3.795
REMARK INTRA:                  -0.075
REMARK UNBOUND:                -0.222
REMARK SMILES CCCCCC(=O)[O-]
REMARK SMILES IDX 4 1 5 2 6 3 7 4 8 5 3 6 2 7 1 8
REMARK H PARENT
REMARK Flexibility Score: inf
ROOT
ATOM      1  C   UNL     1      19.327  38.677  97.432  1.00  0.00     0.006 C 
ENDROOT
BRANCH   1   2
ATOM      2  C   UNL     1      20.317  39.562  96.657  1.00  0.00     0.053 C 
BRANCH   2   3
ATOM      3  C   UNL     1      21.490  39.961  97.497  1.00  0.00     0.041 C 
ATOM      4  O   UNL     1      22.001  41.105  97.369  1.00  0.00    -0.550 OA
ATOM      5  O   UNL     1      21.999  39.082  98.445  1.00  0.00    -0.550 OA
ENDBRANCH   2   3
ENDBRANCH   1   2
BRANCH   1   6
ATOM      6  C   UNL     1      17.894  38.685  96.866  1.00  0.00     0.000 C 
BRANCH   6   7
ATOM      7  C   UNL     1      17.765  37.881  95.564  1.00  0.00    -0.003 C 
ATOM      8  C   UNL     1      16.580  38.367  94.734  1.00  0.00     0.004 C 
ENDBRANCH   6   7
ENDBRANCH   1   6
TORSDOF 4
ENDMDL
MODEL 9
REMARK VINA RESULT:    -2.855      3.919      5.215
REMARK INTER + INTRA:          -3.745
REMARK INTER:                  -3.620
REMARK INTRA:                  -0.125
REMARK UNBOUND:                -0.222
REMARK SMILES CCCCCC(=O)[O-]
REMARK SMILES IDX 4 1 5 2 6 3 7 4 8 5 3 6 2 7 1 8
REMARK H PARENT
REMARK Flexibility Score: inf
ROOT
ATOM      1  C   UNL     1       9.778  48.437  97.397  1.00  0.00     0.006 C 
ENDROOT
BRANCH   1   2
ATOM      2  C   UNL     1      10.936  49.227  98.029  1.00  0.00     0.053 C 
BRANCH   2   3
ATOM      3  C   UNL     1      12.159  49.219  97.166  1.00  0.00     0.041 C 
ATOM      4  O   UNL     1      13.254  49.651  97.614  1.00  0.00    -0.550 OA
ATOM      5  O   UNL     1      12.098  48.703  95.877  1.00  0.00    -0.550 OA
ENDBRANCH   2   3
ENDBRANCH   1   2
BRANCH   1   6
ATOM      6  C   UNL     1       8.525  49.282  97.098  1.00  0.00     0.000 C 
BRANCH   6   7
ATOM      7  C   UNL     1       8.297  50.393  98.132  1.00  0.00    -0.003 C 
ATOM      8  C   UNL     1       7.383  51.482  97.577  1.00  0.00     0.004 C 
ENDBRANCH   6   7
ENDBRANCH   1   6
TORSDOF 4
ENDMDL
