MODEL 1
REMARK VINA RESULT:    -5.273      0.000      0.000
REMARK INTER + INTRA:          -8.884
REMARK INTER:                  -7.123
REMARK INTRA:                  -1.761
REMARK UNBOUND:                -1.761
REMARK SMILES CC[C@H](CC[C@@H](C)[C@H]1CC[C@@H]2[C@@H]3CC(=O)C4=CC(=O)CC[C@@]4(C)[C@@H]3CC[C@@]21C)C(C)C
REMARK SMILES IDX 4 1 3 2 2 3 1 4 29 5 30 6 31 7 5 8 6 9 7 10 8 11 9 12 27 13
REMARK SMILES IDX 10 14 11 15 26 16 28 17 12 18 25 19 24 20 13 21 22 22 14 23
REMARK SMILES IDX 16 24 21 25 23 26 15 27 17 28 20 29 18 30 19 31
REMARK H PARENT
REMARK Flexibility Score: inf
ROOT
ATOM      1  C   UNL     1       2.555 -13.738   9.197  1.00  0.00     0.004 C 
ENDROOT
BRANCH   1   2
ATOM      2  C   UNL     1       1.019 -13.978   9.267  1.00  0.00    -0.009 C 
BRANCH   2   3
ATOM      3  C   UNL     1       0.307 -13.436   7.998  1.00  0.00     0.000 C 
ATOM      4  C   UNL     1       1.116 -12.352   7.282  1.00  0.00     0.004 C 
ENDBRANCH   2   3
BRANCH   2   5
ATOM      5  C   UNL     1       0.694 -15.487   9.540  1.00  0.00    -0.014 C 
ATOM      6  C   UNL     1       1.942 -16.382   9.657  1.00  0.00     0.007 C 
ATOM      7  C   UNL     1      -0.264 -16.060   8.483  1.00  0.00     0.007 C 
ENDBRANCH   2   5
ENDBRANCH   1   2
BRANCH   1   8
ATOM      8  C   UNL     1       3.105 -12.942  10.411  1.00  0.00     0.004 C 
BRANCH   8   9
ATOM      9  C   UNL     1       4.038 -13.775  11.337  1.00  0.00    -0.011 C 
ATOM     10  C   UNL     1       5.479 -13.218  11.250  1.00  0.00     0.008 C 
BRANCH   9  11
ATOM     11  C   UNL     1       3.597 -13.858  12.862  1.00  0.00    -0.002 C 
ATOM     12  C   UNL     1       2.142 -13.449  13.139  1.00  0.00     0.005 C 
ATOM     13  C   UNL     1       3.698 -15.288  13.542  1.00  0.00    -0.026 C 
ATOM     14  C   UNL     1       1.339 -14.716  12.962  1.00  0.00     0.005 C 
ATOM     15  C   UNL     1       2.222 -15.833  13.532  1.00  0.00    -0.001 C 
ATOM     16  C   UNL     1       4.239 -15.115  14.993  1.00  0.00     0.007 C 
ATOM     17  C   UNL     1       4.653 -16.285  12.817  1.00  0.00     0.012 C 
ATOM     18  C   UNL     1       1.709 -16.438  14.882  1.00  0.00     0.004 C 
ATOM     19  C   UNL     1       4.011 -16.324  15.936  1.00  0.00     0.005 C 
ATOM     20  C   UNL     1       2.836 -17.266  15.537  1.00  0.00     0.003 C 
ATOM     21  C   UNL     1       1.098 -15.439  15.907  1.00  0.00     0.085 C 
ATOM     22  C   UNL     1       2.287 -18.191  16.702  1.00  0.00    -0.000 C 
ATOM     23  C   UNL     1       0.877 -16.070  17.253  1.00  0.00     0.159 C 
ATOM     24  C   UNL     1       1.140 -17.511  17.452  1.00  0.00     0.005 C 
ATOM     25  C   UNL     1       1.742 -19.517  16.087  1.00  0.00     0.020 C 
ATOM     26  C   UNL     1       3.411 -18.547  17.716  1.00  0.00     0.017 C 
ATOM     27  O   UNL     1       0.386 -15.376  18.185  1.00  0.00    -0.295 OA
ATOM     28  C   UNL     1       0.280 -18.236  18.190  1.00  0.00     0.055 C 
ATOM     29  C   UNL     1       1.101 -20.454  17.130  1.00  0.00     0.081 C 
ATOM     30  C   UNL     1       0.266 -19.705  18.130  1.00  0.00     0.156 C 
ATOM     31  O   UNL     1      -0.478 -20.349  18.913  1.00  0.00    -0.295 OA
ENDBRANCH   9  11
ENDBRANCH   8   9
ENDBRANCH   1   8
TORSDOF 6
ENDMDL
MODEL 2
REMARK VINA RESULT:    -5.139      2.547      3.587
REMARK INTER + INTRA:          -8.703
REMARK INTER:                  -6.622
REMARK INTRA:                  -2.080
REMARK UNBOUND:                -1.761
REMARK SMILES CC[C@H](CC[C@@H](C)[C@H]1CC[C@@H]2[C@@H]3CC(=O)C4=CC(=O)CC[C@@]4(C)[C@@H]3CC[C@@]21C)C(C)C
REMARK SMILES IDX 4 1 3 2 2 3 1 4 29 5 30 6 31 7 5 8 6 9 7 10 8 11 9 12 27 13
REMARK SMILES IDX 10 14 11 15 26 16 28 17 12 18 25 19 24 20 13 21 22 22 14 23
REMARK SMILES IDX 16 24 21 25 23 26 15 27 17 28 20 29 18 30 19 31
REMARK H PARENT
REMARK Flexibility Score: inf
ROOT
ATOM      1  C   UNL     1       1.415 -14.201  10.403  1.00  0.00     0.004 C 
ENDROOT
BRANCH   1   2
ATOM      2  C   UNL     1       2.319 -15.441  10.148  1.00  0.00    -0.009 C 
BRANCH   2   3
ATOM      3  C   UNL     1       1.498 -16.626   9.571  1.00  0.00     0.000 C 
ATOM      4  C   UNL     1       0.236 -16.171   8.836  1.00  0.00     0.004 C 
ENDBRANCH   2   3
BRANCH   2   5
ATOM      5  C   UNL     1       3.549 -15.070   9.252  1.00  0.00    -0.014 C 
ATOM      6  C   UNL     1       4.880 -15.671   9.740  1.00  0.00     0.007 C 
ATOM      7  C   UNL     1       3.691 -13.548   9.087  1.00  0.00     0.007 C 
ENDBRANCH   2   5
ENDBRANCH   1   2
BRANCH   1   8
ATOM      8  C   UNL     1       1.346 -13.790  11.899  1.00  0.00     0.004 C 
BRANCH   8   9
ATOM      9  C   UNL     1       2.669 -14.040  12.679  1.00  0.00    -0.011 C 
ATOM     10  C   UNL     1       3.282 -12.683  13.099  1.00  0.00     0.008 C 
BRANCH   9  11
ATOM     11  C   UNL     1       2.547 -14.980  13.955  1.00  0.00    -0.002 C 
ATOM     12  C   UNL     1       1.287 -15.859  13.995  1.00  0.00     0.005 C 
ATOM     13  C   UNL     1       3.718 -16.031  14.163  1.00  0.00    -0.026 C 
ATOM     14  C   UNL     1       1.665 -17.119  13.251  1.00  0.00     0.005 C 
ATOM     15  C   UNL     1       3.124 -17.390  13.639  1.00  0.00    -0.001 C 
ATOM     16  C   UNL     1       4.063 -16.100  15.682  1.00  0.00     0.007 C 
ATOM     17  C   UNL     1       5.040 -15.686  13.412  1.00  0.00     0.012 C 
ATOM     18  C   UNL     1       3.324 -18.628  14.577  1.00  0.00     0.004 C 
ATOM     19  C   UNL     1       4.870 -17.347  16.124  1.00  0.00     0.005 C 
ATOM     20  C   UNL     1       4.742 -18.587  15.189  1.00  0.00     0.003 C 
ATOM     21  C   UNL     1       2.255 -18.845  15.686  1.00  0.00     0.085 C 
ATOM     22  C   UNL     1       5.139 -19.974  15.848  1.00  0.00    -0.000 C 
ATOM     23  C   UNL     1       2.672 -19.893  16.680  1.00  0.00     0.159 C 
ATOM     24  C   UNL     1       3.923 -20.653  16.480  1.00  0.00     0.005 C 
ATOM     25  C   UNL     1       5.702 -20.921  14.743  1.00  0.00     0.020 C 
ATOM     26  C   UNL     1       6.234 -19.787  16.936  1.00  0.00     0.017 C 
ATOM     27  O   UNL     1       1.900 -20.174  17.638  1.00  0.00    -0.295 OA
ATOM     28  C   UNL     1       3.932 -21.974  16.733  1.00  0.00     0.055 C 
ATOM     29  C   UNL     1       6.037 -22.332  15.264  1.00  0.00     0.081 C 
ATOM     30  C   UNL     1       4.999 -22.847  16.222  1.00  0.00     0.156 C 
ATOM     31  O   UNL     1       5.030 -24.055  16.570  1.00  0.00    -0.295 OA
ENDBRANCH   9  11
ENDBRANCH   8   9
ENDBRANCH   1   8
TORSDOF 6
ENDMDL
MODEL 3
REMARK VINA RESULT:    -4.964      2.437      3.819
REMARK INTER + INTRA:          -8.466
REMARK INTER:                  -7.174
REMARK INTRA:                  -1.292
REMARK UNBOUND:                -1.761
REMARK SMILES CC[C@H](CC[C@@H](C)[C@H]1CC[C@@H]2[C@@H]3CC(=O)C4=CC(=O)CC[C@@]4(C)[C@@H]3CC[C@@]21C)C(C)C
REMARK SMILES IDX 4 1 3 2 2 3 1 4 29 5 30 6 31 7 5 8 6 9 7 10 8 11 9 12 27 13
REMARK SMILES IDX 10 14 11 15 26 16 28 17 12 18 25 19 24 20 13 21 22 22 14 23
REMARK SMILES IDX 16 24 21 25 23 26 15 27 17 28 20 29 18 30 19 31
REMARK H PARENT
REMARK Flexibility Score: inf
ROOT
ATOM      1  C   UNL     1       1.822 -16.301  10.838  1.00  0.00     0.004 C 
ENDROOT
BRANCH   1   2
ATOM      2  C   UNL     1       1.853 -15.516   9.495  1.00  0.00    -0.009 C 
BRANCH   2   3
ATOM      3  C   UNL     1       0.446 -14.968   9.133  1.00  0.00     0.000 C 
ATOM      4  C   UNL     1      -0.438 -16.011   8.444  1.00  0.00     0.004 C 
ENDBRANCH   2   3
BRANCH   2   5
ATOM      5  C   UNL     1       2.946 -14.393   9.520  1.00  0.00    -0.014 C 
ATOM      6  C   UNL     1       2.590 -13.158   8.672  1.00  0.00     0.007 C 
ATOM      7  C   UNL     1       4.323 -14.935   9.105  1.00  0.00     0.007 C 
ENDBRANCH   2   5
ENDBRANCH   1   2
BRANCH   1   8
ATOM      8  C   UNL     1       1.719 -15.378  12.083  1.00  0.00     0.004 C 
BRANCH   8   9
ATOM      9  C   UNL     1       2.967 -15.435  13.011  1.00  0.00    -0.011 C 
ATOM     10  C   UNL     1       3.498 -14.001  13.246  1.00  0.00     0.008 C 
BRANCH   9  11
ATOM     11  C   UNL     1       2.748 -16.151  14.413  1.00  0.00    -0.002 C 
ATOM     12  C   UNL     1       1.366 -16.797  14.603  1.00  0.00     0.005 C 
ATOM     13  C   UNL     1       3.743 -17.339  14.753  1.00  0.00    -0.026 C 
ATOM     14  C   UNL     1       1.508 -18.194  14.046  1.00  0.00     0.005 C 
ATOM     15  C   UNL     1       2.919 -18.643  14.445  1.00  0.00    -0.001 C 
ATOM     16  C   UNL     1       4.135 -17.247  16.260  1.00  0.00     0.007 C 
ATOM     17  C   UNL     1       5.072 -17.325  13.937  1.00  0.00     0.012 C 
ATOM     18  C   UNL     1       2.958 -19.752  15.550  1.00  0.00     0.004 C 
ATOM     19  C   UNL     1       4.749 -18.534  16.866  1.00  0.00     0.005 C 
ATOM     20  C   UNL     1       4.387 -19.856  16.126  1.00  0.00     0.003 C 
ATOM     21  C   UNL     1       1.913 -19.630  16.697  1.00  0.00     0.085 C 
ATOM     22  C   UNL     1       4.585 -21.181  16.975  1.00  0.00    -0.000 C 
ATOM     23  C   UNL     1       2.198 -20.580  17.827  1.00  0.00     0.159 C 
ATOM     24  C   UNL     1       3.303 -21.556  17.719  1.00  0.00     0.005 C 
ATOM     25  C   UNL     1       4.944 -22.355  16.011  1.00  0.00     0.020 C 
ATOM     26  C   UNL     1       5.738 -21.024  18.005  1.00  0.00     0.017 C 
ATOM     27  O   UNL     1       1.431 -20.592  18.829  1.00  0.00    -0.295 OA
ATOM     28  C   UNL     1       3.111 -22.811  18.164  1.00  0.00     0.055 C 
ATOM     29  C   UNL     1       5.071 -23.714  16.728  1.00  0.00     0.081 C 
ATOM     30  C   UNL     1       4.004 -23.911  17.768  1.00  0.00     0.156 C 
ATOM     31  O   UNL     1       3.855 -25.045  18.289  1.00  0.00    -0.295 OA
ENDBRANCH   9  11
ENDBRANCH   8   9
ENDBRANCH   1   8
TORSDOF 6
ENDMDL
MODEL 4
REMARK VINA RESULT:    -4.777      1.649      2.493
REMARK INTER + INTRA:          -8.214
REMARK INTER:                  -6.627
REMARK INTRA:                  -1.587
REMARK UNBOUND:                -1.761
REMARK SMILES CC[C@H](CC[C@@H](C)[C@H]1CC[C@@H]2[C@@H]3CC(=O)C4=CC(=O)CC[C@@]4(C)[C@@H]3CC[C@@]21C)C(C)C
REMARK SMILES IDX 4 1 3 2 2 3 1 4 29 5 30 6 31 7 5 8 6 9 7 10 8 11 9 12 27 13
REMARK SMILES IDX 10 14 11 15 26 16 28 17 12 18 25 19 24 20 13 21 22 22 14 23
REMARK SMILES IDX 16 24 21 25 23 26 15 27 17 28 20 29 18 30 19 31
REMARK H PARENT
REMARK Flexibility Score: inf
ROOT
ATOM      1  C   UNL     1       3.205 -14.497   9.492  1.00  0.00     0.004 C 
ENDROOT
BRANCH   1   2
ATOM      2  C   UNL     1       1.716 -14.164   9.186  1.00  0.00    -0.009 C 
BRANCH   2   3
ATOM      3  C   UNL     1       0.775 -15.293   9.686  1.00  0.00     0.000 C 
ATOM      4  C   UNL     1      -0.159 -15.816   8.592  1.00  0.00     0.004 C 
ENDBRANCH   2   3
BRANCH   2   5
ATOM      5  C   UNL     1       1.322 -12.758   9.755  1.00  0.00    -0.014 C 
ATOM      6  C   UNL     1       0.764 -12.801  11.190  1.00  0.00     0.007 C 
ATOM      7  C   UNL     1       0.334 -12.030   8.830  1.00  0.00     0.007 C 
ENDBRANCH   2   5
ENDBRANCH   1   2
BRANCH   1   8
ATOM      8  C   UNL     1       3.376 -15.609  10.561  1.00  0.00     0.004 C 
BRANCH   8   9
ATOM      9  C   UNL     1       4.152 -15.148  11.828  1.00  0.00    -0.011 C 
ATOM     10  C   UNL     1       4.473 -13.638  11.714  1.00  0.00     0.008 C 
BRANCH   9  11
ATOM     11  C   UNL     1       3.431 -15.429  13.216  1.00  0.00    -0.002 C 
ATOM     12  C   UNL     1       1.946 -15.814  13.109  1.00  0.00     0.005 C 
ATOM     13  C   UNL     1       4.037 -16.603  14.095  1.00  0.00    -0.026 C 
ATOM     14  C   UNL     1       1.943 -17.315  12.940  1.00  0.00     0.005 C 
ATOM     15  C   UNL     1       3.077 -17.822  13.839  1.00  0.00    -0.001 C 
ATOM     16  C   UNL     1       4.028 -16.164  15.591  1.00  0.00     0.007 C 
ATOM     17  C   UNL     1       5.509 -16.982  13.742  1.00  0.00     0.012 C 
ATOM     18  C   UNL     1       2.596 -18.590  15.116  1.00  0.00     0.004 C 
ATOM     19  C   UNL     1       4.185 -17.312  16.620  1.00  0.00     0.005 C 
ATOM     20  C   UNL     1       3.770 -18.724  16.111  1.00  0.00     0.003 C 
ATOM     21  C   UNL     1       1.333 -18.031  15.833  1.00  0.00     0.085 C 
ATOM     22  C   UNL     1       3.463 -19.788  17.245  1.00  0.00    -0.000 C 
ATOM     23  C   UNL     1       1.109 -18.674  17.173  1.00  0.00     0.159 C 
ATOM     24  C   UNL     1       1.981 -19.779  17.624  1.00  0.00     0.005 C 
ATOM     25  C   UNL     1       3.817 -21.213  16.717  1.00  0.00     0.020 C 
ATOM     26  C   UNL     1       4.311 -19.514  18.519  1.00  0.00     0.017 C 
ATOM     27  O   UNL     1       0.119 -18.317  17.869  1.00  0.00    -0.295 OA
ATOM     28  C   UNL     1       1.428 -20.833  18.250  1.00  0.00     0.055 C 
ATOM     29  C   UNL     1       3.471 -22.336  17.715  1.00  0.00     0.081 C 
ATOM     30  C   UNL     1       2.150 -22.106  18.395  1.00  0.00     0.156 C 
ATOM     31  O   UNL     1       1.642 -23.031  19.078  1.00  0.00    -0.295 OA
ENDBRANCH   9  11
ENDBRANCH   8   9
ENDBRANCH   1   8
TORSDOF 6
ENDMDL
MODEL 5
REMARK VINA RESULT:    -4.696      3.256      8.360
REMARK INTER + INTRA:          -8.105
REMARK INTER:                  -6.481
REMARK INTRA:                  -1.623
REMARK UNBOUND:                -1.761
REMARK SMILES CC[C@H](CC[C@@H](C)[C@H]1CC[C@@H]2[C@@H]3CC(=O)C4=CC(=O)CC[C@@]4(C)[C@@H]3CC[C@@]21C)C(C)C
REMARK SMILES IDX 4 1 3 2 2 3 1 4 29 5 30 6 31 7 5 8 6 9 7 10 8 11 9 12 27 13
REMARK SMILES IDX 10 14 11 15 26 16 28 17 12 18 25 19 24 20 13 21 22 22 14 23
REMARK SMILES IDX 16 24 21 25 23 26 15 27 17 28 20 29 18 30 19 31
REMARK H PARENT
REMARK Flexibility Score: inf
ROOT
ATOM      1  C   UNL     1       3.278 -20.988  16.853  1.00  0.00     0.004 C 
ENDROOT
BRANCH   1   2
ATOM      2  C   UNL     1       4.283 -21.866  16.053  1.00  0.00    -0.009 C 
BRANCH   2   3
ATOM      3  C   UNL     1       3.998 -21.797  14.528  1.00  0.00     0.000 C 
ATOM      4  C   UNL     1       5.211 -21.332  13.718  1.00  0.00     0.004 C 
ENDBRANCH   2   3
BRANCH   2   5
ATOM      5  C   UNL     1       5.764 -21.494  16.404  1.00  0.00    -0.014 C 
ATOM      6  C   UNL     1       6.539 -22.622  17.109  1.00  0.00     0.007 C 
ATOM      7  C   UNL     1       5.841 -20.205  17.238  1.00  0.00     0.007 C 
ENDBRANCH   2   5
ENDBRANCH   1   2
BRANCH   1   8
ATOM      8  C   UNL     1       2.271 -20.230  15.946  1.00  0.00     0.004 C 
BRANCH   8   9
ATOM      9  C   UNL     1       1.809 -18.863  16.528  1.00  0.00    -0.011 C 
ATOM     10  C   UNL     1       2.023 -18.857  18.060  1.00  0.00     0.008 C 
BRANCH   9  11
ATOM     11  C   UNL     1       2.499 -17.578  15.895  1.00  0.00    -0.002 C 
ATOM     12  C   UNL     1       3.799 -17.855  15.123  1.00  0.00     0.005 C 
ATOM     13  C   UNL     1       1.631 -16.764  14.846  1.00  0.00    -0.026 C 
ATOM     14  C   UNL     1       3.356 -18.165  13.712  1.00  0.00     0.005 C 
ATOM     15  C   UNL     1       2.179 -17.218  13.444  1.00  0.00    -0.001 C 
ATOM     16  C   UNL     1       1.855 -15.240  15.087  1.00  0.00     0.007 C 
ATOM     17  C   UNL     1       0.094 -17.016  14.941  1.00  0.00     0.012 C 
ATOM     18  C   UNL     1       2.491 -16.068  12.428  1.00  0.00     0.004 C 
ATOM     19  C   UNL     1       1.434 -14.313  13.919  1.00  0.00     0.005 C 
ATOM     20  C   UNL     1       1.390 -14.989  12.516  1.00  0.00     0.003 C 
ATOM     21  C   UNL     1       3.902 -15.419  12.521  1.00  0.00     0.085 C 
ATOM     22  C   UNL     1       1.441 -13.993  11.284  1.00  0.00    -0.000 C 
ATOM     23  C   UNL     1       4.008 -14.171  11.690  1.00  0.00     0.159 C 
ATOM     24  C   UNL     1       2.882 -13.750  10.831  1.00  0.00     0.005 C 
ATOM     25  C   UNL     1       0.659 -14.619  10.088  1.00  0.00     0.020 C 
ATOM     26  C   UNL     1       0.787 -12.627  11.636  1.00  0.00     0.017 C 
ATOM     27  O   UNL     1       5.099 -13.536  11.670  1.00  0.00    -0.295 OA
ATOM     28  C   UNL     1       3.141 -13.279   9.598  1.00  0.00     0.055 C 
ATOM     29  C   UNL     1       0.722 -13.766   8.806  1.00  0.00     0.081 C 
ATOM     30  C   UNL     1       2.091 -13.190   8.573  1.00  0.00     0.156 C 
ATOM     31  O   UNL     1       2.348 -12.645   7.469  1.00  0.00    -0.295 OA
ENDBRANCH   9  11
ENDBRANCH   8   9
ENDBRANCH   1   8
TORSDOF 6
ENDMDL
MODEL 6
REMARK VINA RESULT:    -4.648     12.129     15.311
REMARK INTER + INTRA:          -8.040
REMARK INTER:                  -6.538
REMARK INTRA:                  -1.502
REMARK UNBOUND:                -1.761
REMARK SMILES CC[C@H](CC[C@@H](C)[C@H]1CC[C@@H]2[C@@H]3CC(=O)C4=CC(=O)CC[C@@]4(C)[C@@H]3CC[C@@]21C)C(C)C
REMARK SMILES IDX 4 1 3 2 2 3 1 4 29 5 30 6 31 7 5 8 6 9 7 10 8 11 9 12 27 13
REMARK SMILES IDX 10 14 11 15 26 16 28 17 12 18 25 19 24 20 13 21 22 22 14 23
REMARK SMILES IDX 16 24 21 25 23 26 15 27 17 28 20 29 18 30 19 31
REMARK H PARENT
REMARK Flexibility Score: inf
ROOT
ATOM      1  C   UNL     1       0.024 -29.605   8.855  1.00  0.00     0.004 C 
ENDROOT
BRANCH   1   2
ATOM      2  C   UNL     1       0.843 -29.411  10.163  1.00  0.00    -0.009 C 
BRANCH   2   3
ATOM      3  C   UNL     1       2.348 -29.717   9.934  1.00  0.00     0.000 C 
ATOM      4  C   UNL     1       2.688 -29.957   8.461  1.00  0.00     0.004 C 
ENDBRANCH   2   3
BRANCH   2   5
ATOM      5  C   UNL     1       0.606 -27.987  10.773  1.00  0.00    -0.014 C 
ATOM      6  C   UNL     1       1.310 -26.854  10.003  1.00  0.00     0.007 C 
ATOM      7  C   UNL     1       1.000 -27.934  12.258  1.00  0.00     0.007 C 
ENDBRANCH   2   5
ENDBRANCH   1   2
BRANCH   1   8
ATOM      8  C   UNL     1      -0.916 -30.840   8.899  1.00  0.00     0.004 C 
BRANCH   8   9
ATOM      9  C   UNL     1      -2.427 -30.477   8.965  1.00  0.00    -0.011 C 
ATOM     10  C   UNL     1      -3.144 -31.033   7.712  1.00  0.00     0.008 C 
BRANCH   9  11
ATOM     11  C   UNL     1      -3.194 -30.962  10.269  1.00  0.00    -0.002 C 
ATOM     12  C   UNL     1      -2.287 -31.391  11.434  1.00  0.00     0.005 C 
ATOM     13  C   UNL     1      -4.161 -29.903  10.947  1.00  0.00    -0.026 C 
ATOM     14  C   UNL     1      -2.019 -30.122  12.208  1.00  0.00     0.005 C 
ATOM     15  C   UNL     1      -3.338 -29.340  12.163  1.00  0.00    -0.001 C 
ATOM     16  C   UNL     1      -5.455 -30.634  11.416  1.00  0.00     0.007 C 
ATOM     17  C   UNL     1      -4.612 -28.742  10.007  1.00  0.00     0.012 C 
ATOM     18  C   UNL     1      -4.099 -29.274  13.530  1.00  0.00     0.004 C 
ATOM     19  C   UNL     1      -6.314 -29.867  12.452  1.00  0.00     0.005 C 
ATOM     20  C   UNL     1      -5.549 -28.800  13.291  1.00  0.00     0.003 C 
ATOM     21  C   UNL     1      -4.081 -30.563  14.402  1.00  0.00     0.085 C 
ATOM     22  C   UNL     1      -6.258 -28.367  14.641  1.00  0.00    -0.000 C 
ATOM     23  C   UNL     1      -5.042 -30.482  15.554  1.00  0.00     0.159 C 
ATOM     24  C   UNL     1      -5.794 -29.236  15.811  1.00  0.00     0.005 C 
ATOM     25  C   UNL     1      -5.883 -26.887  14.962  1.00  0.00     0.020 C 
ATOM     26  C   UNL     1      -7.805 -28.465  14.523  1.00  0.00     0.017 C 
ATOM     27  O   UNL     1      -5.136 -31.460  16.347  1.00  0.00    -0.295 OA
ATOM     28  C   UNL     1      -5.944 -28.814  17.079  1.00  0.00     0.055 C 
ATOM     29  C   UNL     1      -6.452 -26.392  16.307  1.00  0.00     0.081 C 
ATOM     30  C   UNL     1      -6.345 -27.433  17.387  1.00  0.00     0.156 C 
ATOM     31  O   UNL     1      -6.578 -27.107  18.579  1.00  0.00    -0.295 OA
ENDBRANCH   9  11
ENDBRANCH   8   9
ENDBRANCH   1   8
TORSDOF 6
ENDMDL
MODEL 7
REMARK VINA RESULT:    -4.490      3.171      8.137
REMARK INTER + INTRA:          -7.826
REMARK INTER:                  -5.471
REMARK INTRA:                  -2.355
REMARK UNBOUND:                -1.761
REMARK SMILES CC[C@H](CC[C@@H](C)[C@H]1CC[C@@H]2[C@@H]3CC(=O)C4=CC(=O)CC[C@@]4(C)[C@@H]3CC[C@@]21C)C(C)C
REMARK SMILES IDX 4 1 3 2 2 3 1 4 29 5 30 6 31 7 5 8 6 9 7 10 8 11 9 12 27 13
REMARK SMILES IDX 10 14 11 15 26 16 28 17 12 18 25 19 24 20 13 21 22 22 14 23
REMARK SMILES IDX 16 24 21 25 23 26 15 27 17 28 20 29 18 30 19 31
REMARK H PARENT
REMARK Flexibility Score: inf
ROOT
ATOM      1  C   UNL     1       5.160 -19.998  17.318  1.00  0.00     0.004 C 
ENDROOT
BRANCH   1   2
ATOM      2  C   UNL     1       5.321 -20.175  15.781  1.00  0.00    -0.009 C 
BRANCH   2   3
ATOM      3  C   UNL     1       6.735 -19.739  15.311  1.00  0.00     0.000 C 
ATOM      4  C   UNL     1       6.758 -19.272  13.853  1.00  0.00     0.004 C 
ENDBRANCH   2   3
BRANCH   2   5
ATOM      5  C   UNL     1       4.965 -21.635  15.339  1.00  0.00    -0.014 C 
ATOM      6  C   UNL     1       4.014 -21.706  14.130  1.00  0.00     0.007 C 
ATOM      7  C   UNL     1       4.391 -22.456  16.505  1.00  0.00     0.007 C 
ENDBRANCH   2   5
ENDBRANCH   1   2
BRANCH   1   8
ATOM      8  C   UNL     1       4.006 -19.034  17.706  1.00  0.00     0.004 C 
BRANCH   8   9
ATOM      9  C   UNL     1       2.901 -18.908  16.617  1.00  0.00    -0.011 C 
ATOM     10  C   UNL     1       1.570 -19.475  17.167  1.00  0.00     0.008 C 
BRANCH   9  11
ATOM     11  C   UNL     1       2.656 -17.443  16.054  1.00  0.00    -0.002 C 
ATOM     12  C   UNL     1       3.741 -16.417  16.420  1.00  0.00     0.005 C 
ATOM     13  C   UNL     1       2.561 -17.307  14.475  1.00  0.00    -0.026 C 
ATOM     14  C   UNL     1       4.776 -16.535  15.327  1.00  0.00     0.005 C 
ATOM     15  C   UNL     1       3.975 -16.773  14.041  1.00  0.00    -0.001 C 
ATOM     16  C   UNL     1       1.430 -16.293  14.127  1.00  0.00     0.007 C 
ATOM     17  C   UNL     1       2.225 -18.635  13.730  1.00  0.00     0.012 C 
ATOM     18  C   UNL     1       3.971 -15.563  13.047  1.00  0.00     0.004 C 
ATOM     19  C   UNL     1       1.468 -15.723  12.687  1.00  0.00     0.005 C 
ATOM     20  C   UNL     1       2.862 -15.765  11.992  1.00  0.00     0.003 C 
ATOM     21  C   UNL     1       3.875 -14.143  13.677  1.00  0.00     0.085 C 
ATOM     22  C   UNL     1       3.032 -14.780  10.761  1.00  0.00    -0.000 C 
ATOM     23  C   UNL     1       3.620 -13.080  12.645  1.00  0.00     0.159 C 
ATOM     24  C   UNL     1       3.590 -13.428  11.209  1.00  0.00     0.005 C 
ATOM     25  C   UNL     1       4.039 -15.404   9.745  1.00  0.00     0.020 C 
ATOM     26  C   UNL     1       1.679 -14.551  10.031  1.00  0.00     0.017 C 
ATOM     27  O   UNL     1       3.518 -11.877  13.013  1.00  0.00    -0.295 OA
ATOM     28  C   UNL     1       4.177 -12.603  10.325  1.00  0.00     0.055 C 
ATOM     29  C   UNL     1       4.345 -14.482   8.548  1.00  0.00     0.081 C 
ATOM     30  C   UNL     1       4.507 -13.046   8.962  1.00  0.00     0.156 C 
ATOM     31  O   UNL     1       4.957 -12.215   8.133  1.00  0.00    -0.295 OA
ENDBRANCH   9  11
ENDBRANCH   8   9
ENDBRANCH   1   8
TORSDOF 6
ENDMDL
MODEL 8
REMARK VINA RESULT:    -4.462     10.764     13.991
REMARK INTER + INTRA:          -7.788
REMARK INTER:                  -5.941
REMARK INTRA:                  -1.847
REMARK UNBOUND:                -1.761
REMARK SMILES CC[C@H](CC[C@@H](C)[C@H]1CC[C@@H]2[C@@H]3CC(=O)C4=CC(=O)CC[C@@]4(C)[C@@H]3CC[C@@]21C)C(C)C
REMARK SMILES IDX 4 1 3 2 2 3 1 4 29 5 30 6 31 7 5 8 6 9 7 10 8 11 9 12 27 13
REMARK SMILES IDX 10 14 11 15 26 16 28 17 12 18 25 19 24 20 13 21 22 22 14 23
REMARK SMILES IDX 16 24 21 25 23 26 15 27 17 28 20 29 18 30 19 31
REMARK H PARENT
REMARK Flexibility Score: inf
ROOT
ATOM      1  C   UNL     1      -4.842 -30.776  12.587  1.00  0.00     0.004 C 
ENDROOT
BRANCH   1   2
ATOM      2  C   UNL     1      -5.633 -29.524  12.111  1.00  0.00    -0.009 C 
BRANCH   2   3
ATOM      3  C   UNL     1      -5.740 -29.483  10.562  1.00  0.00     0.000 C 
ATOM      4  C   UNL     1      -4.473 -28.944   9.894  1.00  0.00     0.004 C 
ENDBRANCH   2   3
BRANCH   2   5
ATOM      5  C   UNL     1      -7.032 -29.439  12.811  1.00  0.00    -0.014 C 
ATOM      6  C   UNL     1      -7.003 -29.799  14.308  1.00  0.00     0.007 C 
ATOM      7  C   UNL     1      -8.081 -30.299  12.087  1.00  0.00     0.007 C 
ENDBRANCH   2   5
ENDBRANCH   1   2
BRANCH   1   8
ATOM      8  C   UNL     1      -3.452 -30.429  13.186  1.00  0.00     0.004 C 
BRANCH   8   9
ATOM      9  C   UNL     1      -3.449 -30.307  14.737  1.00  0.00    -0.011 C 
ATOM     10  C   UNL     1      -2.615 -31.461  15.342  1.00  0.00     0.008 C 
BRANCH   9  11
ATOM     11  C   UNL     1      -2.928 -28.921  15.315  1.00  0.00    -0.002 C 
ATOM     12  C   UNL     1      -2.789 -27.796  14.277  1.00  0.00     0.005 C 
ATOM     13  C   UNL     1      -3.823 -28.253  16.442  1.00  0.00    -0.026 C 
ATOM     14  C   UNL     1      -4.146 -27.132  14.236  1.00  0.00     0.005 C 
ATOM     15  C   UNL     1      -4.639 -27.140  15.688  1.00  0.00    -0.001 C 
ATOM     16  C   UNL     1      -2.887 -27.645  17.530  1.00  0.00     0.007 C 
ATOM     17  C   UNL     1      -4.787 -29.238  17.173  1.00  0.00     0.012 C 
ATOM     18  C   UNL     1      -4.663 -25.731  16.371  1.00  0.00     0.004 C 
ATOM     19  C   UNL     1      -3.549 -26.607  18.472  1.00  0.00     0.005 C 
ATOM     20  C   UNL     1      -4.813 -25.900  17.899  1.00  0.00     0.003 C 
ATOM     21  C   UNL     1      -3.480 -24.775  16.040  1.00  0.00     0.085 C 
ATOM     22  C   UNL     1      -5.205 -24.537  18.607  1.00  0.00    -0.000 C 
ATOM     23  C   UNL     1      -3.460 -23.566  16.934  1.00  0.00     0.159 C 
ATOM     24  C   UNL     1      -4.546 -23.345  17.911  1.00  0.00     0.005 C 
ATOM     25  C   UNL     1      -6.751 -24.347  18.529  1.00  0.00     0.020 C 
ATOM     26  C   UNL     1      -4.787 -24.540  20.105  1.00  0.00     0.017 C 
ATOM     27  O   UNL     1      -2.553 -22.702  16.780  1.00  0.00    -0.295 OA
ATOM     28  C   UNL     1      -5.033 -22.102  18.076  1.00  0.00     0.055 C 
ATOM     29  C   UNL     1      -7.230 -23.004  19.114  1.00  0.00     0.081 C 
ATOM     30  C   UNL     1      -6.326 -21.864  18.737  1.00  0.00     0.156 C 
ATOM     31  O   UNL     1      -6.695 -20.685  18.967  1.00  0.00    -0.295 OA
ENDBRANCH   9  11
ENDBRANCH   8   9
ENDBRANCH   1   8
TORSDOF 6
ENDMDL
MODEL 9
REMARK VINA RESULT:    -4.422     11.953     15.807
REMARK INTER + INTRA:          -7.734
REMARK INTER:                  -5.432
REMARK INTRA:                  -2.301
REMARK UNBOUND:                -1.761
REMARK SMILES CC[C@H](CC[C@@H](C)[C@H]1CC[C@@H]2[C@@H]3CC(=O)C4=CC(=O)CC[C@@]4(C)[C@@H]3CC[C@@]21C)C(C)C
REMARK SMILES IDX 4 1 3 2 2 3 1 4 29 5 30 6 31 7 5 8 6 9 7 10 8 11 9 12 27 13
REMARK SMILES IDX 10 14 11 15 26 16 28 17 12 18 25 19 24 20 13 21 22 22 14 23
REMARK SMILES IDX 16 24 21 25 23 26 15 27 17 28 20 29 18 30 19 31
REMARK H PARENT
REMARK Flexibility Score: inf
ROOT
ATOM      1  C   UNL     1      -6.588 -26.528  15.619  1.00  0.00     0.004 C 
ENDROOT
BRANCH   1   2
ATOM      2  C   UNL     1      -5.137 -26.668  16.162  1.00  0.00    -0.009 C 
BRANCH   2   3
ATOM      3  C   UNL     1      -4.158 -25.739  15.394  1.00  0.00     0.000 C 
ATOM      4  C   UNL     1      -3.535 -24.664  16.289  1.00  0.00     0.004 C 
ENDBRANCH   2   3
BRANCH   2   5
ATOM      5  C   UNL     1      -5.088 -26.441  17.711  1.00  0.00    -0.014 C 
ATOM      6  C   UNL     1      -4.614 -27.672  18.506  1.00  0.00     0.007 C 
ATOM      7  C   UNL     1      -6.442 -25.956  18.255  1.00  0.00     0.007 C 
ENDBRANCH   2   5
ENDBRANCH   1   2
BRANCH   1   8
ATOM      8  C   UNL     1      -7.221 -27.885  15.210  1.00  0.00     0.004 C 
BRANCH   8   9
ATOM      9  C   UNL     1      -6.285 -29.107  15.433  1.00  0.00    -0.011 C 
ATOM     10  C   UNL     1      -7.027 -30.179  16.266  1.00  0.00     0.008 C 
BRANCH   9  11
ATOM     11  C   UNL     1      -5.703 -29.776  14.114  1.00  0.00    -0.002 C 
ATOM     12  C   UNL     1      -6.033 -29.034  12.809  1.00  0.00     0.005 C 
ATOM     13  C   UNL     1      -4.124 -29.927  14.044  1.00  0.00    -0.026 C 
ATOM     14  C   UNL     1      -4.923 -28.022  12.643  1.00  0.00     0.005 C 
ATOM     15  C   UNL     1      -3.656 -28.736  13.130  1.00  0.00    -0.001 C 
ATOM     16  C   UNL     1      -3.781 -31.309  13.410  1.00  0.00     0.007 C 
ATOM     17  C   UNL     1      -3.406 -29.871  15.427  1.00  0.00     0.012 C 
ATOM     18  C   UNL     1      -2.644 -29.105  11.993  1.00  0.00     0.004 C 
ATOM     19  C   UNL     1      -2.332 -31.457  12.883  1.00  0.00     0.005 C 
ATOM     20  C   UNL     1      -1.612 -30.121  12.531  1.00  0.00     0.003 C 
ATOM     21  C   UNL     1      -3.253 -29.603  10.650  1.00  0.00     0.085 C 
ATOM     22  C   UNL     1      -0.363 -30.261  11.565  1.00  0.00    -0.000 C 
ATOM     23  C   UNL     1      -2.210 -30.170   9.729  1.00  0.00     0.159 C 
ATOM     24  C   UNL     1      -0.780 -30.116  10.100  1.00  0.00     0.005 C 
ATOM     25  C   UNL     1       0.661 -29.129  11.888  1.00  0.00     0.020 C 
ATOM     26  C   UNL     1       0.346 -31.631  11.754  1.00  0.00     0.017 C 
ATOM     27  O   UNL     1      -2.561 -30.614   8.601  1.00  0.00    -0.295 OA
ATOM     28  C   UNL     1       0.128 -29.806   9.158  1.00  0.00     0.055 C 
ATOM     29  C   UNL     1       1.878 -29.120  10.942  1.00  0.00     0.081 C 
ATOM     30  C   UNL     1       1.490 -29.380   9.513  1.00  0.00     0.156 C 
ATOM     31  O   UNL     1       2.339 -29.202   8.604  1.00  0.00    -0.295 OA
ENDBRANCH   9  11
ENDBRANCH   8   9
ENDBRANCH   1   8
TORSDOF 6
ENDMDL
