MODEL 1
REMARK VINA RESULT:     2.417      0.000      0.000
REMARK INTER + INTRA:           2.980
REMARK INTER:                   3.124
REMARK INTRA:                  -0.144
REMARK UNBOUND:                -0.144
REMARK SMILES CCCCCCC(=O)[O-]
REMARK SMILES IDX 5 1 6 2 7 3 8 4 9 5 4 6 3 7 2 8 1 9
REMARK H PARENT
REMARK Flexibility Score: inf
ROOT
ATOM      1  C   UNL     1       2.867   7.694  -3.551  1.00  0.00     0.006 C 
ENDROOT
BRANCH   1   2
ATOM      2  C   UNL     1       3.598   7.284  -2.268  1.00  0.00     0.053 C 
BRANCH   2   3
ATOM      3  C   UNL     1       5.076   7.239  -2.500  1.00  0.00     0.041 C 
ATOM      4  O   UNL     1       5.602   6.226  -3.033  1.00  0.00    -0.550 OA
ATOM      5  O   UNL     1       5.878   8.294  -2.085  1.00  0.00    -0.550 OA
ENDBRANCH   2   3
ENDBRANCH   1   2
BRANCH   1   6
ATOM      6  C   UNL     1       1.366   7.366  -3.506  1.00  0.00     0.000 C 
BRANCH   6   7
ATOM      7  C   UNL     1       0.520   8.356  -4.325  1.00  0.00    -0.000 C 
BRANCH   7   8
ATOM      8  C   UNL     1       1.214   8.790  -5.625  1.00  0.00    -0.003 C 
ATOM      9  C   UNL     1       0.397   8.451  -6.871  1.00  0.00     0.004 C 
ENDBRANCH   7   8
ENDBRANCH   6   7
ENDBRANCH   1   6
TORSDOF 5
ENDMDL
MODEL 2
REMARK VINA RESULT:     3.350      2.998      5.071
REMARK INTER + INTRA:           4.186
REMARK INTER:                   4.322
REMARK INTRA:                  -0.136
REMARK UNBOUND:                -0.144
REMARK SMILES CCCCCCC(=O)[O-]
REMARK SMILES IDX 5 1 6 2 7 3 8 4 9 5 4 6 3 7 2 8 1 9
REMARK H PARENT
REMARK Flexibility Score: inf
ROOT
ATOM      1  C   UNL     1       1.264   7.555  -3.363  1.00  0.00     0.006 C 
ENDROOT
BRANCH   1   2
ATOM      2  C   UNL     1       0.471   7.555  -4.676  1.00  0.00     0.053 C 
BRANCH   2   3
ATOM      3  C   UNL     1       0.795   8.774  -5.480  1.00  0.00     0.041 C 
ATOM      4  O   UNL     1       0.392   9.906  -5.105  1.00  0.00    -0.550 OA
ATOM      5  O   UNL     1       1.500   8.653  -6.672  1.00  0.00    -0.550 OA
ENDBRANCH   2   3
ENDBRANCH   1   2
BRANCH   1   6
ATOM      6  C   UNL     1       2.783   7.602  -3.590  1.00  0.00     0.000 C 
BRANCH   6   7
ATOM      7  C   UNL     1       3.576   7.010  -2.411  1.00  0.00    -0.000 C 
BRANCH   7   8
ATOM      8  C   UNL     1       5.095   7.133  -2.604  1.00  0.00    -0.003 C 
ATOM      9  C   UNL     1       5.709   8.245  -1.754  1.00  0.00     0.004 C 
ENDBRANCH   7   8
ENDBRANCH   6   7
ENDBRANCH   1   6
TORSDOF 5
ENDMDL
MODEL 3
REMARK VINA RESULT:     3.571      3.039      4.987
REMARK INTER + INTRA:           4.470
REMARK INTER:                   4.533
REMARK INTRA:                  -0.063
REMARK UNBOUND:                -0.144
REMARK SMILES CCCCCCC(=O)[O-]
REMARK SMILES IDX 5 1 6 2 7 3 8 4 9 5 4 6 3 7 2 8 1 9
REMARK H PARENT
REMARK Flexibility Score: inf
ROOT
ATOM      1  C   UNL     1       2.940   7.666  -3.700  1.00  0.00     0.006 C 
ENDROOT
BRANCH   1   2
ATOM      2  C   UNL     1       1.431   7.397  -3.670  1.00  0.00     0.053 C 
BRANCH   2   3
ATOM      3  C   UNL     1       0.692   8.489  -4.376  1.00  0.00     0.041 C 
ATOM      4  O   UNL     1       0.996   8.797  -5.559  1.00  0.00    -0.550 OA
ATOM      5  O   UNL     1      -0.300   9.200  -3.712  1.00  0.00    -0.550 OA
ENDBRANCH   2   3
ENDBRANCH   1   2
BRANCH   1   6
ATOM      6  C   UNL     1       3.646   7.215  -2.411  1.00  0.00     0.000 C 
BRANCH   6   7
ATOM      7  C   UNL     1       5.153   7.527  -2.422  1.00  0.00    -0.000 C 
BRANCH   7   8
ATOM      8  C   UNL     1       6.014   6.262  -2.571  1.00  0.00    -0.003 C 
ATOM      9  C   UNL     1       5.531   5.350  -3.698  1.00  0.00     0.004 C 
ENDBRANCH   7   8
ENDBRANCH   6   7
ENDBRANCH   1   6
TORSDOF 5
ENDMDL
MODEL 4
REMARK VINA RESULT:     3.572      3.802      5.868
REMARK INTER + INTRA:           4.472
REMARK INTER:                   4.585
REMARK INTRA:                  -0.113
REMARK UNBOUND:                -0.144
REMARK SMILES CCCCCCC(=O)[O-]
REMARK SMILES IDX 5 1 6 2 7 3 8 4 9 5 4 6 3 7 2 8 1 9
REMARK H PARENT
REMARK Flexibility Score: inf
ROOT
ATOM      1  C   UNL     1       5.313   5.331  -3.300  1.00  0.00     0.006 C 
ENDROOT
BRANCH   1   2
ATOM      2  C   UNL     1       6.090   6.423  -2.555  1.00  0.00     0.053 C 
BRANCH   2   3
ATOM      3  C   UNL     1       5.250   7.653  -2.409  1.00  0.00     0.041 C 
ATOM      4  O   UNL     1       5.729   8.686  -1.872  1.00  0.00    -0.550 OA
ATOM      5  O   UNL     1       3.923   7.642  -2.821  1.00  0.00    -0.550 OA
ENDBRANCH   2   3
ENDBRANCH   1   2
BRANCH   1   6
ATOM      6  C   UNL     1       6.077   4.790  -4.519  1.00  0.00     0.000 C 
BRANCH   6   7
ATOM      7  C   UNL     1       6.558   3.341  -4.320  1.00  0.00    -0.000 C 
BRANCH   7   8
ATOM      8  C   UNL     1       7.177   3.113  -2.932  1.00  0.00    -0.003 C 
ATOM      9  C   UNL     1       7.280   1.632  -2.569  1.00  0.00     0.004 C 
ENDBRANCH   7   8
ENDBRANCH   6   7
ENDBRANCH   1   6
TORSDOF 5
ENDMDL
MODEL 5
REMARK VINA RESULT:     3.756      3.145      5.045
REMARK INTER + INTRA:           4.710
REMARK INTER:                   4.852
REMARK INTRA:                  -0.142
REMARK UNBOUND:                -0.144
REMARK SMILES CCCCCCC(=O)[O-]
REMARK SMILES IDX 5 1 6 2 7 3 8 4 9 5 4 6 3 7 2 8 1 9
REMARK H PARENT
REMARK Flexibility Score: inf
ROOT
ATOM      1  C   UNL     1       0.528   7.761  -4.936  1.00  0.00     0.006 C 
ENDROOT
BRANCH   1   2
ATOM      2  C   UNL     1       0.830   8.979  -5.816  1.00  0.00     0.053 C 
BRANCH   2   3
ATOM      3  C   UNL     1       1.446   8.549  -7.110  1.00  0.00     0.041 C 
ATOM      4  O   UNL     1       2.646   8.832  -7.365  1.00  0.00    -0.550 OA
ATOM      5  O   UNL     1       0.680   7.877  -8.055  1.00  0.00    -0.550 OA
ENDBRANCH   2   3
ENDBRANCH   1   2
BRANCH   1   6
ATOM      6  C   UNL     1       1.283   7.798  -3.597  1.00  0.00     0.000 C 
BRANCH   6   7
ATOM      7  C   UNL     1       2.806   7.662  -3.774  1.00  0.00    -0.000 C 
BRANCH   7   8
ATOM      8  C   UNL     1       3.506   7.180  -2.493  1.00  0.00    -0.003 C 
ATOM      9  C   UNL     1       4.991   7.538  -2.464  1.00  0.00     0.004 C 
ENDBRANCH   7   8
ENDBRANCH   6   7
ENDBRANCH   1   6
TORSDOF 5
ENDMDL
MODEL 6
REMARK VINA RESULT:     4.741      1.710      2.585
REMARK INTER + INTRA:           5.983
REMARK INTER:                   5.206
REMARK INTRA:                   0.777
REMARK UNBOUND:                -0.144
REMARK SMILES CCCCCCC(=O)[O-]
REMARK SMILES IDX 5 1 6 2 7 3 8 4 9 5 4 6 3 7 2 8 1 9
REMARK H PARENT
REMARK Flexibility Score: inf
ROOT
ATOM      1  C   UNL     1       5.179   7.685  -2.517  1.00  0.00     0.006 C 
ENDROOT
BRANCH   1   2
ATOM      2  C   UNL     1       6.021   6.406  -2.605  1.00  0.00     0.053 C 
BRANCH   2   3
ATOM      3  C   UNL     1       5.391   5.431  -3.549  1.00  0.00     0.041 C 
ATOM      4  O   UNL     1       5.965   5.135  -4.630  1.00  0.00    -0.550 OA
ATOM      5  O   UNL     1       4.146   4.886  -3.258  1.00  0.00    -0.550 OA
ENDBRANCH   2   3
ENDBRANCH   1   2
BRANCH   1   6
ATOM      6  C   UNL     1       3.670   7.396  -2.467  1.00  0.00     0.000 C 
BRANCH   6   7
ATOM      7  C   UNL     1       2.939   7.849  -3.743  1.00  0.00    -0.000 C 
BRANCH   7   8
ATOM      8  C   UNL     1       1.418   7.650  -3.652  1.00  0.00    -0.003 C 
ATOM      9  C   UNL     1       0.659   8.394  -4.751  1.00  0.00     0.004 C 
ENDBRANCH   7   8
ENDBRANCH   6   7
ENDBRANCH   1   6
TORSDOF 5
ENDMDL
MODEL 7
REMARK VINA RESULT:     4.898      3.684      5.073
REMARK INTER + INTRA:           6.185
REMARK INTER:                   6.357
REMARK INTRA:                  -0.172
REMARK UNBOUND:                -0.144
REMARK SMILES CCCCCCC(=O)[O-]
REMARK SMILES IDX 5 1 6 2 7 3 8 4 9 5 4 6 3 7 2 8 1 9
REMARK H PARENT
REMARK Flexibility Score: inf
ROOT
ATOM      1  C   UNL     1       0.970   8.877  -5.343  1.00  0.00     0.006 C 
ENDROOT
BRANCH   1   2
ATOM      2  C   UNL     1       0.222   8.392  -6.591  1.00  0.00     0.053 C 
BRANCH   2   3
ATOM      3  C   UNL     1       1.129   8.410  -7.781  1.00  0.00     0.041 C 
ATOM      4  O   UNL     1       0.694   8.070  -8.913  1.00  0.00    -0.550 OA
ATOM      5  O   UNL     1       2.466   8.754  -7.632  1.00  0.00    -0.550 OA
ENDBRANCH   2   3
ENDBRANCH   1   2
BRANCH   1   6
ATOM      6  C   UNL     1       0.685   8.005  -4.109  1.00  0.00     0.000 C 
BRANCH   6   7
ATOM      7  C   UNL     1      -0.310   8.664  -3.137  1.00  0.00    -0.000 C 
BRANCH   7   8
ATOM      8  C   UNL     1      -0.540  10.151  -3.449  1.00  0.00    -0.003 C 
ATOM      9  C   UNL     1      -1.252  10.888  -2.315  1.00  0.00     0.004 C 
ENDBRANCH   7   8
ENDBRANCH   6   7
ENDBRANCH   1   6
TORSDOF 5
ENDMDL
