MODEL 1
REMARK VINA RESULT:    -2.684      0.000      0.000
REMARK INTER + INTRA:          -7.372
REMARK INTER:                  -4.880
REMARK INTRA:                  -2.492
REMARK UNBOUND:                -2.492
REMARK SMILES CCCCCCCCCCCCCCCC(=O)[O-]
REMARK SMILES IDX 9 1 10 2 11 3 12 4 13 5 14 6 15 7 16 8 17 9 18 10 8 11 7 12
REMARK SMILES IDX 6 13 5 14 4 15 3 16 2 17 1 18
REMARK H PARENT
REMARK Flexibility Score: inf
ROOT
ATOM      1  C   UNL     1     145.393 139.879 145.165  1.00  0.00     0.000 C 
ENDROOT
BRANCH   1   2
ATOM      2  C   UNL     1     145.260 140.142 146.677  1.00  0.00     0.000 C 
BRANCH   2   3
ATOM      3  C   UNL     1     146.135 141.308 147.161  1.00  0.00     0.000 C 
BRANCH   3   4
ATOM      4  C   UNL     1     145.354 142.629 147.143  1.00  0.00     0.000 C 
BRANCH   4   5
ATOM      5  C   UNL     1     145.772 143.551 145.985  1.00  0.00     0.000 C 
BRANCH   5   6
ATOM      6  C   UNL     1     144.576 144.180 145.234  1.00  0.00     0.006 C 
BRANCH   6   7
ATOM      7  C   UNL     1     144.229 143.452 143.925  1.00  0.00     0.053 C 
BRANCH   7   8
ATOM      8  C   UNL     1     144.988 144.016 142.762  1.00  0.00     0.041 C 
ATOM      9  O   UNL     1     145.485 143.247 141.897  1.00  0.00    -0.550 OA
ATOM     10  O   UNL     1     145.164 145.388 142.647  1.00  0.00    -0.550 OA
ENDBRANCH   7   8
ENDBRANCH   6   7
ENDBRANCH   5   6
ENDBRANCH   4   5
ENDBRANCH   3   4
ENDBRANCH   2   3
ENDBRANCH   1   2
BRANCH   1  11
ATOM     11  C   UNL     1     144.066 139.876 144.387  1.00  0.00     0.000 C 
BRANCH  11  12
ATOM     12  C   UNL     1     142.832 139.902 145.307  1.00  0.00    -0.000 C 
BRANCH  12  13
ATOM     13  C   UNL     1     142.020 141.199 145.164  1.00  0.00    -0.000 C 
BRANCH  13  14
ATOM     14  C   UNL     1     141.143 141.482 146.397  1.00  0.00    -0.000 C 
BRANCH  14  15
ATOM     15  C   UNL     1     141.565 142.757 147.142  1.00  0.00    -0.000 C 
BRANCH  15  16
ATOM     16  C   UNL     1     141.891 142.496 148.620  1.00  0.00    -0.000 C 
BRANCH  16  17
ATOM     17  C   UNL     1     141.968 140.991 148.908  1.00  0.00    -0.003 C 
ATOM     18  C   UNL     1     143.220 140.647 149.709  1.00  0.00     0.004 C 
ENDBRANCH  16  17
ENDBRANCH  15  16
ENDBRANCH  14  15
ENDBRANCH  13  14
ENDBRANCH  12  13
ENDBRANCH  11  12
ENDBRANCH   1  11
TORSDOF 14
ENDMDL
MODEL 2
REMARK VINA RESULT:    -2.682      5.018      7.524
REMARK INTER + INTRA:          -7.370
REMARK INTER:                  -5.800
REMARK INTRA:                  -1.570
REMARK UNBOUND:                -2.492
REMARK SMILES CCCCCCCCCCCCCCCC(=O)[O-]
REMARK SMILES IDX 9 1 10 2 11 3 12 4 13 5 14 6 15 7 16 8 17 9 18 10 8 11 7 12
REMARK SMILES IDX 6 13 5 14 4 15 3 16 2 17 1 18
REMARK H PARENT
REMARK Flexibility Score: inf
ROOT
ATOM      1  C   UNL     1     142.567 143.691 148.540  1.00  0.00     0.000 C 
ENDROOT
BRANCH   1   2
ATOM      2  C   UNL     1     142.667 142.502 149.514  1.00  0.00     0.000 C 
BRANCH   2   3
ATOM      3  C   UNL     1     141.315 141.816 149.761  1.00  0.00     0.000 C 
BRANCH   3   4
ATOM      4  C   UNL     1     140.779 142.142 151.162  1.00  0.00     0.000 C 
BRANCH   4   5
ATOM      5  C   UNL     1     141.798 141.842 152.274  1.00  0.00     0.000 C 
BRANCH   5   6
ATOM      6  C   UNL     1     141.272 142.150 153.694  1.00  0.00     0.006 C 
BRANCH   6   7
ATOM      7  C   UNL     1     141.940 143.376 154.337  1.00  0.00     0.053 C 
BRANCH   7   8
ATOM      8  C   UNL     1     140.980 144.519 154.474  1.00  0.00     0.041 C 
ATOM      9  O   UNL     1     140.015 144.637 153.673  1.00  0.00    -0.550 OA
ATOM     10  O   UNL     1     141.166 145.467 155.472  1.00  0.00    -0.550 OA
ENDBRANCH   7   8
ENDBRANCH   6   7
ENDBRANCH   5   6
ENDBRANCH   4   5
ENDBRANCH   3   4
ENDBRANCH   2   3
ENDBRANCH   1   2
BRANCH   1  11
ATOM     11  C   UNL     1     141.328 143.682 147.628  1.00  0.00     0.000 C 
BRANCH  11  12
ATOM     12  C   UNL     1     141.623 143.128 146.223  1.00  0.00    -0.000 C 
BRANCH  12  13
ATOM     13  C   UNL     1     140.780 141.886 145.892  1.00  0.00    -0.000 C 
BRANCH  13  14
ATOM     14  C   UNL     1     141.644 140.683 145.474  1.00  0.00    -0.000 C 
BRANCH  14  15
ATOM     15  C   UNL     1     142.754 140.372 146.491  1.00  0.00    -0.000 C 
BRANCH  15  16
ATOM     16  C   UNL     1     144.156 140.418 145.866  1.00  0.00    -0.000 C 
BRANCH  16  17
ATOM     17  C   UNL     1     144.086 140.835 144.392  1.00  0.00    -0.003 C 
ATOM     18  C   UNL     1     144.694 142.219 144.181  1.00  0.00     0.004 C 
ENDBRANCH  16  17
ENDBRANCH  15  16
ENDBRANCH  14  15
ENDBRANCH  13  14
ENDBRANCH  12  13
ENDBRANCH  11  12
ENDBRANCH   1  11
TORSDOF 14
ENDMDL
MODEL 3
REMARK VINA RESULT:    -2.656      4.640      7.469
REMARK INTER + INTRA:          -7.322
REMARK INTER:                  -5.208
REMARK INTRA:                  -2.114
REMARK UNBOUND:                -2.492
REMARK SMILES CCCCCCCCCCCCCCCC(=O)[O-]
REMARK SMILES IDX 9 1 10 2 11 3 12 4 13 5 14 6 15 7 16 8 17 9 18 10 8 11 7 12
REMARK SMILES IDX 6 13 5 14 4 15 3 16 2 17 1 18
REMARK H PARENT
REMARK Flexibility Score: inf
ROOT
ATOM      1  C   UNL     1     141.262 143.872 150.764  1.00  0.00     0.000 C 
ENDROOT
BRANCH   1   2
ATOM      2  C   UNL     1     140.352 143.165 151.787  1.00  0.00     0.000 C 
BRANCH   2   3
ATOM      3  C   UNL     1     140.558 143.673 153.221  1.00  0.00     0.000 C 
BRANCH   3   4
ATOM      4  C   UNL     1     141.636 142.856 153.947  1.00  0.00     0.000 C 
BRANCH   4   5
ATOM      5  C   UNL     1     141.612 141.366 153.564  1.00  0.00     0.000 C 
BRANCH   5   6
ATOM      6  C   UNL     1     142.993 140.813 153.145  1.00  0.00     0.006 C 
BRANCH   6   7
ATOM      7  C   UNL     1     143.914 141.878 152.529  1.00  0.00     0.053 C 
BRANCH   7   8
ATOM      8  C   UNL     1     145.337 141.698 152.966  1.00  0.00     0.041 C 
ATOM      9  O   UNL     1     145.596 141.267 154.120  1.00  0.00    -0.550 OA
ATOM     10  O   UNL     1     146.375 142.030 152.105  1.00  0.00    -0.550 OA
ENDBRANCH   7   8
ENDBRANCH   6   7
ENDBRANCH   5   6
ENDBRANCH   4   5
ENDBRANCH   3   4
ENDBRANCH   2   3
ENDBRANCH   1   2
BRANCH   1  11
ATOM     11  C   UNL     1     141.686 143.006 149.564  1.00  0.00     0.000 C 
BRANCH  11  12
ATOM     12  C   UNL     1     141.246 141.538 149.701  1.00  0.00    -0.000 C 
BRANCH  12  13
ATOM     13  C   UNL     1     142.380 140.552 149.377  1.00  0.00    -0.000 C 
BRANCH  13  14
ATOM     14  C   UNL     1     143.239 141.014 148.186  1.00  0.00    -0.000 C 
BRANCH  14  15
ATOM     15  C   UNL     1     142.931 140.237 146.897  1.00  0.00    -0.000 C 
BRANCH  15  16
ATOM     16  C   UNL     1     142.752 141.158 145.682  1.00  0.00    -0.000 C 
BRANCH  16  17
ATOM     17  C   UNL     1     141.603 142.149 145.909  1.00  0.00    -0.003 C 
ATOM     18  C   UNL     1     140.254 141.512 145.591  1.00  0.00     0.004 C 
ENDBRANCH  16  17
ENDBRANCH  15  16
ENDBRANCH  14  15
ENDBRANCH  13  14
ENDBRANCH  12  13
ENDBRANCH  11  12
ENDBRANCH   1  11
TORSDOF 14
ENDMDL
MODEL 4
REMARK VINA RESULT:    -2.605      2.070      4.347
REMARK INTER + INTRA:          -7.230
REMARK INTER:                  -5.133
REMARK INTRA:                  -2.098
REMARK UNBOUND:                -2.492
REMARK SMILES CCCCCCCCCCCCCCCC(=O)[O-]
REMARK SMILES IDX 9 1 10 2 11 3 12 4 13 5 14 6 15 7 16 8 17 9 18 10 8 11 7 12
REMARK SMILES IDX 6 13 5 14 4 15 3 16 2 17 1 18
REMARK H PARENT
REMARK Flexibility Score: inf
ROOT
ATOM      1  C   UNL     1     143.473 144.738 146.239  1.00  0.00     0.000 C 
ENDROOT
BRANCH   1   2
ATOM      2  C   UNL     1     142.378 145.067 145.206  1.00  0.00     0.000 C 
BRANCH   2   3
ATOM      3  C   UNL     1     142.909 145.859 144.002  1.00  0.00     0.000 C 
BRANCH   3   4
ATOM      4  C   UNL     1     144.208 145.242 143.465  1.00  0.00     0.000 C 
BRANCH   4   5
ATOM      5  C   UNL     1     143.998 144.457 142.160  1.00  0.00     0.000 C 
BRANCH   5   6
ATOM      6  C   UNL     1     145.212 144.507 141.205  1.00  0.00     0.006 C 
BRANCH   6   7
ATOM      7  C   UNL     1     146.538 144.137 141.888  1.00  0.00     0.053 C 
BRANCH   7   8
ATOM      8  C   UNL     1     147.285 143.093 141.114  1.00  0.00     0.041 C 
ATOM      9  O   UNL     1     147.469 143.231 139.876  1.00  0.00    -0.550 OA
ATOM     10  O   UNL     1     147.757 141.956 141.758  1.00  0.00    -0.550 OA
ENDBRANCH   7   8
ENDBRANCH   6   7
ENDBRANCH   5   6
ENDBRANCH   4   5
ENDBRANCH   3   4
ENDBRANCH   2   3
ENDBRANCH   1   2
BRANCH   1  11
ATOM     11  C   UNL     1     143.156 143.552 147.167  1.00  0.00     0.000 C 
BRANCH  11  12
ATOM     12  C   UNL     1     141.649 143.251 147.259  1.00  0.00    -0.000 C 
BRANCH  12  13
ATOM     13  C   UNL     1     141.327 141.774 146.978  1.00  0.00    -0.000 C 
BRANCH  13  14
ATOM     14  C   UNL     1     141.528 141.400 145.499  1.00  0.00    -0.000 C 
BRANCH  14  15
ATOM     15  C   UNL     1     142.361 140.121 145.322  1.00  0.00    -0.000 C 
BRANCH  15  16
ATOM     16  C   UNL     1     143.872 140.388 145.381  1.00  0.00    -0.000 C 
BRANCH  16  17
ATOM     17  C   UNL     1     144.280 141.460 144.362  1.00  0.00    -0.003 C 
ATOM     18  C   UNL     1     145.661 142.025 144.681  1.00  0.00     0.004 C 
ENDBRANCH  16  17
ENDBRANCH  15  16
ENDBRANCH  14  15
ENDBRANCH  13  14
ENDBRANCH  12  13
ENDBRANCH  11  12
ENDBRANCH   1  11
TORSDOF 14
ENDMDL
MODEL 5
REMARK VINA RESULT:    -2.601      1.577      2.494
REMARK INTER + INTRA:          -7.222
REMARK INTER:                  -4.821
REMARK INTRA:                  -2.400
REMARK UNBOUND:                -2.492
REMARK SMILES CCCCCCCCCCCCCCCC(=O)[O-]
REMARK SMILES IDX 9 1 10 2 11 3 12 4 13 5 14 6 15 7 16 8 17 9 18 10 8 11 7 12
REMARK SMILES IDX 6 13 5 14 4 15 3 16 2 17 1 18
REMARK H PARENT
REMARK Flexibility Score: inf
ROOT
ATOM      1  C   UNL     1     142.921 140.208 146.686  1.00  0.00     0.000 C 
ENDROOT
BRANCH   1   2
ATOM      2  C   UNL     1     144.407 139.981 146.351  1.00  0.00     0.000 C 
BRANCH   2   3
ATOM      3  C   UNL     1     144.671 139.875 144.842  1.00  0.00     0.000 C 
BRANCH   3   4
ATOM      4  C   UNL     1     145.675 140.940 144.381  1.00  0.00     0.000 C 
BRANCH   4   5
ATOM      5  C   UNL     1     145.538 142.262 145.155  1.00  0.00     0.000 C 
BRANCH   5   6
ATOM      6  C   UNL     1     145.800 143.516 144.289  1.00  0.00     0.006 C 
BRANCH   6   7
ATOM      7  C   UNL     1     144.794 143.683 143.140  1.00  0.00     0.053 C 
BRANCH   7   8
ATOM      8  C   UNL     1     145.478 143.709 141.806  1.00  0.00     0.041 C 
ATOM      9  O   UNL     1     145.013 144.409 140.869  1.00  0.00    -0.550 OA
ATOM     10  O   UNL     1     146.614 142.940 141.594  1.00  0.00    -0.550 OA
ENDBRANCH   7   8
ENDBRANCH   6   7
ENDBRANCH   5   6
ENDBRANCH   4   5
ENDBRANCH   3   4
ENDBRANCH   2   3
ENDBRANCH   1   2
BRANCH   1  11
ATOM     11  C   UNL     1     141.977 140.232 145.472  1.00  0.00     0.000 C 
BRANCH  11  12
ATOM     12  C   UNL     1     140.952 141.378 145.533  1.00  0.00    -0.000 C 
BRANCH  12  13
ATOM     13  C   UNL     1     141.310 142.430 146.595  1.00  0.00    -0.000 C 
BRANCH  13  14
ATOM     14  C   UNL     1     141.924 143.701 145.981  1.00  0.00    -0.000 C 
BRANCH  14  15
ATOM     15  C   UNL     1     143.008 144.324 146.874  1.00  0.00    -0.000 C 
BRANCH  15  16
ATOM     16  C   UNL     1     143.094 143.654 148.253  1.00  0.00    -0.000 C 
BRANCH  16  17
ATOM     17  C   UNL     1     144.550 143.348 148.624  1.00  0.00    -0.003 C 
ATOM     18  C   UNL     1     145.493 144.419 148.083  1.00  0.00     0.004 C 
ENDBRANCH  16  17
ENDBRANCH  15  16
ENDBRANCH  14  15
ENDBRANCH  13  14
ENDBRANCH  12  13
ENDBRANCH  11  12
ENDBRANCH   1  11
TORSDOF 14
ENDMDL
MODEL 6
REMARK VINA RESULT:    -2.570      2.951      4.531
REMARK INTER + INTRA:          -7.165
REMARK INTER:                  -5.030
REMARK INTRA:                  -2.135
REMARK UNBOUND:                -2.492
REMARK SMILES CCCCCCCCCCCCCCCC(=O)[O-]
REMARK SMILES IDX 9 1 10 2 11 3 12 4 13 5 14 6 15 7 16 8 17 9 18 10 8 11 7 12
REMARK SMILES IDX 6 13 5 14 4 15 3 16 2 17 1 18
REMARK H PARENT
REMARK Flexibility Score: inf
ROOT
ATOM      1  C   UNL     1     144.625 142.397 148.511  1.00  0.00     0.000 C 
ENDROOT
BRANCH   1   2
ATOM      2  C   UNL     1     144.603 140.996 147.873  1.00  0.00     0.000 C 
BRANCH   2   3
ATOM      3  C   UNL     1     145.041 141.001 146.401  1.00  0.00     0.000 C 
BRANCH   3   4
ATOM      4  C   UNL     1     144.014 140.281 145.516  1.00  0.00     0.000 C 
BRANCH   4   5
ATOM      5  C   UNL     1     142.628 140.180 146.175  1.00  0.00     0.000 C 
BRANCH   5   6
ATOM      6  C   UNL     1     141.535 140.995 145.447  1.00  0.00     0.006 C 
BRANCH   6   7
ATOM      7  C   UNL     1     140.934 142.114 146.312  1.00  0.00     0.053 C 
BRANCH   7   8
ATOM      8  C   UNL     1     141.759 143.364 146.250  1.00  0.00     0.041 C 
ATOM      9  O   UNL     1     142.556 143.551 145.294  1.00  0.00    -0.550 OA
ATOM     10  O   UNL     1     141.663 144.311 147.262  1.00  0.00    -0.550 OA
ENDBRANCH   7   8
ENDBRANCH   6   7
ENDBRANCH   5   6
ENDBRANCH   4   5
ENDBRANCH   3   4
ENDBRANCH   2   3
ENDBRANCH   1   2
BRANCH   1  11
ATOM     11  C   UNL     1     143.667 142.584 149.701  1.00  0.00     0.000 C 
BRANCH  11  12
ATOM     12  C   UNL     1     142.740 141.376 149.919  1.00  0.00    -0.000 C 
BRANCH  12  13
ATOM     13  C   UNL     1     141.258 141.776 149.989  1.00  0.00    -0.000 C 
BRANCH  13  14
ATOM     14  C   UNL     1     141.064 143.239 150.425  1.00  0.00    -0.000 C 
BRANCH  14  15
ATOM     15  C   UNL     1     140.539 143.362 151.864  1.00  0.00    -0.000 C 
BRANCH  15  16
ATOM     16  C   UNL     1     141.644 143.728 152.866  1.00  0.00    -0.000 C 
BRANCH  16  17
ATOM     17  C   UNL     1     141.505 142.914 154.158  1.00  0.00    -0.003 C 
ATOM     18  C   UNL     1     141.097 141.474 153.861  1.00  0.00     0.004 C 
ENDBRANCH  16  17
ENDBRANCH  15  16
ENDBRANCH  14  15
ENDBRANCH  13  14
ENDBRANCH  12  13
ENDBRANCH  11  12
ENDBRANCH   1  11
TORSDOF 14
ENDMDL
MODEL 7
REMARK VINA RESULT:    -2.555      1.930      4.219
REMARK INTER + INTRA:          -7.139
REMARK INTER:                  -5.520
REMARK INTRA:                  -1.619
REMARK UNBOUND:                -2.492
REMARK SMILES CCCCCCCCCCCCCCCC(=O)[O-]
REMARK SMILES IDX 9 1 10 2 11 3 12 4 13 5 14 6 15 7 16 8 17 9 18 10 8 11 7 12
REMARK SMILES IDX 6 13 5 14 4 15 3 16 2 17 1 18
REMARK H PARENT
REMARK Flexibility Score: inf
ROOT
ATOM      1  C   UNL     1     141.322 142.919 147.644  1.00  0.00     0.000 C 
ENDROOT
BRANCH   1   2
ATOM      2  C   UNL     1     141.311 142.569 146.144  1.00  0.00     0.000 C 
BRANCH   2   3
ATOM      3  C   UNL     1     141.033 141.083 145.878  1.00  0.00     0.000 C 
BRANCH   3   4
ATOM      4  C   UNL     1     142.165 140.446 145.061  1.00  0.00     0.000 C 
BRANCH   4   5
ATOM      5  C   UNL     1     143.561 140.861 145.555  1.00  0.00     0.000 C 
BRANCH   5   6
ATOM      6  C   UNL     1     144.505 141.326 144.423  1.00  0.00     0.006 C 
BRANCH   6   7
ATOM      7  C   UNL     1     144.652 142.854 144.343  1.00  0.00     0.053 C 
BRANCH   7   8
ATOM      8  C   UNL     1     144.866 143.314 142.932  1.00  0.00     0.041 C 
ATOM      9  O   UNL     1     144.070 144.136 142.406  1.00  0.00    -0.550 OA
ATOM     10  O   UNL     1     145.931 142.817 142.193  1.00  0.00    -0.550 OA
ENDBRANCH   7   8
ENDBRANCH   6   7
ENDBRANCH   5   6
ENDBRANCH   4   5
ENDBRANCH   3   4
ENDBRANCH   2   3
ENDBRANCH   1   2
BRANCH   1  11
ATOM     11  C   UNL     1     141.557 141.727 148.589  1.00  0.00     0.000 C 
BRANCH  11  12
ATOM     12  C   UNL     1     142.904 141.805 149.327  1.00  0.00    -0.000 C 
BRANCH  12  13
ATOM     13  C   UNL     1     143.226 140.517 150.101  1.00  0.00    -0.000 C 
BRANCH  13  14
ATOM     14  C   UNL     1     143.224 140.731 151.626  1.00  0.00    -0.000 C 
BRANCH  14  15
ATOM     15  C   UNL     1     142.691 142.115 152.027  1.00  0.00    -0.000 C 
BRANCH  15  16
ATOM     16  C   UNL     1     141.386 142.034 152.833  1.00  0.00    -0.000 C 
BRANCH  16  17
ATOM     17  C   UNL     1     140.192 142.501 151.991  1.00  0.00    -0.003 C 
ATOM     18  C   UNL     1     140.366 143.949 151.543  1.00  0.00     0.004 C 
ENDBRANCH  16  17
ENDBRANCH  15  16
ENDBRANCH  14  15
ENDBRANCH  13  14
ENDBRANCH  12  13
ENDBRANCH  11  12
ENDBRANCH   1  11
TORSDOF 14
ENDMDL
MODEL 8
REMARK VINA RESULT:    -2.551      1.541      2.611
REMARK INTER + INTRA:          -7.131
REMARK INTER:                  -4.957
REMARK INTRA:                  -2.173
REMARK UNBOUND:                -2.492
REMARK SMILES CCCCCCCCCCCCCCCC(=O)[O-]
REMARK SMILES IDX 9 1 10 2 11 3 12 4 13 5 14 6 15 7 16 8 17 9 18 10 8 11 7 12
REMARK SMILES IDX 6 13 5 14 4 15 3 16 2 17 1 18
REMARK H PARENT
REMARK Flexibility Score: inf
ROOT
ATOM      1  C   UNL     1     145.591 140.549 146.998  1.00  0.00     0.000 C 
ENDROOT
BRANCH   1   2
ATOM      2  C   UNL     1     145.981 142.032 146.845  1.00  0.00     0.000 C 
BRANCH   2   3
ATOM      3  C   UNL     1     146.339 142.411 145.401  1.00  0.00     0.000 C 
BRANCH   3   4
ATOM      4  C   UNL     1     145.430 143.535 144.884  1.00  0.00     0.000 C 
BRANCH   4   5
ATOM      5  C   UNL     1     144.617 143.120 143.646  1.00  0.00     0.000 C 
BRANCH   5   6
ATOM      6  C   UNL     1     144.795 144.072 142.441  1.00  0.00     0.006 C 
BRANCH   6   7
ATOM      7  C   UNL     1     146.266 144.303 142.061  1.00  0.00     0.053 C 
BRANCH   7   8
ATOM      8  C   UNL     1     146.756 143.269 141.093  1.00  0.00     0.041 C 
ATOM      9  O   UNL     1     147.766 142.570 141.368  1.00  0.00    -0.550 OA
ATOM     10  O   UNL     1     146.108 143.094 139.877  1.00  0.00    -0.550 OA
ENDBRANCH   7   8
ENDBRANCH   6   7
ENDBRANCH   5   6
ENDBRANCH   4   5
ENDBRANCH   3   4
ENDBRANCH   2   3
ENDBRANCH   1   2
BRANCH   1  11
ATOM     11  C   UNL     1     144.728 139.983 145.857  1.00  0.00     0.000 C 
BRANCH  11  12
ATOM     12  C   UNL     1     143.233 139.913 146.215  1.00  0.00    -0.000 C 
BRANCH  12  13
ATOM     13  C   UNL     1     142.356 140.715 145.240  1.00  0.00    -0.000 C 
BRANCH  13  14
ATOM     14  C   UNL     1     141.542 141.813 145.947  1.00  0.00    -0.000 C 
BRANCH  14  15
ATOM     15  C   UNL     1     141.895 141.942 147.437  1.00  0.00    -0.000 C 
BRANCH  15  16
ATOM     16  C   UNL     1     142.694 143.216 147.746  1.00  0.00    -0.000 C 
BRANCH  16  17
ATOM     17  C   UNL     1     142.469 144.280 146.665  1.00  0.00    -0.003 C 
ATOM     18  C   UNL     1     141.560 145.396 147.171  1.00  0.00     0.004 C 
ENDBRANCH  16  17
ENDBRANCH  15  16
ENDBRANCH  14  15
ENDBRANCH  13  14
ENDBRANCH  12  13
ENDBRANCH  11  12
ENDBRANCH   1  11
TORSDOF 14
ENDMDL
MODEL 9
REMARK VINA RESULT:    -2.531      4.274      6.573
REMARK INTER + INTRA:          -7.096
REMARK INTER:                  -4.714
REMARK INTRA:                  -2.382
REMARK UNBOUND:                -2.492
REMARK SMILES CCCCCCCCCCCCCCCC(=O)[O-]
REMARK SMILES IDX 9 1 10 2 11 3 12 4 13 5 14 6 15 7 16 8 17 9 18 10 8 11 7 12
REMARK SMILES IDX 6 13 5 14 4 15 3 16 2 17 1 18
REMARK H PARENT
REMARK Flexibility Score: inf
ROOT
ATOM      1  C   UNL     1     141.366 142.866 147.511  1.00  0.00     0.000 C 
ENDROOT
BRANCH   1   2
ATOM      2  C   UNL     1     141.859 142.505 148.926  1.00  0.00     0.000 C 
BRANCH   2   3
ATOM      3  C   UNL     1     141.866 140.993 149.190  1.00  0.00     0.000 C 
BRANCH   3   4
ATOM      4  C   UNL     1     143.228 140.532 149.726  1.00  0.00     0.000 C 
BRANCH   4   5
ATOM      5  C   UNL     1     143.277 140.483 151.262  1.00  0.00     0.000 C 
BRANCH   5   6
ATOM      6  C   UNL     1     143.922 141.734 151.901  1.00  0.00     0.006 C 
BRANCH   6   7
ATOM      7  C   UNL     1     143.308 142.110 153.259  1.00  0.00     0.053 C 
BRANCH   7   8
ATOM      8  C   UNL     1     141.813 142.006 153.236  1.00  0.00     0.041 C 
ATOM      9  O   UNL     1     141.226 141.146 153.945  1.00  0.00    -0.550 OA
ATOM     10  O   UNL     1     141.070 142.844 152.414  1.00  0.00    -0.550 OA
ENDBRANCH   7   8
ENDBRANCH   6   7
ENDBRANCH   5   6
ENDBRANCH   4   5
ENDBRANCH   3   4
ENDBRANCH   2   3
ENDBRANCH   1   2
BRANCH   1  11
ATOM     11  C   UNL     1     140.945 141.666 146.644  1.00  0.00     0.000 C 
BRANCH  11  12
ATOM     12  C   UNL     1     141.889 141.429 145.452  1.00  0.00    -0.000 C 
BRANCH  12  13
ATOM     13  C   UNL     1     142.427 139.990 145.406  1.00  0.00    -0.000 C 
BRANCH  13  14
ATOM     14  C   UNL     1     143.851 139.875 145.979  1.00  0.00    -0.000 C 
BRANCH  14  15
ATOM     15  C   UNL     1     144.653 141.177 145.831  1.00  0.00    -0.000 C 
BRANCH  15  16
ATOM     16  C   UNL     1     145.361 141.585 147.132  1.00  0.00    -0.000 C 
BRANCH  16  17
ATOM     17  C   UNL     1     145.125 143.068 147.443  1.00  0.00    -0.003 C 
ATOM     18  C   UNL     1     145.629 143.426 148.838  1.00  0.00     0.004 C 
ENDBRANCH  16  17
ENDBRANCH  15  16
ENDBRANCH  14  15
ENDBRANCH  13  14
ENDBRANCH  12  13
ENDBRANCH  11  12
ENDBRANCH   1  11
TORSDOF 14
ENDMDL
