MODEL 1
REMARK VINA RESULT:    -3.731      0.000      0.000
REMARK INTER + INTRA:          -5.294
REMARK INTER:                  -4.822
REMARK INTRA:                  -0.472
REMARK UNBOUND:                -0.472
REMARK SMILES CCO[C@H]1O[C@H](CO)[C@H](O)[C@H](O)[C@H]1O
REMARK SMILES IDX 4 1 13 2 11 3 9 4 6 5 5 6 3 7 2 8 1 9 14 10 12 12 7 14 8 15
REMARK SMILES IDX 10 17
REMARK H PARENT 14 11 12 13 8 16 10 18
REMARK Flexibility Score: inf
ROOT
ATOM      1  C   UNL     1       6.901  32.652  33.498  1.00  0.00     0.281 C 
ATOM      2  C   UNL     1       8.261  31.928  33.618  1.00  0.00     0.202 C 
ATOM      3  C   UNL     1       9.237  32.734  34.503  1.00  0.00     0.179 C 
ATOM      4  C   UNL     1       9.300  34.192  34.013  1.00  0.00     0.177 C 
ATOM      5  C   UNL     1       7.865  34.755  33.917  1.00  0.00     0.178 C 
ATOM      6  O   UNL     1       7.079  33.982  33.021  1.00  0.00    -0.341 OA
ENDROOT
BRANCH   1   7
ATOM      7  O   UNL     1       6.217  32.635  34.741  1.00  0.00    -0.350 OA
BRANCH   7   8
ATOM      8  C   UNL     1       4.821  32.607  34.530  1.00  0.00     0.160 C 
ATOM      9  C   UNL     1       4.489  31.484  33.559  1.00  0.00     0.035 C 
ENDBRANCH   7   8
ENDBRANCH   1   7
BRANCH   2  10
ATOM     10  O   UNL     1       8.094  30.617  34.098  1.00  0.00    -0.385 OA
ATOM     11  H   UNL     1       8.767  30.039  33.651  1.00  0.00     0.211 HD
ENDBRANCH   2  10
BRANCH   3  12
ATOM     12  O   UNL     1      10.520  32.164  34.460  1.00  0.00    -0.387 OA
ATOM     13  H   UNL     1      10.414  31.245  34.099  1.00  0.00     0.211 HD
ENDBRANCH   3  12
BRANCH   5  14
ATOM     14  C   UNL     1       7.876  36.213  33.439  1.00  0.00     0.191 C 
BRANCH  14  15
ATOM     15  O   UNL     1       9.106  36.817  33.742  1.00  0.00    -0.394 OA
ATOM     16  H   UNL     1       8.900  37.633  34.268  1.00  0.00     0.210 HD
ENDBRANCH  14  15
ENDBRANCH   5  14
BRANCH   4  17
ATOM     17  O   UNL     1       9.921  34.256  32.752  1.00  0.00    -0.387 OA
ATOM     18  H   UNL     1      10.872  34.494  32.909  1.00  0.00     0.211 HD
ENDBRANCH   4  17
TORSDOF 7
ENDMDL
MODEL 2
REMARK VINA RESULT:    -3.445      1.525      3.939
REMARK INTER + INTRA:          -4.924
REMARK INTER:                  -4.766
REMARK INTRA:                  -0.158
REMARK UNBOUND:                -0.472
REMARK SMILES CCO[C@H]1O[C@H](CO)[C@H](O)[C@H](O)[C@H]1O
REMARK SMILES IDX 4 1 13 2 11 3 9 4 6 5 5 6 3 7 2 8 1 9 14 10 12 12 7 14 8 15
REMARK SMILES IDX 10 17
REMARK H PARENT 14 11 12 13 8 16 10 18
REMARK Flexibility Score: inf
ROOT
ATOM      1  C   UNL     1       7.243  34.954  34.597  1.00  0.00     0.281 C 
ATOM      2  C   UNL     1       8.680  34.448  34.851  1.00  0.00     0.202 C 
ATOM      3  C   UNL     1       9.127  33.478  33.735  1.00  0.00     0.179 C 
ATOM      4  C   UNL     1       8.062  32.386  33.537  1.00  0.00     0.177 C 
ATOM      5  C   UNL     1       6.686  33.055  33.328  1.00  0.00     0.178 C 
ATOM      6  O   UNL     1       6.343  33.861  34.446  1.00  0.00    -0.341 OA
ENDROOT
BRANCH   1   7
ATOM      7  O   UNL     1       7.211  35.810  33.465  1.00  0.00    -0.350 OA
BRANCH   7   8
ATOM      8  C   UNL     1       6.580  37.030  33.794  1.00  0.00     0.160 C 
ATOM      9  C   UNL     1       6.414  37.860  32.529  1.00  0.00     0.035 C 
ENDBRANCH   7   8
ENDBRANCH   1   7
BRANCH   2  10
ATOM     10  O   UNL     1       9.576  35.522  34.991  1.00  0.00    -0.385 OA
ATOM     11  H   UNL     1       9.400  36.166  34.257  1.00  0.00     0.211 HD
ENDBRANCH   2  10
BRANCH   3  12
ATOM     12  O   UNL     1      10.358  32.886  34.067  1.00  0.00    -0.387 OA
ATOM     13  H   UNL     1      10.201  31.907  34.117  1.00  0.00     0.211 HD
ENDBRANCH   3  12
BRANCH   5  14
ATOM     14  C   UNL     1       5.589  32.002  33.117  1.00  0.00     0.191 C 
BRANCH  14  15
ATOM     15  O   UNL     1       5.096  32.067  31.805  1.00  0.00    -0.394 OA
ATOM     16  H   UNL     1       5.810  32.481  31.253  1.00  0.00     0.210 HD
ENDBRANCH  14  15
ENDBRANCH   5  14
BRANCH   4  17
ATOM     17  O   UNL     1       8.015  31.541  34.661  1.00  0.00    -0.387 OA
ATOM     18  H   UNL     1       7.531  30.719  34.385  1.00  0.00     0.211 HD
ENDBRANCH   4  17
TORSDOF 7
ENDMDL
MODEL 3
REMARK VINA RESULT:    -3.190      1.700      3.303
REMARK INTER + INTRA:          -4.594
REMARK INTER:                  -4.454
REMARK INTRA:                  -0.140
REMARK UNBOUND:                -0.472
REMARK SMILES CCO[C@H]1O[C@H](CO)[C@H](O)[C@H](O)[C@H]1O
REMARK SMILES IDX 4 1 13 2 11 3 9 4 6 5 5 6 3 7 2 8 1 9 14 10 12 12 7 14 8 15
REMARK SMILES IDX 10 17
REMARK H PARENT 14 11 12 13 8 16 10 18
REMARK Flexibility Score: inf
ROOT
ATOM      1  C   UNL     1       7.184  33.588  33.260  1.00  0.00     0.281 C 
ATOM      2  C   UNL     1       6.569  32.177  33.391  1.00  0.00     0.202 C 
ATOM      3  C   UNL     1       7.023  31.499  34.702  1.00  0.00     0.179 C 
ATOM      4  C   UNL     1       8.556  31.572  34.822  1.00  0.00     0.177 C 
ATOM      5  C   UNL     1       9.008  33.037  34.637  1.00  0.00     0.178 C 
ATOM      6  O   UNL     1       8.603  33.532  33.368  1.00  0.00    -0.341 OA
ENDROOT
BRANCH   1   7
ATOM      7  O   UNL     1       6.625  34.466  34.226  1.00  0.00    -0.350 OA
BRANCH   7   8
ATOM      8  C   UNL     1       6.906  35.808  33.887  1.00  0.00     0.160 C 
ATOM      9  C   UNL     1       6.236  36.725  34.899  1.00  0.00     0.035 C 
ENDBRANCH   7   8
ENDBRANCH   1   7
BRANCH   2  10
ATOM     10  O   UNL     1       5.168  32.226  33.294  1.00  0.00    -0.385 OA
ATOM     11  H   UNL     1       4.844  31.314  33.070  1.00  0.00     0.211 HD
ENDBRANCH   2  10
BRANCH   3  12
ATOM     12  O   UNL     1       6.609  30.157  34.727  1.00  0.00    -0.387 OA
ATOM     13  H   UNL     1       6.158  30.012  35.600  1.00  0.00     0.211 HD
ENDBRANCH   3  12
BRANCH   5  14
ATOM     14  C   UNL     1      10.533  33.162  34.756  1.00  0.00     0.191 C 
BRANCH  14  15
ATOM     15  O   UNL     1      11.050  33.884  33.670  1.00  0.00    -0.394 OA
ATOM     16  H   UNL     1      10.280  34.108  33.084  1.00  0.00     0.210 HD
ENDBRANCH  14  15
ENDBRANCH   5  14
BRANCH   4  17
ATOM     17  O   UNL     1       9.160  30.760  33.845  1.00  0.00    -0.387 OA
ATOM     18  H   UNL     1       8.981  29.817  34.100  1.00  0.00     0.211 HD
ENDBRANCH   4  17
TORSDOF 7
ENDMDL
MODEL 4
REMARK VINA RESULT:    -3.137      1.840      4.181
REMARK INTER + INTRA:          -4.526
REMARK INTER:                  -4.088
REMARK INTRA:                  -0.438
REMARK UNBOUND:                -0.472
REMARK SMILES CCO[C@H]1O[C@H](CO)[C@H](O)[C@H](O)[C@H]1O
REMARK SMILES IDX 4 1 13 2 11 3 9 4 6 5 5 6 3 7 2 8 1 9 14 10 12 12 7 14 8 15
REMARK SMILES IDX 10 17
REMARK H PARENT 14 11 12 13 8 16 10 18
REMARK Flexibility Score: inf
ROOT
ATOM      1  C   UNL     1      10.139  33.739  35.019  1.00  0.00     0.281 C 
ATOM      2  C   UNL     1       9.717  32.252  35.038  1.00  0.00     0.202 C 
ATOM      3  C   UNL     1       8.825  31.919  33.822  1.00  0.00     0.179 C 
ATOM      4  C   UNL     1       7.675  32.937  33.725  1.00  0.00     0.177 C 
ATOM      5  C   UNL     1       8.262  34.365  33.751  1.00  0.00     0.178 C 
ATOM      6  O   UNL     1       8.997  34.586  34.946  1.00  0.00    -0.341 OA
ENDROOT
BRANCH   1   7
ATOM      7  O   UNL     1      11.037  33.987  33.948  1.00  0.00    -0.350 OA
BRANCH   7   8
ATOM      8  C   UNL     1      12.204  34.623  34.427  1.00  0.00     0.160 C 
ATOM      9  C   UNL     1      13.403  33.725  34.162  1.00  0.00     0.035 C 
ENDBRANCH   7   8
ENDBRANCH   1   7
BRANCH   2  10
ATOM     10  O   UNL     1      10.840  31.409  35.101  1.00  0.00    -0.385 OA
ATOM     11  H   UNL     1      11.075  31.143  34.173  1.00  0.00     0.211 HD
ENDBRANCH   2  10
BRANCH   3  12
ATOM     12  O   UNL     1       8.300  30.621  33.943  1.00  0.00    -0.387 OA
ATOM     13  H   UNL     1       8.590  30.275  34.827  1.00  0.00     0.211 HD
ENDBRANCH   3  12
BRANCH   5  14
ATOM     14  C   UNL     1       7.150  35.419  33.649  1.00  0.00     0.191 C 
BRANCH  14  15
ATOM     15  O   UNL     1       6.524  35.590  34.893  1.00  0.00    -0.394 OA
ATOM     16  H   UNL     1       5.605  35.227  34.802  1.00  0.00     0.210 HD
ENDBRANCH  14  15
ENDBRANCH   5  14
BRANCH   4  17
ATOM     17  O   UNL     1       6.784  32.770  34.801  1.00  0.00    -0.387 OA
ATOM     18  H   UNL     1       6.953  31.867  35.180  1.00  0.00     0.211 HD
ENDBRANCH   4  17
TORSDOF 7
ENDMDL
MODEL 5
REMARK VINA RESULT:    -3.014      2.028      4.115
REMARK INTER + INTRA:          -4.366
REMARK INTER:                  -4.163
REMARK INTRA:                  -0.203
REMARK UNBOUND:                -0.472
REMARK SMILES CCO[C@H]1O[C@H](CO)[C@H](O)[C@H](O)[C@H]1O
REMARK SMILES IDX 4 1 13 2 11 3 9 4 6 5 5 6 3 7 2 8 1 9 14 10 12 12 7 14 8 15
REMARK SMILES IDX 10 17
REMARK H PARENT 14 11 12 13 8 16 10 18
REMARK Flexibility Score: inf
ROOT
ATOM      1  C   UNL     1       9.222  34.351  33.990  1.00  0.00     0.281 C 
ATOM      2  C   UNL     1       8.630  35.776  34.068  1.00  0.00     0.202 C 
ATOM      3  C   UNL     1       9.241  36.685  32.979  1.00  0.00     0.179 C 
ATOM      4  C   UNL     1      10.776  36.598  33.028  1.00  0.00     0.177 C 
ATOM      5  C   UNL     1      11.199  35.114  32.973  1.00  0.00     0.178 C 
ATOM      6  O   UNL     1      10.643  34.391  34.062  1.00  0.00    -0.341 OA
ENDROOT
BRANCH   1   7
ATOM      7  O   UNL     1       8.781  33.694  32.811  1.00  0.00    -0.350 OA
BRANCH   7   8
ATOM      8  C   UNL     1       8.060  32.526  33.143  1.00  0.00     0.160 C 
ATOM      9  C   UNL     1       6.683  32.595  32.502  1.00  0.00     0.035 C 
ENDBRANCH   7   8
ENDBRANCH   1   7
BRANCH   2  10
ATOM     10  O   UNL     1       7.227  35.746  33.988  1.00  0.00    -0.385 OA
ATOM     11  H   UNL     1       6.955  36.250  33.176  1.00  0.00     0.211 HD
ENDBRANCH   2  10
BRANCH   3  12
ATOM     12  O   UNL     1       8.835  38.017  33.171  1.00  0.00    -0.387 OA
ATOM     13  H   UNL     1       9.118  38.274  34.087  1.00  0.00     0.211 HD
ENDBRANCH   3  12
BRANCH   5  14
ATOM     14  C   UNL     1      12.728  34.975  33.012  1.00  0.00     0.191 C 
BRANCH  14  15
ATOM     15  O   UNL     1      13.090  33.676  33.398  1.00  0.00    -0.394 OA
ATOM     16  H   UNL     1      13.529  33.257  32.612  1.00  0.00     0.210 HD
ENDBRANCH  14  15
ENDBRANCH   5  14
BRANCH   4  17
ATOM     17  O   UNL     1      11.260  37.187  34.211  1.00  0.00    -0.387 OA
ATOM     18  H   UNL     1      11.186  38.171  34.096  1.00  0.00     0.211 HD
ENDBRANCH   4  17
TORSDOF 7
ENDMDL
MODEL 6
REMARK VINA RESULT:    -2.974      3.294      5.040
REMARK INTER + INTRA:          -4.315
REMARK INTER:                  -3.861
REMARK INTRA:                  -0.454
REMARK UNBOUND:                -0.472
REMARK SMILES CCO[C@H]1O[C@H](CO)[C@H](O)[C@H](O)[C@H]1O
REMARK SMILES IDX 4 1 13 2 11 3 9 4 6 5 5 6 3 7 2 8 1 9 14 10 12 12 7 14 8 15
REMARK SMILES IDX 10 17
REMARK H PARENT 14 11 12 13 8 16 10 18
REMARK Flexibility Score: inf
ROOT
ATOM      1  C   UNL     1      10.753  36.060  32.962  1.00  0.00     0.281 C 
ATOM      2  C   UNL     1      10.281  34.597  33.117  1.00  0.00     0.202 C 
ATOM      3  C   UNL     1      10.784  33.995  34.447  1.00  0.00     0.179 C 
ATOM      4  C   UNL     1      12.300  34.222  34.581  1.00  0.00     0.177 C 
ATOM      5  C   UNL     1      12.606  35.721  34.370  1.00  0.00     0.178 C 
ATOM      6  O   UNL     1      12.169  36.148  33.087  1.00  0.00    -0.341 OA
ENDROOT
BRANCH   1   7
ATOM      7  O   UNL     1      10.098  36.896  33.904  1.00  0.00    -0.350 OA
BRANCH   7   8
ATOM      8  C   UNL     1       9.742  38.123  33.302  1.00  0.00     0.160 C 
ATOM      9  C   UNL     1       8.424  37.950  32.564  1.00  0.00     0.035 C 
ENDBRANCH   7   8
ENDBRANCH   1   7
BRANCH   2  10
ATOM     10  O   UNL     1       8.883  34.503  33.005  1.00  0.00    -0.385 OA
ATOM     11  H   UNL     1       8.556  33.912  33.733  1.00  0.00     0.211 HD
ENDBRANCH   2  10
BRANCH   3  12
ATOM     12  O   UNL     1      10.506  32.618  34.496  1.00  0.00    -0.387 OA
ATOM     13  H   UNL     1       9.646  32.482  34.018  1.00  0.00     0.211 HD
ENDBRANCH   3  12
BRANCH   5  14
ATOM     14  C   UNL     1      14.109  36.001  34.502  1.00  0.00     0.191 C 
BRANCH  14  15
ATOM     15  O   UNL     1      14.767  35.715  33.296  1.00  0.00    -0.394 OA
ATOM     16  H   UNL     1      15.689  35.434  33.533  1.00  0.00     0.210 HD
ENDBRANCH  14  15
ENDBRANCH   5  14
BRANCH   4  17
ATOM     17  O   UNL     1      12.995  33.456  33.628  1.00  0.00    -0.387 OA
ATOM     18  H   UNL     1      13.260  32.610  34.074  1.00  0.00     0.211 HD
ENDBRANCH   4  17
TORSDOF 7
ENDMDL
MODEL 7
REMARK VINA RESULT:    -2.945      2.572      5.621
REMARK INTER + INTRA:          -4.278
REMARK INTER:                  -3.900
REMARK INTRA:                  -0.379
REMARK UNBOUND:                -0.472
REMARK SMILES CCO[C@H]1O[C@H](CO)[C@H](O)[C@H](O)[C@H]1O
REMARK SMILES IDX 4 1 13 2 11 3 9 4 6 5 5 6 3 7 2 8 1 9 14 10 12 12 7 14 8 15
REMARK SMILES IDX 10 17
REMARK H PARENT 14 11 12 13 8 16 10 18
REMARK Flexibility Score: inf
ROOT
ATOM      1  C   UNL     1      11.780  35.363  33.124  1.00  0.00     0.281 C 
ATOM      2  C   UNL     1      11.251  36.803  33.307  1.00  0.00     0.202 C 
ATOM      3  C   UNL     1      10.166  36.855  34.405  1.00  0.00     0.179 C 
ATOM      4  C   UNL     1       9.097  35.783  34.131  1.00  0.00     0.177 C 
ATOM      5  C   UNL     1       9.790  34.416  33.941  1.00  0.00     0.178 C 
ATOM      6  O   UNL     1      10.709  34.463  32.859  1.00  0.00    -0.341 OA
ENDROOT
BRANCH   1   7
ATOM      7  O   UNL     1      12.526  34.959  34.262  1.00  0.00    -0.350 OA
BRANCH   7   8
ATOM      8  C   UNL     1      13.445  33.946  33.909  1.00  0.00     0.160 C 
ATOM      9  C   UNL     1      13.357  32.820  34.927  1.00  0.00     0.035 C 
ENDBRANCH   7   8
ENDBRANCH   1   7
BRANCH   2  10
ATOM     10  O   UNL     1      12.302  37.696  33.578  1.00  0.00    -0.385 OA
ATOM     11  H   UNL     1      11.913  38.515  33.984  1.00  0.00     0.211 HD
ENDBRANCH   2  10
BRANCH   3  12
ATOM     12  O   UNL     1       9.567  38.125  34.439  1.00  0.00    -0.387 OA
ATOM     13  H   UNL     1      10.300  38.786  34.545  1.00  0.00     0.211 HD
ENDBRANCH   3  12
BRANCH   5  14
ATOM     14  C   UNL     1       8.760  33.309  33.672  1.00  0.00     0.191 C 
BRANCH  14  15
ATOM     15  O   UNL     1       8.695  33.027  32.299  1.00  0.00    -0.394 OA
ATOM     16  H   UNL     1       8.162  33.755  31.884  1.00  0.00     0.210 HD
ENDBRANCH  14  15
ENDBRANCH   5  14
BRANCH   4  17
ATOM     17  O   UNL     1       8.364  36.109  32.975  1.00  0.00    -0.387 OA
ATOM     18  H   UNL     1       9.013  36.160  32.225  1.00  0.00     0.211 HD
ENDBRANCH   4  17
TORSDOF 7
ENDMDL
MODEL 8
REMARK VINA RESULT:    -2.919      1.596      4.924
REMARK INTER + INTRA:          -4.245
REMARK INTER:                  -3.806
REMARK INTRA:                  -0.439
REMARK UNBOUND:                -0.472
REMARK SMILES CCO[C@H]1O[C@H](CO)[C@H](O)[C@H](O)[C@H]1O
REMARK SMILES IDX 4 1 13 2 11 3 9 4 6 5 5 6 3 7 2 8 1 9 14 10 12 12 7 14 8 15
REMARK SMILES IDX 10 17
REMARK H PARENT 14 11 12 13 8 16 10 18
REMARK Flexibility Score: inf
ROOT
ATOM      1  C   UNL     1       9.529  34.625  33.430  1.00  0.00     0.281 C 
ATOM      2  C   UNL     1       8.235  35.431  33.681  1.00  0.00     0.202 C 
ATOM      3  C   UNL     1       7.372  34.758  34.771  1.00  0.00     0.179 C 
ATOM      4  C   UNL     1       7.174  33.270  34.434  1.00  0.00     0.177 C 
ATOM      5  C   UNL     1       8.553  32.622  34.181  1.00  0.00     0.178 C 
ATOM      6  O   UNL     1       9.226  33.271  33.111  1.00  0.00    -0.341 OA
ENDROOT
BRANCH   1   7
ATOM      7  O   UNL     1      10.394  34.711  34.553  1.00  0.00    -0.350 OA
BRANCH   7   8
ATOM      8  C   UNL     1      11.742  34.667  34.134  1.00  0.00     0.160 C 
ATOM      9  C   UNL     1      12.404  33.431  34.724  1.00  0.00     0.035 C 
ENDBRANCH   7   8
ENDBRANCH   1   7
BRANCH   2  10
ATOM     10  O   UNL     1       8.527  36.767  34.006  1.00  0.00    -0.385 OA
ATOM     11  H   UNL     1       7.702  37.303  33.873  1.00  0.00     0.211 HD
ENDBRANCH   2  10
BRANCH   3  12
ATOM     12  O   UNL     1       6.122  35.393  34.864  1.00  0.00    -0.387 OA
ATOM     13  H   UNL     1       5.641  35.207  34.015  1.00  0.00     0.211 HD
ENDBRANCH   3  12
BRANCH   5  14
ATOM     14  C   UNL     1       8.409  31.131  33.847  1.00  0.00     0.191 C 
BRANCH  14  15
ATOM     15  O   UNL     1       7.296  30.589  34.507  1.00  0.00    -0.394 OA
ATOM     16  H   UNL     1       6.701  31.351  34.735  1.00  0.00     0.210 HD
ENDBRANCH  14  15
ENDBRANCH   5  14
BRANCH   4  17
ATOM     17  O   UNL     1       6.367  33.132  33.289  1.00  0.00    -0.387 OA
ATOM     18  H   UNL     1       6.720  32.358  32.778  1.00  0.00     0.211 HD
ENDBRANCH   4  17
TORSDOF 7
ENDMDL
MODEL 9
REMARK VINA RESULT:    -2.788     10.023     11.925
REMARK INTER + INTRA:          -4.075
REMARK INTER:                  -3.634
REMARK INTRA:                  -0.442
REMARK UNBOUND:                -0.472
REMARK SMILES CCO[C@H]1O[C@H](CO)[C@H](O)[C@H](O)[C@H]1O
REMARK SMILES IDX 4 1 13 2 11 3 9 4 6 5 5 6 3 7 2 8 1 9 14 10 12 12 7 14 8 15
REMARK SMILES IDX 10 17
REMARK H PARENT 14 11 12 13 8 16 10 18
REMARK Flexibility Score: inf
ROOT
ATOM      1  C   UNL     1      18.109  37.691  33.371  1.00  0.00     0.281 C 
ATOM      2  C   UNL     1      18.278  36.656  32.237  1.00  0.00     0.202 C 
ATOM      3  C   UNL     1      19.119  35.451  32.714  1.00  0.00     0.179 C 
ATOM      4  C   UNL     1      20.423  35.949  33.360  1.00  0.00     0.177 C 
ATOM      5  C   UNL     1      20.082  36.995  34.444  1.00  0.00     0.178 C 
ATOM      6  O   UNL     1      19.376  38.093  33.881  1.00  0.00    -0.341 OA
ENDROOT
BRANCH   1   7
ATOM      7  O   UNL     1      17.279  37.171  34.399  1.00  0.00    -0.350 OA
BRANCH   7   8
ATOM      8  C   UNL     1      16.246  38.085  34.702  1.00  0.00     0.160 C 
ATOM      9  C   UNL     1      14.908  37.460  34.338  1.00  0.00     0.035 C 
ENDBRANCH   7   8
ENDBRANCH   1   7
BRANCH   2  10
ATOM     10  O   UNL     1      17.030  36.248  31.736  1.00  0.00    -0.385 OA
ATOM     11  H   UNL     1      16.750  36.900  31.041  1.00  0.00     0.211 HD
ENDBRANCH   2  10
BRANCH   3  12
ATOM     12  O   UNL     1      19.419  34.607  31.631  1.00  0.00    -0.387 OA
ATOM     13  H   UNL     1      18.597  34.084  31.439  1.00  0.00     0.211 HD
ENDBRANCH   3  12
BRANCH   5  14
ATOM     14  C   UNL     1      21.354  37.518  35.125  1.00  0.00     0.191 C 
BRANCH  14  15
ATOM     15  O   UNL     1      22.352  36.532  35.117  1.00  0.00    -0.394 OA
ATOM     16  H   UNL     1      23.201  36.988  34.878  1.00  0.00     0.210 HD
ENDBRANCH  14  15
ENDBRANCH   5  14
BRANCH   4  17
ATOM     17  O   UNL     1      21.259  36.528  32.388  1.00  0.00    -0.387 OA
ATOM     18  H   UNL     1      20.906  36.254  31.501  1.00  0.00     0.211 HD
ENDBRANCH   4  17
TORSDOF 7
ENDMDL
