MODEL 1
REMARK VINA RESULT:    -4.067      0.000      0.000
REMARK INTER + INTRA:          -4.185
REMARK INTER:                  -4.185
REMARK INTRA:                   0.000
REMARK UNBOUND:                 0.000
REMARK SMILES Nc1ncnc2nc[nH]c12
REMARK SMILES IDX 8 1 7 2 6 3 5 4 4 5 3 6 2 7 10 8 9 9 1 11
REMARK H PARENT 9 10 1 12 1 13
REMARK Flexibility Score: inf
ROOT
ATOM      1  C   UNL     1      98.134 122.928  94.023  1.00  0.00     0.199 A 
ATOM      2  N   UNL     1      98.909 122.062  94.732  1.00  0.00    -0.217 NA
ATOM      3  C   UNL     1     100.067 122.736  94.839  1.00  0.00     0.182 A 
ATOM      4  N   UNL     1     101.192 122.316  95.464  1.00  0.00    -0.215 NA
ATOM      5  C   UNL     1     102.278 123.147  95.466  1.00  0.00     0.226 A 
ATOM      6  N   UNL     1     102.219 124.372  94.851  1.00  0.00    -0.217 NA
ATOM      7  C   UNL     1     101.084 124.797  94.220  1.00  0.00     0.152 A 
ATOM      8  C   UNL     1      99.987 123.940  94.226  1.00  0.00     0.127 A 
ATOM      9  N   UNL     1      98.765 124.084  93.698  1.00  0.00    -0.340 N 
ATOM     10  H   UNL     1      98.378 124.891  93.163  1.00  0.00     0.168 HD
ENDROOT
BRANCH   7  11
ATOM     11  N   UNL     1     101.046 126.076  93.585  1.00  0.00    -0.382 N 
ATOM     12  H   UNL     1     100.312 126.770  93.852  1.00  0.00     0.158 HD
ATOM     13  H   UNL     1     101.739 126.340  92.851  1.00  0.00     0.158 HD
ENDBRANCH   7  11
TORSDOF 1
ENDMDL
MODEL 2
REMARK VINA RESULT:    -3.807     15.717     17.107
REMARK INTER + INTRA:          -3.919
REMARK INTER:                  -3.919
REMARK INTRA:                   0.000
REMARK UNBOUND:                 0.000
REMARK SMILES Nc1ncnc2nc[nH]c12
REMARK SMILES IDX 8 1 7 2 6 3 5 4 4 5 3 6 2 7 10 8 9 9 1 11
REMARK H PARENT 9 10 1 12 1 13
REMARK Flexibility Score: inf
ROOT
ATOM      1  C   UNL     1      85.739 120.880 106.351  1.00  0.00     0.199 A 
ATOM      2  N   UNL     1      85.331 121.173 105.086  1.00  0.00    -0.217 NA
ATOM      3  C   UNL     1      86.322 121.966 104.643  1.00  0.00     0.182 A 
ATOM      4  N   UNL     1      86.410 122.542 103.421  1.00  0.00    -0.215 NA
ATOM      5  C   UNL     1      87.500 123.322 103.152  1.00  0.00     0.226 A 
ATOM      6  N   UNL     1      88.474 123.508 104.100  1.00  0.00    -0.217 NA
ATOM      7  C   UNL     1      88.387 122.928 105.334  1.00  0.00     0.152 A 
ATOM      8  C   UNL     1      87.270 122.137 105.592  1.00  0.00     0.127 A 
ATOM      9  N   UNL     1      86.921 121.455 106.690  1.00  0.00    -0.340 N 
ATOM     10  H   UNL     1      87.430 121.375 107.597  1.00  0.00     0.168 HD
ENDROOT
BRANCH   7  11
ATOM     11  N   UNL     1      89.412 123.136 106.305  1.00  0.00    -0.382 N 
ATOM     12  H   UNL     1      89.205 123.672 107.177  1.00  0.00     0.158 HD
ATOM     13  H   UNL     1      90.377 122.762 106.167  1.00  0.00     0.158 HD
ENDBRANCH   7  11
TORSDOF 1
ENDMDL
MODEL 3
REMARK VINA RESULT:    -3.778      6.968      7.871
REMARK INTER + INTRA:          -3.889
REMARK INTER:                  -3.889
REMARK INTRA:                   0.000
REMARK UNBOUND:                 0.000
REMARK SMILES Nc1ncnc2nc[nH]c12
REMARK SMILES IDX 8 1 7 2 6 3 5 4 4 5 3 6 2 7 10 8 9 9 1 11
REMARK H PARENT 9 10 1 12 1 13
REMARK Flexibility Score: inf
ROOT
ATOM      1  C   UNL     1     101.134 114.304  92.645  1.00  0.00     0.199 A 
ATOM      2  N   UNL     1     102.423 114.356  92.214  1.00  0.00    -0.217 NA
ATOM      3  C   UNL     1     102.764 115.628  92.484  1.00  0.00     0.182 A 
ATOM      4  N   UNL     1     103.963 116.211  92.247  1.00  0.00    -0.215 NA
ATOM      5  C   UNL     1     104.122 117.525  92.593  1.00  0.00     0.226 A 
ATOM      6  N   UNL     1     103.089 118.223  93.166  1.00  0.00    -0.217 NA
ATOM      7  C   UNL     1     101.879 117.636  93.406  1.00  0.00     0.152 A 
ATOM      8  C   UNL     1     101.733 116.299  93.048  1.00  0.00     0.127 A 
ATOM      9  N   UNL     1     100.683 115.476  93.160  1.00  0.00    -0.340 N 
ATOM     10  H   UNL     1      99.737 115.677  93.551  1.00  0.00     0.168 HD
ENDROOT
BRANCH   7  11
ATOM     11  N   UNL     1     100.818 118.383  94.003  1.00  0.00    -0.382 N 
ATOM     12  H   UNL     1     101.020 119.042  94.788  1.00  0.00     0.158 HD
ATOM     13  H   UNL     1      99.832 118.287  93.672  1.00  0.00     0.158 HD
ENDBRANCH   7  11
TORSDOF 1
ENDMDL
MODEL 4
REMARK VINA RESULT:    -3.768     17.110     18.041
REMARK INTER + INTRA:          -3.878
REMARK INTER:                  -3.878
REMARK INTRA:                   0.000
REMARK UNBOUND:                 0.000
REMARK SMILES Nc1ncnc2nc[nH]c12
REMARK SMILES IDX 8 1 7 2 6 3 5 4 4 5 3 6 2 7 10 8 9 9 1 11
REMARK H PARENT 9 10 1 12 1 13
REMARK Flexibility Score: inf
ROOT
ATOM      1  C   UNL     1      84.602 124.065 103.471  1.00  0.00     0.199 A 
ATOM      2  N   UNL     1      85.815 124.431 103.965  1.00  0.00    -0.217 NA
ATOM      3  C   UNL     1      86.218 123.313 104.593  1.00  0.00     0.182 A 
ATOM      4  N   UNL     1      87.381 123.136 105.263  1.00  0.00    -0.215 NA
ATOM      5  C   UNL     1      87.615 121.919 105.841  1.00  0.00     0.226 A 
ATOM      6  N   UNL     1      86.692 120.910 105.737  1.00  0.00    -0.217 NA
ATOM      7  C   UNL     1      85.518 121.086 105.060  1.00  0.00     0.152 A 
ATOM      8  C   UNL     1      85.294 122.331 104.478  1.00  0.00     0.127 A 
ATOM      9  N   UNL     1      84.255 122.787 103.768  1.00  0.00    -0.340 N 
ATOM     10  H   UNL     1      83.380 122.286 103.498  1.00  0.00     0.168 HD
ENDROOT
BRANCH   7  11
ATOM     11  N   UNL     1      84.571 120.022 104.965  1.00  0.00    -0.382 N 
ATOM     12  H   UNL     1      84.699 119.156 105.536  1.00  0.00     0.158 HD
ATOM     13  H   UNL     1      83.743 120.085 104.332  1.00  0.00     0.158 HD
ENDBRANCH   7  11
TORSDOF 1
ENDMDL
MODEL 5
REMARK VINA RESULT:    -3.695     15.703     17.335
REMARK INTER + INTRA:          -3.803
REMARK INTER:                  -3.803
REMARK INTRA:                   0.000
REMARK UNBOUND:                 0.000
REMARK SMILES Nc1ncnc2nc[nH]c12
REMARK SMILES IDX 8 1 7 2 6 3 5 4 4 5 3 6 2 7 10 8 9 9 1 11
REMARK H PARENT 9 10 1 12 1 13
REMARK Flexibility Score: inf
ROOT
ATOM      1  C   UNL     1      89.679 121.943 105.509  1.00  0.00     0.199 A 
ATOM      2  N   UNL     1      89.257 122.556 104.370  1.00  0.00    -0.217 NA
ATOM      3  C   UNL     1      87.920 122.464 104.474  1.00  0.00     0.182 A 
ATOM      4  N   UNL     1      87.006 122.927 103.588  1.00  0.00    -0.215 NA
ATOM      5  C   UNL     1      85.682 122.739 103.869  1.00  0.00     0.226 A 
ATOM      6  N   UNL     1      85.298 122.099 105.021  1.00  0.00    -0.217 NA
ATOM      7  C   UNL     1      86.218 121.632 105.916  1.00  0.00     0.152 A 
ATOM      8  C   UNL     1      87.563 121.831 105.615  1.00  0.00     0.127 A 
ATOM      9  N   UNL     1      88.667 121.488 106.291  1.00  0.00    -0.340 N 
ATOM     10  H   UNL     1      88.744 120.990 107.204  1.00  0.00     0.168 HD
ENDROOT
BRANCH   7  11
ATOM     11  N   UNL     1      85.796 120.968 107.107  1.00  0.00    -0.382 N 
ATOM     12  H   UNL     1      86.459 120.858 107.907  1.00  0.00     0.158 HD
ATOM     13  H   UNL     1      84.830 120.584 107.203  1.00  0.00     0.158 HD
ENDBRANCH   7  11
TORSDOF 1
ENDMDL
MODEL 6
REMARK VINA RESULT:    -3.675      4.367      5.660
REMARK INTER + INTRA:          -3.782
REMARK INTER:                  -3.782
REMARK INTRA:                   0.000
REMARK UNBOUND:                 0.000
REMARK SMILES Nc1ncnc2nc[nH]c12
REMARK SMILES IDX 8 1 7 2 6 3 5 4 4 5 3 6 2 7 10 8 9 9 1 11
REMARK H PARENT 9 10 1 12 1 13
REMARK Flexibility Score: inf
ROOT
ATOM      1  C   UNL     1     102.506 116.951  93.084  1.00  0.00     0.199 A 
ATOM      2  N   UNL     1     103.450 117.395  93.957  1.00  0.00    -0.217 NA
ATOM      3  C   UNL     1     102.805 118.385  94.596  1.00  0.00     0.182 A 
ATOM      4  N   UNL     1     103.303 119.169  95.582  1.00  0.00    -0.215 NA
ATOM      5  C   UNL     1     102.490 120.132  96.114  1.00  0.00     0.226 A 
ATOM      6  N   UNL     1     101.206 120.290  95.656  1.00  0.00    -0.217 NA
ATOM      7  C   UNL     1     100.703 119.500  94.661  1.00  0.00     0.152 A 
ATOM      8  C   UNL     1     101.543 118.525  94.130  1.00  0.00     0.127 A 
ATOM      9  N   UNL     1     101.329 117.622  93.165  1.00  0.00    -0.340 N 
ATOM     10  H   UNL     1     100.465 117.462  92.602  1.00  0.00     0.168 HD
ENDROOT
BRANCH   7  11
ATOM     11  N   UNL     1      99.364 119.683  94.200  1.00  0.00    -0.382 N 
ATOM     12  H   UNL     1      99.068 119.281  93.282  1.00  0.00     0.158 HD
ATOM     13  H   UNL     1      98.663 120.215  94.762  1.00  0.00     0.158 HD
ENDBRANCH   7  11
TORSDOF 1
ENDMDL
MODEL 7
REMARK VINA RESULT:    -3.645     15.775     17.304
REMARK INTER + INTRA:          -3.751
REMARK INTER:                  -3.751
REMARK INTRA:                   0.000
REMARK UNBOUND:                 0.000
REMARK SMILES Nc1ncnc2nc[nH]c12
REMARK SMILES IDX 8 1 7 2 6 3 5 4 4 5 3 6 2 7 10 8 9 9 1 11
REMARK H PARENT 9 10 1 12 1 13
REMARK Flexibility Score: inf
ROOT
ATOM      1  C   UNL     1      88.460 118.331 103.740  1.00  0.00     0.199 A 
ATOM      2  N   UNL     1      89.197 119.403 104.140  1.00  0.00    -0.217 NA
ATOM      3  C   UNL     1      88.267 120.198 104.696  1.00  0.00     0.182 A 
ATOM      4  N   UNL     1      88.473 121.412 105.260  1.00  0.00    -0.215 NA
ATOM      5  C   UNL     1      87.395 122.076 105.776  1.00  0.00     0.226 A 
ATOM      6  N   UNL     1      86.142 121.518 105.721  1.00  0.00    -0.217 NA
ATOM      7  C   UNL     1      85.932 120.294 105.152  1.00  0.00     0.152 A 
ATOM      8  C   UNL     1      87.040 119.631 104.631  1.00  0.00     0.127 A 
ATOM      9  N   UNL     1      87.138 118.441 104.026  1.00  0.00    -0.340 N 
ATOM     10  H   UNL     1      86.383 117.751 103.818  1.00  0.00     0.168 HD
ENDROOT
BRANCH   7  11
ATOM     11  N   UNL     1      84.620 119.734 105.106  1.00  0.00    -0.382 N 
ATOM     12  H   UNL     1      84.409 118.852 105.625  1.00  0.00     0.158 HD
ATOM     13  H   UNL     1      83.854 120.186 104.559  1.00  0.00     0.158 HD
ENDBRANCH   7  11
TORSDOF 1
ENDMDL
MODEL 8
REMARK VINA RESULT:    -3.627      2.052      3.004
REMARK INTER + INTRA:          -3.733
REMARK INTER:                  -3.733
REMARK INTRA:                   0.000
REMARK UNBOUND:                 0.000
REMARK SMILES Nc1ncnc2nc[nH]c12
REMARK SMILES IDX 8 1 7 2 6 3 5 4 4 5 3 6 2 7 10 8 9 9 1 11
REMARK H PARENT 9 10 1 12 1 13
REMARK Flexibility Score: inf
ROOT
ATOM      1  C   UNL     1     101.067 126.709  96.771  1.00  0.00     0.199 A 
ATOM      2  N   UNL     1     101.058 125.549  97.483  1.00  0.00    -0.217 NA
ATOM      3  C   UNL     1     101.192 124.621  96.519  1.00  0.00     0.182 A 
ATOM      4  N   UNL     1     101.242 123.279  96.691  1.00  0.00    -0.215 NA
ATOM      5  C   UNL     1     101.383 122.491  95.582  1.00  0.00     0.226 A 
ATOM      6  N   UNL     1     101.472 123.055  94.334  1.00  0.00    -0.217 NA
ATOM      7  C   UNL     1     101.422 124.409  94.159  1.00  0.00     0.152 A 
ATOM      8  C   UNL     1     101.278 125.197  95.298  1.00  0.00     0.127 A 
ATOM      9  N   UNL     1     101.200 126.527  95.433  1.00  0.00    -0.340 N 
ATOM     10  H   UNL     1     101.234 127.261  94.692  1.00  0.00     0.168 HD
ENDROOT
BRANCH   7  11
ATOM     11  N   UNL     1     101.516 124.974  92.851  1.00  0.00    -0.382 N 
ATOM     12  H   UNL     1     101.291 124.392  92.013  1.00  0.00     0.158 HD
ATOM     13  H   UNL     1     101.807 125.966  92.706  1.00  0.00     0.158 HD
ENDBRANCH   7  11
TORSDOF 1
ENDMDL
MODEL 9
REMARK VINA RESULT:    -3.587      7.030      7.952
REMARK INTER + INTRA:          -3.692
REMARK INTER:                  -3.692
REMARK INTRA:                   0.000
REMARK UNBOUND:                 0.000
REMARK SMILES Nc1ncnc2nc[nH]c12
REMARK SMILES IDX 8 1 7 2 6 3 5 4 4 5 3 6 2 7 10 8 9 9 1 11
REMARK H PARENT 9 10 1 12 1 13
REMARK Flexibility Score: inf
ROOT
ATOM      1  C   UNL     1     101.480 114.408  91.512  1.00  0.00     0.199 A 
ATOM      2  N   UNL     1     100.735 114.316  92.647  1.00  0.00    -0.217 NA
ATOM      3  C   UNL     1     101.110 115.414  93.325  1.00  0.00     0.182 A 
ATOM      4  N   UNL     1     100.660 115.806  94.541  1.00  0.00    -0.215 NA
ATOM      5  C   UNL     1     101.163 116.960  95.074  1.00  0.00     0.226 A 
ATOM      6  N   UNL     1     102.096 117.695  94.388  1.00  0.00    -0.217 NA
ATOM      7  C   UNL     1     102.551 117.301  93.161  1.00  0.00     0.152 A 
ATOM      8  C   UNL     1     102.029 116.124  92.632  1.00  0.00     0.127 A 
ATOM      9  N   UNL     1     102.281 115.502  91.473  1.00  0.00    -0.340 N 
ATOM     10  H   UNL     1     102.937 115.783  90.712  1.00  0.00     0.168 HD
ENDROOT
BRANCH   7  11
ATOM     11  N   UNL     1     103.523 118.082  92.465  1.00  0.00    -0.382 N 
ATOM     12  H   UNL     1     103.298 118.481  91.526  1.00  0.00     0.158 HD
ATOM     13  H   UNL     1     104.466 118.267  92.873  1.00  0.00     0.158 HD
ENDBRANCH   7  11
TORSDOF 1
ENDMDL
