MODEL 1
REMARK VINA RESULT:    -8.459      0.000      0.000
REMARK INTER + INTRA:         -13.423
REMARK INTER:                 -11.921
REMARK INTRA:                  -1.503
REMARK UNBOUND:                -1.503
REMARK SMILES COc1c(O[C@@H]2O[C@H](C(=O)[O-])[C@H](O)[C@@H](O)[C@@H]2O)cc(O)c2c(=O)cc(-c3ccccc3)oc12
REMARK SMILES IDX 5 1 6 2 8 3 12 4 7 5 14 6 16 7 9 8 10 9 11 10 13 11 15 13
REMARK SMILES IDX 17 15 4 17 3 18 18 19 33 20 19 21 21 22 32 23 22 24 25 25
REMARK SMILES IDX 24 26 23 27 2 28 1 29 20 30 26 32 27 33 31 34 28 35 30 36
REMARK SMILES IDX 29 37
REMARK H PARENT 13 12 15 14 17 16 20 31
REMARK Flexibility Score: inf
ROOT
ATOM      1  O   UNL     1      -1.888 -22.328  49.129  1.00  0.00    -0.458 OA
ENDROOT
BRANCH   1   2
ATOM      2  C   UNL     1      -2.485 -22.724  50.368  1.00  0.00     0.339 C 
ATOM      3  C   UNL     1      -3.794 -24.503  49.475  1.00  0.00     0.199 C 
ATOM      4  C   UNL     1      -5.108 -23.699  49.672  1.00  0.00     0.180 C 
ATOM      5  O   UNL     1      -2.773 -24.117  50.389  1.00  0.00    -0.328 OA
ATOM      6  C   UNL     1      -4.847 -22.190  49.668  1.00  0.00     0.181 C 
ATOM      7  C   UNL     1      -3.729 -21.867  50.665  1.00  0.00     0.214 C 
BRANCH   3   8
ATOM      8  C   UNL     1      -3.276 -24.572  48.058  1.00  0.00     0.073 C 
ATOM      9  O   UNL     1      -3.846 -23.955  47.118  1.00  0.00    -0.547 OA
ATOM     10  O   UNL     1      -2.130 -25.308  47.787  1.00  0.00    -0.547 OA
ENDBRANCH   3   8
BRANCH   4  11
ATOM     11  O   UNL     1      -6.049 -24.021  48.680  1.00  0.00    -0.387 OA
ATOM     12  H   UNL     1      -6.863 -23.488  48.873  1.00  0.00     0.211 HD
ENDBRANCH   4  11
BRANCH   6  13
ATOM     13  O   UNL     1      -6.026 -21.519  50.036  1.00  0.00    -0.387 OA
ATOM     14  H   UNL     1      -6.345 -21.935  50.879  1.00  0.00     0.211 HD
ENDBRANCH   6  13
BRANCH   7  15
ATOM     15  O   UNL     1      -3.407 -20.503  50.583  1.00  0.00    -0.384 OA
ATOM     16  H   UNL     1      -3.204 -20.312  49.630  1.00  0.00     0.211 HD
ENDBRANCH   7  15
ENDBRANCH   1   2
BRANCH   1  17
ATOM     17  C   UNL     1      -0.514 -22.122  48.917  1.00  0.00     0.172 A 
ATOM     18  C   UNL     1      -0.056 -22.068  47.593  1.00  0.00     0.205 A 
ATOM     19  C   UNL     1       0.391 -21.980  49.980  1.00  0.00     0.097 A 
ATOM     20  C   UNL     1       1.325 -21.875  47.336  1.00  0.00     0.188 A 
ATOM     21  C   UNL     1       1.755 -21.792  49.742  1.00  0.00     0.134 A 
ATOM     22  C   UNL     1       2.236 -21.740  48.416  1.00  0.00     0.111 A 
ATOM     23  O   UNL     1       1.777 -21.830  46.084  1.00  0.00    -0.452 OA
ATOM     24  C   UNL     1       3.600 -21.557  48.110  1.00  0.00     0.197 A 
ATOM     25  C   UNL     1       3.059 -21.672  45.764  1.00  0.00     0.138 A 
ATOM     26  C   UNL     1       4.011 -21.524  46.780  1.00  0.00     0.100 A 
ATOM     27  O   UNL     1       4.466 -21.420  49.017  1.00  0.00    -0.289 OA
BRANCH  18  28
ATOM     28  O   UNL     1      -1.026 -22.222  46.584  1.00  0.00    -0.490 OA
ATOM     29  C   UNL     1      -1.642 -21.181  45.835  1.00  0.00     0.278 C 
ENDBRANCH  18  28
BRANCH  21  30
ATOM     30  O   UNL     1       2.624 -21.660  50.827  1.00  0.00    -0.507 OA
ATOM     31  H   UNL     1       3.585 -21.362  50.708  1.00  0.00     0.293 HD
ENDBRANCH  21  30
BRANCH  25  32
ATOM     32  C   UNL     1       3.445 -21.649  44.332  1.00  0.00     0.017 A 
ATOM     33  C   UNL     1       4.041 -20.512  43.750  1.00  0.00     0.012 A 
ATOM     34  C   UNL     1       3.240 -22.789  43.536  1.00  0.00     0.012 A 
ATOM     35  C   UNL     1       4.408 -20.517  42.400  1.00  0.00     0.001 A 
ATOM     36  C   UNL     1       3.608 -22.790  42.187  1.00  0.00     0.001 A 
ATOM     37  C   UNL     1       4.190 -21.654  41.620  1.00  0.00     0.000 A 
ENDBRANCH  25  32
ENDBRANCH   1  17
TORSDOF 9
ENDMDL
MODEL 2
REMARK VINA RESULT:    -8.243      4.058      7.560
REMARK INTER + INTRA:         -13.118
REMARK INTER:                 -11.620
REMARK INTRA:                  -1.498
REMARK UNBOUND:                -1.503
REMARK SMILES COc1c(O[C@@H]2O[C@H](C(=O)[O-])[C@H](O)[C@@H](O)[C@@H]2O)cc(O)c2c(=O)cc(-c3ccccc3)oc12
REMARK SMILES IDX 5 1 6 2 8 3 12 4 7 5 14 6 16 7 9 8 10 9 11 10 13 11 15 13
REMARK SMILES IDX 17 15 4 17 3 18 18 19 33 20 19 21 21 22 32 23 22 24 25 25
REMARK SMILES IDX 24 26 23 27 2 28 1 29 20 30 26 32 27 33 31 34 28 35 30 36
REMARK SMILES IDX 29 37
REMARK H PARENT 13 12 15 14 17 16 20 31
REMARK Flexibility Score: inf
ROOT
ATOM      1  O   UNL     1      -2.018 -22.219  47.688  1.00  0.00    -0.458 OA
ENDROOT
BRANCH   1   2
ATOM      2  C   UNL     1      -0.790 -22.936  47.849  1.00  0.00     0.339 C 
ATOM      3  C   UNL     1      -1.719 -24.798  49.010  1.00  0.00     0.199 C 
ATOM      4  C   UNL     1      -1.058 -24.357  50.344  1.00  0.00     0.180 C 
ATOM      5  O   UNL     1      -1.002 -24.343  47.866  1.00  0.00    -0.328 OA
ATOM      6  C   UNL     1      -0.798 -22.848  50.368  1.00  0.00     0.181 C 
ATOM      7  C   UNL     1      -0.038 -22.445  49.100  1.00  0.00     0.214 C 
BRANCH   3   8
ATOM      8  C   UNL     1      -3.198 -24.516  48.889  1.00  0.00     0.073 C 
ATOM      9  O   UNL     1      -3.831 -23.918  49.799  1.00  0.00    -0.547 OA
ATOM     10  O   UNL     1      -3.872 -24.900  47.736  1.00  0.00    -0.547 OA
ENDBRANCH   3   8
BRANCH   4  11
ATOM     11  O   UNL     1      -1.853 -24.720  51.444  1.00  0.00    -0.387 OA
ATOM     12  H   UNL     1      -2.728 -25.013  51.081  1.00  0.00     0.211 HD
ENDBRANCH   4  11
BRANCH   6  13
ATOM     13  O   UNL     1      -0.034 -22.532  51.505  1.00  0.00    -0.387 OA
ATOM     14  H   UNL     1      -0.280 -23.186  52.210  1.00  0.00     0.211 HD
ENDBRANCH   6  13
BRANCH   7  15
ATOM     15  O   UNL     1       0.103 -21.049  49.060  1.00  0.00    -0.384 OA
ATOM     16  H   UNL     1      -0.765 -20.681  48.750  1.00  0.00     0.211 HD
ENDBRANCH   7  15
ENDBRANCH   1   2
BRANCH   1  17
ATOM     17  C   UNL     1      -2.370 -21.448  46.567  1.00  0.00     0.172 A 
ATOM     18  C   UNL     1      -3.732 -21.215  46.333  1.00  0.00     0.205 A 
ATOM     19  C   UNL     1      -1.407 -20.925  45.690  1.00  0.00     0.097 A 
ATOM     20  C   UNL     1      -4.130 -20.453  45.205  1.00  0.00     0.188 A 
ATOM     21  C   UNL     1      -1.783 -20.174  44.574  1.00  0.00     0.134 A 
ATOM     22  C   UNL     1      -3.151 -19.933  44.319  1.00  0.00     0.111 A 
ATOM     23  O   UNL     1      -5.420 -20.230  44.965  1.00  0.00    -0.452 OA
ATOM     24  C   UNL     1      -3.595 -19.187  43.208  1.00  0.00     0.197 A 
ATOM     25  C   UNL     1      -5.871 -19.542  43.918  1.00  0.00     0.138 A 
ATOM     26  C   UNL     1      -4.959 -18.993  43.008  1.00  0.00     0.100 A 
ATOM     27  O   UNL     1      -2.782 -18.686  42.383  1.00  0.00    -0.289 OA
BRANCH  18  28
ATOM     28  O   UNL     1      -4.635 -21.777  47.256  1.00  0.00    -0.490 OA
ATOM     29  C   UNL     1      -5.315 -21.091  48.300  1.00  0.00     0.278 C 
ENDBRANCH  18  28
BRANCH  21  30
ATOM     30  O   UNL     1      -0.795 -19.675  43.724  1.00  0.00    -0.507 OA
ATOM     31  H   UNL     1      -0.951 -19.564  42.729  1.00  0.00     0.293 HD
ENDBRANCH  21  30
BRANCH  25  32
ATOM     32  C   UNL     1      -7.334 -19.368  43.748  1.00  0.00     0.017 A 
ATOM     33  C   UNL     1      -8.251 -19.897  44.679  1.00  0.00     0.012 A 
ATOM     34  C   UNL     1      -7.826 -18.639  42.651  1.00  0.00     0.012 A 
ATOM     35  C   UNL     1      -9.625 -19.710  44.504  1.00  0.00     0.001 A 
ATOM     36  C   UNL     1      -9.202 -18.454  42.480  1.00  0.00     0.001 A 
ATOM     37  C   UNL     1     -10.100 -18.991  43.405  1.00  0.00     0.000 A 
ENDBRANCH  25  32
ENDBRANCH   1  17
TORSDOF 9
ENDMDL
MODEL 3
REMARK VINA RESULT:    -8.036      4.420      7.327
REMARK INTER + INTRA:         -12.828
REMARK INTER:                 -11.664
REMARK INTRA:                  -1.164
REMARK UNBOUND:                -1.503
REMARK SMILES COc1c(O[C@@H]2O[C@H](C(=O)[O-])[C@H](O)[C@@H](O)[C@@H]2O)cc(O)c2c(=O)cc(-c3ccccc3)oc12
REMARK SMILES IDX 5 1 6 2 8 3 12 4 7 5 14 6 16 7 9 8 10 9 11 10 13 11 15 13
REMARK SMILES IDX 17 15 4 17 3 18 18 19 33 20 19 21 21 22 32 23 22 24 25 25
REMARK SMILES IDX 24 26 23 27 2 28 1 29 20 30 26 32 27 33 31 34 28 35 30 36
REMARK SMILES IDX 29 37
REMARK H PARENT 13 12 15 14 17 16 20 31
REMARK Flexibility Score: inf
ROOT
ATOM      1  O   UNL     1      -3.412 -22.031  47.376  1.00  0.00    -0.458 OA
ENDROOT
BRANCH   1   2
ATOM      2  C   UNL     1      -3.794 -21.485  48.643  1.00  0.00     0.339 C 
ATOM      3  C   UNL     1      -1.933 -22.328  49.867  1.00  0.00     0.199 C 
ATOM      4  C   UNL     1      -2.825 -23.364  50.604  1.00  0.00     0.180 C 
ATOM      5  O   UNL     1      -2.660 -21.179  49.445  1.00  0.00    -0.328 OA
ATOM      6  C   UNL     1      -4.068 -23.716  49.783  1.00  0.00     0.181 C 
ATOM      7  C   UNL     1      -4.779 -22.426  49.360  1.00  0.00     0.214 C 
BRANCH   3   8
ATOM      8  C   UNL     1      -1.071 -22.882  48.756  1.00  0.00     0.073 C 
ATOM      9  O   UNL     1      -0.161 -22.194  48.224  1.00  0.00    -0.547 OA
ATOM     10  O   UNL     1      -1.267 -24.190  48.331  1.00  0.00    -0.547 OA
ENDBRANCH   3   8
BRANCH   4  11
ATOM     11  O   UNL     1      -2.103 -24.532  50.900  1.00  0.00    -0.387 OA
ATOM     12  H   UNL     1      -1.776 -24.439  51.831  1.00  0.00     0.211 HD
ENDBRANCH   4  11
BRANCH   6  13
ATOM     13  O   UNL     1      -4.929 -24.503  50.568  1.00  0.00    -0.387 OA
ATOM     14  H   UNL     1      -5.853 -24.322  50.254  1.00  0.00     0.211 HD
ENDBRANCH   6  13
BRANCH   7  15
ATOM     15  O   UNL     1      -5.853 -22.738  48.512  1.00  0.00    -0.384 OA
ATOM     16  H   UNL     1      -6.494 -21.982  48.570  1.00  0.00     0.211 HD
ENDBRANCH   7  15
ENDBRANCH   1   2
BRANCH   1  17
ATOM     17  C   UNL     1      -3.217 -21.292  46.197  1.00  0.00     0.172 A 
ATOM     18  C   UNL     1      -4.327 -20.642  45.639  1.00  0.00     0.205 A 
ATOM     19  C   UNL     1      -1.963 -21.200  45.573  1.00  0.00     0.097 A 
ATOM     20  C   UNL     1      -4.176 -19.897  44.441  1.00  0.00     0.188 A 
ATOM     21  C   UNL     1      -1.799 -20.472  44.393  1.00  0.00     0.134 A 
ATOM     22  C   UNL     1      -2.906 -19.814  43.813  1.00  0.00     0.111 A 
ATOM     23  O   UNL     1      -5.222 -19.281  43.895  1.00  0.00    -0.452 OA
ATOM     24  C   UNL     1      -2.806 -19.068  42.621  1.00  0.00     0.197 A 
ATOM     25  C   UNL     1      -5.162 -18.581  42.765  1.00  0.00     0.138 A 
ATOM     26  C   UNL     1      -3.938 -18.451  42.097  1.00  0.00     0.100 A 
ATOM     27  O   UNL     1      -1.708 -18.942  42.012  1.00  0.00    -0.289 OA
BRANCH  18  28
ATOM     28  O   UNL     1      -5.550 -20.786  46.322  1.00  0.00    -0.490 OA
ATOM     29  C   UNL     1      -6.325 -19.743  46.901  1.00  0.00     0.278 C 
ENDBRANCH  18  28
BRANCH  21  30
ATOM     30  O   UNL     1      -0.535 -20.408  43.802  1.00  0.00    -0.507 OA
ATOM     31  H   UNL     1       0.308 -20.631  44.318  1.00  0.00     0.293 HD
ENDBRANCH  21  30
BRANCH  25  32
ATOM     32  C   UNL     1      -6.399 -17.947  42.245  1.00  0.00     0.017 A 
ATOM     33  C   UNL     1      -7.638 -18.617  42.280  1.00  0.00     0.012 A 
ATOM     34  C   UNL     1      -6.348 -16.640  41.729  1.00  0.00     0.012 A 
ATOM     35  C   UNL     1      -8.793 -17.994  41.794  1.00  0.00     0.001 A 
ATOM     36  C   UNL     1      -7.505 -16.021  41.245  1.00  0.00     0.001 A 
ATOM     37  C   UNL     1      -8.726 -16.699  41.277  1.00  0.00     0.000 A 
ENDBRANCH  25  32
ENDBRANCH   1  17
TORSDOF 9
ENDMDL
MODEL 4
REMARK VINA RESULT:    -7.976      4.768      7.229
REMARK INTER + INTRA:         -12.743
REMARK INTER:                 -11.083
REMARK INTRA:                  -1.660
REMARK UNBOUND:                -1.503
REMARK SMILES COc1c(O[C@@H]2O[C@H](C(=O)[O-])[C@H](O)[C@@H](O)[C@@H]2O)cc(O)c2c(=O)cc(-c3ccccc3)oc12
REMARK SMILES IDX 5 1 6 2 8 3 12 4 7 5 14 6 16 7 9 8 10 9 11 10 13 11 15 13
REMARK SMILES IDX 17 15 4 17 3 18 18 19 33 20 19 21 21 22 32 23 22 24 25 25
REMARK SMILES IDX 24 26 23 27 2 28 1 29 20 30 26 32 27 33 31 34 28 35 30 36
REMARK SMILES IDX 29 37
REMARK H PARENT 13 12 15 14 17 16 20 31
REMARK Flexibility Score: inf
ROOT
ATOM      1  O   UNL     1      -3.965 -21.834  46.649  1.00  0.00    -0.458 OA
ENDROOT
BRANCH   1   2
ATOM      2  C   UNL     1      -3.216 -21.506  47.823  1.00  0.00     0.339 C 
ATOM      3  C   UNL     1      -3.261 -23.685  48.785  1.00  0.00     0.199 C 
ATOM      4  C   UNL     1      -4.249 -23.228  49.893  1.00  0.00     0.180 C 
ATOM      5  O   UNL     1      -2.460 -22.617  48.290  1.00  0.00    -0.328 OA
ATOM      6  C   UNL     1      -5.079 -22.024  49.440  1.00  0.00     0.181 C 
ATOM      7  C   UNL     1      -4.142 -20.932  48.912  1.00  0.00     0.214 C 
BRANCH   3   8
ATOM      8  C   UNL     1      -3.867 -24.494  47.662  1.00  0.00     0.073 C 
ATOM      9  O   UNL     1      -5.104 -24.727  47.612  1.00  0.00    -0.547 OA
ATOM     10  O   UNL     1      -3.047 -24.968  46.646  1.00  0.00    -0.547 OA
ENDBRANCH   3   8
BRANCH   4  11
ATOM     11  O   UNL     1      -5.102 -24.278  50.271  1.00  0.00    -0.387 OA
ATOM     12  H   UNL     1      -5.330 -24.132  51.225  1.00  0.00     0.211 HD
ENDBRANCH   4  11
BRANCH   6  13
ATOM     13  O   UNL     1      -5.814 -21.536  50.535  1.00  0.00    -0.387 OA
ATOM     14  H   UNL     1      -6.545 -22.185  50.705  1.00  0.00     0.211 HD
ENDBRANCH   6  13
BRANCH   7  15
ATOM     15  O   UNL     1      -4.901 -19.873  48.390  1.00  0.00    -0.384 OA
ATOM     16  H   UNL     1      -5.678 -20.279  47.923  1.00  0.00     0.211 HD
ENDBRANCH   7  15
ENDBRANCH   1   2
BRANCH   1  17
ATOM     17  C   UNL     1      -3.653 -21.422  45.342  1.00  0.00     0.172 A 
ATOM     18  C   UNL     1      -4.380 -20.353  44.800  1.00  0.00     0.205 A 
ATOM     19  C   UNL     1      -2.655 -22.050  44.581  1.00  0.00     0.097 A 
ATOM     20  C   UNL     1      -4.106 -19.916  43.479  1.00  0.00     0.188 A 
ATOM     21  C   UNL     1      -2.375 -21.632  43.278  1.00  0.00     0.134 A 
ATOM     22  C   UNL     1      -3.100 -20.561  42.713  1.00  0.00     0.111 A 
ATOM     23  O   UNL     1      -4.794 -18.908  42.948  1.00  0.00    -0.452 OA
ATOM     24  C   UNL     1      -2.867 -20.095  41.403  1.00  0.00     0.197 A 
ATOM     25  C   UNL     1      -4.607 -18.454  41.710  1.00  0.00     0.138 A 
ATOM     26  C   UNL     1      -3.624 -19.039  40.901  1.00  0.00     0.100 A 
ATOM     27  O   UNL     1      -1.983 -20.612  40.667  1.00  0.00    -0.289 OA
BRANCH  18  28
ATOM     28  O   UNL     1      -5.367 -19.779  45.626  1.00  0.00    -0.490 OA
ATOM     29  C   UNL     1      -6.766 -20.024  45.569  1.00  0.00     0.278 C 
ENDBRANCH  18  28
BRANCH  21  30
ATOM     30  O   UNL     1      -1.377 -22.286  42.553  1.00  0.00    -0.507 OA
ATOM     31  H   UNL     1      -1.566 -23.130  42.026  1.00  0.00     0.293 HD
ENDBRANCH  21  30
BRANCH  25  32
ATOM     32  C   UNL     1      -5.443 -17.330  41.222  1.00  0.00     0.017 A 
ATOM     33  C   UNL     1      -6.259 -16.586  42.098  1.00  0.00     0.012 A 
ATOM     34  C   UNL     1      -5.409 -16.976  39.862  1.00  0.00     0.012 A 
ATOM     35  C   UNL     1      -7.030 -15.524  41.616  1.00  0.00     0.001 A 
ATOM     36  C   UNL     1      -6.181 -15.912  39.385  1.00  0.00     0.001 A 
ATOM     37  C   UNL     1      -6.992 -15.188  40.262  1.00  0.00     0.000 A 
ENDBRANCH  25  32
ENDBRANCH   1  17
TORSDOF 9
ENDMDL
MODEL 5
REMARK VINA RESULT:    -7.825      2.793      5.053
REMARK INTER + INTRA:         -12.530
REMARK INTER:                 -11.350
REMARK INTRA:                  -1.179
REMARK UNBOUND:                -1.503
REMARK SMILES COc1c(O[C@@H]2O[C@H](C(=O)[O-])[C@H](O)[C@@H](O)[C@@H]2O)cc(O)c2c(=O)cc(-c3ccccc3)oc12
REMARK SMILES IDX 5 1 6 2 8 3 12 4 7 5 14 6 16 7 9 8 10 9 11 10 13 11 15 13
REMARK SMILES IDX 17 15 4 17 3 18 18 19 33 20 19 21 21 22 32 23 22 24 25 25
REMARK SMILES IDX 24 26 23 27 2 28 1 29 20 30 26 32 27 33 31 34 28 35 30 36
REMARK SMILES IDX 29 37
REMARK H PARENT 13 12 15 14 17 16 20 31
REMARK Flexibility Score: inf
ROOT
ATOM      1  O   UNL     1      -3.009 -21.827  47.498  1.00  0.00    -0.458 OA
ENDROOT
BRANCH   1   2
ATOM      2  C   UNL     1      -3.714 -21.411  48.672  1.00  0.00     0.339 C 
ATOM      3  C   UNL     1      -2.087 -22.165  50.239  1.00  0.00     0.199 C 
ATOM      4  C   UNL     1      -3.003 -23.328  50.705  1.00  0.00     0.180 C 
ATOM      5  O   UNL     1      -2.821 -21.061  49.722  1.00  0.00    -0.328 OA
ATOM      6  C   UNL     1      -3.993 -23.734  49.610  1.00  0.00     0.181 C 
ATOM      7  C   UNL     1      -4.727 -22.488  49.102  1.00  0.00     0.214 C 
BRANCH   3   8
ATOM      8  C   UNL     1      -0.950 -22.556  49.324  1.00  0.00     0.073 C 
ATOM      9  O   UNL     1      -0.869 -23.712  48.830  1.00  0.00    -0.547 OA
ATOM     10  O   UNL     1       0.015 -21.611  48.996  1.00  0.00    -0.547 OA
ENDBRANCH   3   8
BRANCH   4  11
ATOM     11  O   UNL     1      -2.243 -24.443  51.097  1.00  0.00    -0.387 OA
ATOM     12  H   UNL     1      -1.825 -24.808  50.275  1.00  0.00     0.211 HD
ENDBRANCH   4  11
BRANCH   6  13
ATOM     13  O   UNL     1      -4.916 -24.651  50.141  1.00  0.00    -0.387 OA
ATOM     14  H   UNL     1      -4.662 -24.801  51.089  1.00  0.00     0.211 HD
ENDBRANCH   6  13
BRANCH   7  15
ATOM     15  O   UNL     1      -5.551 -22.836  48.020  1.00  0.00    -0.384 OA
ATOM     16  H   UNL     1      -6.475 -22.569  48.266  1.00  0.00     0.211 HD
ENDBRANCH   7  15
ENDBRANCH   1   2
BRANCH   1  17
ATOM     17  C   UNL     1      -3.031 -21.165  46.258  1.00  0.00     0.172 A 
ATOM     18  C   UNL     1      -1.836 -21.103  45.527  1.00  0.00     0.205 A 
ATOM     19  C   UNL     1      -4.196 -20.568  45.752  1.00  0.00     0.097 A 
ATOM     20  C   UNL     1      -1.812 -20.432  44.278  1.00  0.00     0.188 A 
ATOM     21  C   UNL     1      -4.187 -19.903  44.524  1.00  0.00     0.134 A 
ATOM     22  C   UNL     1      -2.993 -19.826  43.775  1.00  0.00     0.111 A 
ATOM     23  O   UNL     1      -0.683 -20.358  43.575  1.00  0.00    -0.452 OA
ATOM     24  C   UNL     1      -2.918 -19.164  42.532  1.00  0.00     0.197 A 
ATOM     25  C   UNL     1      -0.578 -19.730  42.407  1.00  0.00     0.138 A 
ATOM     26  C   UNL     1      -1.706 -19.117  41.847  1.00  0.00     0.100 A 
ATOM     27  O   UNL     1      -3.928 -18.611  42.018  1.00  0.00    -0.289 OA
BRANCH  18  28
ATOM     28  O   UNL     1      -0.711 -21.722  46.105  1.00  0.00    -0.490 OA
ATOM     29  C   UNL     1      -0.045 -22.884  45.628  1.00  0.00     0.278 C 
ENDBRANCH  18  28
BRANCH  21  30
ATOM     30  O   UNL     1      -5.366 -19.319  44.057  1.00  0.00    -0.507 OA
ATOM     31  H   UNL     1      -6.243 -19.828  44.036  1.00  0.00     0.293 HD
ENDBRANCH  21  30
BRANCH  25  32
ATOM     32  C   UNL     1       0.737 -19.704  41.720  1.00  0.00     0.017 A 
ATOM     33  C   UNL     1       1.886 -19.188  42.353  1.00  0.00     0.012 A 
ATOM     34  C   UNL     1       0.855 -20.226  40.420  1.00  0.00     0.012 A 
ATOM     35  C   UNL     1       3.118 -19.185  41.689  1.00  0.00     0.001 A 
ATOM     36  C   UNL     1       2.088 -20.221  39.761  1.00  0.00     0.001 A 
ATOM     37  C   UNL     1       3.218 -19.699  40.395  1.00  0.00     0.000 A 
ENDBRANCH  25  32
ENDBRANCH   1  17
TORSDOF 9
ENDMDL
MODEL 6
REMARK VINA RESULT:    -7.794      3.006      5.531
REMARK INTER + INTRA:         -12.486
REMARK INTER:                 -11.070
REMARK INTRA:                  -1.416
REMARK UNBOUND:                -1.503
REMARK SMILES COc1c(O[C@@H]2O[C@H](C(=O)[O-])[C@H](O)[C@@H](O)[C@@H]2O)cc(O)c2c(=O)cc(-c3ccccc3)oc12
REMARK SMILES IDX 5 1 6 2 8 3 12 4 7 5 14 6 16 7 9 8 10 9 11 10 13 11 15 13
REMARK SMILES IDX 17 15 4 17 3 18 18 19 33 20 19 21 21 22 32 23 22 24 25 25
REMARK SMILES IDX 24 26 23 27 2 28 1 29 20 30 26 32 27 33 31 34 28 35 30 36
REMARK SMILES IDX 29 37
REMARK H PARENT 13 12 15 14 17 16 20 31
REMARK Flexibility Score: inf
ROOT
ATOM      1  O   UNL     1      -3.587 -22.074  47.555  1.00  0.00    -0.458 OA
ENDROOT
BRANCH   1   2
ATOM      2  C   UNL     1      -4.389 -23.235  47.789  1.00  0.00     0.339 C 
ATOM      3  C   UNL     1      -4.145 -23.256  50.158  1.00  0.00     0.199 C 
ATOM      4  C   UNL     1      -3.231 -24.510  50.101  1.00  0.00     0.180 C 
ATOM      5  O   UNL     1      -5.039 -23.178  49.053  1.00  0.00    -0.328 OA
ATOM      6  C   UNL     1      -2.517 -24.621  48.752  1.00  0.00     0.181 C 
ATOM      7  C   UNL     1      -3.548 -24.514  47.622  1.00  0.00     0.214 C 
BRANCH   3   8
ATOM      8  C   UNL     1      -3.438 -21.942  50.396  1.00  0.00     0.073 C 
ATOM      9  O   UNL     1      -2.183 -21.876  50.481  1.00  0.00    -0.547 OA
ATOM     10  O   UNL     1      -4.185 -20.775  50.496  1.00  0.00    -0.547 OA
ENDBRANCH   3   8
BRANCH   4  11
ATOM     11  O   UNL     1      -2.285 -24.491  51.140  1.00  0.00    -0.387 OA
ATOM     12  H   UNL     1      -2.746 -24.819  51.954  1.00  0.00     0.211 HD
ENDBRANCH   4  11
BRANCH   6  13
ATOM     13  O   UNL     1      -1.858 -25.861  48.682  1.00  0.00    -0.387 OA
ATOM     14  H   UNL     1      -1.167 -25.861  49.394  1.00  0.00     0.211 HD
ENDBRANCH   6  13
BRANCH   7  15
ATOM     15  O   UNL     1      -2.889 -24.501  46.383  1.00  0.00    -0.384 OA
ATOM     16  H   UNL     1      -3.185 -25.310  45.891  1.00  0.00     0.211 HD
ENDBRANCH   7  15
ENDBRANCH   1   2
BRANCH   1  17
ATOM     17  C   UNL     1      -3.641 -21.264  46.408  1.00  0.00     0.172 A 
ATOM     18  C   UNL     1      -2.532 -21.267  45.550  1.00  0.00     0.205 A 
ATOM     19  C   UNL     1      -4.754 -20.461  46.114  1.00  0.00     0.097 A 
ATOM     20  C   UNL     1      -2.541 -20.453  44.389  1.00  0.00     0.188 A 
ATOM     21  C   UNL     1      -4.777 -19.653  44.974  1.00  0.00     0.134 A 
ATOM     22  C   UNL     1      -3.668 -19.639  44.101  1.00  0.00     0.111 A 
ATOM     23  O   UNL     1      -1.492 -20.439  43.569  1.00  0.00    -0.452 OA
ATOM     24  C   UNL     1      -3.627 -18.842  42.939  1.00  0.00     0.197 A 
ATOM     25  C   UNL     1      -1.418 -19.688  42.472  1.00  0.00     0.138 A 
ATOM     26  C   UNL     1      -2.499 -18.867  42.124  1.00  0.00     0.100 A 
ATOM     27  O   UNL     1      -4.595 -18.101  42.614  1.00  0.00    -0.289 OA
BRANCH  18  28
ATOM     28  O   UNL     1      -1.454 -22.095  45.918  1.00  0.00    -0.490 OA
ATOM     29  C   UNL     1      -0.503 -21.842  46.945  1.00  0.00     0.278 C 
ENDBRANCH  18  28
BRANCH  21  30
ATOM     30  O   UNL     1      -5.902 -18.867  44.719  1.00  0.00    -0.507 OA
ATOM     31  H   UNL     1      -5.937 -17.886  44.973  1.00  0.00     0.293 HD
ENDBRANCH  21  30
BRANCH  25  32
ATOM     32  C   UNL     1      -0.192 -19.748  41.640  1.00  0.00     0.017 A 
ATOM     33  C   UNL     1       1.060 -19.344  42.147  1.00  0.00     0.012 A 
ATOM     34  C   UNL     1      -0.265 -20.239  40.325  1.00  0.00     0.012 A 
ATOM     35  C   UNL     1       2.205 -19.420  41.347  1.00  0.00     0.001 A 
ATOM     36  C   UNL     1       0.883 -20.314  39.530  1.00  0.00     0.001 A 
ATOM     37  C   UNL     1       2.116 -19.903  40.040  1.00  0.00     0.000 A 
ENDBRANCH  25  32
ENDBRANCH   1  17
TORSDOF 9
ENDMDL
MODEL 7
REMARK VINA RESULT:    -7.781      2.012      4.296
REMARK INTER + INTRA:         -12.467
REMARK INTER:                 -10.861
REMARK INTRA:                  -1.607
REMARK UNBOUND:                -1.503
REMARK SMILES COc1c(O[C@@H]2O[C@H](C(=O)[O-])[C@H](O)[C@@H](O)[C@@H]2O)cc(O)c2c(=O)cc(-c3ccccc3)oc12
REMARK SMILES IDX 5 1 6 2 8 3 12 4 7 5 14 6 16 7 9 8 10 9 11 10 13 11 15 13
REMARK SMILES IDX 17 15 4 17 3 18 18 19 33 20 19 21 21 22 32 23 22 24 25 25
REMARK SMILES IDX 24 26 23 27 2 28 1 29 20 30 26 32 27 33 31 34 28 35 30 36
REMARK SMILES IDX 29 37
REMARK H PARENT 13 12 15 14 17 16 20 31
REMARK Flexibility Score: inf
ROOT
ATOM      1  O   UNL     1      -2.145 -22.688  46.919  1.00  0.00    -0.458 OA
ENDROOT
BRANCH   1   2
ATOM      2  C   UNL     1      -2.871 -23.920  46.858  1.00  0.00     0.339 C 
ATOM      3  C   UNL     1      -5.003 -22.999  47.388  1.00  0.00     0.199 C 
ATOM      4  C   UNL     1      -4.989 -23.653  48.797  1.00  0.00     0.180 C 
ATOM      5  O   UNL     1      -4.216 -23.716  46.443  1.00  0.00    -0.328 OA
ATOM      6  C   UNL     1      -3.559 -23.904  49.283  1.00  0.00     0.181 C 
ATOM      7  C   UNL     1      -2.783 -24.665  48.203  1.00  0.00     0.214 C 
BRANCH   3   8
ATOM      8  C   UNL     1      -4.705 -21.518  47.353  1.00  0.00     0.073 C 
ATOM      9  O   UNL     1      -4.411 -20.881  48.399  1.00  0.00    -0.547 OA
ATOM     10  O   UNL     1      -4.727 -20.849  46.136  1.00  0.00    -0.547 OA
ENDBRANCH   3   8
BRANCH   4  11
ATOM     11  O   UNL     1      -5.676 -22.857  49.729  1.00  0.00    -0.387 OA
ATOM     12  H   UNL     1      -5.844 -21.983  49.291  1.00  0.00     0.211 HD
ENDBRANCH   4  11
BRANCH   6  13
ATOM     13  O   UNL     1      -3.603 -24.663  50.466  1.00  0.00    -0.387 OA
ATOM     14  H   UNL     1      -3.394 -24.045  51.214  1.00  0.00     0.211 HD
ENDBRANCH   6  13
BRANCH   7  15
ATOM     15  O   UNL     1      -1.441 -24.798  48.594  1.00  0.00    -0.384 OA
ATOM     16  H   UNL     1      -0.900 -24.278  47.944  1.00  0.00     0.211 HD
ENDBRANCH   7  15
ENDBRANCH   1   2
BRANCH   1  17
ATOM     17  C   UNL     1      -1.017 -22.369  46.145  1.00  0.00     0.172 A 
ATOM     18  C   UNL     1       0.220 -22.266  46.798  1.00  0.00     0.205 A 
ATOM     19  C   UNL     1      -1.101 -22.147  44.761  1.00  0.00     0.097 A 
ATOM     20  C   UNL     1       1.380 -21.932  46.055  1.00  0.00     0.188 A 
ATOM     21  C   UNL     1       0.034 -21.816  44.017  1.00  0.00     0.134 A 
ATOM     22  C   UNL     1       1.286 -21.703  44.658  1.00  0.00     0.111 A 
ATOM     23  O   UNL     1       2.560 -21.822  46.663  1.00  0.00    -0.452 OA
ATOM     24  C   UNL     1       2.467 -21.367  43.963  1.00  0.00     0.197 A 
ATOM     25  C   UNL     1       3.688 -21.494  46.038  1.00  0.00     0.138 A 
ATOM     26  C   UNL     1       3.670 -21.262  44.656  1.00  0.00     0.100 A 
ATOM     27  O   UNL     1       2.462 -21.158  42.719  1.00  0.00    -0.289 OA
BRANCH  18  28
ATOM     28  O   UNL     1       0.219 -22.499  48.187  1.00  0.00    -0.490 OA
ATOM     29  C   UNL     1       0.266 -21.513  49.211  1.00  0.00     0.278 C 
ENDBRANCH  18  28
BRANCH  21  30
ATOM     30  O   UNL     1      -0.093 -21.600  42.643  1.00  0.00    -0.507 OA
ATOM     31  H   UNL     1       0.340 -20.806  42.185  1.00  0.00     0.293 HD
ENDBRANCH  21  30
BRANCH  25  32
ATOM     32  C   UNL     1       4.942 -21.390  46.823  1.00  0.00     0.017 A 
ATOM     33  C   UNL     1       6.074 -22.168  46.506  1.00  0.00     0.012 A 
ATOM     34  C   UNL     1       5.021 -20.482  47.893  1.00  0.00     0.012 A 
ATOM     35  C   UNL     1       7.249 -22.045  47.254  1.00  0.00     0.001 A 
ATOM     36  C   UNL     1       6.199 -20.362  48.637  1.00  0.00     0.001 A 
ATOM     37  C   UNL     1       7.311 -21.144  48.319  1.00  0.00     0.000 A 
ENDBRANCH  25  32
ENDBRANCH   1  17
TORSDOF 9
ENDMDL
MODEL 8
REMARK VINA RESULT:    -7.580      1.406      2.079
REMARK INTER + INTRA:         -12.185
REMARK INTER:                 -10.917
REMARK INTRA:                  -1.268
REMARK UNBOUND:                -1.503
REMARK SMILES COc1c(O[C@@H]2O[C@H](C(=O)[O-])[C@H](O)[C@@H](O)[C@@H]2O)cc(O)c2c(=O)cc(-c3ccccc3)oc12
REMARK SMILES IDX 5 1 6 2 8 3 12 4 7 5 14 6 16 7 9 8 10 9 11 10 13 11 15 13
REMARK SMILES IDX 17 15 4 17 3 18 18 19 33 20 19 21 21 22 32 23 22 24 25 25
REMARK SMILES IDX 24 26 23 27 2 28 1 29 20 30 26 32 27 33 31 34 28 35 30 36
REMARK SMILES IDX 29 37
REMARK H PARENT 13 12 15 14 17 16 20 31
REMARK Flexibility Score: inf
ROOT
ATOM      1  O   UNL     1      -0.862 -22.322  48.310  1.00  0.00    -0.458 OA
ENDROOT
BRANCH   1   2
ATOM      2  C   UNL     1      -1.762 -21.573  49.133  1.00  0.00     0.339 C 
ATOM      3  C   UNL     1      -2.294 -23.346  50.631  1.00  0.00     0.199 C 
ATOM      4  C   UNL     1      -3.726 -23.476  50.046  1.00  0.00     0.180 C 
ATOM      5  O   UNL     1      -1.754 -22.038  50.477  1.00  0.00    -0.328 OA
ATOM      6  C   UNL     1      -3.788 -22.975  48.600  1.00  0.00     0.181 C 
ATOM      7  C   UNL     1      -3.176 -21.571  48.524  1.00  0.00     0.214 C 
BRANCH   3   8
ATOM      8  C   UNL     1      -1.312 -24.409  50.196  1.00  0.00     0.073 C 
ATOM      9  O   UNL     1      -0.200 -24.553  50.771  1.00  0.00    -0.547 OA
ATOM     10  O   UNL     1      -1.653 -25.266  49.157  1.00  0.00    -0.547 OA
ENDBRANCH   3   8
BRANCH   4  11
ATOM     11  O   UNL     1      -4.178 -24.804  50.108  1.00  0.00    -0.387 OA
ATOM     12  H   UNL     1      -3.445 -25.338  50.510  1.00  0.00     0.211 HD
ENDBRANCH   4  11
BRANCH   6  13
ATOM     13  O   UNL     1      -5.130 -22.936  48.184  1.00  0.00    -0.387 OA
ATOM     14  H   UNL     1      -5.681 -22.800  48.998  1.00  0.00     0.211 HD
ENDBRANCH   6  13
BRANCH   7  15
ATOM     15  O   UNL     1      -3.125 -21.153  47.185  1.00  0.00    -0.384 OA
ATOM     16  H   UNL     1      -3.835 -21.651  46.701  1.00  0.00     0.211 HD
ENDBRANCH   7  15
ENDBRANCH   1   2
BRANCH   1  17
ATOM     17  C   UNL     1       0.507 -22.052  48.144  1.00  0.00     0.172 A 
ATOM     18  C   UNL     1       0.996 -21.924  46.837  1.00  0.00     0.205 A 
ATOM     19  C   UNL     1       1.378 -21.920  49.237  1.00  0.00     0.097 A 
ATOM     20  C   UNL     1       2.375 -21.666  46.626  1.00  0.00     0.188 A 
ATOM     21  C   UNL     1       2.738 -21.666  49.044  1.00  0.00     0.134 A 
ATOM     22  C   UNL     1       3.251 -21.539  47.735  1.00  0.00     0.111 A 
ATOM     23  O   UNL     1       2.856 -21.549  45.390  1.00  0.00    -0.452 OA
ATOM     24  C   UNL     1       4.614 -21.288  47.475  1.00  0.00     0.197 A 
ATOM     25  C   UNL     1       4.138 -21.326  45.112  1.00  0.00     0.138 A 
ATOM     26  C   UNL     1       5.057 -21.183  46.159  1.00  0.00     0.100 A 
ATOM     27  O   UNL     1       5.449 -21.155  48.410  1.00  0.00    -0.289 OA
BRANCH  18  28
ATOM     28  O   UNL     1       0.059 -22.075  45.796  1.00  0.00    -0.490 OA
ATOM     29  C   UNL     1      -0.415 -21.052  44.929  1.00  0.00     0.278 C 
ENDBRANCH  18  28
BRANCH  21  30
ATOM     30  O   UNL     1       3.572 -21.545  50.157  1.00  0.00    -0.507 OA
ATOM     31  H   UNL     1       3.430 -20.825  50.856  1.00  0.00     0.293 HD
ENDBRANCH  21  30
BRANCH  25  32
ATOM     32  C   UNL     1       4.560 -21.227  43.693  1.00  0.00     0.017 A 
ATOM     33  C   UNL     1       5.172 -22.310  43.031  1.00  0.00     0.012 A 
ATOM     34  C   UNL     1       4.326 -20.039  42.978  1.00  0.00     0.012 A 
ATOM     35  C   UNL     1       5.551 -22.197  41.689  1.00  0.00     0.001 A 
ATOM     36  C   UNL     1       4.706 -19.931  41.637  1.00  0.00     0.001 A 
ATOM     37  C   UNL     1       5.320 -21.008  40.994  1.00  0.00     0.000 A 
ENDBRANCH  25  32
ENDBRANCH   1  17
TORSDOF 9
ENDMDL
MODEL 9
REMARK VINA RESULT:    -7.545      4.383      7.584
REMARK INTER + INTRA:         -12.136
REMARK INTER:                 -11.165
REMARK INTRA:                  -0.971
REMARK UNBOUND:                -1.503
REMARK SMILES COc1c(O[C@@H]2O[C@H](C(=O)[O-])[C@H](O)[C@@H](O)[C@@H]2O)cc(O)c2c(=O)cc(-c3ccccc3)oc12
REMARK SMILES IDX 5 1 6 2 8 3 12 4 7 5 14 6 16 7 9 8 10 9 11 10 13 11 15 13
REMARK SMILES IDX 17 15 4 17 3 18 18 19 33 20 19 21 21 22 32 23 22 24 25 25
REMARK SMILES IDX 24 26 23 27 2 28 1 29 20 30 26 32 27 33 31 34 28 35 30 36
REMARK SMILES IDX 29 37
REMARK H PARENT 13 12 15 14 17 16 20 31
REMARK Flexibility Score: inf
ROOT
ATOM      1  O   UNL     1      -3.324 -22.054  47.554  1.00  0.00    -0.458 OA
ENDROOT
BRANCH   1   2
ATOM      2  C   UNL     1      -4.068 -23.267  47.707  1.00  0.00     0.339 C 
ATOM      3  C   UNL     1      -4.038 -23.299  50.088  1.00  0.00     0.199 C 
ATOM      4  C   UNL     1      -3.044 -24.492  50.108  1.00  0.00     0.180 C 
ATOM      5  O   UNL     1      -4.832 -23.266  48.907  1.00  0.00    -0.328 OA
ATOM      6  C   UNL     1      -2.205 -24.542  48.828  1.00  0.00     0.181 C 
ATOM      7  C   UNL     1      -3.135 -24.488  47.611  1.00  0.00     0.214 C 
BRANCH   3   8
ATOM      8  C   UNL     1      -3.441 -21.946  50.398  1.00  0.00     0.073 C 
ATOM      9  O   UNL     1      -2.208 -21.803  50.609  1.00  0.00    -0.547 OA
ATOM     10  O   UNL     1      -4.266 -20.828  50.421  1.00  0.00    -0.547 OA
ENDBRANCH   3   8
BRANCH   4  11
ATOM     11  O   UNL     1      -2.198 -24.425  51.228  1.00  0.00    -0.387 OA
ATOM     12  H   UNL     1      -2.056 -23.462  51.423  1.00  0.00     0.211 HD
ENDBRANCH   4  11
BRANCH   6  13
ATOM     13  O   UNL     1      -1.463 -25.736  48.812  1.00  0.00    -0.387 OA
ATOM     14  H   UNL     1      -1.936 -26.362  48.203  1.00  0.00     0.211 HD
ENDBRANCH   6  13
BRANCH   7  15
ATOM     15  O   UNL     1      -2.368 -24.418  46.437  1.00  0.00    -0.384 OA
ATOM     16  H   UNL     1      -2.428 -23.482  46.110  1.00  0.00     0.211 HD
ENDBRANCH   7  15
ENDBRANCH   1   2
BRANCH   1  17
ATOM     17  C   UNL     1      -3.221 -21.306  46.369  1.00  0.00     0.172 A 
ATOM     18  C   UNL     1      -4.391 -20.737  45.848  1.00  0.00     0.205 A 
ATOM     19  C   UNL     1      -1.997 -21.127  45.705  1.00  0.00     0.097 A 
ATOM     20  C   UNL     1      -4.333 -19.987  44.646  1.00  0.00     0.188 A 
ATOM     21  C   UNL     1      -1.924 -20.392  44.520  1.00  0.00     0.134 A 
ATOM     22  C   UNL     1      -3.093 -19.816  43.977  1.00  0.00     0.111 A 
ATOM     23  O   UNL     1      -5.437 -19.448  44.135  1.00  0.00    -0.452 OA
ATOM     24  C   UNL     1      -3.085 -19.067  42.782  1.00  0.00     0.197 A 
ATOM     25  C   UNL     1      -5.465 -18.748  43.003  1.00  0.00     0.138 A 
ATOM     26  C   UNL     1      -4.275 -18.533  42.295  1.00  0.00     0.100 A 
ATOM     27  O   UNL     1      -2.020 -18.865  42.138  1.00  0.00    -0.289 OA
BRANCH  18  28
ATOM     28  O   UNL     1      -5.578 -20.966  46.571  1.00  0.00    -0.490 OA
ATOM     29  C   UNL     1      -6.198 -20.072  47.487  1.00  0.00     0.278 C 
ENDBRANCH  18  28
BRANCH  21  30
ATOM     30  O   UNL     1      -0.688 -20.240  43.887  1.00  0.00    -0.507 OA
ATOM     31  H   UNL     1       0.186 -20.379  44.382  1.00  0.00     0.293 HD
ENDBRANCH  21  30
BRANCH  25  32
ATOM     32  C   UNL     1      -6.759 -18.204  42.524  1.00  0.00     0.017 A 
ATOM     33  C   UNL     1      -6.823 -17.014  41.771  1.00  0.00     0.012 A 
ATOM     34  C   UNL     1      -7.951 -18.896  42.801  1.00  0.00     0.012 A 
ATOM     35  C   UNL     1      -8.055 -16.527  41.321  1.00  0.00     0.001 A 
ATOM     36  C   UNL     1      -9.180 -18.406  42.348  1.00  0.00     0.001 A 
ATOM     37  C   UNL     1      -9.231 -17.221  41.610  1.00  0.00     0.000 A 
ENDBRANCH  25  32
ENDBRANCH   1  17
TORSDOF 9
ENDMDL
