MODEL 1
REMARK VINA RESULT:    -0.228      0.000      0.000
REMARK INTER + INTRA:          -2.920
REMARK INTER:                  -0.575
REMARK INTRA:                  -2.346
REMARK UNBOUND:                -2.346
REMARK SMILES CCCCCCCCCCCCCCCCCCCCCCCCCCCC(=O)[O-]
REMARK SMILES IDX 15 1 16 2 17 3 18 4 19 5 20 6 21 7 22 8 23 9 24 10 25 11
REMARK SMILES IDX 26 12 27 13 28 14 29 15 30 16 14 17 13 18 12 19 11 20 10 21
REMARK SMILES IDX 9 22 8 23 7 24 6 25 5 26 4 27 3 28 2 29 1 30
REMARK H PARENT
REMARK Flexibility Score: inf
ROOT
ATOM      1  C   UNL     1      30.878  -0.433  42.067  1.00  0.00     0.000 C 
ENDROOT
BRANCH   1   2
ATOM      2  C   UNL     1      29.830  -1.541  42.256  1.00  0.00     0.000 C 
BRANCH   2   3
ATOM      3  C   UNL     1      28.407  -0.963  42.250  1.00  0.00     0.000 C 
BRANCH   3   4
ATOM      4  C   UNL     1      27.571  -1.425  43.457  1.00  0.00     0.000 C 
BRANCH   4   5
ATOM      5  C   UNL     1      27.521  -0.429  44.635  1.00  0.00     0.000 C 
BRANCH   5   6
ATOM      6  C   UNL     1      28.116  -0.949  45.959  1.00  0.00     0.000 C 
BRANCH   6   7
ATOM      7  C   UNL     1      29.521  -0.415  46.292  1.00  0.00     0.000 C 
BRANCH   7   8
ATOM      8  C   UNL     1      30.504  -1.530  46.683  1.00  0.00     0.000 C 
BRANCH   8   9
ATOM      9  C   UNL     1      31.117  -2.181  45.438  1.00  0.00     0.000 C 
BRANCH   9  10
ATOM     10  C   UNL     1      30.672  -3.643  45.305  1.00  0.00     0.000 C 
BRANCH  10  11
ATOM     11  C   UNL     1      29.185  -3.735  44.933  1.00  0.00     0.000 C 
BRANCH  11  12
ATOM     12  C   UNL     1      28.363  -4.559  45.943  1.00  0.00     0.006 C 
BRANCH  12  13
ATOM     13  C   UNL     1      27.302  -3.739  46.697  1.00  0.00     0.053 C 
BRANCH  13  14
ATOM     14  C   UNL     1      27.068  -4.242  48.088  1.00  0.00     0.041 C 
ATOM     15  O   UNL     1      27.369  -3.527  49.079  1.00  0.00    -0.550 OA
ATOM     16  O   UNL     1      26.502  -5.494  48.291  1.00  0.00    -0.550 OA
ENDBRANCH  13  14
ENDBRANCH  12  13
ENDBRANCH  11  12
ENDBRANCH  10  11
ENDBRANCH   9  10
ENDBRANCH   8   9
ENDBRANCH   7   8
ENDBRANCH   6   7
ENDBRANCH   5   6
ENDBRANCH   4   5
ENDBRANCH   3   4
ENDBRANCH   2   3
ENDBRANCH   1   2
BRANCH   1  17
ATOM     17  C   UNL     1      32.303  -0.899  42.404  1.00  0.00     0.000 C 
BRANCH  17  18
ATOM     18  C   UNL     1      33.010   0.028  43.407  1.00  0.00     0.000 C 
BRANCH  18  19
ATOM     19  C   UNL     1      34.000   0.991  42.731  1.00  0.00     0.000 C 
BRANCH  19  20
ATOM     20  C   UNL     1      35.073   0.283  41.876  1.00  0.00     0.000 C 
BRANCH  20  21
ATOM     21  C   UNL     1      35.882  -0.746  42.688  1.00  0.00     0.000 C 
BRANCH  21  22
ATOM     22  C   UNL     1      37.398  -0.602  42.480  1.00  0.00    -0.000 C 
BRANCH  22  23
ATOM     23  C   UNL     1      38.058  -1.909  42.009  1.00  0.00    -0.000 C 
BRANCH  23  24
ATOM     24  C   UNL     1      38.855  -2.598  43.129  1.00  0.00    -0.000 C 
BRANCH  24  25
ATOM     25  C   UNL     1      38.438  -4.067  43.326  1.00  0.00    -0.000 C 
BRANCH  25  26
ATOM     26  C   UNL     1      37.037  -4.211  43.941  1.00  0.00    -0.000 C 
BRANCH  26  27
ATOM     27  C   UNL     1      35.883  -4.250  42.918  1.00  0.00    -0.000 C 
BRANCH  27  28
ATOM     28  C   UNL     1      34.593  -3.556  43.405  1.00  0.00    -0.000 C 
BRANCH  28  29
ATOM     29  C   UNL     1      34.003  -4.230  44.652  1.00  0.00    -0.003 C 
ATOM     30  C   UNL     1      33.698  -5.702  44.393  1.00  0.00     0.004 C 
ENDBRANCH  28  29
ENDBRANCH  27  28
ENDBRANCH  26  27
ENDBRANCH  25  26
ENDBRANCH  24  25
ENDBRANCH  23  24
ENDBRANCH  22  23
ENDBRANCH  21  22
ENDBRANCH  20  21
ENDBRANCH  19  20
ENDBRANCH  18  19
ENDBRANCH  17  18
ENDBRANCH   1  17
TORSDOF 26
ENDMDL
MODEL 2
REMARK VINA RESULT:     0.125      5.686      8.102
REMARK INTER + INTRA:          -2.030
REMARK INTER:                  -0.710
REMARK INTRA:                  -1.319
REMARK UNBOUND:                -2.346
REMARK SMILES CCCCCCCCCCCCCCCCCCCCCCCCCCCC(=O)[O-]
REMARK SMILES IDX 15 1 16 2 17 3 18 4 19 5 20 6 21 7 22 8 23 9 24 10 25 11
REMARK SMILES IDX 26 12 27 13 28 14 29 15 30 16 14 17 13 18 12 19 11 20 10 21
REMARK SMILES IDX 9 22 8 23 7 24 6 25 5 26 4 27 3 28 2 29 1 30
REMARK H PARENT
REMARK Flexibility Score: inf
ROOT
ATOM      1  C   UNL     1      25.354  -3.091  46.781  1.00  0.00     0.000 C 
ENDROOT
BRANCH   1   2
ATOM      2  C   UNL     1      24.055  -3.756  47.262  1.00  0.00     0.000 C 
BRANCH   2   3
ATOM      3  C   UNL     1      22.968  -3.693  46.177  1.00  0.00     0.000 C 
BRANCH   3   4
ATOM      4  C   UNL     1      21.544  -3.700  46.760  1.00  0.00     0.000 C 
BRANCH   4   5
ATOM      5  C   UNL     1      20.412  -3.588  45.717  1.00  0.00     0.000 C 
BRANCH   5   6
ATOM      6  C   UNL     1      20.876  -3.543  44.247  1.00  0.00     0.000 C 
BRANCH   6   7
ATOM      7  C   UNL     1      20.132  -4.504  43.303  1.00  0.00     0.000 C 
BRANCH   7   8
ATOM      8  C   UNL     1      20.880  -5.830  43.094  1.00  0.00     0.000 C 
BRANCH   8   9
ATOM      9  C   UNL     1      19.970  -6.875  42.437  1.00  0.00     0.000 C 
BRANCH   9  10
ATOM     10  C   UNL     1      19.975  -8.187  43.232  1.00  0.00     0.000 C 
BRANCH  10  11
ATOM     11  C   UNL     1      21.262  -8.983  42.974  1.00  0.00     0.000 C 
BRANCH  11  12
ATOM     12  C   UNL     1      21.660  -9.882  44.161  1.00  0.00     0.006 C 
BRANCH  12  13
ATOM     13  C   UNL     1      20.464 -10.525  44.883  1.00  0.00     0.053 C 
BRANCH  13  14
ATOM     14  C   UNL     1      20.878 -11.610  45.830  1.00  0.00     0.041 C 
ATOM     15  O   UNL     1      22.057 -12.049  45.812  1.00  0.00    -0.550 OA
ATOM     16  O   UNL     1      19.967 -12.125  46.743  1.00  0.00    -0.550 OA
ENDBRANCH  13  14
ENDBRANCH  12  13
ENDBRANCH  11  12
ENDBRANCH  10  11
ENDBRANCH   9  10
ENDBRANCH   8   9
ENDBRANCH   7   8
ENDBRANCH   6   7
ENDBRANCH   5   6
ENDBRANCH   4   5
ENDBRANCH   3   4
ENDBRANCH   2   3
ENDBRANCH   1   2
BRANCH   1  17
ATOM     17  C   UNL     1      26.578  -3.511  47.610  1.00  0.00     0.000 C 
BRANCH  17  18
ATOM     18  C   UNL     1      27.879  -3.512  46.791  1.00  0.00     0.000 C 
BRANCH  18  19
ATOM     19  C   UNL     1      27.993  -2.297  45.854  1.00  0.00     0.000 C 
BRANCH  19  20
ATOM     20  C   UNL     1      28.674  -2.613  44.504  1.00  0.00     0.000 C 
BRANCH  20  21
ATOM     21  C   UNL     1      29.704  -1.540  44.104  1.00  0.00     0.000 C 
BRANCH  21  22
ATOM     22  C   UNL     1      29.837  -1.392  42.580  1.00  0.00    -0.000 C 
BRANCH  22  23
ATOM     23  C   UNL     1      31.012  -0.484  42.174  1.00  0.00    -0.000 C 
BRANCH  23  24
ATOM     24  C   UNL     1      32.289  -0.790  42.974  1.00  0.00    -0.000 C 
BRANCH  24  25
ATOM     25  C   UNL     1      33.331   0.338  42.864  1.00  0.00    -0.000 C 
BRANCH  25  26
ATOM     26  C   UNL     1      34.760  -0.191  42.654  1.00  0.00    -0.000 C 
BRANCH  26  27
ATOM     27  C   UNL     1      34.907  -1.721  42.777  1.00  0.00    -0.000 C 
BRANCH  27  28
ATOM     28  C   UNL     1      36.363  -2.195  42.968  1.00  0.00    -0.000 C 
BRANCH  28  29
ATOM     29  C   UNL     1      36.445  -3.610  43.557  1.00  0.00    -0.003 C 
ATOM     30  C   UNL     1      35.055  -4.174  43.835  1.00  0.00     0.004 C 
ENDBRANCH  28  29
ENDBRANCH  27  28
ENDBRANCH  26  27
ENDBRANCH  25  26
ENDBRANCH  24  25
ENDBRANCH  23  24
ENDBRANCH  22  23
ENDBRANCH  21  22
ENDBRANCH  20  21
ENDBRANCH  19  20
ENDBRANCH  18  19
ENDBRANCH  17  18
ENDBRANCH   1  17
TORSDOF 26
ENDMDL
MODEL 3
REMARK VINA RESULT:     0.197      4.886     10.784
REMARK INTER + INTRA:          -1.848
REMARK INTER:                  -0.526
REMARK INTRA:                  -1.322
REMARK UNBOUND:                -2.346
REMARK SMILES CCCCCCCCCCCCCCCCCCCCCCCCCCCC(=O)[O-]
REMARK SMILES IDX 15 1 16 2 17 3 18 4 19 5 20 6 21 7 22 8 23 9 24 10 25 11
REMARK SMILES IDX 26 12 27 13 28 14 29 15 30 16 14 17 13 18 12 19 11 20 10 21
REMARK SMILES IDX 9 22 8 23 7 24 6 25 5 26 4 27 3 28 2 29 1 30
REMARK H PARENT
REMARK Flexibility Score: inf
ROOT
ATOM      1  C   UNL     1      27.698  -1.835  45.887  1.00  0.00     0.000 C 
ENDROOT
BRANCH   1   2
ATOM      2  C   UNL     1      28.442  -1.998  44.553  1.00  0.00     0.000 C 
BRANCH   2   3
ATOM      3  C   UNL     1      29.588  -3.012  44.680  1.00  0.00     0.000 C 
BRANCH   3   4
ATOM      4  C   UNL     1      30.869  -2.393  45.267  1.00  0.00     0.000 C 
BRANCH   4   5
ATOM      5  C   UNL     1      31.292  -1.049  44.638  1.00  0.00     0.000 C 
BRANCH   5   6
ATOM      6  C   UNL     1      31.566  -1.092  43.121  1.00  0.00     0.000 C 
BRANCH   6   7
ATOM      7  C   UNL     1      32.635  -0.100  42.628  1.00  0.00     0.000 C 
BRANCH   7   8
ATOM      8  C   UNL     1      33.995  -0.769  42.377  1.00  0.00     0.000 C 
BRANCH   8   9
ATOM      9  C   UNL     1      35.139   0.093  42.927  1.00  0.00     0.000 C 
BRANCH   9  10
ATOM     10  C   UNL     1      36.503  -0.490  42.538  1.00  0.00     0.000 C 
BRANCH  10  11
ATOM     11  C   UNL     1      37.080  -1.349  43.673  1.00  0.00     0.000 C 
BRANCH  11  12
ATOM     12  C   UNL     1      37.804  -2.610  43.163  1.00  0.00     0.006 C 
BRANCH  12  13
ATOM     13  C   UNL     1      37.143  -3.927  43.602  1.00  0.00     0.053 C 
BRANCH  13  14
ATOM     14  C   UNL     1      35.716  -4.031  43.158  1.00  0.00     0.041 C 
ATOM     15  O   UNL     1      35.408  -3.809  41.958  1.00  0.00    -0.550 OA
ATOM     16  O   UNL     1      34.727  -4.389  44.065  1.00  0.00    -0.550 OA
ENDBRANCH  13  14
ENDBRANCH  12  13
ENDBRANCH  11  12
ENDBRANCH  10  11
ENDBRANCH   9  10
ENDBRANCH   8   9
ENDBRANCH   7   8
ENDBRANCH   6   7
ENDBRANCH   5   6
ENDBRANCH   4   5
ENDBRANCH   3   4
ENDBRANCH   2   3
ENDBRANCH   1   2
BRANCH   1  17
ATOM     17  C   UNL     1      27.969  -2.992  46.863  1.00  0.00     0.000 C 
BRANCH  17  18
ATOM     18  C   UNL     1      26.686  -3.530  47.517  1.00  0.00     0.000 C 
BRANCH  18  19
ATOM     19  C   UNL     1      26.939  -4.155  48.900  1.00  0.00     0.000 C 
BRANCH  19  20
ATOM     20  C   UNL     1      26.514  -3.252  50.078  1.00  0.00     0.000 C 
BRANCH  20  21
ATOM     21  C   UNL     1      27.219  -3.636  51.393  1.00  0.00     0.000 C 
BRANCH  21  22
ATOM     22  C   UNL     1      26.275  -3.585  52.605  1.00  0.00    -0.000 C 
BRANCH  22  23
ATOM     23  C   UNL     1      26.909  -4.179  53.874  1.00  0.00    -0.000 C 
BRANCH  23  24
ATOM     24  C   UNL     1      27.003  -3.153  55.015  1.00  0.00    -0.000 C 
BRANCH  24  25
ATOM     25  C   UNL     1      27.155  -1.712  54.495  1.00  0.00    -0.000 C 
BRANCH  25  26
ATOM     26  C   UNL     1      26.643  -0.661  55.494  1.00  0.00    -0.000 C 
BRANCH  26  27
ATOM     27  C   UNL     1      25.772   0.449  54.872  1.00  0.00    -0.000 C 
BRANCH  27  28
ATOM     28  C   UNL     1      26.429   1.156  53.666  1.00  0.00    -0.000 C 
BRANCH  28  29
ATOM     29  C   UNL     1      26.502   2.678  53.850  1.00  0.00    -0.003 C 
ATOM     30  C   UNL     1      27.052   3.360  52.602  1.00  0.00     0.004 C 
ENDBRANCH  28  29
ENDBRANCH  27  28
ENDBRANCH  26  27
ENDBRANCH  25  26
ENDBRANCH  24  25
ENDBRANCH  23  24
ENDBRANCH  22  23
ENDBRANCH  21  22
ENDBRANCH  20  21
ENDBRANCH  19  20
ENDBRANCH  18  19
ENDBRANCH  17  18
ENDBRANCH   1  17
TORSDOF 26
ENDMDL
MODEL 4
REMARK VINA RESULT:     0.302      6.871     12.014
REMARK INTER + INTRA:          -1.584
REMARK INTER:                   0.011
REMARK INTRA:                  -1.594
REMARK UNBOUND:                -2.346
REMARK SMILES CCCCCCCCCCCCCCCCCCCCCCCCCCCC(=O)[O-]
REMARK SMILES IDX 15 1 16 2 17 3 18 4 19 5 20 6 21 7 22 8 23 9 24 10 25 11
REMARK SMILES IDX 26 12 27 13 28 14 29 15 30 16 14 17 13 18 12 19 11 20 10 21
REMARK SMILES IDX 9 22 8 23 7 24 6 25 5 26 4 27 3 28 2 29 1 30
REMARK H PARENT
REMARK Flexibility Score: inf
ROOT
ATOM      1  C   UNL     1      22.393  -4.219  46.349  1.00  0.00     0.000 C 
ENDROOT
BRANCH   1   2
ATOM      2  C   UNL     1      23.419  -3.748  47.392  1.00  0.00     0.000 C 
BRANCH   2   3
ATOM      3  C   UNL     1      24.749  -3.365  46.725  1.00  0.00     0.000 C 
BRANCH   3   4
ATOM      4  C   UNL     1      25.973  -3.732  47.583  1.00  0.00     0.000 C 
BRANCH   4   5
ATOM      5  C   UNL     1      27.284  -3.024  47.184  1.00  0.00     0.000 C 
BRANCH   5   6
ATOM      6  C   UNL     1      27.107  -1.700  46.413  1.00  0.00     0.000 C 
BRANCH   6   7
ATOM      7  C   UNL     1      28.271  -1.336  45.473  1.00  0.00     0.000 C 
BRANCH   7   8
ATOM      8  C   UNL     1      29.647  -1.650  46.082  1.00  0.00     0.000 C 
BRANCH   8   9
ATOM      9  C   UNL     1      30.517  -2.435  45.092  1.00  0.00     0.000 C 
BRANCH   9  10
ATOM     10  C   UNL     1      31.501  -1.508  44.369  1.00  0.00     0.000 C 
BRANCH  10  11
ATOM     11  C   UNL     1      30.961  -1.100  42.990  1.00  0.00     0.000 C 
BRANCH  11  12
ATOM     12  C   UNL     1      32.012  -0.378  42.124  1.00  0.00     0.006 C 
BRANCH  12  13
ATOM     13  C   UNL     1      33.113   0.324  42.937  1.00  0.00     0.053 C 
BRANCH  13  14
ATOM     14  C   UNL     1      34.488  -0.141  42.564  1.00  0.00     0.041 C 
ATOM     15  O   UNL     1      35.407   0.696  42.366  1.00  0.00    -0.550 OA
ATOM     16  O   UNL     1      34.758  -1.498  42.450  1.00  0.00    -0.550 OA
ENDBRANCH  13  14
ENDBRANCH  12  13
ENDBRANCH  11  12
ENDBRANCH  10  11
ENDBRANCH   9  10
ENDBRANCH   8   9
ENDBRANCH   7   8
ENDBRANCH   6   7
ENDBRANCH   5   6
ENDBRANCH   4   5
ENDBRANCH   3   4
ENDBRANCH   2   3
ENDBRANCH   1   2
BRANCH   1  17
ATOM     17  C   UNL     1      21.100  -3.387  46.371  1.00  0.00     0.000 C 
BRANCH  17  18
ATOM     18  C   UNL     1      20.472  -3.228  44.976  1.00  0.00     0.000 C 
BRANCH  18  19
ATOM     19  C   UNL     1      20.602  -4.497  44.117  1.00  0.00     0.000 C 
BRANCH  19  20
ATOM     20  C   UNL     1      21.288  -4.258  42.754  1.00  0.00     0.000 C 
BRANCH  20  21
ATOM     21  C   UNL     1      22.030  -5.509  42.246  1.00  0.00     0.000 C 
BRANCH  21  22
ATOM     22  C   UNL     1      21.086  -6.698  42.008  1.00  0.00    -0.000 C 
BRANCH  22  23
ATOM     23  C   UNL     1      21.494  -7.947  42.809  1.00  0.00    -0.000 C 
BRANCH  23  24
ATOM     24  C   UNL     1      20.362  -8.453  43.718  1.00  0.00    -0.000 C 
BRANCH  24  25
ATOM     25  C   UNL     1      20.485  -9.957  44.023  1.00  0.00    -0.000 C 
BRANCH  25  26
ATOM     26  C   UNL     1      21.892 -10.356  44.497  1.00  0.00    -0.000 C 
BRANCH  26  27
ATOM     27  C   UNL     1      22.041 -11.836  44.904  1.00  0.00    -0.000 C 
BRANCH  27  28
ATOM     28  C   UNL     1      21.768 -12.829  43.754  1.00  0.00    -0.000 C 
BRANCH  28  29
ATOM     29  C   UNL     1      20.597 -13.773  44.062  1.00  0.00    -0.003 C 
ATOM     30  C   UNL     1      20.699 -14.338  45.475  1.00  0.00     0.004 C 
ENDBRANCH  28  29
ENDBRANCH  27  28
ENDBRANCH  26  27
ENDBRANCH  25  26
ENDBRANCH  24  25
ENDBRANCH  23  24
ENDBRANCH  22  23
ENDBRANCH  21  22
ENDBRANCH  20  21
ENDBRANCH  19  20
ENDBRANCH  18  19
ENDBRANCH  17  18
ENDBRANCH   1  17
TORSDOF 26
ENDMDL
MODEL 5
REMARK VINA RESULT:     0.390      6.434     11.988
REMARK INTER + INTRA:          -1.364
REMARK INTER:                  -0.001
REMARK INTRA:                  -1.363
REMARK UNBOUND:                -2.346
REMARK SMILES CCCCCCCCCCCCCCCCCCCCCCCCCCCC(=O)[O-]
REMARK SMILES IDX 15 1 16 2 17 3 18 4 19 5 20 6 21 7 22 8 23 9 24 10 25 11
REMARK SMILES IDX 26 12 27 13 28 14 29 15 30 16 14 17 13 18 12 19 11 20 10 21
REMARK SMILES IDX 9 22 8 23 7 24 6 25 5 26 4 27 3 28 2 29 1 30
REMARK H PARENT
REMARK Flexibility Score: inf
ROOT
ATOM      1  C   UNL     1      23.692  -3.718  46.589  1.00  0.00     0.000 C 
ENDROOT
BRANCH   1   2
ATOM      2  C   UNL     1      24.743  -3.704  47.710  1.00  0.00     0.000 C 
BRANCH   2   3
ATOM      3  C   UNL     1      26.166  -3.712  47.133  1.00  0.00     0.000 C 
BRANCH   3   4
ATOM      4  C   UNL     1      26.765  -2.300  47.006  1.00  0.00     0.000 C 
BRANCH   4   5
ATOM      5  C   UNL     1      27.759  -2.115  45.841  1.00  0.00     0.000 C 
BRANCH   5   6
ATOM      6  C   UNL     1      29.213  -2.532  46.145  1.00  0.00     0.000 C 
BRANCH   6   7
ATOM      7  C   UNL     1      30.219  -2.244  45.017  1.00  0.00     0.000 C 
BRANCH   7   8
ATOM      8  C   UNL     1      29.554  -1.658  43.762  1.00  0.00     0.000 C 
BRANCH   8   9
ATOM      9  C   UNL     1      30.604  -1.090  42.799  1.00  0.00     0.000 C 
BRANCH   9  10
ATOM     10  C   UNL     1      31.971  -0.971  43.484  1.00  0.00     0.000 C 
BRANCH  10  11
ATOM     11  C   UNL     1      32.930  -0.103  42.656  1.00  0.00     0.000 C 
BRANCH  11  12
ATOM     12  C   UNL     1      34.061  -0.917  41.998  1.00  0.00     0.006 C 
BRANCH  12  13
ATOM     13  C   UNL     1      35.197  -1.297  42.963  1.00  0.00     0.053 C 
BRANCH  13  14
ATOM     14  C   UNL     1      35.552  -2.750  42.891  1.00  0.00     0.041 C 
ATOM     15  O   UNL     1      35.244  -3.428  41.877  1.00  0.00    -0.550 OA
ATOM     16  O   UNL     1      36.237  -3.354  43.938  1.00  0.00    -0.550 OA
ENDBRANCH  13  14
ENDBRANCH  12  13
ENDBRANCH  11  12
ENDBRANCH  10  11
ENDBRANCH   9  10
ENDBRANCH   8   9
ENDBRANCH   7   8
ENDBRANCH   6   7
ENDBRANCH   5   6
ENDBRANCH   4   5
ENDBRANCH   3   4
ENDBRANCH   2   3
ENDBRANCH   1   2
BRANCH   1  17
ATOM     17  C   UNL     1      22.290  -4.097  47.094  1.00  0.00     0.000 C 
BRANCH  17  18
ATOM     18  C   UNL     1      21.170  -3.343  46.358  1.00  0.00     0.000 C 
BRANCH  18  19
ATOM     19  C   UNL     1      20.572  -4.152  45.194  1.00  0.00     0.000 C 
BRANCH  19  20
ATOM     20  C   UNL     1      20.731  -3.472  43.817  1.00  0.00     0.000 C 
BRANCH  20  21
ATOM     21  C   UNL     1      20.921  -4.493  42.680  1.00  0.00     0.000 C 
BRANCH  21  22
ATOM     22  C   UNL     1      19.771  -5.509  42.601  1.00  0.00    -0.000 C 
BRANCH  22  23
ATOM     23  C   UNL     1      20.230  -6.882  42.078  1.00  0.00    -0.000 C 
BRANCH  23  24
ATOM     24  C   UNL     1      21.251  -7.551  43.012  1.00  0.00    -0.000 C 
BRANCH  24  25
ATOM     25  C   UNL     1      21.333  -9.073  42.794  1.00  0.00    -0.000 C 
BRANCH  25  26
ATOM     26  C   UNL     1      20.851  -9.876  44.013  1.00  0.00    -0.000 C 
BRANCH  26  27
ATOM     27  C   UNL     1      21.954 -10.671  44.740  1.00  0.00    -0.000 C 
BRANCH  27  28
ATOM     28  C   UNL     1      21.434 -11.537  45.908  1.00  0.00    -0.000 C 
BRANCH  28  29
ATOM     29  C   UNL     1      19.986 -11.195  46.288  1.00  0.00    -0.003 C 
ATOM     30  C   UNL     1      19.643 -11.712  47.681  1.00  0.00     0.004 C 
ENDBRANCH  28  29
ENDBRANCH  27  28
ENDBRANCH  26  27
ENDBRANCH  25  26
ENDBRANCH  24  25
ENDBRANCH  23  24
ENDBRANCH  22  23
ENDBRANCH  21  22
ENDBRANCH  20  21
ENDBRANCH  19  20
ENDBRANCH  18  19
ENDBRANCH  17  18
ENDBRANCH   1  17
TORSDOF 26
ENDMDL
MODEL 6
REMARK VINA RESULT:     0.429      2.704      5.022
REMARK INTER + INTRA:          -1.264
REMARK INTER:                   0.147
REMARK INTRA:                  -1.411
REMARK UNBOUND:                -2.346
REMARK SMILES CCCCCCCCCCCCCCCCCCCCCCCCCCCC(=O)[O-]
REMARK SMILES IDX 15 1 16 2 17 3 18 4 19 5 20 6 21 7 22 8 23 9 24 10 25 11
REMARK SMILES IDX 26 12 27 13 28 14 29 15 30 16 14 17 13 18 12 19 11 20 10 21
REMARK SMILES IDX 9 22 8 23 7 24 6 25 5 26 4 27 3 28 2 29 1 30
REMARK H PARENT
REMARK Flexibility Score: inf
ROOT
ATOM      1  C   UNL     1      29.584  -3.709  45.178  1.00  0.00     0.000 C 
ENDROOT
BRANCH   1   2
ATOM      2  C   UNL     1      31.015  -3.151  45.234  1.00  0.00     0.000 C 
BRANCH   2   3
ATOM      3  C   UNL     1      31.096  -1.928  46.159  1.00  0.00     0.000 C 
BRANCH   3   4
ATOM      4  C   UNL     1      30.232  -0.752  45.669  1.00  0.00     0.000 C 
BRANCH   4   5
ATOM      5  C   UNL     1      29.010  -0.427  46.554  1.00  0.00     0.000 C 
BRANCH   5   6
ATOM      6  C   UNL     1      28.348  -1.645  47.231  1.00  0.00     0.000 C 
BRANCH   6   7
ATOM      7  C   UNL     1      26.952  -2.005  46.694  1.00  0.00     0.000 C 
BRANCH   7   8
ATOM      8  C   UNL     1      26.353  -3.245  47.377  1.00  0.00     0.000 C 
BRANCH   8   9
ATOM      9  C   UNL     1      27.273  -3.752  48.494  1.00  0.00     0.000 C 
BRANCH   9  10
ATOM     10  C   UNL     1      26.599  -3.620  49.865  1.00  0.00     0.000 C 
BRANCH  10  11
ATOM     11  C   UNL     1      27.575  -3.055  50.907  1.00  0.00     0.000 C 
BRANCH  11  12
ATOM     12  C   UNL     1      26.890  -2.707  52.243  1.00  0.00     0.006 C 
BRANCH  12  13
ATOM     13  C   UNL     1      27.667  -1.688  53.094  1.00  0.00     0.053 C 
BRANCH  13  14
ATOM     14  C   UNL     1      27.137  -1.581  54.491  1.00  0.00     0.041 C 
ATOM     15  O   UNL     1      26.319  -0.673  54.790  1.00  0.00    -0.550 OA
ATOM     16  O   UNL     1      27.534  -2.494  55.460  1.00  0.00    -0.550 OA
ENDBRANCH  13  14
ENDBRANCH  12  13
ENDBRANCH  11  12
ENDBRANCH  10  11
ENDBRANCH   9  10
ENDBRANCH   8   9
ENDBRANCH   7   8
ENDBRANCH   6   7
ENDBRANCH   5   6
ENDBRANCH   4   5
ENDBRANCH   3   4
ENDBRANCH   2   3
ENDBRANCH   1   2
BRANCH   1  17
ATOM     17  C   UNL     1      28.935  -3.540  43.795  1.00  0.00     0.000 C 
BRANCH  17  18
ATOM     18  C   UNL     1      28.237  -2.180  43.629  1.00  0.00     0.000 C 
BRANCH  18  19
ATOM     19  C   UNL     1      28.409  -1.591  42.219  1.00  0.00     0.000 C 
BRANCH  19  20
ATOM     20  C   UNL     1      29.514  -0.516  42.124  1.00  0.00     0.000 C 
BRANCH  20  21
ATOM     21  C   UNL     1      30.913  -1.131  41.934  1.00  0.00     0.000 C 
BRANCH  21  22
ATOM     22  C   UNL     1      32.034  -0.218  42.458  1.00  0.00    -0.000 C 
BRANCH  22  23
ATOM     23  C   UNL     1      33.435  -0.807  42.222  1.00  0.00    -0.000 C 
BRANCH  23  24
ATOM     24  C   UNL     1      34.554   0.177  42.600  1.00  0.00    -0.000 C 
BRANCH  24  25
ATOM     25  C   UNL     1      35.748  -0.525  43.272  1.00  0.00    -0.000 C 
BRANCH  25  26
ATOM     26  C   UNL     1      36.490  -1.478  42.321  1.00  0.00    -0.000 C 
BRANCH  26  27
ATOM     27  C   UNL     1      35.965  -2.928  42.322  1.00  0.00    -0.000 C 
BRANCH  27  28
ATOM     28  C   UNL     1      36.271  -3.702  43.622  1.00  0.00    -0.000 C 
BRANCH  28  29
ATOM     29  C   UNL     1      37.690  -4.287  43.633  1.00  0.00    -0.003 C 
ATOM     30  C   UNL     1      38.635  -3.464  42.764  1.00  0.00     0.004 C 
ENDBRANCH  28  29
ENDBRANCH  27  28
ENDBRANCH  26  27
ENDBRANCH  25  26
ENDBRANCH  24  25
ENDBRANCH  23  24
ENDBRANCH  22  23
ENDBRANCH  21  22
ENDBRANCH  20  21
ENDBRANCH  19  20
ENDBRANCH  18  19
ENDBRANCH  17  18
ENDBRANCH   1  17
TORSDOF 26
ENDMDL
MODEL 7
REMARK VINA RESULT:     0.533      4.399      6.627
REMARK INTER + INTRA:          -1.003
REMARK INTER:                  -0.431
REMARK INTRA:                  -0.572
REMARK UNBOUND:                -2.346
REMARK SMILES CCCCCCCCCCCCCCCCCCCCCCCCCCCC(=O)[O-]
REMARK SMILES IDX 15 1 16 2 17 3 18 4 19 5 20 6 21 7 22 8 23 9 24 10 25 11
REMARK SMILES IDX 26 12 27 13 28 14 29 15 30 16 14 17 13 18 12 19 11 20 10 21
REMARK SMILES IDX 9 22 8 23 7 24 6 25 5 26 4 27 3 28 2 29 1 30
REMARK H PARENT
REMARK Flexibility Score: inf
ROOT
ATOM      1  C   UNL     1      28.975  -2.266  46.313  1.00  0.00     0.000 C 
ENDROOT
BRANCH   1   2
ATOM      2  C   UNL     1      28.023  -3.472  46.266  1.00  0.00     0.000 C 
BRANCH   2   3
ATOM      3  C   UNL     1      26.847  -3.285  47.237  1.00  0.00     0.000 C 
BRANCH   3   4
ATOM      4  C   UNL     1      27.096  -3.940  48.607  1.00  0.00     0.000 C 
BRANCH   4   5
ATOM      5  C   UNL     1      26.762  -3.053  49.825  1.00  0.00     0.000 C 
BRANCH   5   6
ATOM      6  C   UNL     1      27.475  -3.442  51.136  1.00  0.00     0.000 C 
BRANCH   6   7
ATOM      7  C   UNL     1      26.770  -2.971  52.421  1.00  0.00     0.000 C 
BRANCH   7   8
ATOM      8  C   UNL     1      27.516  -1.826  53.123  1.00  0.00     0.000 C 
BRANCH   8   9
ATOM      9  C   UNL     1      27.258  -1.850  54.634  1.00  0.00     0.000 C 
BRANCH   9  10
ATOM     10  C   UNL     1      26.315  -0.714  55.049  1.00  0.00     0.000 C 
BRANCH  10  11
ATOM     11  C   UNL     1      26.435   0.481  54.093  1.00  0.00     0.000 C 
BRANCH  11  12
ATOM     12  C   UNL     1      25.898   1.792  54.698  1.00  0.00     0.006 C 
BRANCH  12  13
ATOM     13  C   UNL     1      26.627   3.052  54.203  1.00  0.00     0.053 C 
BRANCH  13  14
ATOM     14  C   UNL     1      26.997   2.970  52.753  1.00  0.00     0.041 C 
ATOM     15  O   UNL     1      26.106   3.029  51.867  1.00  0.00    -0.550 OA
ATOM     16  O   UNL     1      28.329   2.844  52.380  1.00  0.00    -0.550 OA
ENDBRANCH  13  14
ENDBRANCH  12  13
ENDBRANCH  11  12
ENDBRANCH  10  11
ENDBRANCH   9  10
ENDBRANCH   8   9
ENDBRANCH   7   8
ENDBRANCH   6   7
ENDBRANCH   5   6
ENDBRANCH   4   5
ENDBRANCH   3   4
ENDBRANCH   2   3
ENDBRANCH   1   2
BRANCH   1  17
ATOM     17  C   UNL     1      28.403  -1.030  45.600  1.00  0.00     0.000 C 
BRANCH  17  18
ATOM     18  C   UNL     1      28.460  -1.148  44.068  1.00  0.00     0.000 C 
BRANCH  18  19
ATOM     19  C   UNL     1      29.845  -1.582  43.556  1.00  0.00     0.000 C 
BRANCH  19  20
ATOM     20  C   UNL     1      30.138  -1.141  42.106  1.00  0.00     0.000 C 
BRANCH  20  21
ATOM     21  C   UNL     1      31.321  -0.158  42.022  1.00  0.00     0.000 C 
BRANCH  21  22
ATOM     22  C   UNL     1      32.420  -0.468  43.051  1.00  0.00    -0.000 C 
BRANCH  22  23
ATOM     23  C   UNL     1      33.807   0.021  42.600  1.00  0.00    -0.000 C 
BRANCH  23  24
ATOM     24  C   UNL     1      34.619  -1.084  41.906  1.00  0.00    -0.000 C 
BRANCH  24  25
ATOM     25  C   UNL     1      36.137  -0.854  42.021  1.00  0.00    -0.000 C 
BRANCH  25  26
ATOM     26  C   UNL     1      36.723  -1.391  43.337  1.00  0.00    -0.000 C 
BRANCH  26  27
ATOM     27  C   UNL     1      38.159  -1.944  43.226  1.00  0.00    -0.000 C 
BRANCH  27  28
ATOM     28  C   UNL     1      38.225  -3.421  42.780  1.00  0.00    -0.000 C 
BRANCH  28  29
ATOM     29  C   UNL     1      37.451  -4.351  43.724  1.00  0.00    -0.003 C 
ATOM     30  C   UNL     1      35.962  -4.017  43.732  1.00  0.00     0.004 C 
ENDBRANCH  28  29
ENDBRANCH  27  28
ENDBRANCH  26  27
ENDBRANCH  25  26
ENDBRANCH  24  25
ENDBRANCH  23  24
ENDBRANCH  22  23
ENDBRANCH  21  22
ENDBRANCH  20  21
ENDBRANCH  19  20
ENDBRANCH  18  19
ENDBRANCH  17  18
ENDBRANCH   1  17
TORSDOF 26
ENDMDL
MODEL 8
REMARK VINA RESULT:     0.563      5.587     11.437
REMARK INTER + INTRA:          -0.926
REMARK INTER:                   0.186
REMARK INTRA:                  -1.112
REMARK UNBOUND:                -2.346
REMARK SMILES CCCCCCCCCCCCCCCCCCCCCCCCCCCC(=O)[O-]
REMARK SMILES IDX 15 1 16 2 17 3 18 4 19 5 20 6 21 7 22 8 23 9 24 10 25 11
REMARK SMILES IDX 26 12 27 13 28 14 29 15 30 16 14 17 13 18 12 19 11 20 10 21
REMARK SMILES IDX 9 22 8 23 7 24 6 25 5 26 4 27 3 28 2 29 1 30
REMARK H PARENT
REMARK Flexibility Score: inf
ROOT
ATOM      1  C   UNL     1      26.526  -2.511  47.161  1.00  0.00     0.000 C 
ENDROOT
BRANCH   1   2
ATOM      2  C   UNL     1      27.693  -2.897  46.239  1.00  0.00     0.000 C 
BRANCH   2   3
ATOM      3  C   UNL     1      29.017  -2.309  46.749  1.00  0.00     0.000 C 
BRANCH   3   4
ATOM      4  C   UNL     1      29.632  -1.290  45.773  1.00  0.00     0.000 C 
BRANCH   4   5
ATOM      5  C   UNL     1      29.630  -1.723  44.292  1.00  0.00     0.000 C 
BRANCH   5   6
ATOM      6  C   UNL     1      30.972  -1.540  43.553  1.00  0.00     0.000 C 
BRANCH   6   7
ATOM      7  C   UNL     1      30.880  -0.764  42.226  1.00  0.00     0.000 C 
BRANCH   7   8
ATOM      8  C   UNL     1      32.069   0.184  42.009  1.00  0.00     0.000 C 
BRANCH   8   9
ATOM      9  C   UNL     1      33.280  -0.256  42.841  1.00  0.00     0.000 C 
BRANCH   9  10
ATOM     10  C   UNL     1      34.586  -0.054  42.062  1.00  0.00     0.000 C 
BRANCH  10  11
ATOM     11  C   UNL     1      35.804  -0.411  42.926  1.00  0.00     0.000 C 
BRANCH  11  12
ATOM     12  C   UNL     1      36.430  -1.767  42.549  1.00  0.00     0.006 C 
BRANCH  12  13
ATOM     13  C   UNL     1      35.424  -2.930  42.518  1.00  0.00     0.053 C 
BRANCH  13  14
ATOM     14  C   UNL     1      35.652  -3.919  43.620  1.00  0.00     0.041 C 
ATOM     15  O   UNL     1      34.693  -4.593  44.075  1.00  0.00    -0.550 OA
ATOM     16  O   UNL     1      36.929  -4.106  44.135  1.00  0.00    -0.550 OA
ENDBRANCH  13  14
ENDBRANCH  12  13
ENDBRANCH  11  12
ENDBRANCH  10  11
ENDBRANCH   9  10
ENDBRANCH   8   9
ENDBRANCH   7   8
ENDBRANCH   6   7
ENDBRANCH   5   6
ENDBRANCH   4   5
ENDBRANCH   3   4
ENDBRANCH   2   3
ENDBRANCH   1   2
BRANCH   1  17
ATOM     17  C   UNL     1      25.491  -3.638  47.314  1.00  0.00     0.000 C 
BRANCH  17  18
ATOM     18  C   UNL     1      24.252  -3.430  46.428  1.00  0.00     0.000 C 
BRANCH  18  19
ATOM     19  C   UNL     1      22.935  -3.702  47.175  1.00  0.00     0.000 C 
BRANCH  19  20
ATOM     20  C   UNL     1      21.817  -4.275  46.277  1.00  0.00     0.000 C 
BRANCH  20  21
ATOM     21  C   UNL     1      20.736  -3.227  45.949  1.00  0.00     0.000 C 
BRANCH  21  22
ATOM     22  C   UNL     1      19.939  -3.579  44.683  1.00  0.00    -0.000 C 
BRANCH  22  23
ATOM     23  C   UNL     1      20.651  -3.136  43.393  1.00  0.00    -0.000 C 
BRANCH  23  24
ATOM     24  C   UNL     1      21.545  -4.242  42.810  1.00  0.00    -0.000 C 
BRANCH  24  25
ATOM     25  C   UNL     1      20.734  -5.324  42.074  1.00  0.00    -0.000 C 
BRANCH  25  26
ATOM     26  C   UNL     1      20.135  -6.370  43.027  1.00  0.00    -0.000 C 
BRANCH  26  27
ATOM     27  C   UNL     1      21.051  -7.576  43.319  1.00  0.00    -0.000 C 
BRANCH  27  28
ATOM     28  C   UNL     1      20.564  -8.897  42.686  1.00  0.00    -0.000 C 
BRANCH  28  29
ATOM     29  C   UNL     1      20.519 -10.049  43.700  1.00  0.00    -0.003 C 
ATOM     30  C   UNL     1      21.877 -10.255  44.364  1.00  0.00     0.004 C 
ENDBRANCH  28  29
ENDBRANCH  27  28
ENDBRANCH  26  27
ENDBRANCH  25  26
ENDBRANCH  24  25
ENDBRANCH  23  24
ENDBRANCH  22  23
ENDBRANCH  21  22
ENDBRANCH  20  21
ENDBRANCH  19  20
ENDBRANCH  18  19
ENDBRANCH  17  18
ENDBRANCH   1  17
TORSDOF 26
ENDMDL
