MODEL 1
REMARK VINA RESULT:    -5.596      0.000      0.000
REMARK INTER + INTRA:          -6.544
REMARK INTER:                  -6.578
REMARK INTRA:                   0.033
REMARK UNBOUND:                 0.033
REMARK SMILES O=c1c(O)c(-c2ccc(O)c(O)c2)oc2cc(O)ccc12
REMARK SMILES IDX 5 1 3 2 2 3 1 4 21 5 15 6 14 7 16 8 17 9 19 10 20 11 6 12
REMARK SMILES IDX 7 13 8 14 9 15 13 16 11 17 10 18 12 20 4 22 18 24
REMARK H PARENT 10 19 12 21 4 23 18 25
REMARK Flexibility Score: inf
ROOT
ATOM      1  C   UNL     1     -11.466   7.046  -1.703  1.00  0.00     0.180 A 
ATOM      2  C   UNL     1     -11.949   5.763  -2.034  1.00  0.00     0.208 A 
ATOM      3  C   UNL     1     -11.993   5.385  -3.386  1.00  0.00     0.235 A 
ATOM      4  O   UNL     1     -12.431   4.247  -3.709  1.00  0.00    -0.285 OA
ATOM      5  C   UNL     1     -11.540   6.281  -4.368  1.00  0.00     0.069 A 
ATOM      6  C   UNL     1     -11.050   7.538  -3.952  1.00  0.00     0.142 A 
ATOM      7  O   UNL     1     -11.033   7.859  -2.664  1.00  0.00    -0.452 OA
ATOM      8  C   UNL     1     -10.581   8.454  -4.900  1.00  0.00     0.094 A 
ATOM      9  C   UNL     1     -10.597   8.132  -6.261  1.00  0.00     0.119 A 
ATOM     10  C   UNL     1     -11.085   6.885  -6.678  1.00  0.00     0.047 A 
ATOM     11  C   UNL     1     -11.554   5.962  -5.739  1.00  0.00     0.020 A 
ENDROOT
BRANCH   1  12
ATOM     12  C   UNL     1     -11.405   7.525  -0.303  1.00  0.00     0.025 A 
ATOM     13  C   UNL     1     -11.914   8.783   0.063  1.00  0.00     0.016 A 
ATOM     14  C   UNL     1     -11.824   9.225   1.385  1.00  0.00     0.051 A 
ATOM     15  C   UNL     1     -11.212   8.423   2.358  1.00  0.00     0.157 A 
ATOM     16  C   UNL     1     -10.773   6.735   0.671  1.00  0.00     0.062 A 
ATOM     17  C   UNL     1     -10.682   7.173   1.997  1.00  0.00     0.158 A 
BRANCH  15  18
ATOM     18  O   UNL     1     -11.126   8.865   3.677  1.00  0.00    -0.504 OA
ATOM     19  H   UNL     1     -11.736   8.501   4.400  1.00  0.00     0.293 HD
ENDBRANCH  15  18
BRANCH  17  20
ATOM     20  O   UNL     1     -10.061   6.355   2.939  1.00  0.00    -0.504 OA
ATOM     21  H   UNL     1     -10.193   6.483   3.935  1.00  0.00     0.293 HD
ENDBRANCH  17  20
ENDBRANCH   1  12
BRANCH   2  22
ATOM     22  O   UNL     1     -12.346   4.875  -1.032  1.00  0.00    -0.502 OA
ATOM     23  H   UNL     1     -13.029   4.145  -1.195  1.00  0.00     0.293 HD
ENDBRANCH   2  22
BRANCH   9  24
ATOM     24  O   UNL     1     -10.126   9.057  -7.191  1.00  0.00    -0.508 OA
ATOM     25  H   UNL     1      -9.747   8.763  -8.084  1.00  0.00     0.293 HD
ENDBRANCH   9  24
TORSDOF 5
ENDMDL
MODEL 2
REMARK VINA RESULT:    -5.388      3.864      7.436
REMARK INTER + INTRA:          -6.299
REMARK INTER:                  -6.333
REMARK INTRA:                   0.033
REMARK UNBOUND:                 0.033
REMARK SMILES O=c1c(O)c(-c2ccc(O)c(O)c2)oc2cc(O)ccc12
REMARK SMILES IDX 5 1 3 2 2 3 1 4 21 5 15 6 14 7 16 8 17 9 19 10 20 11 6 12
REMARK SMILES IDX 7 13 8 14 9 15 13 16 11 17 10 18 12 20 4 22 18 24
REMARK H PARENT 10 19 12 21 4 23 18 25
REMARK Flexibility Score: inf
ROOT
ATOM      1  C   UNL     1     -12.435   3.330  -2.816  1.00  0.00     0.180 A 
ATOM      2  C   UNL     1     -12.523   3.636  -1.441  1.00  0.00     0.208 A 
ATOM      3  C   UNL     1     -12.667   2.585  -0.522  1.00  0.00     0.235 A 
ATOM      4  O   UNL     1     -12.757   2.834   0.712  1.00  0.00    -0.285 OA
ATOM      5  C   UNL     1     -12.700   1.260  -0.988  1.00  0.00     0.069 A 
ATOM      6  C   UNL     1     -12.583   1.036  -2.376  1.00  0.00     0.142 A 
ATOM      7  O   UNL     1     -12.458   2.059  -3.213  1.00  0.00    -0.452 OA
ATOM      8  C   UNL     1     -12.602  -0.270  -2.878  1.00  0.00     0.094 A 
ATOM      9  C   UNL     1     -12.739  -1.358  -2.009  1.00  0.00     0.119 A 
ATOM     10  C   UNL     1     -12.857  -1.139  -0.629  1.00  0.00     0.047 A 
ATOM     11  C   UNL     1     -12.838   0.162  -0.118  1.00  0.00     0.020 A 
ENDROOT
BRANCH   1  12
ATOM     12  C   UNL     1     -12.301   4.382  -3.848  1.00  0.00     0.025 A 
ATOM     13  C   UNL     1     -13.125   4.399  -4.988  1.00  0.00     0.016 A 
ATOM     14  C   UNL     1     -12.965   5.388  -5.961  1.00  0.00     0.051 A 
ATOM     15  C   UNL     1     -11.971   6.366  -5.818  1.00  0.00     0.157 A 
ATOM     16  C   UNL     1     -11.293   5.352  -3.721  1.00  0.00     0.062 A 
ATOM     17  C   UNL     1     -11.130   6.345  -4.692  1.00  0.00     0.158 A 
BRANCH  15  18
ATOM     18  O   UNL     1     -11.815   7.353  -6.789  1.00  0.00    -0.504 OA
ATOM     19  H   UNL     1     -12.604   7.713  -7.313  1.00  0.00     0.293 HD
ENDBRANCH  15  18
BRANCH  17  20
ATOM     20  O   UNL     1     -10.128   7.299  -4.524  1.00  0.00    -0.504 OA
ATOM     21  H   UNL     1      -9.523   7.308  -3.711  1.00  0.00     0.293 HD
ENDBRANCH  17  20
ENDBRANCH   1  12
BRANCH   2  22
ATOM     22  O   UNL     1     -12.437   4.960  -1.004  1.00  0.00    -0.502 OA
ATOM     23  H   UNL     1     -12.705   5.741  -1.589  1.00  0.00     0.293 HD
ENDBRANCH   2  22
BRANCH   9  24
ATOM     24  O   UNL     1     -12.756  -2.651  -2.527  1.00  0.00    -0.508 OA
ATOM     25  H   UNL     1     -13.429  -3.340  -2.207  1.00  0.00     0.293 HD
ENDBRANCH   9  24
TORSDOF 5
ENDMDL
MODEL 3
REMARK VINA RESULT:    -5.266      2.695      6.201
REMARK INTER + INTRA:          -6.156
REMARK INTER:                  -5.834
REMARK INTRA:                  -0.322
REMARK UNBOUND:                 0.033
REMARK SMILES O=c1c(O)c(-c2ccc(O)c(O)c2)oc2cc(O)ccc12
REMARK SMILES IDX 5 1 3 2 2 3 1 4 21 5 15 6 14 7 16 8 17 9 19 10 20 11 6 12
REMARK SMILES IDX 7 13 8 14 9 15 13 16 11 17 10 18 12 20 4 22 18 24
REMARK H PARENT 10 19 12 21 4 23 18 25
REMARK Flexibility Score: inf
ROOT
ATOM      1  C   UNL     1     -12.301   5.565  -2.491  1.00  0.00     0.180 A 
ATOM      2  C   UNL     1     -12.405   5.688  -1.090  1.00  0.00     0.208 A 
ATOM      3  C   UNL     1     -12.655   4.536  -0.327  1.00  0.00     0.235 A 
ATOM      4  O   UNL     1     -12.762   4.621   0.927  1.00  0.00    -0.285 OA
ATOM      5  C   UNL     1     -12.776   3.294  -0.971  1.00  0.00     0.069 A 
ATOM      6  C   UNL     1     -12.636   3.252  -2.375  1.00  0.00     0.142 A 
ATOM      7  O   UNL     1     -12.408   4.366  -3.060  1.00  0.00    -0.452 OA
ATOM      8  C   UNL     1     -12.740   2.032  -3.052  1.00  0.00     0.094 A 
ATOM      9  C   UNL     1     -12.984   0.850  -2.344  1.00  0.00     0.119 A 
ATOM     10  C   UNL     1     -13.125   0.889  -0.949  1.00  0.00     0.047 A 
ATOM     11  C   UNL     1     -13.021   2.102  -0.264  1.00  0.00     0.020 A 
ENDROOT
BRANCH   1  12
ATOM     12  C   UNL     1     -12.058   6.734  -3.367  1.00  0.00     0.025 A 
ATOM     13  C   UNL     1     -13.117   7.525  -3.845  1.00  0.00     0.016 A 
ATOM     14  C   UNL     1     -12.866   8.608  -4.689  1.00  0.00     0.051 A 
ATOM     15  C   UNL     1     -11.554   8.911  -5.079  1.00  0.00     0.157 A 
ATOM     16  C   UNL     1     -10.747   7.029  -3.777  1.00  0.00     0.062 A 
ATOM     17  C   UNL     1     -10.490   8.114  -4.622  1.00  0.00     0.158 A 
BRANCH  15  18
ATOM     18  O   UNL     1     -11.305   9.995  -5.919  1.00  0.00    -0.504 OA
ATOM     19  H   UNL     1     -10.725  10.772  -5.626  1.00  0.00     0.293 HD
ENDBRANCH  15  18
BRANCH  17  20
ATOM     20  O   UNL     1      -9.175   8.385  -4.997  1.00  0.00    -0.504 OA
ATOM     21  H   UNL     1      -8.386   7.914  -4.570  1.00  0.00     0.293 HD
ENDBRANCH  17  20
ENDBRANCH   1  12
BRANCH   2  22
ATOM     22  O   UNL     1     -12.232   6.929  -0.473  1.00  0.00    -0.502 OA
ATOM     23  H   UNL     1     -12.091   7.781  -1.001  1.00  0.00     0.293 HD
ENDBRANCH   2  22
BRANCH   9  24
ATOM     24  O   UNL     1     -13.085  -0.355  -3.035  1.00  0.00    -0.508 OA
ATOM     25  H   UNL     1     -13.904  -0.947  -2.950  1.00  0.00     0.293 HD
ENDBRANCH   9  24
TORSDOF 5
ENDMDL
MODEL 4
REMARK VINA RESULT:    -5.253      1.695      6.691
REMARK INTER + INTRA:          -6.140
REMARK INTER:                  -5.825
REMARK INTRA:                  -0.315
REMARK UNBOUND:                 0.033
REMARK SMILES O=c1c(O)c(-c2ccc(O)c(O)c2)oc2cc(O)ccc12
REMARK SMILES IDX 5 1 3 2 2 3 1 4 21 5 15 6 14 7 16 8 17 9 19 10 20 11 6 12
REMARK SMILES IDX 7 13 8 14 9 15 13 16 11 17 10 18 12 20 4 22 18 24
REMARK H PARENT 10 19 12 21 4 23 18 25
REMARK Flexibility Score: inf
ROOT
ATOM      1  C   UNL     1     -11.708   8.015  -1.665  1.00  0.00     0.180 A 
ATOM      2  C   UNL     1     -11.614   6.843  -0.885  1.00  0.00     0.208 A 
ATOM      3  C   UNL     1     -11.516   6.965   0.510  1.00  0.00     0.235 A 
ATOM      4  O   UNL     1     -11.421   5.932   1.228  1.00  0.00    -0.285 OA
ATOM      5  C   UNL     1     -11.534   8.242   1.094  1.00  0.00     0.069 A 
ATOM      6  C   UNL     1     -11.654   9.364   0.247  1.00  0.00     0.142 A 
ATOM      7  O   UNL     1     -11.735   9.206  -1.069  1.00  0.00    -0.452 OA
ATOM      8  C   UNL     1     -11.685  10.652   0.793  1.00  0.00     0.094 A 
ATOM      9  C   UNL     1     -11.596  10.835   2.177  1.00  0.00     0.119 A 
ATOM     10  C   UNL     1     -11.474   9.722   3.021  1.00  0.00     0.047 A 
ATOM     11  C   UNL     1     -11.444   8.431   2.486  1.00  0.00     0.020 A 
ENDROOT
BRANCH   1  12
ATOM     12  C   UNL     1     -11.796   7.972  -3.142  1.00  0.00     0.025 A 
ATOM     13  C   UNL     1     -13.031   7.828  -3.798  1.00  0.00     0.016 A 
ATOM     14  C   UNL     1     -13.087   7.766  -5.192  1.00  0.00     0.051 A 
ATOM     15  C   UNL     1     -11.910   7.834  -5.951  1.00  0.00     0.157 A 
ATOM     16  C   UNL     1     -10.618   8.018  -3.906  1.00  0.00     0.062 A 
ATOM     17  C   UNL     1     -10.670   7.957  -5.303  1.00  0.00     0.158 A 
BRANCH  15  18
ATOM     18  O   UNL     1     -11.970   7.774  -7.342  1.00  0.00    -0.504 OA
ATOM     19  H   UNL     1     -11.130   7.714  -7.908  1.00  0.00     0.293 HD
ENDBRANCH  15  18
BRANCH  17  20
ATOM     20  O   UNL     1      -9.481   8.020  -6.028  1.00  0.00    -0.504 OA
ATOM     21  H   UNL     1      -8.651   7.513  -5.746  1.00  0.00     0.293 HD
ENDBRANCH  17  20
ENDBRANCH   1  12
BRANCH   2  22
ATOM     22  O   UNL     1     -11.648   5.585  -1.492  1.00  0.00    -0.502 OA
ATOM     23  H   UNL     1     -11.998   5.447  -2.432  1.00  0.00     0.293 HD
ENDBRANCH   2  22
BRANCH   9  24
ATOM     24  O   UNL     1     -11.628  12.125   2.702  1.00  0.00    -0.508 OA
ATOM     25  H   UNL     1     -11.064  12.384   3.504  1.00  0.00     0.293 HD
ENDBRANCH   9  24
TORSDOF 5
ENDMDL
MODEL 5
REMARK VINA RESULT:    -5.222      1.594      7.032
REMARK INTER + INTRA:          -6.105
REMARK INTER:                  -6.122
REMARK INTRA:                   0.017
REMARK UNBOUND:                 0.033
REMARK SMILES O=c1c(O)c(-c2ccc(O)c(O)c2)oc2cc(O)ccc12
REMARK SMILES IDX 5 1 3 2 2 3 1 4 21 5 15 6 14 7 16 8 17 9 19 10 20 11 6 12
REMARK SMILES IDX 7 13 8 14 9 15 13 16 11 17 10 18 12 20 4 22 18 24
REMARK H PARENT 10 19 12 21 4 23 18 25
REMARK Flexibility Score: inf
ROOT
ATOM      1  C   UNL     1     -11.798   7.251  -1.625  1.00  0.00     0.180 A 
ATOM      2  C   UNL     1     -12.382   8.535  -1.585  1.00  0.00     0.208 A 
ATOM      3  C   UNL     1     -12.399   9.232  -0.367  1.00  0.00     0.235 A 
ATOM      4  O   UNL     1     -12.925  10.377  -0.303  1.00  0.00    -0.285 OA
ATOM      5  C   UNL     1     -11.821   8.647   0.771  1.00  0.00     0.069 A 
ATOM      6  C   UNL     1     -11.236   7.369   0.643  1.00  0.00     0.142 A 
ATOM      7  O   UNL     1     -11.249   6.739  -0.526  1.00  0.00    -0.452 OA
ATOM      8  C   UNL     1     -10.641   6.757   1.752  1.00  0.00     0.094 A 
ATOM      9  C   UNL     1     -10.624   7.406   2.991  1.00  0.00     0.119 A 
ATOM     10  C   UNL     1     -11.206   8.675   3.123  1.00  0.00     0.047 A 
ATOM     11  C   UNL     1     -11.802   9.295   2.021  1.00  0.00     0.020 A 
ENDROOT
BRANCH   1  12
ATOM     12  C   UNL     1     -11.757   6.445  -2.866  1.00  0.00     0.025 A 
ATOM     13  C   UNL     1     -12.186   5.106  -2.884  1.00  0.00     0.016 A 
ATOM     14  C   UNL     1     -12.116   4.357  -4.061  1.00  0.00     0.051 A 
ATOM     15  C   UNL     1     -11.605   4.930  -5.234  1.00  0.00     0.157 A 
ATOM     16  C   UNL     1     -11.226   7.007  -4.039  1.00  0.00     0.062 A 
ATOM     17  C   UNL     1     -11.155   6.261  -5.220  1.00  0.00     0.158 A 
BRANCH  15  18
ATOM     18  O   UNL     1     -11.538   4.181  -6.408  1.00  0.00    -0.504 OA
ATOM     19  H   UNL     1     -12.102   3.349  -6.540  1.00  0.00     0.293 HD
ENDBRANCH  15  18
BRANCH  17  20
ATOM     20  O   UNL     1     -10.635   6.857  -6.368  1.00  0.00    -0.504 OA
ATOM     21  H   UNL     1     -10.969   7.751  -6.709  1.00  0.00     0.293 HD
ENDBRANCH  17  20
ENDBRANCH   1  12
BRANCH   2  22
ATOM     22  O   UNL     1     -12.906   9.111  -2.745  1.00  0.00    -0.502 OA
ATOM     23  H   UNL     1     -12.577   8.862  -3.669  1.00  0.00     0.293 HD
ENDBRANCH   2  22
BRANCH   9  24
ATOM     24  O   UNL     1     -10.028   6.782   4.085  1.00  0.00    -0.508 OA
ATOM     25  H   UNL     1     -10.262   5.829   4.343  1.00  0.00     0.293 HD
ENDBRANCH   9  24
TORSDOF 5
ENDMDL
MODEL 6
REMARK VINA RESULT:    -5.184      0.700      1.541
REMARK INTER + INTRA:          -6.060
REMARK INTER:                  -6.138
REMARK INTRA:                   0.078
REMARK UNBOUND:                 0.033
REMARK SMILES O=c1c(O)c(-c2ccc(O)c(O)c2)oc2cc(O)ccc12
REMARK SMILES IDX 5 1 3 2 2 3 1 4 21 5 15 6 14 7 16 8 17 9 19 10 20 11 6 12
REMARK SMILES IDX 7 13 8 14 9 15 13 16 11 17 10 18 12 20 4 22 18 24
REMARK H PARENT 10 19 12 21 4 23 18 25
REMARK Flexibility Score: inf
ROOT
ATOM      1  C   UNL     1     -11.394   7.072  -1.675  1.00  0.00     0.180 A 
ATOM      2  C   UNL     1     -11.904   5.782  -1.932  1.00  0.00     0.208 A 
ATOM      3  C   UNL     1     -11.992   5.342  -3.262  1.00  0.00     0.235 A 
ATOM      4  O   UNL     1     -12.454   4.196  -3.518  1.00  0.00    -0.285 OA
ATOM      5  C   UNL     1     -11.555   6.183  -4.297  1.00  0.00     0.069 A 
ATOM      6  C   UNL     1     -11.036   7.451  -3.956  1.00  0.00     0.142 A 
ATOM      7  O   UNL     1     -10.978   7.832  -2.686  1.00  0.00    -0.452 OA
ATOM      8  C   UNL     1     -10.581   8.314  -4.959  1.00  0.00     0.094 A 
ATOM      9  C   UNL     1     -10.639   7.928  -6.303  1.00  0.00     0.119 A 
ATOM     10  C   UNL     1     -11.156   6.670  -6.645  1.00  0.00     0.047 A 
ATOM     11  C   UNL     1     -11.611   5.800  -5.651  1.00  0.00     0.020 A 
ENDROOT
BRANCH   1  12
ATOM     12  C   UNL     1     -11.287   7.616  -0.302  1.00  0.00     0.025 A 
ATOM     13  C   UNL     1     -10.771   6.844   0.753  1.00  0.00     0.016 A 
ATOM     14  C   UNL     1     -10.702   7.370   2.045  1.00  0.00     0.051 A 
ATOM     15  C   UNL     1     -11.159   8.670   2.305  1.00  0.00     0.157 A 
ATOM     16  C   UNL     1     -11.763   8.910  -0.032  1.00  0.00     0.062 A 
ATOM     17  C   UNL     1     -11.694   9.441   1.260  1.00  0.00     0.158 A 
BRANCH  15  18
ATOM     18  O   UNL     1     -11.086   9.193   3.595  1.00  0.00    -0.504 OA
ATOM     19  H   UNL     1     -10.204   9.488   3.999  1.00  0.00     0.293 HD
ENDBRANCH  15  18
BRANCH  17  20
ATOM     20  O   UNL     1     -12.164  10.734   1.487  1.00  0.00    -0.504 OA
ATOM     21  H   UNL     1     -12.283  11.108   2.421  1.00  0.00     0.293 HD
ENDBRANCH  17  20
ENDBRANCH   1  12
BRANCH   2  22
ATOM     22  O   UNL     1     -12.286   4.949  -0.878  1.00  0.00    -0.502 OA
ATOM     23  H   UNL     1     -13.139   4.404  -0.900  1.00  0.00     0.293 HD
ENDBRANCH   2  22
BRANCH   9  24
ATOM     24  O   UNL     1     -10.182   8.800  -7.288  1.00  0.00    -0.508 OA
ATOM     25  H   UNL     1     -10.045   9.787  -7.098  1.00  0.00     0.293 HD
ENDBRANCH   9  24
TORSDOF 5
ENDMDL
MODEL 7
REMARK VINA RESULT:    -5.040      1.380      6.525
REMARK INTER + INTRA:          -5.890
REMARK INTER:                  -5.738
REMARK INTRA:                  -0.152
REMARK UNBOUND:                 0.033
REMARK SMILES O=c1c(O)c(-c2ccc(O)c(O)c2)oc2cc(O)ccc12
REMARK SMILES IDX 5 1 3 2 2 3 1 4 21 5 15 6 14 7 16 8 17 9 19 10 20 11 6 12
REMARK SMILES IDX 7 13 8 14 9 15 13 16 11 17 10 18 12 20 4 22 18 24
REMARK H PARENT 10 19 12 21 4 23 18 25
REMARK Flexibility Score: inf
ROOT
ATOM      1  C   UNL     1     -11.267   7.587  -3.643  1.00  0.00     0.180 A 
ATOM      2  C   UNL     1     -12.036   6.418  -3.821  1.00  0.00     0.208 A 
ATOM      3  C   UNL     1     -12.418   5.681  -2.688  1.00  0.00     0.235 A 
ATOM      4  O   UNL     1     -13.097   4.626  -2.822  1.00  0.00    -0.285 OA
ATOM      5  C   UNL     1     -12.045   6.133  -1.413  1.00  0.00     0.069 A 
ATOM      6  C   UNL     1     -11.295   7.325  -1.318  1.00  0.00     0.142 A 
ATOM      7  O   UNL     1     -10.946   7.988  -2.414  1.00  0.00    -0.452 OA
ATOM      8  C   UNL     1     -10.913   7.813  -0.063  1.00  0.00     0.094 A 
ATOM      9  C   UNL     1     -11.268   7.123   1.101  1.00  0.00     0.119 A 
ATOM     10  C   UNL     1     -12.011   5.937   1.010  1.00  0.00     0.047 A 
ATOM     11  C   UNL     1     -12.399   5.443  -0.238  1.00  0.00     0.020 A 
ENDROOT
BRANCH   1  12
ATOM     12  C   UNL     1     -10.809   8.409  -4.786  1.00  0.00     0.025 A 
ATOM     13  C   UNL     1     -11.291   9.714  -4.990  1.00  0.00     0.016 A 
ATOM     14  C   UNL     1     -10.863  10.461  -6.089  1.00  0.00     0.051 A 
ATOM     15  C   UNL     1      -9.958   9.913  -7.008  1.00  0.00     0.157 A 
ATOM     16  C   UNL     1      -9.919   7.856  -5.721  1.00  0.00     0.062 A 
ATOM     17  C   UNL     1      -9.487   8.602  -6.823  1.00  0.00     0.158 A 
BRANCH  15  18
ATOM     18  O   UNL     1      -9.531  10.662  -8.103  1.00  0.00    -0.504 OA
ATOM     19  H   UNL     1      -9.836  11.619  -8.244  1.00  0.00     0.293 HD
ENDBRANCH  15  18
BRANCH  17  20
ATOM     20  O   UNL     1      -8.592   8.025  -7.723  1.00  0.00    -0.504 OA
ATOM     21  H   UNL     1      -8.887   7.675  -8.626  1.00  0.00     0.293 HD
ENDBRANCH  17  20
ENDBRANCH   1  12
BRANCH   2  22
ATOM     22  O   UNL     1     -12.434   6.020  -5.099  1.00  0.00    -0.502 OA
ATOM     23  H   UNL     1     -12.644   6.686  -5.832  1.00  0.00     0.293 HD
ENDBRANCH   2  22
BRANCH   9  24
ATOM     24  O   UNL     1     -10.878   7.623   2.341  1.00  0.00    -0.508 OA
ATOM     25  H   UNL     1     -11.286   8.470   2.722  1.00  0.00     0.293 HD
ENDBRANCH   9  24
TORSDOF 5
ENDMDL
MODEL 8
REMARK VINA RESULT:    -4.849      4.633      6.796
REMARK INTER + INTRA:          -5.666
REMARK INTER:                  -6.003
REMARK INTRA:                   0.338
REMARK UNBOUND:                 0.033
REMARK SMILES O=c1c(O)c(-c2ccc(O)c(O)c2)oc2cc(O)ccc12
REMARK SMILES IDX 5 1 3 2 2 3 1 4 21 5 15 6 14 7 16 8 17 9 19 10 20 11 6 12
REMARK SMILES IDX 7 13 8 14 9 15 13 16 11 17 10 18 12 20 4 22 18 24
REMARK H PARENT 10 19 12 21 4 23 18 25
REMARK Flexibility Score: inf
ROOT
ATOM      1  C   UNL     1     -12.637   1.992  -1.872  1.00  0.00     0.180 A 
ATOM      2  C   UNL     1     -12.841   2.942  -0.849  1.00  0.00     0.208 A 
ATOM      3  C   UNL     1     -12.782   4.307  -1.171  1.00  0.00     0.235 A 
ATOM      4  O   UNL     1     -12.951   5.175  -0.272  1.00  0.00    -0.285 OA
ATOM      5  C   UNL     1     -12.543   4.692  -2.500  1.00  0.00     0.069 A 
ATOM      6  C   UNL     1     -12.373   3.681  -3.470  1.00  0.00     0.142 A 
ATOM      7  O   UNL     1     -12.427   2.401  -3.122  1.00  0.00    -0.452 OA
ATOM      8  C   UNL     1     -12.143   4.025  -4.807  1.00  0.00     0.094 A 
ATOM      9  C   UNL     1     -12.079   5.370  -5.188  1.00  0.00     0.119 A 
ATOM     10  C   UNL     1     -12.245   6.377  -4.227  1.00  0.00     0.047 A 
ATOM     11  C   UNL     1     -12.477   6.043  -2.890  1.00  0.00     0.020 A 
ENDROOT
BRANCH   1  12
ATOM     12  C   UNL     1     -12.665   0.535  -1.610  1.00  0.00     0.025 A 
ATOM     13  C   UNL     1     -13.081  -0.378  -2.593  1.00  0.00     0.016 A 
ATOM     14  C   UNL     1     -13.122  -1.747  -2.315  1.00  0.00     0.051 A 
ATOM     15  C   UNL     1     -12.759  -2.221  -1.047  1.00  0.00     0.157 A 
ATOM     16  C   UNL     1     -12.323   0.056  -0.334  1.00  0.00     0.062 A 
ATOM     17  C   UNL     1     -12.361  -1.314  -0.052  1.00  0.00     0.158 A 
BRANCH  15  18
ATOM     18  O   UNL     1     -12.798  -3.587  -0.773  1.00  0.00    -0.504 OA
ATOM     19  H   UNL     1     -12.622  -4.279  -1.494  1.00  0.00     0.293 HD
ENDBRANCH  15  18
BRANCH  17  20
ATOM     20  O   UNL     1     -12.001  -1.753   1.221  1.00  0.00    -0.504 OA
ATOM     21  H   UNL     1     -12.657  -1.764   1.993  1.00  0.00     0.293 HD
ENDBRANCH  17  20
ENDBRANCH   1  12
BRANCH   2  22
ATOM     22  O   UNL     1     -13.125   2.528   0.455  1.00  0.00    -0.502 OA
ATOM     23  H   UNL     1     -13.274   3.185   1.211  1.00  0.00     0.293 HD
ENDBRANCH   2  22
BRANCH   9  24
ATOM     24  O   UNL     1     -11.848   5.693  -6.523  1.00  0.00    -0.508 OA
ATOM     25  H   UNL     1     -10.908   5.746  -6.901  1.00  0.00     0.293 HD
ENDBRANCH   9  24
TORSDOF 5
ENDMDL
MODEL 9
REMARK VINA RESULT:    -4.843      1.993      3.271
REMARK INTER + INTRA:          -5.659
REMARK INTER:                  -5.403
REMARK INTRA:                  -0.256
REMARK UNBOUND:                 0.033
REMARK SMILES O=c1c(O)c(-c2ccc(O)c(O)c2)oc2cc(O)ccc12
REMARK SMILES IDX 5 1 3 2 2 3 1 4 21 5 15 6 14 7 16 8 17 9 19 10 20 11 6 12
REMARK SMILES IDX 7 13 8 14 9 15 13 16 11 17 10 18 12 20 4 22 18 24
REMARK H PARENT 10 19 12 21 4 23 18 25
REMARK Flexibility Score: inf
ROOT
ATOM      1  C   UNL     1     -11.966   7.727  -1.821  1.00  0.00     0.180 A 
ATOM      2  C   UNL     1     -12.557   8.991  -1.612  1.00  0.00     0.208 A 
ATOM      3  C   UNL     1     -12.590   9.907  -2.675  1.00  0.00     0.235 A 
ATOM      4  O   UNL     1     -13.104  11.047  -2.510  1.00  0.00    -0.285 OA
ATOM      5  C   UNL     1     -12.055   9.538  -3.920  1.00  0.00     0.069 A 
ATOM      6  C   UNL     1     -11.502   8.246  -4.055  1.00  0.00     0.142 A 
ATOM      7  O   UNL     1     -11.483   7.413  -3.021  1.00  0.00    -0.452 OA
ATOM      8  C   UNL     1     -10.968   7.839  -5.283  1.00  0.00     0.094 A 
ATOM      9  C   UNL     1     -10.977   8.707  -6.379  1.00  0.00     0.119 A 
ATOM     10  C   UNL     1     -11.524   9.991  -6.248  1.00  0.00     0.047 A 
ATOM     11  C   UNL     1     -12.061  10.408  -5.027  1.00  0.00     0.020 A 
ENDROOT
BRANCH   1  12
ATOM     12  C   UNL     1     -11.876   6.714  -0.745  1.00  0.00     0.025 A 
ATOM     13  C   UNL     1     -12.750   5.613  -0.701  1.00  0.00     0.016 A 
ATOM     14  C   UNL     1     -12.661   4.683   0.337  1.00  0.00     0.051 A 
ATOM     15  C   UNL     1     -11.709   4.844   1.352  1.00  0.00     0.157 A 
ATOM     16  C   UNL     1     -10.937   6.882   0.286  1.00  0.00     0.062 A 
ATOM     17  C   UNL     1     -10.844   5.952   1.326  1.00  0.00     0.158 A 
BRANCH  15  18
ATOM     18  O   UNL     1     -11.621   3.912   2.385  1.00  0.00    -0.504 OA
ATOM     19  H   UNL     1     -11.274   4.167   3.303  1.00  0.00     0.293 HD
ENDBRANCH  15  18
BRANCH  17  20
ATOM     20  O   UNL     1      -9.891   6.145   2.324  1.00  0.00    -0.504 OA
ATOM     21  H   UNL     1      -9.272   6.946   2.330  1.00  0.00     0.293 HD
ENDBRANCH  17  20
ENDBRANCH   1  12
BRANCH   2  22
ATOM     22  O   UNL     1     -13.125   9.312  -0.376  1.00  0.00    -0.502 OA
ATOM     23  H   UNL     1     -13.650  10.164  -0.227  1.00  0.00     0.293 HD
ENDBRANCH   2  22
BRANCH   9  24
ATOM     24  O   UNL     1     -10.441   8.284  -7.593  1.00  0.00    -0.508 OA
ATOM     25  H   UNL     1     -10.529   8.843  -8.435  1.00  0.00     0.293 HD
ENDBRANCH   9  24
TORSDOF 5
ENDMDL
