MODEL 1
REMARK VINA RESULT:    -4.746      0.000      0.000
REMARK INTER + INTRA:          -6.042
REMARK INTER:                  -5.717
REMARK INTRA:                  -0.325
REMARK UNBOUND:                -0.325
REMARK SMILES O=c1c(O)c(-c2ccc(O)c(O)c2)oc2cc(O)cc(O)c12
REMARK SMILES IDX 5 1 3 2 2 3 1 4 22 5 20 6 19 7 17 8 16 9 15 10 14 11 6 12
REMARK SMILES IDX 7 13 8 14 9 15 13 16 11 17 10 18 12 20 4 22 21 24 18 26
REMARK H PARENT 10 19 12 21 4 23 21 25 18 27
REMARK Flexibility Score: inf
ROOT
ATOM      1  C   UNL     1      58.691  42.689 123.804  1.00  0.00     0.180 A 
ATOM      2  C   UNL     1      59.537  41.568 123.872  1.00  0.00     0.208 A 
ATOM      3  C   UNL     1      58.991  40.289 123.677  1.00  0.00     0.238 A 
ATOM      4  O   UNL     1      59.743  39.287 123.793  1.00  0.00    -0.285 OA
ATOM      5  C   UNL     1      57.609  40.149 123.401  1.00  0.00     0.111 A 
ATOM      6  C   UNL     1      56.956  38.905 123.147  1.00  0.00     0.134 A 
ATOM      7  C   UNL     1      55.563  38.871 123.014  1.00  0.00     0.093 A 
ATOM      8  C   UNL     1      54.806  40.041 123.061  1.00  0.00     0.123 A 
ATOM      9  C   UNL     1      55.440  41.270 123.250  1.00  0.00     0.094 A 
ATOM     10  C   UNL     1      56.825  41.332 123.422  1.00  0.00     0.146 A 
ATOM     11  O   UNL     1      57.389  42.519 123.609  1.00  0.00    -0.452 OA
ENDROOT
BRANCH   1  12
ATOM     12  C   UNL     1      59.198  44.070 123.973  1.00  0.00     0.025 A 
ATOM     13  C   UNL     1      59.767  44.778 122.901  1.00  0.00     0.016 A 
ATOM     14  C   UNL     1      60.217  46.089 123.079  1.00  0.00     0.051 A 
ATOM     15  C   UNL     1      60.093  46.716 124.325  1.00  0.00     0.157 A 
ATOM     16  C   UNL     1      59.058  44.710 125.216  1.00  0.00     0.062 A 
ATOM     17  C   UNL     1      59.508  46.023 125.398  1.00  0.00     0.158 A 
BRANCH  15  18
ATOM     18  O   UNL     1      60.544  48.024 124.500  1.00  0.00    -0.504 OA
ATOM     19  H   UNL     1      61.515  48.274 124.351  1.00  0.00     0.293 HD
ENDBRANCH  15  18
BRANCH  17  20
ATOM     20  O   UNL     1      59.364  46.621 126.649  1.00  0.00    -0.504 OA
ATOM     21  H   UNL     1      58.817  47.462 126.784  1.00  0.00     0.293 HD
ENDBRANCH  17  20
ENDBRANCH   1  12
BRANCH   2  22
ATOM     22  O   UNL     1      60.894  41.728 124.167  1.00  0.00    -0.502 OA
ATOM     23  H   UNL     1      61.521  40.942 124.285  1.00  0.00     0.293 HD
ENDBRANCH   2  22
BRANCH   6  24
ATOM     24  O   UNL     1      57.628  37.689 122.989  1.00  0.00    -0.507 OA
ATOM     25  H   UNL     1      57.619  37.133 122.148  1.00  0.00     0.293 HD
ENDBRANCH   6  24
BRANCH   8  26
ATOM     26  O   UNL     1      53.422  39.972 122.909  1.00  0.00    -0.508 OA
ATOM     27  H   UNL     1      52.976  40.175 122.023  1.00  0.00     0.293 HD
ENDBRANCH   8  26
TORSDOF 6
ENDMDL
MODEL 2
REMARK VINA RESULT:    -4.527      2.397      7.391
REMARK INTER + INTRA:          -5.779
REMARK INTER:                  -5.472
REMARK INTRA:                  -0.306
REMARK UNBOUND:                -0.325
REMARK SMILES O=c1c(O)c(-c2ccc(O)c(O)c2)oc2cc(O)cc(O)c12
REMARK SMILES IDX 5 1 3 2 2 3 1 4 22 5 20 6 19 7 17 8 16 9 15 10 14 11 6 12
REMARK SMILES IDX 7 13 8 14 9 15 13 16 11 17 10 18 12 20 4 22 21 24 18 26
REMARK H PARENT 10 19 12 21 4 23 21 25 18 27
REMARK Flexibility Score: inf
ROOT
ATOM      1  C   UNL     1      56.091  39.284 124.010  1.00  0.00     0.180 A 
ATOM      2  C   UNL     1      57.307  38.829 123.470  1.00  0.00     0.208 A 
ATOM      3  C   UNL     1      58.416  39.691 123.466  1.00  0.00     0.238 A 
ATOM      4  O   UNL     1      59.486  39.298 122.933  1.00  0.00    -0.285 OA
ATOM      5  C   UNL     1      58.299  40.991 124.016  1.00  0.00     0.111 A 
ATOM      6  C   UNL     1      59.367  41.934 124.101  1.00  0.00     0.134 A 
ATOM      7  C   UNL     1      59.106  43.236 124.545  1.00  0.00     0.093 A 
ATOM      8  C   UNL     1      57.831  43.610 124.968  1.00  0.00     0.123 A 
ATOM      9  C   UNL     1      56.792  42.679 124.945  1.00  0.00     0.094 A 
ATOM     10  C   UNL     1      57.014  41.383 124.473  1.00  0.00     0.146 A 
ATOM     11  O   UNL     1      55.996  40.531 124.458  1.00  0.00    -0.452 OA
ENDROOT
BRANCH   1  12
ATOM     12  C   UNL     1      54.887  38.425 124.072  1.00  0.00     0.025 A 
ATOM     13  C   UNL     1      54.037  38.274 122.963  1.00  0.00     0.016 A 
ATOM     14  C   UNL     1      52.919  37.439 123.037  1.00  0.00     0.051 A 
ATOM     15  C   UNL     1      52.641  36.734 124.215  1.00  0.00     0.157 A 
ATOM     16  C   UNL     1      54.614  37.701 125.244  1.00  0.00     0.062 A 
ATOM     17  C   UNL     1      53.495  36.864 125.323  1.00  0.00     0.158 A 
BRANCH  15  18
ATOM     18  O   UNL     1      51.523  35.903 124.287  1.00  0.00    -0.504 OA
ATOM     19  H   UNL     1      51.572  34.925 124.025  1.00  0.00     0.293 HD
ENDBRANCH  15  18
BRANCH  17  20
ATOM     20  O   UNL     1      53.249  36.170 126.507  1.00  0.00    -0.504 OA
ATOM     21  H   UNL     1      53.691  35.283 126.713  1.00  0.00     0.293 HD
ENDBRANCH  17  20
ENDBRANCH   1  12
BRANCH   2  22
ATOM     22  O   UNL     1      57.394  37.550 122.913  1.00  0.00    -0.502 OA
ATOM     23  H   UNL     1      56.579  36.980 122.729  1.00  0.00     0.293 HD
ENDBRANCH   2  22
BRANCH   6  24
ATOM     24  O   UNL     1      60.698  41.635 123.791  1.00  0.00    -0.507 OA
ATOM     25  H   UNL     1      61.255  40.939 124.262  1.00  0.00     0.293 HD
ENDBRANCH   6  24
BRANCH   8  26
ATOM     26  O   UNL     1      57.611  44.910 125.419  1.00  0.00    -0.508 OA
ATOM     27  H   UNL     1      56.745  45.173 125.875  1.00  0.00     0.293 HD
ENDBRANCH   8  26
TORSDOF 6
ENDMDL
MODEL 3
REMARK VINA RESULT:    -4.483      3.170      8.158
REMARK INTER + INTRA:          -5.725
REMARK INTER:                  -5.407
REMARK INTRA:                  -0.318
REMARK UNBOUND:                -0.325
REMARK SMILES O=c1c(O)c(-c2ccc(O)c(O)c2)oc2cc(O)cc(O)c12
REMARK SMILES IDX 5 1 3 2 2 3 1 4 22 5 20 6 19 7 17 8 16 9 15 10 14 11 6 12
REMARK SMILES IDX 7 13 8 14 9 15 13 16 11 17 10 18 12 20 4 22 21 24 18 26
REMARK H PARENT 10 19 12 21 4 23 21 25 18 27
REMARK Flexibility Score: inf
ROOT
ATOM      1  C   UNL     1      54.746  38.096 124.348  1.00  0.00     0.180 A 
ATOM      2  C   UNL     1      55.864  37.337 124.736  1.00  0.00     0.208 A 
ATOM      3  C   UNL     1      57.130  37.947 124.751  1.00  0.00     0.238 A 
ATOM      4  O   UNL     1      58.133  37.247 125.047  1.00  0.00    -0.285 OA
ATOM      5  C   UNL     1      57.259  39.310 124.392  1.00  0.00     0.111 A 
ATOM      6  C   UNL     1      58.485  40.040 124.409  1.00  0.00     0.134 A 
ATOM      7  C   UNL     1      58.518  41.348 123.911  1.00  0.00     0.093 A 
ATOM      8  C   UNL     1      57.359  41.975 123.456  1.00  0.00     0.123 A 
ATOM      9  C   UNL     1      56.142  41.291 123.490  1.00  0.00     0.094 A 
ATOM     10  C   UNL     1      56.085  39.973 123.948  1.00  0.00     0.146 A 
ATOM     11  O   UNL     1      54.910  39.354 123.954  1.00  0.00    -0.452 OA
ENDROOT
BRANCH   1  12
ATOM     12  C   UNL     1      53.378  37.532 124.332  1.00  0.00     0.025 A 
ATOM     13  C   UNL     1      52.890  36.825 123.219  1.00  0.00     0.016 A 
ATOM     14  C   UNL     1      51.604  36.280 123.235  1.00  0.00     0.051 A 
ATOM     15  C   UNL     1      50.791  36.421 124.367  1.00  0.00     0.157 A 
ATOM     16  C   UNL     1      52.566  37.653 125.472  1.00  0.00     0.062 A 
ATOM     17  C   UNL     1      51.277  37.109 125.492  1.00  0.00     0.158 A 
BRANCH  15  18
ATOM     18  O   UNL     1      49.507  35.878 124.380  1.00  0.00    -0.504 OA
ATOM     19  H   UNL     1      48.827  36.140 125.084  1.00  0.00     0.293 HD
ENDBRANCH  15  18
BRANCH  17  20
ATOM     20  O   UNL     1      50.495  37.260 126.637  1.00  0.00    -0.504 OA
ATOM     21  H   UNL     1      49.539  36.932 126.683  1.00  0.00     0.293 HD
ENDBRANCH  17  20
ENDBRANCH   1  12
BRANCH   2  22
ATOM     22  O   UNL     1      55.717  35.987 125.065  1.00  0.00    -0.502 OA
ATOM     23  H   UNL     1      56.120  35.244 124.508  1.00  0.00     0.293 HD
ENDBRANCH   2  22
BRANCH   6  24
ATOM     24  O   UNL     1      59.684  39.540 124.928  1.00  0.00    -0.507 OA
ATOM     25  H   UNL     1      59.749  38.831 125.642  1.00  0.00     0.293 HD
ENDBRANCH   6  24
BRANCH   8  26
ATOM     26  O   UNL     1      57.425  43.283 122.981  1.00  0.00    -0.508 OA
ATOM     27  H   UNL     1      58.216  43.609 122.437  1.00  0.00     0.293 HD
ENDBRANCH   8  26
TORSDOF 6
ENDMDL
MODEL 4
REMARK VINA RESULT:    -4.376     11.838     14.602
REMARK INTER + INTRA:          -5.596
REMARK INTER:                  -5.369
REMARK INTRA:                  -0.228
REMARK UNBOUND:                -0.325
REMARK SMILES O=c1c(O)c(-c2ccc(O)c(O)c2)oc2cc(O)cc(O)c12
REMARK SMILES IDX 5 1 3 2 2 3 1 4 22 5 20 6 19 7 17 8 16 9 15 10 14 11 6 12
REMARK SMILES IDX 7 13 8 14 9 15 13 16 11 17 10 18 12 20 4 22 21 24 18 26
REMARK H PARENT 10 19 12 21 4 23 21 25 18 27
REMARK Flexibility Score: inf
ROOT
ATOM      1  C   UNL     1      52.348  54.517 127.247  1.00  0.00     0.180 A 
ATOM      2  C   UNL     1      51.433  54.142 128.246  1.00  0.00     0.208 A 
ATOM      3  C   UNL     1      50.058  54.187 127.962  1.00  0.00     0.238 A 
ATOM      4  O   UNL     1      49.242  53.903 128.878  1.00  0.00    -0.285 OA
ATOM      5  C   UNL     1      49.616  54.591 126.679  1.00  0.00     0.111 A 
ATOM      6  C   UNL     1      48.250  54.635 126.269  1.00  0.00     0.134 A 
ATOM      7  C   UNL     1      47.921  55.173 125.018  1.00  0.00     0.093 A 
ATOM      8  C   UNL     1      48.911  55.608 124.138  1.00  0.00     0.123 A 
ATOM      9  C   UNL     1      50.255  55.515 124.506  1.00  0.00     0.094 A 
ATOM     10  C   UNL     1      50.611  55.016 125.761  1.00  0.00     0.146 A 
ATOM     11  O   UNL     1      51.900  54.954 126.075  1.00  0.00    -0.452 OA
ENDROOT
BRANCH   1  12
ATOM     12  C   UNL     1      53.811  54.472 127.462  1.00  0.00     0.025 A 
ATOM     13  C   UNL     1      54.456  55.392 128.308  1.00  0.00     0.016 A 
ATOM     14  C   UNL     1      55.836  55.316 128.515  1.00  0.00     0.051 A 
ATOM     15  C   UNL     1      56.589  54.313 127.893  1.00  0.00     0.157 A 
ATOM     16  C   UNL     1      54.569  53.456 126.856  1.00  0.00     0.062 A 
ATOM     17  C   UNL     1      55.951  53.377 127.061  1.00  0.00     0.158 A 
BRANCH  15  18
ATOM     18  O   UNL     1      57.966  54.240 128.100  1.00  0.00    -0.504 OA
ATOM     19  H   UNL     1      58.483  55.011 128.506  1.00  0.00     0.293 HD
ENDBRANCH  15  18
BRANCH  17  20
ATOM     20  O   UNL     1      56.672  52.362 126.433  1.00  0.00    -0.504 OA
ATOM     21  H   UNL     1      56.223  51.541 126.048  1.00  0.00     0.293 HD
ENDBRANCH  17  20
ENDBRANCH   1  12
BRANCH   2  22
ATOM     22  O   UNL     1      51.889  53.769 129.513  1.00  0.00    -0.502 OA
ATOM     23  H   UNL     1      52.593  54.295 130.015  1.00  0.00     0.293 HD
ENDBRANCH   2  22
BRANCH   6  24
ATOM     24  O   UNL     1      47.189  54.140 127.034  1.00  0.00    -0.507 OA
ATOM     25  H   UNL     1      46.215  54.234 126.793  1.00  0.00     0.293 HD
ENDBRANCH   6  24
BRANCH   8  26
ATOM     26  O   UNL     1      48.548  56.125 122.896  1.00  0.00    -0.508 OA
ATOM     27  H   UNL     1      48.144  57.049 122.805  1.00  0.00     0.293 HD
ENDBRANCH   8  26
TORSDOF 6
ENDMDL
MODEL 5
REMARK VINA RESULT:    -4.349     11.245     14.399
REMARK INTER + INTRA:          -5.563
REMARK INTER:                  -5.246
REMARK INTRA:                  -0.317
REMARK UNBOUND:                -0.325
REMARK SMILES O=c1c(O)c(-c2ccc(O)c(O)c2)oc2cc(O)cc(O)c12
REMARK SMILES IDX 5 1 3 2 2 3 1 4 22 5 20 6 19 7 17 8 16 9 15 10 14 11 6 12
REMARK SMILES IDX 7 13 8 14 9 15 13 16 11 17 10 18 12 20 4 22 21 24 18 26
REMARK H PARENT 10 19 12 21 4 23 21 25 18 27
REMARK Flexibility Score: inf
ROOT
ATOM      1  C   UNL     1      52.308  53.997 126.611  1.00  0.00     0.180 A 
ATOM      2  C   UNL     1      52.531  52.638 126.890  1.00  0.00     0.208 A 
ATOM      3  C   UNL     1      53.835  52.207 127.182  1.00  0.00     0.238 A 
ATOM      4  O   UNL     1      54.037  50.979 127.376  1.00  0.00    -0.285 OA
ATOM      5  C   UNL     1      54.897  53.143 127.206  1.00  0.00     0.111 A 
ATOM      6  C   UNL     1      56.250  52.824 127.529  1.00  0.00     0.134 A 
ATOM      7  C   UNL     1      57.242  53.805 127.396  1.00  0.00     0.093 A 
ATOM      8  C   UNL     1      56.919  55.107 127.015  1.00  0.00     0.123 A 
ATOM      9  C   UNL     1      55.590  55.445 126.755  1.00  0.00     0.094 A 
ATOM     10  C   UNL     1      54.585  54.479 126.844  1.00  0.00     0.146 A 
ATOM     11  O   UNL     1      53.335  54.839 126.578  1.00  0.00    -0.452 OA
ENDROOT
BRANCH   1  12
ATOM     12  C   UNL     1      50.958  54.531 126.320  1.00  0.00     0.025 A 
ATOM     13  C   UNL     1      50.053  54.837 127.351  1.00  0.00     0.016 A 
ATOM     14  C   UNL     1      48.793  55.362 127.054  1.00  0.00     0.051 A 
ATOM     15  C   UNL     1      48.423  55.602 125.724  1.00  0.00     0.157 A 
ATOM     16  C   UNL     1      50.590  54.792 124.990  1.00  0.00     0.062 A 
ATOM     17  C   UNL     1      49.328  55.317 124.687  1.00  0.00     0.158 A 
BRANCH  15  18
ATOM     18  O   UNL     1      47.164  56.124 125.430  1.00  0.00    -0.504 OA
ATOM     19  H   UNL     1      46.335  55.821 125.927  1.00  0.00     0.293 HD
ENDBRANCH  15  18
BRANCH  17  20
ATOM     20  O   UNL     1      48.993  55.551 123.354  1.00  0.00    -0.504 OA
ATOM     21  H   UNL     1      49.541  55.179 122.589  1.00  0.00     0.293 HD
ENDBRANCH  17  20
ENDBRANCH   1  12
BRANCH   2  22
ATOM     22  O   UNL     1      51.472  51.727 126.838  1.00  0.00    -0.502 OA
ATOM     23  H   UNL     1      50.737  51.707 127.534  1.00  0.00     0.293 HD
ENDBRANCH   2  22
BRANCH   6  24
ATOM     24  O   UNL     1      56.666  51.578 128.008  1.00  0.00    -0.507 OA
ATOM     25  H   UNL     1      56.242  51.090 128.782  1.00  0.00     0.293 HD
ENDBRANCH   6  24
BRANCH   8  26
ATOM     26  O   UNL     1      57.929  56.061 126.907  1.00  0.00    -0.508 OA
ATOM     27  H   UNL     1      57.731  57.011 126.616  1.00  0.00     0.293 HD
ENDBRANCH   8  26
TORSDOF 6
ENDMDL
MODEL 6
REMARK VINA RESULT:    -4.343     11.926     15.290
REMARK INTER + INTRA:          -5.557
REMARK INTER:                  -5.297
REMARK INTRA:                  -0.260
REMARK UNBOUND:                -0.325
REMARK SMILES O=c1c(O)c(-c2ccc(O)c(O)c2)oc2cc(O)cc(O)c12
REMARK SMILES IDX 5 1 3 2 2 3 1 4 22 5 20 6 19 7 17 8 16 9 15 10 14 11 6 12
REMARK SMILES IDX 7 13 8 14 9 15 13 16 11 17 10 18 12 20 4 22 21 24 18 26
REMARK H PARENT 10 19 12 21 4 23 21 25 18 27
REMARK Flexibility Score: inf
ROOT
ATOM      1  C   UNL     1      57.171  54.892 130.499  1.00  0.00     0.180 A 
ATOM      2  C   UNL     1      58.361  54.539 131.157  1.00  0.00     0.208 A 
ATOM      3  C   UNL     1      58.383  54.517 132.562  1.00  0.00     0.238 A 
ATOM      4  O   UNL     1      59.467  54.253 133.145  1.00  0.00    -0.285 OA
ATOM      5  C   UNL     1      57.210  54.834 133.289  1.00  0.00     0.111 A 
ATOM      6  C   UNL     1      57.107  54.805 134.712  1.00  0.00     0.134 A 
ATOM      7  C   UNL     1      55.936  55.262 135.330  1.00  0.00     0.093 A 
ATOM      8  C   UNL     1      54.842  55.686 134.575  1.00  0.00     0.123 A 
ATOM      9  C   UNL     1      54.911  55.662 133.181  1.00  0.00     0.094 A 
ATOM     10  C   UNL     1      56.079  55.245 132.538  1.00  0.00     0.146 A 
ATOM     11  O   UNL     1      56.107  55.248 131.210  1.00  0.00    -0.452 OA
ENDROOT
BRANCH   1  12
ATOM     12  C   UNL     1      57.063  54.913 129.023  1.00  0.00     0.025 A 
ATOM     13  C   UNL     1      57.078  56.122 128.304  1.00  0.00     0.016 A 
ATOM     14  C   UNL     1      57.000  56.116 126.910  1.00  0.00     0.051 A 
ATOM     15  C   UNL     1      56.919  54.905 126.211  1.00  0.00     0.157 A 
ATOM     16  C   UNL     1      57.002  53.701 128.317  1.00  0.00     0.062 A 
ATOM     17  C   UNL     1      56.923  53.691 126.919  1.00  0.00     0.158 A 
BRANCH  15  18
ATOM     18  O   UNL     1      56.839  54.902 124.819  1.00  0.00    -0.504 OA
ATOM     19  H   UNL     1      56.170  55.482 124.325  1.00  0.00     0.293 HD
ENDBRANCH  15  18
BRANCH  17  20
ATOM     20  O   UNL     1      56.850  52.468 126.253  1.00  0.00    -0.504 OA
ATOM     21  H   UNL     1      55.968  52.066 125.961  1.00  0.00     0.293 HD
ENDBRANCH  17  20
ENDBRANCH   1  12
BRANCH   2  22
ATOM     22  O   UNL     1      59.514  54.252 130.421  1.00  0.00    -0.502 OA
ATOM     23  H   UNL     1      59.865  54.867 129.698  1.00  0.00     0.293 HD
ENDBRANCH   2  22
BRANCH   6  24
ATOM     24  O   UNL     1      58.107  54.313 135.558  1.00  0.00    -0.507 OA
ATOM     25  H   UNL     1      58.752  53.577 135.317  1.00  0.00     0.293 HD
ENDBRANCH   6  24
BRANCH   8  26
ATOM     26  O   UNL     1      53.687  56.120 135.222  1.00  0.00    -0.508 OA
ATOM     27  H   UNL     1      53.376  57.082 135.160  1.00  0.00     0.293 HD
ENDBRANCH   8  26
TORSDOF 6
ENDMDL
MODEL 7
REMARK VINA RESULT:    -4.325      7.575      9.590
REMARK INTER + INTRA:          -5.535
REMARK INTER:                  -5.212
REMARK INTRA:                  -0.324
REMARK UNBOUND:                -0.325
REMARK SMILES O=c1c(O)c(-c2ccc(O)c(O)c2)oc2cc(O)cc(O)c12
REMARK SMILES IDX 5 1 3 2 2 3 1 4 22 5 20 6 19 7 17 8 16 9 15 10 14 11 6 12
REMARK SMILES IDX 7 13 8 14 9 15 13 16 11 17 10 18 12 20 4 22 21 24 18 26
REMARK H PARENT 10 19 12 21 4 23 21 25 18 27
REMARK Flexibility Score: inf
ROOT
ATOM      1  C   UNL     1      54.961  50.886 126.562  1.00  0.00     0.180 A 
ATOM      2  C   UNL     1      55.627  49.678 126.288  1.00  0.00     0.208 A 
ATOM      3  C   UNL     1      54.929  48.647 125.638  1.00  0.00     0.238 A 
ATOM      4  O   UNL     1      55.514  47.550 125.445  1.00  0.00    -0.285 OA
ATOM      5  C   UNL     1      53.580  48.842 125.257  1.00  0.00     0.111 A 
ATOM      6  C   UNL     1      52.788  47.881 124.558  1.00  0.00     0.134 A 
ATOM      7  C   UNL     1      51.426  48.130 124.347  1.00  0.00     0.093 A 
ATOM      8  C   UNL     1      50.843  49.331 124.750  1.00  0.00     0.123 A 
ATOM      9  C   UNL     1      51.621  50.302 125.382  1.00  0.00     0.094 A 
ATOM     10  C   UNL     1      52.974  50.067 125.639  1.00  0.00     0.146 A 
ATOM     11  O   UNL     1      53.676  51.013 126.251  1.00  0.00    -0.452 OA
ENDROOT
BRANCH   1  12
ATOM     12  C   UNL     1      55.637  52.026 127.221  1.00  0.00     0.025 A 
ATOM     13  C   UNL     1      55.660  52.155 128.620  1.00  0.00     0.016 A 
ATOM     14  C   UNL     1      56.325  53.227 129.221  1.00  0.00     0.051 A 
ATOM     15  C   UNL     1      56.987  54.179 128.434  1.00  0.00     0.157 A 
ATOM     16  C   UNL     1      56.319  52.972 126.437  1.00  0.00     0.062 A 
ATOM     17  C   UNL     1      56.986  54.048 127.035  1.00  0.00     0.158 A 
BRANCH  15  18
ATOM     18  O   UNL     1      57.648  55.248 129.036  1.00  0.00    -0.504 OA
ATOM     19  H   UNL     1      57.141  56.043 129.409  1.00  0.00     0.293 HD
ENDBRANCH  15  18
BRANCH  17  20
ATOM     20  O   UNL     1      57.641  54.974 126.225  1.00  0.00    -0.504 OA
ATOM     21  H   UNL     1      58.399  54.709 125.609  1.00  0.00     0.293 HD
ENDBRANCH  17  20
ENDBRANCH   1  12
BRANCH   2  22
ATOM     22  O   UNL     1      56.953  49.499 126.693  1.00  0.00    -0.502 OA
ATOM     23  H   UNL     1      57.234  49.535 127.665  1.00  0.00     0.293 HD
ENDBRANCH   2  22
BRANCH   6  24
ATOM     24  O   UNL     1      53.294  46.689 124.030  1.00  0.00    -0.507 OA
ATOM     25  H   UNL     1      54.199  46.591 123.597  1.00  0.00     0.293 HD
ENDBRANCH   6  24
BRANCH   8  26
ATOM     26  O   UNL     1      49.488  49.551 124.510  1.00  0.00    -0.508 OA
ATOM     27  H   UNL     1      48.868  49.883 125.240  1.00  0.00     0.293 HD
ENDBRANCH   8  26
TORSDOF 6
ENDMDL
MODEL 8
REMARK VINA RESULT:    -4.288     15.829     17.374
REMARK INTER + INTRA:          -5.490
REMARK INTER:                  -5.182
REMARK INTRA:                  -0.308
REMARK UNBOUND:                -0.325
REMARK SMILES O=c1c(O)c(-c2ccc(O)c(O)c2)oc2cc(O)cc(O)c12
REMARK SMILES IDX 5 1 3 2 2 3 1 4 22 5 20 6 19 7 17 8 16 9 15 10 14 11 6 12
REMARK SMILES IDX 7 13 8 14 9 15 13 16 11 17 10 18 12 20 4 22 21 24 18 26
REMARK H PARENT 10 19 12 21 4 23 21 25 18 27
REMARK Flexibility Score: inf
ROOT
ATOM      1  C   UNL     1      47.163  38.903 135.417  1.00  0.00     0.180 A 
ATOM      2  C   UNL     1      47.306  40.282 135.185  1.00  0.00     0.208 A 
ATOM      3  C   UNL     1      46.238  40.992 134.613  1.00  0.00     0.238 A 
ATOM      4  O   UNL     1      46.393  42.215 134.357  1.00  0.00    -0.285 OA
ATOM      5  C   UNL     1      45.035  40.317 134.294  1.00  0.00     0.111 A 
ATOM      6  C   UNL     1      43.874  40.944 133.749  1.00  0.00     0.134 A 
ATOM      7  C   UNL     1      42.785  40.158 133.352  1.00  0.00     0.093 A 
ATOM      8  C   UNL     1      42.789  38.776 133.541  1.00  0.00     0.123 A 
ATOM      9  C   UNL     1      43.895  38.159 134.128  1.00  0.00     0.094 A 
ATOM     10  C   UNL     1      45.010  38.913 134.501  1.00  0.00     0.146 A 
ATOM     11  O   UNL     1      46.046  38.287 135.047  1.00  0.00    -0.452 OA
ENDROOT
BRANCH   1  12
ATOM     12  C   UNL     1      48.234  38.093 136.039  1.00  0.00     0.025 A 
ATOM     13  C   UNL     1      49.147  37.362 135.258  1.00  0.00     0.016 A 
ATOM     14  C   UNL     1      50.165  36.624 135.866  1.00  0.00     0.051 A 
ATOM     15  C   UNL     1      50.295  36.614 137.261  1.00  0.00     0.157 A 
ATOM     16  C   UNL     1      48.381  38.096 137.436  1.00  0.00     0.062 A 
ATOM     17  C   UNL     1      49.399  37.357 138.049  1.00  0.00     0.158 A 
BRANCH  15  18
ATOM     18  O   UNL     1      51.311  35.875 137.865  1.00  0.00    -0.504 OA
ATOM     19  H   UNL     1      51.890  35.236 137.333  1.00  0.00     0.293 HD
ENDBRANCH  15  18
BRANCH  17  20
ATOM     20  O   UNL     1      49.506  37.374 139.439  1.00  0.00    -0.504 OA
ATOM     21  H   UNL     1      50.392  37.244 139.912  1.00  0.00     0.293 HD
ENDBRANCH  17  20
ENDBRANCH   1  12
BRANCH   2  22
ATOM     22  O   UNL     1      48.511  40.924 135.486  1.00  0.00    -0.502 OA
ATOM     23  H   UNL     1      48.878  40.978 136.427  1.00  0.00     0.293 HD
ENDBRANCH   2  22
BRANCH   6  24
ATOM     24  O   UNL     1      43.730  42.328 133.603  1.00  0.00    -0.507 OA
ATOM     25  H   UNL     1      44.191  43.017 134.177  1.00  0.00     0.293 HD
ENDBRANCH   6  24
BRANCH   8  26
ATOM     26  O   UNL     1      41.682  38.026 133.149  1.00  0.00    -0.508 OA
ATOM     27  H   UNL     1      41.227  38.181 132.257  1.00  0.00     0.293 HD
ENDBRANCH   8  26
TORSDOF 6
ENDMDL
MODEL 9
REMARK VINA RESULT:    -4.130     14.249     15.698
REMARK INTER + INTRA:          -5.300
REMARK INTER:                  -4.998
REMARK INTRA:                  -0.302
REMARK UNBOUND:                -0.325
REMARK SMILES O=c1c(O)c(-c2ccc(O)c(O)c2)oc2cc(O)cc(O)c12
REMARK SMILES IDX 5 1 3 2 2 3 1 4 22 5 20 6 19 7 17 8 16 9 15 10 14 11 6 12
REMARK SMILES IDX 7 13 8 14 9 15 13 16 11 17 10 18 12 20 4 22 21 24 18 26
REMARK H PARENT 10 19 12 21 4 23 21 25 18 27
REMARK Flexibility Score: inf
ROOT
ATOM      1  C   UNL     1      49.516  37.466 135.231  1.00  0.00     0.180 A 
ATOM      2  C   UNL     1      49.530  36.663 134.077  1.00  0.00     0.208 A 
ATOM      3  C   UNL     1      48.393  36.637 133.251  1.00  0.00     0.238 A 
ATOM      4  O   UNL     1      48.392  35.875 132.249  1.00  0.00    -0.285 OA
ATOM      5  C   UNL     1      47.265  37.425 133.582  1.00  0.00     0.111 A 
ATOM      6  C   UNL     1      46.075  37.507 132.797  1.00  0.00     0.134 A 
ATOM      7  C   UNL     1      44.972  38.217 133.286  1.00  0.00     0.093 A 
ATOM      8  C   UNL     1      45.036  38.902 134.499  1.00  0.00     0.123 A 
ATOM      9  C   UNL     1      46.215  38.877 135.247  1.00  0.00     0.094 A 
ATOM     10  C   UNL     1      47.320  38.148 134.802  1.00  0.00     0.146 A 
ATOM     11  O   UNL     1      48.418  38.142 135.548  1.00  0.00    -0.452 OA
ENDROOT
BRANCH   1  12
ATOM     12  C   UNL     1      50.683  37.564 136.135  1.00  0.00     0.025 A 
ATOM     13  C   UNL     1      50.774  36.784 137.302  1.00  0.00     0.016 A 
ATOM     14  C   UNL     1      51.897  36.877 138.128  1.00  0.00     0.051 A 
ATOM     15  C   UNL     1      52.950  37.738 137.796  1.00  0.00     0.157 A 
ATOM     16  C   UNL     1      51.751  38.411 135.796  1.00  0.00     0.062 A 
ATOM     17  C   UNL     1      52.878  38.507 136.622  1.00  0.00     0.158 A 
BRANCH  15  18
ATOM     18  O   UNL     1      54.069  37.829 138.624  1.00  0.00    -0.504 OA
ATOM     19  H   UNL     1      54.198  38.610 139.256  1.00  0.00     0.293 HD
ENDBRANCH  15  18
BRANCH  17  20
ATOM     20  O   UNL     1      53.912  39.368 136.260  1.00  0.00    -0.504 OA
ATOM     21  H   UNL     1      54.658  39.082 135.637  1.00  0.00     0.293 HD
ENDBRANCH  17  20
ENDBRANCH   1  12
BRANCH   2  22
ATOM     22  O   UNL     1      50.646  35.876 133.781  1.00  0.00    -0.502 OA
ATOM     23  H   UNL     1      51.543  36.013 134.229  1.00  0.00     0.293 HD
ENDBRANCH   2  22
BRANCH   6  24
ATOM     24  O   UNL     1      45.938  36.938 131.527  1.00  0.00    -0.507 OA
ATOM     25  H   UNL     1      45.594  36.006 131.350  1.00  0.00     0.293 HD
ENDBRANCH   6  24
BRANCH   8  26
ATOM     26  O   UNL     1      43.924  39.611 134.949  1.00  0.00    -0.508 OA
ATOM     27  H   UNL     1      43.857  40.616 134.837  1.00  0.00     0.293 HD
ENDBRANCH   8  26
TORSDOF 6
ENDMDL
