MODEL 1
REMARK VINA RESULT:    -6.786      0.000      0.000
REMARK INTER + INTRA:          -7.381
REMARK INTER:                  -7.381
REMARK INTRA:                   0.000
REMARK UNBOUND:                 0.000
REMARK SMILES Cc1cc(O)c2c(c1)C(=O)c1cc(O)cc(O)c1C2=O
REMARK SMILES IDX 1 1 2 2 8 3 7 4 6 5 4 6 3 7 19 8 20 9 18 10 11 11 9 12 10 13
REMARK SMILES IDX 12 14 13 15 15 16 16 17 5 18 17 20 14 22
REMARK H PARENT 5 19 17 21 14 23
REMARK Flexibility Score: inf
ROOT
ATOM      1  C   UNL     1     -33.972   4.453  81.854  1.00  0.00     0.044 C 
ATOM      2  C   UNL     1     -35.457   4.243  81.785  1.00  0.00    -0.047 A 
ATOM      3  C   UNL     1     -36.092   4.116  80.547  1.00  0.00     0.016 A 
ATOM      4  C   UNL     1     -37.488   3.966  80.467  1.00  0.00     0.038 A 
ATOM      5  C   UNL     1     -38.266   3.973  81.648  1.00  0.00     0.076 A 
ATOM      6  C   UNL     1     -37.606   4.042  82.906  1.00  0.00     0.127 A 
ATOM      7  C   UNL     1     -36.219   4.216  82.956  1.00  0.00     0.050 A 
ATOM      8  C   UNL     1     -39.750   3.970  81.518  1.00  0.00     0.201 C 
ATOM      9  O   UNL     1     -40.470   4.385  82.467  1.00  0.00    -0.288 OA
ATOM     10  C   UNL     1     -40.387   3.591  80.230  1.00  0.00     0.076 A 
ATOM     11  C   UNL     1     -39.593   3.524  79.066  1.00  0.00     0.041 A 
ATOM     12  C   UNL     1     -38.140   3.794  79.147  1.00  0.00     0.194 C 
ATOM     13  O   UNL     1     -37.453   3.861  78.091  1.00  0.00    -0.289 OA
ATOM     14  C   UNL     1     -40.188   3.204  77.832  1.00  0.00     0.059 A 
ATOM     15  C   UNL     1     -41.559   2.942  77.752  1.00  0.00     0.120 A 
ATOM     16  C   UNL     1     -42.345   2.999  78.903  1.00  0.00     0.093 A 
ATOM     17  C   UNL     1     -41.772   3.319  80.141  1.00  0.00     0.131 A 
ENDROOT
BRANCH   6  18
ATOM     18  O   UNL     1     -38.275   3.910  84.125  1.00  0.00    -0.507 OA
ATOM     19  H   UNL     1     -38.892   3.141  84.346  1.00  0.00     0.293 HD
ENDBRANCH   6  18
BRANCH  17  20
ATOM     20  O   UNL     1     -42.580   3.356  81.278  1.00  0.00    -0.507 OA
ATOM     21  H   UNL     1     -42.681   4.197  81.833  1.00  0.00     0.293 HD
ENDBRANCH  17  20
BRANCH  15  22
ATOM     22  O   UNL     1     -42.151   2.623  76.531  1.00  0.00    -0.508 OA
ATOM     23  H   UNL     1     -42.953   2.007  76.476  1.00  0.00     0.293 HD
ENDBRANCH  15  22
TORSDOF 3
ENDMDL
MODEL 2
REMARK VINA RESULT:    -6.673      1.174      3.424
REMARK INTER + INTRA:          -7.258
REMARK INTER:                  -7.258
REMARK INTRA:                   0.000
REMARK UNBOUND:                 0.000
REMARK SMILES Cc1cc(O)c2c(c1)C(=O)c1cc(O)cc(O)c1C2=O
REMARK SMILES IDX 1 1 2 2 8 3 7 4 6 5 4 6 3 7 19 8 20 9 18 10 11 11 9 12 10 13
REMARK SMILES IDX 12 14 13 15 15 16 16 17 5 18 17 20 14 22
REMARK H PARENT 5 19 17 21 14 23
REMARK Flexibility Score: inf
ROOT
ATOM      1  C   UNL     1     -33.565   4.823  83.377  1.00  0.00     0.044 C 
ATOM      2  C   UNL     1     -34.607   4.577  82.324  1.00  0.00    -0.047 A 
ATOM      3  C   UNL     1     -35.938   4.361  82.689  1.00  0.00     0.016 A 
ATOM      4  C   UNL     1     -36.914   4.083  81.715  1.00  0.00     0.038 A 
ATOM      5  C   UNL     1     -36.545   3.991  80.353  1.00  0.00     0.076 A 
ATOM      6  C   UNL     1     -35.200   4.271  79.985  1.00  0.00     0.127 A 
ATOM      7  C   UNL     1     -34.245   4.520  80.976  1.00  0.00     0.050 A 
ATOM      8  C   UNL     1     -37.570   3.541  79.371  1.00  0.00     0.201 C 
ATOM      9  O   UNL     1     -37.215   3.051  78.264  1.00  0.00    -0.288 OA
ATOM     10  C   UNL     1     -39.011   3.558  79.733  1.00  0.00     0.076 A 
ATOM     11  C   UNL     1     -39.376   3.714  81.088  1.00  0.00     0.041 A 
ATOM     12  C   UNL     1     -38.328   3.894  82.118  1.00  0.00     0.194 C 
ATOM     13  O   UNL     1     -38.643   3.905  83.340  1.00  0.00    -0.289 OA
ATOM     14  C   UNL     1     -40.734   3.693  81.452  1.00  0.00     0.059 A 
ATOM     15  C   UNL     1     -41.727   3.528  80.482  1.00  0.00     0.120 A 
ATOM     16  C   UNL     1     -41.370   3.383  79.141  1.00  0.00     0.093 A 
ATOM     17  C   UNL     1     -40.022   3.398  78.758  1.00  0.00     0.131 A 
ENDROOT
BRANCH   6  18
ATOM     18  O   UNL     1     -34.775   4.347  78.657  1.00  0.00    -0.507 OA
ATOM     19  H   UNL     1     -35.300   3.977  77.877  1.00  0.00     0.293 HD
ENDBRANCH   6  18
BRANCH  17  20
ATOM     20  O   UNL     1     -39.695   3.263  77.408  1.00  0.00    -0.507 OA
ATOM     21  H   UNL     1     -38.732   3.245  77.092  1.00  0.00     0.293 HD
ENDBRANCH  17  20
BRANCH  15  22
ATOM     22  O   UNL     1     -43.074   3.509  80.840  1.00  0.00    -0.508 OA
ATOM     23  H   UNL     1     -43.786   3.171  80.203  1.00  0.00     0.293 HD
ENDBRANCH  15  22
TORSDOF 3
ENDMDL
MODEL 3
REMARK VINA RESULT:    -6.564      1.663      2.695
REMARK INTER + INTRA:          -7.140
REMARK INTER:                  -7.140
REMARK INTRA:                   0.000
REMARK UNBOUND:                 0.000
REMARK SMILES Cc1cc(O)c2c(c1)C(=O)c1cc(O)cc(O)c1C2=O
REMARK SMILES IDX 1 1 2 2 8 3 7 4 6 5 4 6 3 7 19 8 20 9 18 10 11 11 9 12 10 13
REMARK SMILES IDX 12 14 13 15 15 16 16 17 5 18 17 20 14 22
REMARK H PARENT 5 19 17 21 14 23
REMARK Flexibility Score: inf
ROOT
ATOM      1  C   UNL     1     -33.406   5.577  78.889  1.00  0.00     0.044 C 
ATOM      2  C   UNL     1     -34.491   5.018  79.763  1.00  0.00    -0.047 A 
ATOM      3  C   UNL     1     -35.827   5.093  79.360  1.00  0.00     0.016 A 
ATOM      4  C   UNL     1     -36.855   4.615  80.192  1.00  0.00     0.038 A 
ATOM      5  C   UNL     1     -36.543   4.078  81.463  1.00  0.00     0.076 A 
ATOM      6  C   UNL     1     -35.178   3.951  81.838  1.00  0.00     0.127 A 
ATOM      7  C   UNL     1     -34.176   4.458  81.004  1.00  0.00     0.050 A 
ATOM      8  C   UNL     1     -37.664   3.727  82.378  1.00  0.00     0.201 C 
ATOM      9  O   UNL     1     -37.467   3.649  83.621  1.00  0.00    -0.288 OA
ATOM     10  C   UNL     1     -39.045   3.583  81.848  1.00  0.00     0.076 A 
ATOM     11  C   UNL     1     -39.337   4.064  80.553  1.00  0.00     0.041 A 
ATOM     12  C   UNL     1     -38.263   4.667  79.732  1.00  0.00     0.194 C 
ATOM     13  O   UNL     1     -38.547   5.212  78.629  1.00  0.00    -0.289 OA
ATOM     14  C   UNL     1     -40.647   3.970  80.052  1.00  0.00     0.059 A 
ATOM     15  C   UNL     1     -41.663   3.395  80.823  1.00  0.00     0.120 A 
ATOM     16  C   UNL     1     -41.375   2.911  82.099  1.00  0.00     0.093 A 
ATOM     17  C   UNL     1     -40.077   2.998  82.618  1.00  0.00     0.131 A 
ENDROOT
BRANCH   6  18
ATOM     18  O   UNL     1     -34.766   3.304  83.006  1.00  0.00    -0.507 OA
ATOM     19  H   UNL     1     -34.955   3.651  83.936  1.00  0.00     0.293 HD
ENDBRANCH   6  18
BRANCH  17  20
ATOM     20  O   UNL     1     -39.816   2.494  83.893  1.00  0.00    -0.507 OA
ATOM     21  H   UNL     1     -39.702   1.502  84.061  1.00  0.00     0.293 HD
ENDBRANCH  17  20
BRANCH  15  22
ATOM     22  O   UNL     1     -42.962   3.299  80.328  1.00  0.00    -0.508 OA
ATOM     23  H   UNL     1     -43.747   3.709  80.819  1.00  0.00     0.293 HD
ENDBRANCH  15  22
TORSDOF 3
ENDMDL
MODEL 4
REMARK VINA RESULT:    -6.427      1.268      5.487
REMARK INTER + INTRA:          -6.990
REMARK INTER:                  -6.990
REMARK INTRA:                   0.000
REMARK UNBOUND:                 0.000
REMARK SMILES Cc1cc(O)c2c(c1)C(=O)c1cc(O)cc(O)c1C2=O
REMARK SMILES IDX 1 1 2 2 8 3 7 4 6 5 4 6 3 7 19 8 20 9 18 10 11 11 9 12 10 13
REMARK SMILES IDX 12 14 13 15 15 16 16 17 5 18 17 20 14 22
REMARK H PARENT 5 19 17 21 14 23
REMARK Flexibility Score: inf
ROOT
ATOM      1  C   UNL     1     -42.387   2.250  76.803  1.00  0.00     0.044 C 
ATOM      2  C   UNL     1     -41.653   2.693  78.035  1.00  0.00    -0.047 A 
ATOM      3  C   UNL     1     -40.257   2.756  78.038  1.00  0.00     0.016 A 
ATOM      4  C   UNL     1     -39.557   3.123  79.200  1.00  0.00     0.038 A 
ATOM      5  C   UNL     1     -40.265   3.405  80.391  1.00  0.00     0.076 A 
ATOM      6  C   UNL     1     -41.687   3.397  80.364  1.00  0.00     0.127 A 
ATOM      7  C   UNL     1     -42.358   3.003  79.202  1.00  0.00     0.050 A 
ATOM      8  C   UNL     1     -39.487   3.637  81.640  1.00  0.00     0.201 C 
ATOM      9  O   UNL     1     -40.033   3.479  82.765  1.00  0.00    -0.288 OA
ATOM     10  C   UNL     1     -38.034   3.941  81.570  1.00  0.00     0.076 A 
ATOM     11  C   UNL     1     -37.344   3.717  80.359  1.00  0.00     0.041 A 
ATOM     12  C   UNL     1     -38.078   3.222  79.173  1.00  0.00     0.194 C 
ATOM     13  O   UNL     1     -37.443   2.901  78.130  1.00  0.00    -0.289 OA
ATOM     14  C   UNL     1     -35.962   3.963  80.288  1.00  0.00     0.059 A 
ATOM     15  C   UNL     1     -35.266   4.436  81.405  1.00  0.00     0.120 A 
ATOM     16  C   UNL     1     -35.947   4.666  82.600  1.00  0.00     0.093 A 
ATOM     17  C   UNL     1     -37.324   4.424  82.693  1.00  0.00     0.131 A 
ENDROOT
BRANCH   6  18
ATOM     18  O   UNL     1     -42.472   3.800  81.446  1.00  0.00    -0.507 OA
ATOM     19  H   UNL     1     -43.481   3.846  81.422  1.00  0.00     0.293 HD
ENDBRANCH   6  18
BRANCH  17  20
ATOM     20  O   UNL     1     -37.982   4.675  83.898  1.00  0.00    -0.507 OA
ATOM     21  H   UNL     1     -38.269   3.925  84.515  1.00  0.00     0.293 HD
ENDBRANCH  17  20
BRANCH  15  22
ATOM     22  O   UNL     1     -33.896   4.682  81.337  1.00  0.00    -0.508 OA
ATOM     23  H   UNL     1     -33.447   5.355  81.946  1.00  0.00     0.293 HD
ENDBRANCH  15  22
TORSDOF 3
ENDMDL
MODEL 5
REMARK VINA RESULT:    -6.373      3.095      3.985
REMARK INTER + INTRA:          -6.931
REMARK INTER:                  -6.931
REMARK INTRA:                   0.000
REMARK UNBOUND:                 0.000
REMARK SMILES Cc1cc(O)c2c(c1)C(=O)c1cc(O)cc(O)c1C2=O
REMARK SMILES IDX 1 1 2 2 8 3 7 4 6 5 4 6 3 7 19 8 20 9 18 10 11 11 9 12 10 13
REMARK SMILES IDX 12 14 13 15 15 16 16 17 5 18 17 20 14 22
REMARK H PARENT 5 19 17 21 14 23
REMARK Flexibility Score: inf
ROOT
ATOM      1  C   UNL     1     -33.876   8.681  77.003  1.00  0.00     0.044 C 
ATOM      2  C   UNL     1     -34.637   7.558  77.645  1.00  0.00    -0.047 A 
ATOM      3  C   UNL     1     -36.025   7.481  77.510  1.00  0.00     0.016 A 
ATOM      4  C   UNL     1     -36.754   6.461  78.146  1.00  0.00     0.038 A 
ATOM      5  C   UNL     1     -36.083   5.514  78.955  1.00  0.00     0.076 A 
ATOM      6  C   UNL     1     -34.664   5.564  79.037  1.00  0.00     0.127 A 
ATOM      7  C   UNL     1     -33.967   6.605  78.417  1.00  0.00     0.050 A 
ATOM      8  C   UNL     1     -36.900   4.545  79.737  1.00  0.00     0.201 C 
ATOM      9  O   UNL     1     -36.414   3.982  80.754  1.00  0.00    -0.288 OA
ATOM     10  C   UNL     1     -38.330   4.324  79.393  1.00  0.00     0.076 A 
ATOM     11  C   UNL     1     -38.977   5.237  78.534  1.00  0.00     0.041 A 
ATOM     12  C   UNL     1     -38.222   6.374  77.960  1.00  0.00     0.194 C 
ATOM     13  O   UNL     1     -38.828   7.260  77.297  1.00  0.00    -0.289 OA
ATOM     14  C   UNL     1     -40.339   5.064  78.229  1.00  0.00     0.059 A 
ATOM     15  C   UNL     1     -41.055   3.988  78.765  1.00  0.00     0.120 A 
ATOM     16  C   UNL     1     -40.415   3.080  79.608  1.00  0.00     0.093 A 
ATOM     17  C   UNL     1     -39.059   3.236  79.925  1.00  0.00     0.131 A 
ENDROOT
BRANCH   6  18
ATOM     18  O   UNL     1     -33.906   4.590  79.692  1.00  0.00    -0.507 OA
ATOM     19  H   UNL     1     -33.181   4.801  80.363  1.00  0.00     0.293 HD
ENDBRANCH   6  18
BRANCH  17  20
ATOM     20  O   UNL     1     -38.442   2.305  80.761  1.00  0.00    -0.507 OA
ATOM     21  H   UNL     1     -38.877   1.987  81.619  1.00  0.00     0.293 HD
ENDBRANCH  17  20
BRANCH  15  22
ATOM     22  O   UNL     1     -42.405   3.813  78.464  1.00  0.00    -0.508 OA
ATOM     23  H   UNL     1     -42.745   2.962  78.033  1.00  0.00     0.293 HD
ENDBRANCH  15  22
TORSDOF 3
ENDMDL
MODEL 6
REMARK VINA RESULT:    -6.302      2.762      5.646
REMARK INTER + INTRA:          -6.854
REMARK INTER:                  -6.854
REMARK INTRA:                   0.000
REMARK UNBOUND:                 0.000
REMARK SMILES Cc1cc(O)c2c(c1)C(=O)c1cc(O)cc(O)c1C2=O
REMARK SMILES IDX 1 1 2 2 8 3 7 4 6 5 4 6 3 7 19 8 20 9 18 10 11 11 9 12 10 13
REMARK SMILES IDX 12 14 13 15 15 16 16 17 5 18 17 20 14 22
REMARK H PARENT 5 19 17 21 14 23
REMARK Flexibility Score: inf
ROOT
ATOM      1  C   UNL     1     -38.481   8.163  75.840  1.00  0.00     0.044 C 
ATOM      2  C   UNL     1     -38.478   7.343  77.098  1.00  0.00    -0.047 A 
ATOM      3  C   UNL     1     -37.279   6.833  77.602  1.00  0.00     0.016 A 
ATOM      4  C   UNL     1     -37.269   6.024  78.752  1.00  0.00     0.038 A 
ATOM      5  C   UNL     1     -38.486   5.697  79.394  1.00  0.00     0.076 A 
ATOM      6  C   UNL     1     -39.694   6.269  78.910  1.00  0.00     0.127 A 
ATOM      7  C   UNL     1     -39.679   7.048  77.749  1.00  0.00     0.050 A 
ATOM      8  C   UNL     1     -38.454   4.714  80.513  1.00  0.00     0.201 C 
ATOM      9  O   UNL     1     -39.499   4.084  80.833  1.00  0.00    -0.288 OA
ATOM     10  C   UNL     1     -37.168   4.382  81.181  1.00  0.00     0.076 A 
ATOM     11  C   UNL     1     -35.957   4.768  80.567  1.00  0.00     0.041 A 
ATOM     12  C   UNL     1     -35.984   5.524  79.294  1.00  0.00     0.194 C 
ATOM     13  O   UNL     1     -34.906   5.758  78.680  1.00  0.00    -0.289 OA
ATOM     14  C   UNL     1     -34.732   4.429  81.166  1.00  0.00     0.059 A 
ATOM     15  C   UNL     1     -34.703   3.719  82.371  1.00  0.00     0.120 A 
ATOM     16  C   UNL     1     -35.898   3.344  82.984  1.00  0.00     0.093 A 
ATOM     17  C   UNL     1     -37.130   3.671  82.402  1.00  0.00     0.131 A 
ENDROOT
BRANCH   6  18
ATOM     18  O   UNL     1     -40.922   6.120  79.561  1.00  0.00    -0.507 OA
ATOM     19  H   UNL     1     -41.776   6.563  79.254  1.00  0.00     0.293 HD
ENDBRANCH   6  18
BRANCH  17  20
ATOM     20  O   UNL     1     -38.311   3.294  83.044  1.00  0.00    -0.507 OA
ATOM     21  H   UNL     1     -38.712   3.850  83.790  1.00  0.00     0.293 HD
ENDBRANCH  17  20
BRANCH  15  22
ATOM     22  O   UNL     1     -33.489   3.383  82.968  1.00  0.00    -0.508 OA
ATOM     23  H   UNL     1     -32.604   3.596  82.526  1.00  0.00     0.293 HD
ENDBRANCH  15  22
TORSDOF 3
ENDMDL
MODEL 7
REMARK VINA RESULT:    -6.255      2.202      4.045
REMARK INTER + INTRA:          -6.803
REMARK INTER:                  -6.803
REMARK INTRA:                   0.000
REMARK UNBOUND:                 0.000
REMARK SMILES Cc1cc(O)c2c(c1)C(=O)c1cc(O)cc(O)c1C2=O
REMARK SMILES IDX 1 1 2 2 8 3 7 4 6 5 4 6 3 7 19 8 20 9 18 10 11 11 9 12 10 13
REMARK SMILES IDX 12 14 13 15 15 16 16 17 5 18 17 20 14 22
REMARK H PARENT 5 19 17 21 14 23
REMARK Flexibility Score: inf
ROOT
ATOM      1  C   UNL     1     -33.280   6.378  78.860  1.00  0.00     0.044 C 
ATOM      2  C   UNL     1     -34.746   6.056  78.831  1.00  0.00    -0.047 A 
ATOM      3  C   UNL     1     -35.317   5.285  79.847  1.00  0.00     0.016 A 
ATOM      4  C   UNL     1     -36.679   4.938  79.805  1.00  0.00     0.038 A 
ATOM      5  C   UNL     1     -37.478   5.347  78.713  1.00  0.00     0.076 A 
ATOM      6  C   UNL     1     -36.903   6.182  77.715  1.00  0.00     0.127 A 
ATOM      7  C   UNL     1     -35.540   6.490  77.766  1.00  0.00     0.050 A 
ATOM      8  C   UNL     1     -38.873   4.831  78.623  1.00  0.00     0.201 C 
ATOM      9  O   UNL     1     -39.471   4.812  77.514  1.00  0.00    -0.288 OA
ATOM     10  C   UNL     1     -39.525   4.229  79.815  1.00  0.00     0.076 A 
ATOM     11  C   UNL     1     -38.731   3.880  80.929  1.00  0.00     0.041 A 
ATOM     12  C   UNL     1     -37.276   4.152  80.911  1.00  0.00     0.194 C 
ATOM     13  O   UNL     1     -36.546   3.726  81.849  1.00  0.00    -0.289 OA
ATOM     14  C   UNL     1     -39.327   3.275  82.049  1.00  0.00     0.059 A 
ATOM     15  C   UNL     1     -40.702   3.022  82.072  1.00  0.00     0.120 A 
ATOM     16  C   UNL     1     -41.490   3.373  80.976  1.00  0.00     0.093 A 
ATOM     17  C   UNL     1     -40.916   3.976  79.849  1.00  0.00     0.131 A 
ENDROOT
BRANCH   6  18
ATOM     18  O   UNL     1     -37.647   6.752  76.679  1.00  0.00    -0.507 OA
ATOM     19  H   UNL     1     -38.539   7.206  76.813  1.00  0.00     0.293 HD
ENDBRANCH   6  18
BRANCH  17  20
ATOM     20  O   UNL     1     -41.731   4.328  78.773  1.00  0.00    -0.507 OA
ATOM     21  H   UNL     1     -42.703   4.583  78.901  1.00  0.00     0.293 HD
ENDBRANCH  17  20
BRANCH  15  22
ATOM     22  O   UNL     1     -41.296   2.423  83.182  1.00  0.00    -0.508 OA
ATOM     23  H   UNL     1     -42.302   2.383  83.287  1.00  0.00     0.293 HD
ENDBRANCH  15  22
TORSDOF 3
ENDMDL
MODEL 8
REMARK VINA RESULT:    -6.043      2.255      6.459
REMARK INTER + INTRA:          -6.573
REMARK INTER:                  -6.573
REMARK INTRA:                   0.000
REMARK UNBOUND:                 0.000
REMARK SMILES Cc1cc(O)c2c(c1)C(=O)c1cc(O)cc(O)c1C2=O
REMARK SMILES IDX 1 1 2 2 8 3 7 4 6 5 4 6 3 7 19 8 20 9 18 10 11 11 9 12 10 13
REMARK SMILES IDX 12 14 13 15 15 16 16 17 5 18 17 20 14 22
REMARK H PARENT 5 19 17 21 14 23
REMARK Flexibility Score: inf
ROOT
ATOM      1  C   UNL     1     -42.235   3.270  78.488  1.00  0.00     0.044 C 
ATOM      2  C   UNL     1     -40.766   3.418  78.758  1.00  0.00    -0.047 A 
ATOM      3  C   UNL     1     -40.307   4.409  79.630  1.00  0.00     0.016 A 
ATOM      4  C   UNL     1     -38.930   4.587  79.854  1.00  0.00     0.038 A 
ATOM      5  C   UNL     1     -37.993   3.777  79.171  1.00  0.00     0.076 A 
ATOM      6  C   UNL     1     -38.471   2.732  78.333  1.00  0.00     0.127 A 
ATOM      7  C   UNL     1     -39.844   2.593  78.107  1.00  0.00     0.050 A 
ATOM      8  C   UNL     1     -36.545   4.096  79.312  1.00  0.00     0.201 C 
ATOM      9  O   UNL     1     -35.723   3.705  78.441  1.00  0.00    -0.288 OA
ATOM     10  C   UNL     1     -36.077   4.975  80.415  1.00  0.00     0.076 A 
ATOM     11  C   UNL     1     -37.024   5.735  81.136  1.00  0.00     0.041 A 
ATOM     12  C   UNL     1     -38.464   5.618  80.811  1.00  0.00     0.194 C 
ATOM     13  O   UNL     1     -39.297   6.388  81.365  1.00  0.00    -0.289 OA
ATOM     14  C   UNL     1     -36.594   6.600  82.157  1.00  0.00     0.059 A 
ATOM     15  C   UNL     1     -35.235   6.709  82.470  1.00  0.00     0.120 A 
ATOM     16  C   UNL     1     -34.298   5.953  81.765  1.00  0.00     0.093 A 
ATOM     17  C   UNL     1     -34.706   5.086  80.743  1.00  0.00     0.131 A 
ENDROOT
BRANCH   6  18
ATOM     18  O   UNL     1     -37.629   1.793  77.733  1.00  0.00    -0.507 OA
ATOM     19  H   UNL     1     -36.892   1.305  78.223  1.00  0.00     0.293 HD
ENDBRANCH   6  18
BRANCH  17  20
ATOM     20  O   UNL     1     -33.748   4.333  80.063  1.00  0.00    -0.507 OA
ATOM     21  H   UNL     1     -33.042   3.799  80.555  1.00  0.00     0.293 HD
ENDBRANCH  17  20
BRANCH  15  22
ATOM     22  O   UNL     1     -34.806   7.565  83.482  1.00  0.00    -0.508 OA
ATOM     23  H   UNL     1     -35.423   8.257  83.888  1.00  0.00     0.293 HD
ENDBRANCH  15  22
TORSDOF 3
ENDMDL
MODEL 9
REMARK VINA RESULT:    -5.994      2.577      4.519
REMARK INTER + INTRA:          -6.520
REMARK INTER:                  -6.520
REMARK INTRA:                   0.000
REMARK UNBOUND:                 0.000
REMARK SMILES Cc1cc(O)c2c(c1)C(=O)c1cc(O)cc(O)c1C2=O
REMARK SMILES IDX 1 1 2 2 8 3 7 4 6 5 4 6 3 7 19 8 20 9 18 10 11 11 9 12 10 13
REMARK SMILES IDX 12 14 13 15 15 16 16 17 5 18 17 20 14 22
REMARK H PARENT 5 19 17 21 14 23
REMARK Flexibility Score: inf
ROOT
ATOM      1  C   UNL     1     -39.119   1.528  84.122  1.00  0.00     0.044 C 
ATOM      2  C   UNL     1     -38.342   2.392  83.173  1.00  0.00    -0.047 A 
ATOM      3  C   UNL     1     -38.935   2.853  81.995  1.00  0.00     0.016 A 
ATOM      4  C   UNL     1     -38.202   3.624  81.075  1.00  0.00     0.038 A 
ATOM      5  C   UNL     1     -36.841   3.915  81.325  1.00  0.00     0.076 A 
ATOM      6  C   UNL     1     -36.263   3.492  82.554  1.00  0.00     0.127 A 
ATOM      7  C   UNL     1     -37.006   2.705  83.439  1.00  0.00     0.050 A 
ATOM      8  C   UNL     1     -36.055   4.597  80.260  1.00  0.00     0.201 C 
ATOM      9  O   UNL     1     -34.797   4.509  80.245  1.00  0.00    -0.288 OA
ATOM     10  C   UNL     1     -36.751   5.286  79.142  1.00  0.00     0.076 A 
ATOM     11  C   UNL     1     -38.126   5.041  78.935  1.00  0.00     0.041 A 
ATOM     12  C   UNL     1     -38.859   4.137  79.850  1.00  0.00     0.194 C 
ATOM     13  O   UNL     1     -40.053   3.816  79.592  1.00  0.00    -0.289 OA
ATOM     14  C   UNL     1     -38.791   5.656  77.860  1.00  0.00     0.059 A 
ATOM     15  C   UNL     1     -38.103   6.515  76.997  1.00  0.00     0.120 A 
ATOM     16  C   UNL     1     -36.746   6.766  77.205  1.00  0.00     0.093 A 
ATOM     17  C   UNL     1     -36.065   6.161  78.270  1.00  0.00     0.131 A 
ENDROOT
BRANCH   6  18
ATOM     18  O   UNL     1     -34.974   3.855  82.953  1.00  0.00    -0.507 OA
ATOM     19  H   UNL     1     -34.780   4.550  83.660  1.00  0.00     0.293 HD
ENDBRANCH   6  18
BRANCH  17  20
ATOM     20  O   UNL     1     -34.711   6.441  78.460  1.00  0.00    -0.507 OA
ATOM     21  H   UNL     1     -34.329   7.365  78.298  1.00  0.00     0.293 HD
ENDBRANCH  17  20
BRANCH  15  22
ATOM     22  O   UNL     1     -38.759   7.127  75.931  1.00  0.00    -0.508 OA
ATOM     23  H   UNL     1     -38.669   6.778  74.984  1.00  0.00     0.293 HD
ENDBRANCH  15  22
TORSDOF 3
ENDMDL
