MODEL 1
REMARK VINA RESULT:    -4.671      0.000      0.000
REMARK INTER + INTRA:          -5.860
REMARK INTER:                  -5.763
REMARK INTRA:                  -0.097
REMARK UNBOUND:                -0.097
REMARK SMILES CCCCCC(=O)[O-]
REMARK SMILES IDX 4 1 5 2 6 3 7 4 8 5 3 6 2 7 1 8
REMARK H PARENT
REMARK Flexibility Score: inf
ROOT
ATOM      1  C   UNL     1      94.443 120.887 119.961  1.00  0.00     0.006 C 
ENDROOT
BRANCH   1   2
ATOM      2  C   UNL     1      93.328 121.583 120.752  1.00  0.00     0.053 C 
BRANCH   2   3
ATOM      3  C   UNL     1      93.787 121.890 122.143  1.00  0.00     0.041 C 
ATOM      4  O   UNL     1      94.647 121.159 122.702  1.00  0.00    -0.550 OA
ATOM      5  O   UNL     1      93.301 123.011 122.803  1.00  0.00    -0.550 OA
ENDBRANCH   2   3
ENDBRANCH   1   2
BRANCH   1   6
ATOM      6  C   UNL     1      94.225 120.949 118.439  1.00  0.00     0.000 C 
BRANCH   6   7
ATOM      7  C   UNL     1      92.918 121.634 118.000  1.00  0.00    -0.003 C 
ATOM      8  C   UNL     1      92.509 121.282 116.571  1.00  0.00     0.004 C 
ENDBRANCH   6   7
ENDBRANCH   1   6
TORSDOF 4
ENDMDL
MODEL 2
REMARK VINA RESULT:    -4.604      0.824      1.180
REMARK INTER + INTRA:          -5.778
REMARK INTER:                  -5.692
REMARK INTRA:                  -0.087
REMARK UNBOUND:                -0.097
REMARK SMILES CCCCCC(=O)[O-]
REMARK SMILES IDX 4 1 5 2 6 3 7 4 8 5 3 6 2 7 1 8
REMARK H PARENT
REMARK Flexibility Score: inf
ROOT
ATOM      1  C   UNL     1      94.909 121.110 119.776  1.00  0.00     0.006 C 
ENDROOT
BRANCH   1   2
ATOM      2  C   UNL     1      93.887 121.243 120.913  1.00  0.00     0.053 C 
BRANCH   2   3
ATOM      3  C   UNL     1      94.520 121.874 122.113  1.00  0.00     0.041 C 
ATOM      4  O   UNL     1      93.827 122.128 123.134  1.00  0.00    -0.550 OA
ATOM      5  O   UNL     1      95.884 122.135 122.123  1.00  0.00    -0.550 OA
ENDBRANCH   2   3
ENDBRANCH   1   2
BRANCH   1   6
ATOM      6  C   UNL     1      94.251 120.875 118.405  1.00  0.00     0.000 C 
BRANCH   6   7
ATOM      7  C   UNL     1      92.923 121.622 118.189  1.00  0.00    -0.003 C 
ATOM      8  C   UNL     1      92.420 121.543 116.749  1.00  0.00     0.004 C 
ENDBRANCH   6   7
ENDBRANCH   1   6
TORSDOF 4
ENDMDL
MODEL 3
REMARK VINA RESULT:    -4.514      1.931      2.904
REMARK INTER + INTRA:          -5.667
REMARK INTER:                  -5.579
REMARK INTRA:                  -0.088
REMARK UNBOUND:                -0.097
REMARK SMILES CCCCCC(=O)[O-]
REMARK SMILES IDX 4 1 5 2 6 3 7 4 8 5 3 6 2 7 1 8
REMARK H PARENT
REMARK Flexibility Score: inf
ROOT
ATOM      1  C   UNL     1      94.613 121.492 122.545  1.00  0.00     0.006 C 
ENDROOT
BRANCH   1   2
ATOM      2  C   UNL     1      95.724 122.543 122.658  1.00  0.00     0.053 C 
BRANCH   2   3
ATOM      3  C   UNL     1      95.406 123.525 123.742  1.00  0.00     0.041 C 
ATOM      4  O   UNL     1      96.160 124.513 123.942  1.00  0.00    -0.550 OA
ATOM      5  O   UNL     1      94.251 123.375 124.498  1.00  0.00    -0.550 OA
ENDBRANCH   2   3
ENDBRANCH   1   2
BRANCH   1   6
ATOM      6  C   UNL     1      93.957 121.461 121.152  1.00  0.00     0.000 C 
BRANCH   6   7
ATOM      7  C   UNL     1      94.916 121.132 119.994  1.00  0.00    -0.003 C 
ATOM      8  C   UNL     1      94.198 120.936 118.660  1.00  0.00     0.004 C 
ENDBRANCH   6   7
ENDBRANCH   1   6
TORSDOF 4
ENDMDL
MODEL 4
REMARK VINA RESULT:    -4.473      2.626      5.257
REMARK INTER + INTRA:          -5.616
REMARK INTER:                  -5.490
REMARK INTRA:                  -0.126
REMARK UNBOUND:                -0.097
REMARK SMILES CCCCCC(=O)[O-]
REMARK SMILES IDX 4 1 5 2 6 3 7 4 8 5 3 6 2 7 1 8
REMARK H PARENT
REMARK Flexibility Score: inf
ROOT
ATOM      1  C   UNL     1      93.524 122.404 123.216  1.00  0.00     0.006 C 
ENDROOT
BRANCH   1   2
ATOM      2  C   UNL     1      94.511 121.586 122.373  1.00  0.00     0.053 C 
BRANCH   2   3
ATOM      3  C   UNL     1      93.978 121.386 120.990  1.00  0.00     0.041 C 
ATOM      4  O   UNL     1      92.778 121.666 120.727  1.00  0.00    -0.550 OA
ATOM      5  O   UNL     1      94.818 120.937 119.979  1.00  0.00    -0.550 OA
ENDBRANCH   2   3
ENDBRANCH   1   2
BRANCH   1   6
ATOM      6  C   UNL     1      94.210 123.514 124.032  1.00  0.00     0.000 C 
BRANCH   6   7
ATOM      7  C   UNL     1      95.730 123.625 123.822  1.00  0.00    -0.003 C 
ATOM      8  C   UNL     1      96.483 124.012 125.093  1.00  0.00     0.004 C 
ENDBRANCH   6   7
ENDBRANCH   1   6
TORSDOF 4
ENDMDL
MODEL 5
REMARK VINA RESULT:    -4.378      2.875      4.423
REMARK INTER + INTRA:          -5.499
REMARK INTER:                  -5.406
REMARK INTRA:                  -0.093
REMARK UNBOUND:                -0.097
REMARK SMILES CCCCCC(=O)[O-]
REMARK SMILES IDX 4 1 5 2 6 3 7 4 8 5 3 6 2 7 1 8
REMARK H PARENT
REMARK Flexibility Score: inf
ROOT
ATOM      1  C   UNL     1      94.661 121.228 119.174  1.00  0.00     0.006 C 
ENDROOT
BRANCH   1   2
ATOM      2  C   UNL     1      93.860 120.880 117.912  1.00  0.00     0.053 C 
BRANCH   2   3
ATOM      3  C   UNL     1      92.684 121.794 117.770  1.00  0.00     0.041 C 
ATOM      4  O   UNL     1      92.855 123.001 117.452  1.00  0.00    -0.550 OA
ATOM      5  O   UNL     1      91.397 121.301 117.941  1.00  0.00    -0.550 OA
ENDBRANCH   2   3
ENDBRANCH   1   2
BRANCH   1   6
ATOM      6  C   UNL     1      93.803 121.212 120.451  1.00  0.00     0.000 C 
BRANCH   6   7
ATOM      7  C   UNL     1      94.564 121.552 121.745  1.00  0.00    -0.003 C 
ATOM      8  C   UNL     1      93.671 122.175 122.817  1.00  0.00     0.004 C 
ENDBRANCH   6   7
ENDBRANCH   1   6
TORSDOF 4
ENDMDL
MODEL 6
REMARK VINA RESULT:    -4.229      3.017      5.117
REMARK INTER + INTRA:          -5.316
REMARK INTER:                  -5.192
REMARK INTRA:                  -0.124
REMARK UNBOUND:                -0.097
REMARK SMILES CCCCCC(=O)[O-]
REMARK SMILES IDX 4 1 5 2 6 3 7 4 8 5 3 6 2 7 1 8
REMARK H PARENT
REMARK Flexibility Score: inf
ROOT
ATOM      1  C   UNL     1      95.886 122.140 122.121  1.00  0.00     0.006 C 
ENDROOT
BRANCH   1   2
ATOM      2  C   UNL     1      94.625 121.273 122.225  1.00  0.00     0.053 C 
BRANCH   2   3
ATOM      3  C   UNL     1      93.408 122.077 121.888  1.00  0.00     0.041 C 
ATOM      4  O   UNL     1      92.724 121.793 120.870  1.00  0.00    -0.550 OA
ATOM      5  O   UNL     1      93.003 123.108 122.726  1.00  0.00    -0.550 OA
ENDBRANCH   2   3
ENDBRANCH   1   2
BRANCH   1   6
ATOM      6  C   UNL     1      96.507 122.462 123.492  1.00  0.00     0.000 C 
BRANCH   6   7
ATOM      7  C   UNL     1      96.101 123.824 124.081  1.00  0.00    -0.003 C 
ATOM      8  C   UNL     1      96.724 124.094 125.450  1.00  0.00     0.004 C 
ENDBRANCH   6   7
ENDBRANCH   1   6
TORSDOF 4
ENDMDL
MODEL 7
REMARK VINA RESULT:    -4.173      3.404      4.414
REMARK INTER + INTRA:          -5.246
REMARK INTER:                  -5.147
REMARK INTRA:                  -0.099
REMARK UNBOUND:                -0.097
REMARK SMILES CCCCCC(=O)[O-]
REMARK SMILES IDX 4 1 5 2 6 3 7 4 8 5 3 6 2 7 1 8
REMARK H PARENT
REMARK Flexibility Score: inf
ROOT
ATOM      1  C   UNL     1      96.351 122.439 123.181  1.00  0.00     0.006 C 
ENDROOT
BRANCH   1   2
ATOM      2  C   UNL     1      95.533 123.465 123.975  1.00  0.00     0.053 C 
BRANCH   2   3
ATOM      3  C   UNL     1      96.431 124.297 124.835  1.00  0.00     0.041 C 
ATOM      4  O   UNL     1      96.829 123.859 125.947  1.00  0.00    -0.550 OA
ATOM      5  O   UNL     1      96.868 125.537 124.386  1.00  0.00    -0.550 OA
ENDBRANCH   2   3
ENDBRANCH   1   2
BRANCH   1   6
ATOM      6  C   UNL     1      95.657 121.997 121.880  1.00  0.00     0.000 C 
BRANCH   6   7
ATOM      7  C   UNL     1      94.319 121.263 122.079  1.00  0.00    -0.003 C 
ATOM      8  C   UNL     1      93.180 121.861 121.255  1.00  0.00     0.004 C 
ENDBRANCH   6   7
ENDBRANCH   1   6
TORSDOF 4
ENDMDL
MODEL 8
REMARK VINA RESULT:    -4.083      2.668      4.450
REMARK INTER + INTRA:          -5.135
REMARK INTER:                  -5.013
REMARK INTRA:                  -0.122
REMARK UNBOUND:                -0.097
REMARK SMILES CCCCCC(=O)[O-]
REMARK SMILES IDX 4 1 5 2 6 3 7 4 8 5 3 6 2 7 1 8
REMARK H PARENT
REMARK Flexibility Score: inf
ROOT
ATOM      1  C   UNL     1      93.862 121.191 121.111  1.00  0.00     0.006 C 
ENDROOT
BRANCH   1   2
ATOM      2  C   UNL     1      93.069 121.634 119.875  1.00  0.00     0.053 C 
BRANCH   2   3
ATOM      3  C   UNL     1      93.793 121.251 118.624  1.00  0.00     0.041 C 
ATOM      4  O   UNL     1      94.994 120.875 118.676  1.00  0.00    -0.550 OA
ATOM      5  O   UNL     1      93.126 121.261 117.405  1.00  0.00    -0.550 OA
ENDBRANCH   2   3
ENDBRANCH   1   2
BRANCH   1   6
ATOM      6  C   UNL     1      93.610 122.085 122.338  1.00  0.00     0.000 C 
BRANCH   6   7
ATOM      7  C   UNL     1      94.878 122.508 123.101  1.00  0.00    -0.003 C 
ATOM      8  C   UNL     1      96.151 122.373 122.267  1.00  0.00     0.004 C 
ENDBRANCH   6   7
ENDBRANCH   1   6
TORSDOF 4
ENDMDL
