MODEL 1
REMARK VINA RESULT:    -4.498      0.000      0.000
REMARK INTER + INTRA:          -8.115
REMARK INTER:                  -6.865
REMARK INTRA:                  -1.250
REMARK UNBOUND:                -1.250
REMARK SMILES CCCCCCCCCCC(=O)[O-]
REMARK SMILES IDX 7 1 8 2 9 3 10 4 11 5 12 6 13 7 6 8 5 9 4 10 3 11 2 12 1 13
REMARK H PARENT
REMARK Flexibility Score: inf
ROOT
ATOM      1  C   UNL     1       5.006   0.711  13.926  1.00  0.00     0.000 C 
ENDROOT
BRANCH   1   2
ATOM      2  C   UNL     1       3.698   0.152  13.355  1.00  0.00     0.000 C 
BRANCH   2   3
ATOM      3  C   UNL     1       3.366  -1.211  13.973  1.00  0.00     0.006 C 
BRANCH   3   4
ATOM      4  C   UNL     1       2.751  -1.046  15.367  1.00  0.00     0.053 C 
BRANCH   4   5
ATOM      5  C   UNL     1       1.576  -0.121  15.315  1.00  0.00     0.041 C 
ATOM      6  O   UNL     1       1.515   0.871  16.088  1.00  0.00    -0.550 OA
ATOM      7  O   UNL     1       0.571  -0.327  14.378  1.00  0.00    -0.550 OA
ENDBRANCH   4   5
ENDBRANCH   3   4
ENDBRANCH   2   3
ENDBRANCH   1   2
BRANCH   1   8
ATOM      8  C   UNL     1       4.813   2.141  14.447  1.00  0.00     0.000 C 
BRANCH   8   9
ATOM      9  C   UNL     1       4.835   2.177  15.980  1.00  0.00    -0.000 C 
BRANCH   9  10
ATOM     10  C   UNL     1       5.636   0.996  16.546  1.00  0.00    -0.000 C 
BRANCH  10  11
ATOM     11  C   UNL     1       5.137   0.551  17.930  1.00  0.00    -0.000 C 
BRANCH  11  12
ATOM     12  C   UNL     1       5.367  -0.946  18.188  1.00  0.00    -0.003 C 
ATOM     13  C   UNL     1       5.910  -1.640  16.943  1.00  0.00     0.004 C 
ENDBRANCH  11  12
ENDBRANCH  10  11
ENDBRANCH   9  10
ENDBRANCH   8   9
ENDBRANCH   1   8
TORSDOF 9
ENDMDL
MODEL 2
REMARK VINA RESULT:    -4.483      1.172      2.427
REMARK INTER + INTRA:          -8.093
REMARK INTER:                  -7.102
REMARK INTRA:                  -0.991
REMARK UNBOUND:                -1.250
REMARK SMILES CCCCCCCCCCC(=O)[O-]
REMARK SMILES IDX 7 1 8 2 9 3 10 4 11 5 12 6 13 7 6 8 5 9 4 10 3 11 2 12 1 13
REMARK H PARENT
REMARK Flexibility Score: inf
ROOT
ATOM      1  C   UNL     1       6.072   0.416  14.699  1.00  0.00     0.000 C 
ENDROOT
BRANCH   1   2
ATOM      2  C   UNL     1       5.136   1.038  13.656  1.00  0.00     0.000 C 
BRANCH   2   3
ATOM      3  C   UNL     1       3.741   1.281  14.244  1.00  0.00     0.006 C 
BRANCH   3   4
ATOM      4  C   UNL     1       2.829   0.072  14.009  1.00  0.00     0.053 C 
BRANCH   4   5
ATOM      5  C   UNL     1       1.673   0.097  14.958  1.00  0.00     0.041 C 
ATOM      6  O   UNL     1       0.648  -0.597  14.727  1.00  0.00    -0.550 OA
ATOM      7  O   UNL     1       1.746   0.851  16.122  1.00  0.00    -0.550 OA
ENDBRANCH   4   5
ENDBRANCH   3   4
ENDBRANCH   2   3
ENDBRANCH   1   2
BRANCH   1   8
ATOM      8  C   UNL     1       6.405  -1.038  14.343  1.00  0.00     0.000 C 
BRANCH   8   9
ATOM      9  C   UNL     1       6.173  -1.966  15.541  1.00  0.00    -0.000 C 
BRANCH   9  10
ATOM     10  C   UNL     1       5.270  -1.297  16.588  1.00  0.00    -0.000 C 
BRANCH  10  11
ATOM     11  C   UNL     1       5.806  -1.456  18.020  1.00  0.00    -0.000 C 
BRANCH  11  12
ATOM     12  C   UNL     1       5.420  -0.280  18.930  1.00  0.00    -0.003 C 
ATOM     13  C   UNL     1       4.832   0.871  18.119  1.00  0.00     0.004 C 
ENDBRANCH  11  12
ENDBRANCH  10  11
ENDBRANCH   9  10
ENDBRANCH   8   9
ENDBRANCH   1   8
TORSDOF 9
ENDMDL
MODEL 3
REMARK VINA RESULT:    -4.475      2.376      4.294
REMARK INTER + INTRA:          -8.080
REMARK INTER:                  -6.786
REMARK INTRA:                  -1.295
REMARK UNBOUND:                -1.250
REMARK SMILES CCCCCCCCCCC(=O)[O-]
REMARK SMILES IDX 7 1 8 2 9 3 10 4 11 5 12 6 13 7 6 8 5 9 4 10 3 11 2 12 1 13
REMARK H PARENT
REMARK Flexibility Score: inf
ROOT
ATOM      1  C   UNL     1       3.496   2.707  15.196  1.00  0.00     0.000 C 
ENDROOT
BRANCH   1   2
ATOM      2  C   UNL     1       4.557   2.646  16.301  1.00  0.00     0.000 C 
BRANCH   2   3
ATOM      3  C   UNL     1       4.275   1.494  17.271  1.00  0.00     0.006 C 
BRANCH   3   4
ATOM      4  C   UNL     1       5.459   0.522  17.330  1.00  0.00     0.053 C 
BRANCH   4   5
ATOM      5  C   UNL     1       5.430  -0.262  18.603  1.00  0.00     0.041 C 
ATOM      6  O   UNL     1       4.566  -0.011  19.483  1.00  0.00    -0.550 OA
ATOM      7  O   UNL     1       6.327  -1.305  18.796  1.00  0.00    -0.550 OA
ENDBRANCH   4   5
ENDBRANCH   3   4
ENDBRANCH   2   3
ENDBRANCH   1   2
BRANCH   1   8
ATOM      8  C   UNL     1       4.144   2.637  13.807  1.00  0.00     0.000 C 
BRANCH   8   9
ATOM      9  C   UNL     1       4.728   1.245  13.540  1.00  0.00    -0.000 C 
BRANCH   9  10
ATOM     10  C   UNL     1       3.613   0.198  13.405  1.00  0.00    -0.000 C 
BRANCH  10  11
ATOM     11  C   UNL     1       3.770  -0.966  14.398  1.00  0.00    -0.000 C 
BRANCH  11  12
ATOM     12  C   UNL     1       2.533  -1.154  15.289  1.00  0.00    -0.003 C 
ATOM     13  C   UNL     1       1.377  -0.279  14.814  1.00  0.00     0.004 C 
ENDBRANCH  11  12
ENDBRANCH  10  11
ENDBRANCH   9  10
ENDBRANCH   8   9
ENDBRANCH   1   8
TORSDOF 9
ENDMDL
MODEL 4
REMARK VINA RESULT:    -4.447      0.754      1.093
REMARK INTER + INTRA:          -8.037
REMARK INTER:                  -7.036
REMARK INTRA:                  -1.001
REMARK UNBOUND:                -1.250
REMARK SMILES CCCCCCCCCCC(=O)[O-]
REMARK SMILES IDX 7 1 8 2 9 3 10 4 11 5 12 6 13 7 6 8 5 9 4 10 3 11 2 12 1 13
REMARK H PARENT
REMARK Flexibility Score: inf
ROOT
ATOM      1  C   UNL     1       4.921   1.789  14.986  1.00  0.00     0.000 C 
ENDROOT
BRANCH   1   2
ATOM      2  C   UNL     1       4.017   1.645  13.756  1.00  0.00     0.000 C 
BRANCH   2   3
ATOM      3  C   UNL     1       3.557   0.193  13.579  1.00  0.00     0.006 C 
BRANCH   3   4
ATOM      4  C   UNL     1       3.039  -0.385  14.900  1.00  0.00     0.053 C 
BRANCH   4   5
ATOM      5  C   UNL     1       1.621   0.032  15.133  1.00  0.00     0.041 C 
ATOM      6  O   UNL     1       1.333   0.787  16.099  1.00  0.00    -0.550 OA
ATOM      7  O   UNL     1       0.625  -0.373  14.254  1.00  0.00    -0.550 OA
ENDBRANCH   4   5
ENDBRANCH   3   4
ENDBRANCH   2   3
ENDBRANCH   1   2
BRANCH   1   8
ATOM      8  C   UNL     1       4.261   2.670  16.054  1.00  0.00     0.000 C 
BRANCH   8   9
ATOM      9  C   UNL     1       4.355   2.020  17.440  1.00  0.00    -0.000 C 
BRANCH   9  10
ATOM     10  C   UNL     1       5.391   0.886  17.447  1.00  0.00    -0.000 C 
BRANCH  10  11
ATOM     11  C   UNL     1       5.261  -0.028  18.676  1.00  0.00    -0.000 C 
BRANCH  11  12
ATOM     12  C   UNL     1       5.621  -1.489  18.367  1.00  0.00    -0.003 C 
ATOM     13  C   UNL     1       5.889  -1.684  16.877  1.00  0.00     0.004 C 
ENDBRANCH  11  12
ENDBRANCH  10  11
ENDBRANCH   9  10
ENDBRANCH   8   9
ENDBRANCH   1   8
TORSDOF 9
ENDMDL
MODEL 5
REMARK VINA RESULT:    -4.416      2.547      4.239
REMARK INTER + INTRA:          -7.990
REMARK INTER:                  -6.862
REMARK INTRA:                  -1.128
REMARK UNBOUND:                -1.250
REMARK SMILES CCCCCCCCCCC(=O)[O-]
REMARK SMILES IDX 7 1 8 2 9 3 10 4 11 5 12 6 13 7 6 8 5 9 4 10 3 11 2 12 1 13
REMARK H PARENT
REMARK Flexibility Score: inf
ROOT
ATOM      1  C   UNL     1       6.214   0.591  14.898  1.00  0.00     0.000 C 
ENDROOT
BRANCH   1   2
ATOM      2  C   UNL     1       5.855  -0.895  15.015  1.00  0.00     0.000 C 
BRANCH   2   3
ATOM      3  C   UNL     1       5.485  -1.260  16.457  1.00  0.00     0.006 C 
BRANCH   3   4
ATOM      4  C   UNL     1       5.473  -0.016  17.352  1.00  0.00     0.053 C 
BRANCH   4   5
ATOM      5  C   UNL     1       5.518  -0.409  18.794  1.00  0.00     0.041 C 
ATOM      6  O   UNL     1       4.666   0.045  19.602  1.00  0.00    -0.550 OA
ATOM      7  O   UNL     1       6.473  -1.315  19.238  1.00  0.00    -0.550 OA
ENDBRANCH   4   5
ENDBRANCH   3   4
ENDBRANCH   2   3
ENDBRANCH   1   2
BRANCH   1   8
ATOM      8  C   UNL     1       5.844   1.140  13.515  1.00  0.00     0.000 C 
BRANCH   8   9
ATOM      9  C   UNL     1       4.323   1.256  13.356  1.00  0.00    -0.000 C 
BRANCH   9  10
ATOM     10  C   UNL     1       3.721   2.137  14.460  1.00  0.00    -0.000 C 
BRANCH  10  11
ATOM     11  C   UNL     1       2.687   1.389  15.318  1.00  0.00    -0.000 C 
BRANCH  11  12
ATOM     12  C   UNL     1       2.261   0.051  14.698  1.00  0.00    -0.003 C 
ATOM     13  C   UNL     1       0.765  -0.186  14.879  1.00  0.00     0.004 C 
ENDBRANCH  11  12
ENDBRANCH  10  11
ENDBRANCH   9  10
ENDBRANCH   8   9
ENDBRANCH   1   8
TORSDOF 9
ENDMDL
MODEL 6
REMARK VINA RESULT:    -4.330      2.275      4.203
REMARK INTER + INTRA:          -7.858
REMARK INTER:                  -6.431
REMARK INTRA:                  -1.427
REMARK UNBOUND:                -1.250
REMARK SMILES CCCCCCCCCCC(=O)[O-]
REMARK SMILES IDX 7 1 8 2 9 3 10 4 11 5 12 6 13 7 6 8 5 9 4 10 3 11 2 12 1 13
REMARK H PARENT
REMARK Flexibility Score: inf
ROOT
ATOM      1  C   UNL     1       3.193   2.240  15.219  1.00  0.00     0.000 C 
ENDROOT
BRANCH   1   2
ATOM      2  C   UNL     1       4.317   2.519  16.224  1.00  0.00     0.000 C 
BRANCH   2   3
ATOM      3  C   UNL     1       4.320   1.476  17.348  1.00  0.00     0.006 C 
BRANCH   3   4
ATOM      4  C   UNL     1       5.651   0.718  17.389  1.00  0.00     0.053 C 
BRANCH   4   5
ATOM      5  C   UNL     1       5.476  -0.611  18.053  1.00  0.00     0.041 C 
ATOM      6  O   UNL     1       6.256  -0.966  18.976  1.00  0.00    -0.550 OA
ATOM      7  O   UNL     1       4.422  -1.437  17.686  1.00  0.00    -0.550 OA
ENDBRANCH   4   5
ENDBRANCH   3   4
ENDBRANCH   2   3
ENDBRANCH   1   2
BRANCH   1   8
ATOM      8  C   UNL     1       2.461   0.937  15.559  1.00  0.00     0.000 C 
BRANCH   8   9
ATOM      9  C   UNL     1       2.398   0.006  14.341  1.00  0.00    -0.000 C 
BRANCH   9  10
ATOM     10  C   UNL     1       3.732   0.002  13.582  1.00  0.00    -0.000 C 
BRANCH  10  11
ATOM     11  C   UNL     1       4.722  -1.040  14.128  1.00  0.00    -0.000 C 
BRANCH  11  12
ATOM     12  C   UNL     1       6.186  -0.603  13.973  1.00  0.00    -0.003 C 
ATOM     13  C   UNL     1       6.280   0.845  13.502  1.00  0.00     0.004 C 
ENDBRANCH  11  12
ENDBRANCH  10  11
ENDBRANCH   9  10
ENDBRANCH   8   9
ENDBRANCH   1   8
TORSDOF 9
ENDMDL
MODEL 7
REMARK VINA RESULT:    -4.282      2.183      4.222
REMARK INTER + INTRA:          -7.785
REMARK INTER:                  -6.598
REMARK INTRA:                  -1.186
REMARK UNBOUND:                -1.250
REMARK SMILES CCCCCCCCCCC(=O)[O-]
REMARK SMILES IDX 7 1 8 2 9 3 10 4 11 5 12 6 13 7 6 8 5 9 4 10 3 11 2 12 1 13
REMARK H PARENT
REMARK Flexibility Score: inf
ROOT
ATOM      1  C   UNL     1       5.930  -0.376  14.768  1.00  0.00     0.000 C 
ENDROOT
BRANCH   1   2
ATOM      2  C   UNL     1       5.859  -1.581  15.714  1.00  0.00     0.000 C 
BRANCH   2   3
ATOM      3  C   UNL     1       5.492  -1.143  17.136  1.00  0.00     0.006 C 
BRANCH   3   4
ATOM      4  C   UNL     1       5.504   0.385  17.260  1.00  0.00     0.053 C 
BRANCH   4   5
ATOM      5  C   UNL     1       4.677   0.822  18.427  1.00  0.00     0.041 C 
ATOM      6  O   UNL     1       3.911   1.816  18.324  1.00  0.00    -0.550 OA
ATOM      7  O   UNL     1       4.714   0.102  19.614  1.00  0.00    -0.550 OA
ENDBRANCH   4   5
ENDBRANCH   3   4
ENDBRANCH   2   3
ENDBRANCH   1   2
BRANCH   1   8
ATOM      8  C   UNL     1       5.143  -0.641  13.479  1.00  0.00     0.000 C 
BRANCH   8   9
ATOM      9  C   UNL     1       4.087   0.446  13.245  1.00  0.00    -0.000 C 
BRANCH   9  10
ATOM     10  C   UNL     1       3.070   0.482  14.395  1.00  0.00    -0.000 C 
BRANCH  10  11
ATOM     11  C   UNL     1       2.910   1.885  15.002  1.00  0.00    -0.000 C 
BRANCH  11  12
ATOM     12  C   UNL     1       3.898   2.901  14.409  1.00  0.00    -0.003 C 
ATOM     13  C   UNL     1       4.491   3.789  15.499  1.00  0.00     0.004 C 
ENDBRANCH  11  12
ENDBRANCH  10  11
ENDBRANCH   9  10
ENDBRANCH   8   9
ENDBRANCH   1   8
TORSDOF 9
ENDMDL
MODEL 8
REMARK VINA RESULT:    -4.186      1.582      2.901
REMARK INTER + INTRA:          -7.639
REMARK INTER:                  -6.710
REMARK INTRA:                  -0.928
REMARK UNBOUND:                -1.250
REMARK SMILES CCCCCCCCCCC(=O)[O-]
REMARK SMILES IDX 7 1 8 2 9 3 10 4 11 5 12 6 13 7 6 8 5 9 4 10 3 11 2 12 1 13
REMARK H PARENT
REMARK Flexibility Score: inf
ROOT
ATOM      1  C   UNL     1       3.767   0.221  13.273  1.00  0.00     0.000 C 
ENDROOT
BRANCH   1   2
ATOM      2  C   UNL     1       4.620   1.378  13.808  1.00  0.00     0.000 C 
BRANCH   2   3
ATOM      3  C   UNL     1       3.740   2.469  14.428  1.00  0.00     0.006 C 
BRANCH   3   4
ATOM      4  C   UNL     1       4.138   2.733  15.884  1.00  0.00     0.053 C 
BRANCH   4   5
ATOM      5  C   UNL     1       3.316   1.895  16.811  1.00  0.00     0.041 C 
ATOM      6  O   UNL     1       3.668   1.745  18.011  1.00  0.00    -0.550 OA
ATOM      7  O   UNL     1       2.134   1.320  16.364  1.00  0.00    -0.550 OA
ENDBRANCH   4   5
ENDBRANCH   3   4
ENDBRANCH   2   3
ENDBRANCH   1   2
BRANCH   1   8
ATOM      8  C   UNL     1       3.993  -1.054  14.094  1.00  0.00     0.000 C 
BRANCH   8   9
ATOM      9  C   UNL     1       5.465  -1.485  14.051  1.00  0.00    -0.000 C 
BRANCH   9  10
ATOM     10  C   UNL     1       5.962  -1.885  15.448  1.00  0.00    -0.000 C 
BRANCH  10  11
ATOM     11  C   UNL     1       5.655  -0.819  16.513  1.00  0.00    -0.000 C 
BRANCH  11  12
ATOM     12  C   UNL     1       5.177  -1.429  17.839  1.00  0.00    -0.003 C 
ATOM     13  C   UNL     1       6.267  -1.349  18.904  1.00  0.00     0.004 C 
ENDBRANCH  11  12
ENDBRANCH  10  11
ENDBRANCH   9  10
ENDBRANCH   8   9
ENDBRANCH   1   8
TORSDOF 9
ENDMDL
MODEL 9
REMARK VINA RESULT:    -4.064      2.599      4.422
REMARK INTER + INTRA:          -7.452
REMARK INTER:                  -6.398
REMARK INTRA:                  -1.055
REMARK UNBOUND:                -1.250
REMARK SMILES CCCCCCCCCCC(=O)[O-]
REMARK SMILES IDX 7 1 8 2 9 3 10 4 11 5 12 6 13 7 6 8 5 9 4 10 3 11 2 12 1 13
REMARK H PARENT
REMARK Flexibility Score: inf
ROOT
ATOM      1  C   UNL     1       5.189  -0.968  13.870  1.00  0.00     0.000 C 
ENDROOT
BRANCH   1   2
ATOM      2  C   UNL     1       4.555  -1.283  15.231  1.00  0.00     0.000 C 
BRANCH   2   3
ATOM      3  C   UNL     1       5.250  -0.505  16.354  1.00  0.00     0.006 C 
BRANCH   3   4
ATOM      4  C   UNL     1       5.779  -1.455  17.434  1.00  0.00     0.053 C 
BRANCH   4   5
ATOM      5  C   UNL     1       5.736  -0.797  18.776  1.00  0.00     0.041 C 
ATOM      6  O   UNL     1       6.620  -1.050  19.636  1.00  0.00    -0.550 OA
ATOM      7  O   UNL     1       4.745   0.133  19.062  1.00  0.00    -0.550 OA
ENDBRANCH   4   5
ENDBRANCH   3   4
ENDBRANCH   2   3
ENDBRANCH   1   2
BRANCH   1   8
ATOM      8  C   UNL     1       6.297   0.082  14.009  1.00  0.00     0.000 C 
BRANCH   8   9
ATOM      9  C   UNL     1       6.117   1.213  12.988  1.00  0.00    -0.000 C 
BRANCH   9  10
ATOM     10  C   UNL     1       4.691   1.781  13.043  1.00  0.00    -0.000 C 
BRANCH  10  11
ATOM     11  C   UNL     1       4.625   3.152  13.735  1.00  0.00    -0.000 C 
BRANCH  11  12
ATOM     12  C   UNL     1       4.002   3.078  15.136  1.00  0.00    -0.003 C 
ATOM     13  C   UNL     1       2.864   2.062  15.178  1.00  0.00     0.004 C 
ENDBRANCH  11  12
ENDBRANCH  10  11
ENDBRANCH   9  10
ENDBRANCH   8   9
ENDBRANCH   1   8
TORSDOF 9
ENDMDL
