MODEL 1
REMARK VINA RESULT:    -6.992      0.000      0.000
REMARK INTER + INTRA:         -11.759
REMARK INTER:                 -10.262
REMARK INTRA:                  -1.497
REMARK UNBOUND:                -1.497
REMARK SMILES Cc1cc2c(C(C)C)c(O)c(O)c(C=O)c2c(O)c1-c1c(C)cc2c(C(C)C)c(O)c(O)c(C=O)c2c1O
REMARK SMILES IDX 1 1 2 2 3 3 4 4 16 5 13 6 11 7 9 8 5 9 17 10 19 11 20 12
REMARK SMILES IDX 37 13 21 14 36 15 23 16 22 17 24 18 33 19 25 20 31 21 29 22
REMARK SMILES IDX 38 23 34 25 35 26 26 27 27 28 28 29 32 30 30 32 18 34 6 36
REMARK SMILES IDX 7 37 8 38 14 39 15 40 10 41 12 43
REMARK H PARENT 38 24 32 31 30 33 18 35 10 42 12 44
REMARK Flexibility Score: inf
ROOT
ATOM      1  C   UNL     1      19.613 -31.039  24.698  1.00  0.00     0.045 C 
ATOM      2  C   UNL     1      18.661 -31.677  23.717  1.00  0.00    -0.039 A 
ATOM      3  C   UNL     1      17.377 -31.147  23.569  1.00  0.00     0.013 A 
ATOM      4  C   UNL     1      16.433 -31.715  22.683  1.00  0.00    -0.006 A 
ATOM      5  C   UNL     1      16.835 -32.818  21.871  1.00  0.00     0.039 A 
ATOM      6  C   UNL     1      15.889 -33.388  20.973  1.00  0.00     0.072 A 
ATOM      7  C   UNL     1      14.671 -32.736  20.728  1.00  0.00     0.169 A 
ATOM      8  C   UNL     1      14.321 -31.589  21.462  1.00  0.00     0.162 A 
ATOM      9  C   UNL     1      15.116 -31.173  22.554  1.00  0.00     0.008 A 
ATOM     10  C   UNL     1      18.183 -33.275  21.939  1.00  0.00     0.132 A 
ATOM     11  C   UNL     1      19.072 -32.737  22.893  1.00  0.00     0.031 A 
ENDROOT
BRANCH  11  12
ATOM     12  C   UNL     1      20.458 -33.264  23.003  1.00  0.00     0.031 A 
ATOM     13  C   UNL     1      20.742 -34.345  23.865  1.00  0.00     0.132 A 
ATOM     14  C   UNL     1      21.491 -32.658  22.270  1.00  0.00    -0.039 A 
ATOM     15  C   UNL     1      22.058 -34.895  23.925  1.00  0.00     0.039 A 
ATOM     16  C   UNL     1      22.796 -33.135  22.397  1.00  0.00     0.013 A 
ATOM     17  C   UNL     1      21.222 -31.461  21.390  1.00  0.00     0.045 C 
ATOM     18  C   UNL     1      23.104 -34.270  23.181  1.00  0.00    -0.006 A 
ATOM     19  C   UNL     1      22.371 -36.019  24.744  1.00  0.00     0.072 A 
ATOM     20  C   UNL     1      24.442 -34.763  23.273  1.00  0.00     0.008 A 
ATOM     21  C   UNL     1      23.715 -36.383  24.951  1.00  0.00     0.169 A 
ATOM     22  C   UNL     1      24.747 -35.701  24.284  1.00  0.00     0.162 A 
BRANCH  13  23
ATOM     23  O   UNL     1      19.730 -34.839  24.695  1.00  0.00    -0.507 OA
ATOM     24  H   UNL     1      18.873 -34.339  24.899  1.00  0.00     0.293 HD
ENDBRANCH  13  23
BRANCH  19  25
ATOM     25  C   UNL     1      21.320 -36.887  25.328  1.00  0.00     0.264 C 
ATOM     26  O   UNL     1      21.046 -36.842  26.557  1.00  0.00    -0.298 OA
ENDBRANCH  19  25
BRANCH  20  27
ATOM     27  C   UNL     1      25.557 -34.263  22.337  1.00  0.00     0.017 C 
ATOM     28  C   UNL     1      26.534 -33.350  23.084  1.00  0.00     0.012 C 
ATOM     29  C   UNL     1      26.301 -35.392  21.598  1.00  0.00     0.012 C 
ENDBRANCH  20  27
BRANCH  21  30
ATOM     30  O   UNL     1      23.997 -37.467  25.791  1.00  0.00    -0.504 OA
ATOM     31  H   UNL     1      23.415 -38.290  25.867  1.00  0.00     0.293 HD
ENDBRANCH  21  30
BRANCH  22  32
ATOM     32  O   UNL     1      26.083 -35.933  24.618  1.00  0.00    -0.504 OA
ATOM     33  H   UNL     1      26.865 -35.683  24.029  1.00  0.00     0.293 HD
ENDBRANCH  22  32
ENDBRANCH  11  12
BRANCH  10  34
ATOM     34  O   UNL     1      18.651 -34.220  21.020  1.00  0.00    -0.507 OA
ATOM     35  H   UNL     1      18.455 -35.212  21.082  1.00  0.00     0.293 HD
ENDBRANCH  10  34
BRANCH   9  36
ATOM     36  C   UNL     1      14.576 -30.113  23.532  1.00  0.00     0.017 C 
ATOM     37  C   UNL     1      14.716 -28.706  22.944  1.00  0.00     0.012 C 
ATOM     38  C   UNL     1      13.135 -30.380  24.006  1.00  0.00     0.012 C 
ENDBRANCH   9  36
BRANCH   6  39
ATOM     39  C   UNL     1      16.088 -34.700  20.316  1.00  0.00     0.264 C 
ATOM     40  O   UNL     1      16.410 -34.766  19.099  1.00  0.00    -0.298 OA
ENDBRANCH   6  39
BRANCH   8  41
ATOM     41  O   UNL     1      13.193 -30.840  21.116  1.00  0.00    -0.504 OA
ATOM     42  H   UNL     1      12.318 -31.241  20.810  1.00  0.00     0.293 HD
ENDBRANCH   8  41
BRANCH   7  43
ATOM     43  O   UNL     1      13.800 -33.283  19.779  1.00  0.00    -0.504 OA
ATOM     44  H   UNL     1      13.915 -33.184  18.780  1.00  0.00     0.293 HD
ENDBRANCH   7  43
TORSDOF 11
ENDMDL
MODEL 2
REMARK VINA RESULT:    -6.906      0.916      9.018
REMARK INTER + INTRA:         -11.632
REMARK INTER:                 -10.483
REMARK INTRA:                  -1.150
REMARK UNBOUND:                -1.497
REMARK SMILES Cc1cc2c(C(C)C)c(O)c(O)c(C=O)c2c(O)c1-c1c(C)cc2c(C(C)C)c(O)c(O)c(C=O)c2c1O
REMARK SMILES IDX 1 1 2 2 3 3 4 4 16 5 13 6 11 7 9 8 5 9 17 10 19 11 20 12
REMARK SMILES IDX 37 13 21 14 36 15 23 16 22 17 24 18 33 19 25 20 31 21 29 22
REMARK SMILES IDX 38 23 34 25 35 26 26 27 27 28 28 29 32 30 30 32 18 34 6 36
REMARK SMILES IDX 7 37 8 38 14 39 15 40 10 41 12 43
REMARK H PARENT 38 24 32 31 30 33 18 35 10 42 12 44
REMARK Flexibility Score: inf
ROOT
ATOM      1  C   UNL     1      20.634 -31.258  21.706  1.00  0.00     0.045 C 
ATOM      2  C   UNL     1      20.986 -32.447  22.565  1.00  0.00    -0.039 A 
ATOM      3  C   UNL     1      22.329 -32.713  22.844  1.00  0.00     0.013 A 
ATOM      4  C   UNL     1      22.724 -33.825  23.622  1.00  0.00    -0.006 A 
ATOM      5  C   UNL     1      21.712 -34.654  24.192  1.00  0.00     0.039 A 
ATOM      6  C   UNL     1      22.105 -35.772  24.981  1.00  0.00     0.072 A 
ATOM      7  C   UNL     1      23.443 -35.915  25.378  1.00  0.00     0.169 A 
ATOM      8  C   UNL     1      24.425 -35.033  24.892  1.00  0.00     0.162 A 
ATOM      9  C   UNL     1      24.103 -34.095  23.885  1.00  0.00     0.008 A 
ATOM     10  C   UNL     1      20.342 -34.307  24.004  1.00  0.00     0.132 A 
ATOM     11  C   UNL     1      19.987 -33.238  23.154  1.00  0.00     0.031 A 
ENDROOT
BRANCH  11  12
ATOM     12  C   UNL     1      18.555 -32.922  22.910  1.00  0.00     0.031 A 
ATOM     13  C   UNL     1      17.908 -33.401  21.752  1.00  0.00     0.132 A 
ATOM     14  C   UNL     1      17.857 -32.115  23.824  1.00  0.00    -0.039 A 
ATOM     15  C   UNL     1      16.517 -33.153  21.546  1.00  0.00     0.039 A 
ATOM     16  C   UNL     1      16.522 -31.794  23.578  1.00  0.00     0.013 A 
ATOM     17  C   UNL     1      18.546 -31.539  25.037  1.00  0.00     0.045 C 
ATOM     18  C   UNL     1      15.816 -32.327  22.476  1.00  0.00    -0.006 A 
ATOM     19  C   UNL     1      15.817 -33.664  20.414  1.00  0.00     0.072 A 
ATOM     20  C   UNL     1      14.438 -32.013  22.259  1.00  0.00     0.008 A 
ATOM     21  C   UNL     1      14.516 -33.210  20.130  1.00  0.00     0.169 A 
ATOM     22  C   UNL     1      13.866 -32.323  21.006  1.00  0.00     0.162 A 
BRANCH  13  23
ATOM     23  O   UNL     1      18.657 -34.079  20.783  1.00  0.00    -0.507 OA
ATOM     24  H   UNL     1      19.086 -33.629  19.984  1.00  0.00     0.293 HD
ENDBRANCH  13  23
BRANCH  19  25
ATOM     25  C   UNL     1      16.380 -34.736  19.556  1.00  0.00     0.264 C 
ATOM     26  O   UNL     1      16.144 -35.951  19.792  1.00  0.00    -0.298 OA
ENDBRANCH  19  25
BRANCH  20  27
ATOM     27  C   UNL     1      13.588 -31.308  23.331  1.00  0.00     0.017 C 
ATOM     28  C   UNL     1      13.594 -32.097  24.644  1.00  0.00     0.012 C 
ATOM     29  C   UNL     1      13.976 -29.835  23.561  1.00  0.00     0.012 C 
ENDBRANCH  20  27
BRANCH  21  30
ATOM     30  O   UNL     1      13.864 -33.699  18.991  1.00  0.00    -0.504 OA
ATOM     31  H   UNL     1      14.142 -33.482  18.044  1.00  0.00     0.293 HD
ENDBRANCH  21  30
BRANCH  22  32
ATOM     32  O   UNL     1      12.654 -31.729  20.645  1.00  0.00    -0.504 OA
ATOM     33  H   UNL     1      12.519 -31.187  19.803  1.00  0.00     0.293 HD
ENDBRANCH  22  32
ENDBRANCH  11  12
BRANCH  10  34
ATOM     34  O   UNL     1      19.343 -34.987  24.708  1.00  0.00    -0.507 OA
ATOM     35  H   UNL     1      18.642 -35.571  24.269  1.00  0.00     0.293 HD
ENDBRANCH  10  34
BRANCH   9  36
ATOM     36  C   UNL     1      25.230 -33.349  23.148  1.00  0.00     0.017 C 
ATOM     37  C   UNL     1      25.139 -33.577  21.636  1.00  0.00     0.012 C 
ATOM     38  C   UNL     1      25.306 -31.848  23.484  1.00  0.00     0.012 C 
ENDBRANCH   9  36
BRANCH   6  39
ATOM     39  C   UNL     1      21.175 -36.859  25.363  1.00  0.00     0.264 C 
ATOM     40  O   UNL     1      20.709 -36.925  26.532  1.00  0.00    -0.298 OA
ENDBRANCH   6  39
BRANCH   8  41
ATOM     41  O   UNL     1      25.725 -35.065  25.405  1.00  0.00    -0.504 OA
ATOM     42  H   UNL     1      26.429 -34.368  25.211  1.00  0.00     0.293 HD
ENDBRANCH   8  41
BRANCH   7  43
ATOM     43  O   UNL     1      23.779 -36.981  26.221  1.00  0.00    -0.504 OA
ATOM     44  H   UNL     1      24.671 -37.456  26.208  1.00  0.00     0.293 HD
ENDBRANCH   7  43
TORSDOF 11
ENDMDL
MODEL 3
REMARK VINA RESULT:    -6.759      1.613      9.131
REMARK INTER + INTRA:         -11.418
REMARK INTER:                 -10.085
REMARK INTRA:                  -1.333
REMARK UNBOUND:                -1.497
REMARK SMILES Cc1cc2c(C(C)C)c(O)c(O)c(C=O)c2c(O)c1-c1c(C)cc2c(C(C)C)c(O)c(O)c(C=O)c2c1O
REMARK SMILES IDX 1 1 2 2 3 3 4 4 16 5 13 6 11 7 9 8 5 9 17 10 19 11 20 12
REMARK SMILES IDX 37 13 21 14 36 15 23 16 22 17 24 18 33 19 25 20 31 21 29 22
REMARK SMILES IDX 38 23 34 25 35 26 26 27 27 28 28 29 32 30 30 32 18 34 6 36
REMARK SMILES IDX 7 37 8 38 14 39 15 40 10 41 12 43
REMARK H PARENT 38 24 32 31 30 33 18 35 10 42 12 44
REMARK Flexibility Score: inf
ROOT
ATOM      1  C   UNL     1      21.832 -31.747  21.613  1.00  0.00     0.045 C 
ATOM      2  C   UNL     1      22.305 -32.575  22.783  1.00  0.00    -0.039 A 
ATOM      3  C   UNL     1      23.674 -32.670  23.042  1.00  0.00     0.013 A 
ATOM      4  C   UNL     1      24.179 -33.448  24.108  1.00  0.00    -0.006 A 
ATOM      5  C   UNL     1      23.254 -34.096  24.980  1.00  0.00     0.039 A 
ATOM      6  C   UNL     1      23.758 -34.876  26.058  1.00  0.00     0.072 A 
ATOM      7  C   UNL     1      25.121 -34.818  26.390  1.00  0.00     0.169 A 
ATOM      8  C   UNL     1      26.016 -34.094  25.583  1.00  0.00     0.162 A 
ATOM      9  C   UNL     1      25.584 -33.550  24.352  1.00  0.00     0.008 A 
ATOM     10  C   UNL     1      21.857 -33.895  24.782  1.00  0.00     0.132 A 
ATOM     11  C   UNL     1      21.391 -33.179  23.660  1.00  0.00     0.031 A 
ENDROOT
BRANCH  11  12
ATOM     12  C   UNL     1      19.930 -33.029  23.423  1.00  0.00     0.031 A 
ATOM     13  C   UNL     1      19.243 -33.953  22.607  1.00  0.00     0.132 A 
ATOM     14  C   UNL     1      19.243 -31.943  23.989  1.00  0.00    -0.039 A 
ATOM     15  C   UNL     1      17.831 -33.850  22.429  1.00  0.00     0.039 A 
ATOM     16  C   UNL     1      17.879 -31.788  23.741  1.00  0.00     0.013 A 
ATOM     17  C   UNL     1      19.969 -30.908  24.813  1.00  0.00     0.045 C 
ATOM     18  C   UNL     1      17.140 -32.740  23.003  1.00  0.00    -0.006 A 
ATOM     19  C   UNL     1      17.094 -34.793  21.655  1.00  0.00     0.072 A 
ATOM     20  C   UNL     1      15.736 -32.580  22.788  1.00  0.00     0.008 A 
ATOM     21  C   UNL     1      15.754 -34.530  21.316  1.00  0.00     0.169 A 
ATOM     22  C   UNL     1      15.108 -33.385  21.812  1.00  0.00     0.162 A 
BRANCH  13  23
ATOM     23  O   UNL     1      19.970 -34.942  21.935  1.00  0.00    -0.507 OA
ATOM     24  H   UNL     1      19.547 -35.710  21.430  1.00  0.00     0.293 HD
ENDBRANCH  13  23
BRANCH  19  25
ATOM     25  C   UNL     1      17.666 -36.103  21.256  1.00  0.00     0.264 C 
ATOM     26  O   UNL     1      17.960 -36.347  20.056  1.00  0.00    -0.298 OA
ENDBRANCH  19  25
BRANCH  20  27
ATOM     27  C   UNL     1      14.913 -31.527  23.552  1.00  0.00     0.017 C 
ATOM     28  C   UNL     1      14.512 -30.369  22.633  1.00  0.00     0.012 C 
ATOM     29  C   UNL     1      13.689 -32.109  24.286  1.00  0.00     0.012 C 
ENDBRANCH  20  27
BRANCH  21  30
ATOM     30  O   UNL     1      15.065 -35.455  20.522  1.00  0.00    -0.504 OA
ATOM     31  H   UNL     1      14.337 -35.207  19.867  1.00  0.00     0.293 HD
ENDBRANCH  21  30
BRANCH  22  32
ATOM     32  O   UNL     1      13.844 -33.022  21.340  1.00  0.00    -0.504 OA
ATOM     33  H   UNL     1      13.263 -33.616  20.765  1.00  0.00     0.293 HD
ENDBRANCH  22  32
ENDBRANCH  11  12
BRANCH  10  34
ATOM     34  O   UNL     1      20.940 -34.358  25.731  1.00  0.00    -0.507 OA
ATOM     35  H   UNL     1      21.042 -34.220  26.729  1.00  0.00     0.293 HD
ENDBRANCH  10  34
BRANCH   9  36
ATOM     36  C   UNL     1      26.623 -33.030  23.341  1.00  0.00     0.017 C 
ATOM     37  C   UNL     1      27.190 -31.679  23.787  1.00  0.00     0.012 C 
ATOM     38  C   UNL     1      27.749 -34.035  23.033  1.00  0.00     0.012 C 
ENDBRANCH   9  36
BRANCH   6  39
ATOM     39  C   UNL     1      22.923 -35.824  26.830  1.00  0.00     0.264 C 
ATOM     40  O   UNL     1      22.535 -36.906  26.313  1.00  0.00    -0.298 OA
ENDBRANCH   6  39
BRANCH   8  41
ATOM     41  O   UNL     1      27.338 -33.893  25.992  1.00  0.00    -0.504 OA
ATOM     42  H   UNL     1      27.612 -33.670  26.937  1.00  0.00     0.293 HD
ENDBRANCH   8  41
BRANCH   7  43
ATOM     43  O   UNL     1      25.567 -35.534  27.507  1.00  0.00    -0.504 OA
ATOM     44  H   UNL     1      26.441 -36.041  27.544  1.00  0.00     0.293 HD
ENDBRANCH   7  43
TORSDOF 11
ENDMDL
MODEL 4
REMARK VINA RESULT:    -6.754      2.171      9.203
REMARK INTER + INTRA:         -11.410
REMARK INTER:                 -10.177
REMARK INTRA:                  -1.233
REMARK UNBOUND:                -1.497
REMARK SMILES Cc1cc2c(C(C)C)c(O)c(O)c(C=O)c2c(O)c1-c1c(C)cc2c(C(C)C)c(O)c(O)c(C=O)c2c1O
REMARK SMILES IDX 1 1 2 2 3 3 4 4 16 5 13 6 11 7 9 8 5 9 17 10 19 11 20 12
REMARK SMILES IDX 37 13 21 14 36 15 23 16 22 17 24 18 33 19 25 20 31 21 29 22
REMARK SMILES IDX 38 23 34 25 35 26 26 27 27 28 28 29 32 30 30 32 18 34 6 36
REMARK SMILES IDX 7 37 8 38 14 39 15 40 10 41 12 43
REMARK H PARENT 38 24 32 31 30 33 18 35 10 42 12 44
REMARK Flexibility Score: inf
ROOT
ATOM      1  C   UNL     1      19.400 -35.223  24.525  1.00  0.00     0.045 C 
ATOM      2  C   UNL     1      20.392 -34.120  24.248  1.00  0.00    -0.039 A 
ATOM      3  C   UNL     1      21.749 -34.345  24.493  1.00  0.00     0.013 A 
ATOM      4  C   UNL     1      22.722 -33.344  24.276  1.00  0.00    -0.006 A 
ATOM      5  C   UNL     1      22.307 -32.094  23.726  1.00  0.00     0.039 A 
ATOM      6  C   UNL     1      23.285 -31.085  23.500  1.00  0.00     0.072 A 
ATOM      7  C   UNL     1      24.650 -31.395  23.599  1.00  0.00     0.169 A 
ATOM      8  C   UNL     1      25.057 -32.665  24.047  1.00  0.00     0.162 A 
ATOM      9  C   UNL     1      24.106 -33.581  24.547  1.00  0.00     0.008 A 
ATOM     10  C   UNL     1      20.940 -31.915  23.365  1.00  0.00     0.132 A 
ATOM     11  C   UNL     1      19.985 -32.906  23.672  1.00  0.00     0.031 A 
ENDROOT
BRANCH  11  12
ATOM     12  C   UNL     1      18.549 -32.686  23.352  1.00  0.00     0.031 A 
ATOM     13  C   UNL     1      18.003 -33.187  22.151  1.00  0.00     0.132 A 
ATOM     14  C   UNL     1      17.746 -31.948  24.236  1.00  0.00    -0.039 A 
ATOM     15  C   UNL     1      16.612 -33.033  21.870  1.00  0.00     0.039 A 
ATOM     16  C   UNL     1      16.407 -31.717  23.920  1.00  0.00     0.013 A 
ATOM     17  C   UNL     1      18.324 -31.349  25.496  1.00  0.00     0.045 C 
ATOM     18  C   UNL     1      15.803 -32.277  22.772  1.00  0.00    -0.006 A 
ATOM     19  C   UNL     1      16.014 -33.570  20.693  1.00  0.00     0.072 A 
ATOM     20  C   UNL     1      14.421 -32.056  22.482  1.00  0.00     0.008 A 
ATOM     21  C   UNL     1      14.701 -33.203  20.343  1.00  0.00     0.169 A 
ATOM     22  C   UNL     1      13.942 -32.381  21.194  1.00  0.00     0.162 A 
BRANCH  13  23
ATOM     23  O   UNL     1      18.851 -33.791  21.217  1.00  0.00    -0.507 OA
ATOM     24  H   UNL     1      18.548 -34.486  20.545  1.00  0.00     0.293 HD
ENDBRANCH  13  23
BRANCH  19  25
ATOM     25  C   UNL     1      16.698 -34.583  19.852  1.00  0.00     0.264 C 
ATOM     26  O   UNL     1      17.216 -34.271  18.747  1.00  0.00    -0.298 OA
ENDBRANCH  19  25
BRANCH  20  27
ATOM     27  C   UNL     1      13.465 -31.434  23.515  1.00  0.00     0.017 C 
ATOM     28  C   UNL     1      13.494 -32.214  24.832  1.00  0.00     0.012 C 
ATOM     29  C   UNL     1      13.698 -29.929  23.750  1.00  0.00     0.012 C 
ENDBRANCH  20  27
BRANCH  21  30
ATOM     30  O   UNL     1      14.151 -33.714  19.161  1.00  0.00    -0.504 OA
ATOM     31  H   UNL     1      14.166 -33.230  18.274  1.00  0.00     0.293 HD
ENDBRANCH  21  30
BRANCH  22  32
ATOM     32  O   UNL     1      12.714 -31.867  20.774  1.00  0.00    -0.504 OA
ATOM     33  H   UNL     1      12.511 -31.591  19.823  1.00  0.00     0.293 HD
ENDBRANCH  22  32
ENDBRANCH  11  12
BRANCH  10  34
ATOM     34  O   UNL     1      20.546 -30.779  22.650  1.00  0.00    -0.507 OA
ATOM     35  H   UNL     1      20.788 -29.833  22.917  1.00  0.00     0.293 HD
ENDBRANCH  10  34
BRANCH   9  36
ATOM     36  C   UNL     1      24.579 -34.833  25.310  1.00  0.00     0.017 C 
ATOM     37  C   UNL     1      25.214 -35.847  24.354  1.00  0.00     0.012 C 
ATOM     38  C   UNL     1      25.511 -34.524  26.496  1.00  0.00     0.012 C 
ENDBRANCH   9  36
BRANCH   6  39
ATOM     39  C   UNL     1      22.940 -29.672  23.227  1.00  0.00     0.264 C 
ATOM     40  O   UNL     1      23.246 -28.765  24.048  1.00  0.00    -0.298 OA
ENDBRANCH   6  39
BRANCH   8  41
ATOM     41  O   UNL     1      26.403 -33.038  23.993  1.00  0.00    -0.504 OA
ATOM     42  H   UNL     1      27.155 -32.416  23.736  1.00  0.00     0.293 HD
ENDBRANCH   8  41
BRANCH   7  43
ATOM     43  O   UNL     1      25.585 -30.400  23.291  1.00  0.00    -0.504 OA
ATOM     44  H   UNL     1      26.150 -30.392  22.453  1.00  0.00     0.293 HD
ENDBRANCH   7  43
TORSDOF 11
ENDMDL
MODEL 5
REMARK VINA RESULT:    -6.744      2.180      3.372
REMARK INTER + INTRA:         -11.396
REMARK INTER:                 -10.214
REMARK INTRA:                  -1.181
REMARK UNBOUND:                -1.497
REMARK SMILES Cc1cc2c(C(C)C)c(O)c(O)c(C=O)c2c(O)c1-c1c(C)cc2c(C(C)C)c(O)c(O)c(C=O)c2c1O
REMARK SMILES IDX 1 1 2 2 3 3 4 4 16 5 13 6 11 7 9 8 5 9 17 10 19 11 20 12
REMARK SMILES IDX 37 13 21 14 36 15 23 16 22 17 24 18 33 19 25 20 31 21 29 22
REMARK SMILES IDX 38 23 34 25 35 26 26 27 27 28 28 29 32 30 30 32 18 34 6 36
REMARK SMILES IDX 7 37 8 38 14 39 15 40 10 41 12 43
REMARK H PARENT 38 24 32 31 30 33 18 35 10 42 12 44
REMARK Flexibility Score: inf
ROOT
ATOM      1  C   UNL     1      18.304 -31.395  25.438  1.00  0.00     0.045 C 
ATOM      2  C   UNL     1      17.713 -31.962  24.171  1.00  0.00    -0.039 A 
ATOM      3  C   UNL     1      16.368 -31.721  23.878  1.00  0.00     0.013 A 
ATOM      4  C   UNL     1      15.752 -32.243  22.719  1.00  0.00    -0.006 A 
ATOM      5  C   UNL     1      16.550 -32.980  21.793  1.00  0.00     0.039 A 
ATOM      6  C   UNL     1      15.934 -33.503  20.621  1.00  0.00     0.072 A 
ATOM      7  C   UNL     1      14.633 -33.108  20.275  1.00  0.00     0.169 A 
ATOM      8  C   UNL     1      13.883 -32.297  21.146  1.00  0.00     0.162 A 
ATOM      9  C   UNL     1      14.370 -32.004  22.440  1.00  0.00     0.008 A 
ATOM     10  C   UNL     1      17.947 -33.118  22.038  1.00  0.00     0.132 A 
ATOM     11  C   UNL     1      18.510 -32.653  23.244  1.00  0.00     0.031 A 
ENDROOT
BRANCH  11  12
ATOM     12  C   UNL     1      19.956 -32.858  23.523  1.00  0.00     0.031 A 
ATOM     13  C   UNL     1      20.884 -31.827  23.264  1.00  0.00     0.132 A 
ATOM     14  C   UNL     1      20.399 -34.096  24.015  1.00  0.00    -0.039 A 
ATOM     15  C   UNL     1      22.263 -31.996  23.590  1.00  0.00     0.039 A 
ATOM     16  C   UNL     1      21.760 -34.296  24.248  1.00  0.00     0.013 A 
ATOM     17  C   UNL     1      19.434 -35.234  24.241  1.00  0.00     0.045 C 
ATOM     18  C   UNL     1      22.707 -33.260  24.085  1.00  0.00    -0.006 A 
ATOM     19  C   UNL     1      23.221 -30.960  23.390  1.00  0.00     0.072 A 
ATOM     20  C   UNL     1      24.093 -33.475  24.360  1.00  0.00     0.008 A 
ATOM     21  C   UNL     1      24.595 -31.242  23.506  1.00  0.00     0.169 A 
ATOM     22  C   UNL     1      25.027 -32.518  23.906  1.00  0.00     0.162 A 
BRANCH  13  23
ATOM     23  O   UNL     1      20.444 -30.655  22.638  1.00  0.00    -0.507 OA
ATOM     24  H   UNL     1      20.658 -30.412  21.678  1.00  0.00     0.293 HD
ENDBRANCH  13  23
BRANCH  19  25
ATOM     25  C   UNL     1      22.820 -29.552  23.145  1.00  0.00     0.264 C 
ATOM     26  O   UNL     1      23.034 -28.655  24.003  1.00  0.00    -0.298 OA
ENDBRANCH  19  25
BRANCH  20  27
ATOM     27  C   UNL     1      24.589 -34.737  25.088  1.00  0.00     0.017 C 
ATOM     28  C   UNL     1      25.274 -35.701  24.114  1.00  0.00     0.012 C 
ATOM     29  C   UNL     1      25.485 -34.441  26.305  1.00  0.00     0.012 C 
ENDBRANCH  20  27
BRANCH  21  30
ATOM     30  O   UNL     1      25.516 -30.214  23.268  1.00  0.00    -0.504 OA
ATOM     31  H   UNL     1      26.103 -29.805  23.982  1.00  0.00     0.293 HD
ENDBRANCH  21  30
BRANCH  22  32
ATOM     32  O   UNL     1      26.380 -32.859  23.850  1.00  0.00    -0.504 OA
ATOM     33  H   UNL     1      27.122 -32.200  23.664  1.00  0.00     0.293 HD
ENDBRANCH  22  32
ENDBRANCH  11  12
BRANCH  10  34
ATOM     34  O   UNL     1      18.781 -33.664  21.056  1.00  0.00    -0.507 OA
ATOM     35  H   UNL     1      18.558 -33.675  20.069  1.00  0.00     0.293 HD
ENDBRANCH  10  34
BRANCH   9  36
ATOM     36  C   UNL     1      13.428 -31.382  23.487  1.00  0.00     0.017 C 
ATOM     37  C   UNL     1      13.511 -32.139  24.816  1.00  0.00     0.012 C 
ATOM     38  C   UNL     1      13.636 -29.870  23.691  1.00  0.00     0.012 C 
ENDBRANCH   9  36
BRANCH   6  39
ATOM     39  C   UNL     1      16.574 -34.521  19.758  1.00  0.00     0.264 C 
ATOM     40  O   UNL     1      17.109 -34.193  18.665  1.00  0.00    -0.298 OA
ENDBRANCH   6  39
BRANCH   8  41
ATOM     41  O   UNL     1      12.656 -31.764  20.741  1.00  0.00    -0.504 OA
ATOM     42  H   UNL     1      11.764 -32.211  20.897  1.00  0.00     0.293 HD
ENDBRANCH   8  41
BRANCH   7  43
ATOM     43  O   UNL     1      14.090 -33.578  19.074  1.00  0.00    -0.504 OA
ATOM     44  H   UNL     1      14.627 -33.743  18.234  1.00  0.00     0.293 HD
ENDBRANCH   7  43
TORSDOF 11
ENDMDL
MODEL 6
REMARK VINA RESULT:    -6.641      4.969     10.927
REMARK INTER + INTRA:         -11.244
REMARK INTER:                  -9.757
REMARK INTRA:                  -1.487
REMARK UNBOUND:                -1.497
REMARK SMILES Cc1cc2c(C(C)C)c(O)c(O)c(C=O)c2c(O)c1-c1c(C)cc2c(C(C)C)c(O)c(O)c(C=O)c2c1O
REMARK SMILES IDX 1 1 2 2 3 3 4 4 16 5 13 6 11 7 9 8 5 9 17 10 19 11 20 12
REMARK SMILES IDX 37 13 21 14 36 15 23 16 22 17 24 18 33 19 25 20 31 21 29 22
REMARK SMILES IDX 38 23 34 25 35 26 26 27 27 28 28 29 32 30 30 32 18 34 6 36
REMARK SMILES IDX 7 37 8 38 14 39 15 40 10 41 12 43
REMARK H PARENT 38 24 32 31 30 33 18 35 10 42 12 44
REMARK Flexibility Score: inf
ROOT
ATOM      1  C   UNL     1      24.999 -32.081  22.767  1.00  0.00     0.045 C 
ATOM      2  C   UNL     1      25.321 -31.317  24.028  1.00  0.00    -0.039 A 
ATOM      3  C   UNL     1      26.610 -31.393  24.561  1.00  0.00     0.013 A 
ATOM      4  C   UNL     1      26.967 -30.720  25.751  1.00  0.00    -0.006 A 
ATOM      5  C   UNL     1      25.996 -29.886  26.382  1.00  0.00     0.039 A 
ATOM      6  C   UNL     1      26.353 -29.201  27.577  1.00  0.00     0.072 A 
ATOM      7  C   UNL     1      27.692 -29.165  27.993  1.00  0.00     0.169 A 
ATOM      8  C   UNL     1      28.667 -29.911  27.307  1.00  0.00     0.162 A 
ATOM      9  C   UNL     1      28.285 -30.820  26.295  1.00  0.00     0.008 A 
ATOM     10  C   UNL     1      24.721 -29.717  25.766  1.00  0.00     0.132 A 
ATOM     11  C   UNL     1      24.375 -30.468  24.624  1.00  0.00     0.031 A 
ENDROOT
BRANCH  11  12
ATOM     12  C   UNL     1      23.020 -30.336  24.025  1.00  0.00     0.031 A 
ATOM     13  C   UNL     1      22.762 -29.336  23.063  1.00  0.00     0.132 A 
ATOM     14  C   UNL     1      21.989 -31.192  24.444  1.00  0.00    -0.039 A 
ATOM     15  C   UNL     1      21.482 -29.247  22.439  1.00  0.00     0.039 A 
ATOM     16  C   UNL     1      20.712 -31.047  23.902  1.00  0.00     0.013 A 
ATOM     17  C   UNL     1      22.226 -32.228  25.516  1.00  0.00     0.045 C 
ATOM     18  C   UNL     1      20.437 -30.117  22.875  1.00  0.00    -0.006 A 
ATOM     19  C   UNL     1      21.199 -28.283  21.427  1.00  0.00     0.072 A 
ATOM     20  C   UNL     1      19.129 -30.006  22.309  1.00  0.00     0.008 A 
ATOM     21  C   UNL     1      19.872 -28.078  21.005  1.00  0.00     0.169 A 
ATOM     22  C   UNL     1      18.834 -28.880  21.509  1.00  0.00     0.162 A 
BRANCH  13  23
ATOM     23  O   UNL     1      23.761 -28.402  22.767  1.00  0.00    -0.507 OA
ATOM     24  H   UNL     1      24.291 -28.396  21.904  1.00  0.00     0.293 HD
ENDBRANCH  13  23
BRANCH  19  25
ATOM     25  C   UNL     1      22.273 -27.535  20.727  1.00  0.00     0.264 C 
ATOM     26  O   UNL     1      22.464 -26.310  20.949  1.00  0.00    -0.298 OA
ENDBRANCH  19  25
BRANCH  20  27
ATOM     27  C   UNL     1      18.033 -31.049  22.589  1.00  0.00     0.017 C 
ATOM     28  C   UNL     1      17.005 -30.511  23.589  1.00  0.00     0.012 C 
ATOM     29  C   UNL     1      17.349 -31.589  21.319  1.00  0.00     0.012 C 
ENDBRANCH  20  27
BRANCH  21  30
ATOM     30  O   UNL     1      19.617 -27.099  20.037  1.00  0.00    -0.504 OA
ATOM     31  H   UNL     1      20.331 -26.669  19.464  1.00  0.00     0.293 HD
ENDBRANCH  21  30
BRANCH  22  32
ATOM     32  O   UNL     1      17.500 -28.569  21.236  1.00  0.00    -0.504 OA
ATOM     33  H   UNL     1      17.069 -28.675  20.329  1.00  0.00     0.293 HD
ENDBRANCH  22  32
ENDBRANCH  11  12
BRANCH  10  34
ATOM     34  O   UNL     1      23.826 -28.760  26.257  1.00  0.00    -0.507 OA
ATOM     35  H   UNL     1      24.108 -27.861  26.625  1.00  0.00     0.293 HD
ENDBRANCH  10  34
BRANCH   9  36
ATOM     36  C   UNL     1      29.305 -31.844  25.764  1.00  0.00     0.017 C 
ATOM     37  C   UNL     1      28.731 -33.263  25.811  1.00  0.00     0.012 C 
ATOM     38  C   UNL     1      29.853 -31.509  24.364  1.00  0.00     0.012 C 
ENDBRANCH   9  36
BRANCH   6  39
ATOM     39  C   UNL     1      25.359 -28.564  28.471  1.00  0.00     0.264 C 
ATOM     40  O   UNL     1      25.229 -27.310  28.497  1.00  0.00    -0.298 OA
ENDBRANCH   6  39
BRANCH   8  41
ATOM     41  O   UNL     1      30.023 -29.756  27.609  1.00  0.00    -0.504 OA
ATOM     42  H   UNL     1      30.739 -30.426  27.369  1.00  0.00     0.293 HD
ENDBRANCH   8  41
BRANCH   7  43
ATOM     43  O   UNL     1      28.019 -28.415  29.128  1.00  0.00    -0.504 OA
ATOM     44  H   UNL     1      28.687 -28.706  29.828  1.00  0.00     0.293 HD
ENDBRANCH   7  43
TORSDOF 11
ENDMDL
MODEL 7
REMARK VINA RESULT:    -6.634      3.433      4.442
REMARK INTER + INTRA:         -11.233
REMARK INTER:                  -9.951
REMARK INTRA:                  -1.283
REMARK UNBOUND:                -1.497
REMARK SMILES Cc1cc2c(C(C)C)c(O)c(O)c(C=O)c2c(O)c1-c1c(C)cc2c(C(C)C)c(O)c(O)c(C=O)c2c1O
REMARK SMILES IDX 1 1 2 2 3 3 4 4 16 5 13 6 11 7 9 8 5 9 17 10 19 11 20 12
REMARK SMILES IDX 37 13 21 14 36 15 23 16 22 17 24 18 33 19 25 20 31 21 29 22
REMARK SMILES IDX 38 23 34 25 35 26 26 27 27 28 28 29 32 30 30 32 18 34 6 36
REMARK SMILES IDX 7 37 8 38 14 39 15 40 10 41 12 43
REMARK H PARENT 38 24 32 31 30 33 18 35 10 42 12 44
REMARK Flexibility Score: inf
ROOT
ATOM      1  C   UNL     1      19.938 -33.991  24.915  1.00  0.00     0.045 C 
ATOM      2  C   UNL     1      19.342 -32.824  24.167  1.00  0.00    -0.039 A 
ATOM      3  C   UNL     1      17.987 -32.851  23.829  1.00  0.00     0.013 A 
ATOM      4  C   UNL     1      17.377 -31.799  23.109  1.00  0.00    -0.006 A 
ATOM      5  C   UNL     1      18.158 -30.651  22.782  1.00  0.00     0.039 A 
ATOM      6  C   UNL     1      17.546 -29.586  22.062  1.00  0.00     0.072 A 
ATOM      7  C   UNL     1      16.154 -29.569  21.883  1.00  0.00     0.169 A 
ATOM      8  C   UNL     1      15.373 -30.663  22.298  1.00  0.00     0.162 A 
ATOM      9  C   UNL     1      15.993 -31.848  22.753  1.00  0.00     0.008 A 
ATOM     10  C   UNL     1      19.507 -30.577  23.237  1.00  0.00     0.132 A 
ATOM     11  C   UNL     1      20.104 -31.680  23.882  1.00  0.00     0.031 A 
ENDROOT
BRANCH  11  12
ATOM     12  C   UNL     1      21.531 -31.621  24.295  1.00  0.00     0.031 A 
ATOM     13  C   UNL     1      21.886 -31.091  25.554  1.00  0.00     0.132 A 
ATOM     14  C   UNL     1      22.529 -32.066  23.413  1.00  0.00    -0.039 A 
ATOM     15  C   UNL     1      23.248 -31.092  25.981  1.00  0.00     0.039 A 
ATOM     16  C   UNL     1      23.869 -31.983  23.792  1.00  0.00     0.013 A 
ATOM     17  C   UNL     1      22.178 -32.579  22.037  1.00  0.00     0.045 C 
ATOM     18  C   UNL     1      24.257 -31.541  25.076  1.00  0.00    -0.006 A 
ATOM     19  C   UNL     1      23.639 -30.613  27.266  1.00  0.00     0.072 A 
ATOM     20  C   UNL     1      25.634 -31.494  25.457  1.00  0.00     0.008 A 
ATOM     21  C   UNL     1      25.002 -30.418  27.557  1.00  0.00     0.169 A 
ATOM     22  C   UNL     1      25.987 -30.778  26.622  1.00  0.00     0.162 A 
BRANCH  13  23
ATOM     23  O   UNL     1      20.893 -30.519  26.357  1.00  0.00    -0.507 OA
ATOM     24  H   UNL     1      20.662 -29.533  26.355  1.00  0.00     0.293 HD
ENDBRANCH  13  23
BRANCH  19  25
ATOM     25  C   UNL     1      22.658 -30.387  28.356  1.00  0.00     0.264 C 
ATOM     26  O   UNL     1      22.094 -31.353  28.935  1.00  0.00    -0.298 OA
ENDBRANCH  19  25
BRANCH  20  27
ATOM     27  C   UNL     1      26.733 -32.157  24.608  1.00  0.00     0.017 C 
ATOM     28  C   UNL     1      27.545 -31.107  23.843  1.00  0.00     0.012 C 
ATOM     29  C   UNL     1      27.651 -33.101  25.407  1.00  0.00     0.012 C 
ENDBRANCH  20  27
BRANCH  21  30
ATOM     30  O   UNL     1      25.356 -29.910  28.813  1.00  0.00    -0.504 OA
ATOM     31  H   UNL     1      24.719 -29.837  29.595  1.00  0.00     0.293 HD
ENDBRANCH  21  30
BRANCH  22  32
ATOM     32  O   UNL     1      27.323 -30.425  26.826  1.00  0.00    -0.504 OA
ATOM     33  H   UNL     1      28.107 -30.922  26.427  1.00  0.00     0.293 HD
ENDBRANCH  22  32
ENDBRANCH  11  12
BRANCH  10  34
ATOM     34  O   UNL     1      20.230 -29.387  23.099  1.00  0.00    -0.507 OA
ATOM     35  H   UNL     1      19.804 -28.470  23.054  1.00  0.00     0.293 HD
ENDBRANCH  10  34
BRANCH   9  36
ATOM     36  C   UNL     1      15.159 -33.132  22.915  1.00  0.00     0.017 C 
ATOM     37  C   UNL     1      15.722 -34.262  22.047  1.00  0.00     0.012 C 
ATOM     38  C   UNL     1      14.987 -33.583  24.377  1.00  0.00     0.012 C 
ENDBRANCH   9  36
BRANCH   6  39
ATOM     39  C   UNL     1      18.316 -28.501  21.413  1.00  0.00     0.264 C 
ATOM     40  O   UNL     1      18.445 -27.380  21.975  1.00  0.00    -0.298 OA
ENDBRANCH   6  39
BRANCH   8  41
ATOM     41  O   UNL     1      13.977 -30.588  22.274  1.00  0.00    -0.504 OA
ATOM     42  H   UNL     1      13.412 -30.289  23.056  1.00  0.00     0.293 HD
ENDBRANCH   8  41
BRANCH   7  43
ATOM     43  O   UNL     1      15.577 -28.467  21.241  1.00  0.00    -0.504 OA
ATOM     44  H   UNL     1      16.105 -27.706  20.836  1.00  0.00     0.293 HD
ENDBRANCH   7  43
TORSDOF 11
ENDMDL
MODEL 8
REMARK VINA RESULT:    -6.591      2.054      3.492
REMARK INTER + INTRA:         -11.171
REMARK INTER:                  -9.841
REMARK INTRA:                  -1.330
REMARK UNBOUND:                -1.497
REMARK SMILES Cc1cc2c(C(C)C)c(O)c(O)c(C=O)c2c(O)c1-c1c(C)cc2c(C(C)C)c(O)c(O)c(C=O)c2c1O
REMARK SMILES IDX 1 1 2 2 3 3 4 4 16 5 13 6 11 7 9 8 5 9 17 10 19 11 20 12
REMARK SMILES IDX 37 13 21 14 36 15 23 16 22 17 24 18 33 19 25 20 31 21 29 22
REMARK SMILES IDX 38 23 34 25 35 26 26 27 27 28 28 29 32 30 30 32 18 34 6 36
REMARK SMILES IDX 7 37 8 38 14 39 15 40 10 41 12 43
REMARK H PARENT 38 24 32 31 30 33 18 35 10 42 12 44
REMARK Flexibility Score: inf
ROOT
ATOM      1  C   UNL     1      20.061 -32.559  25.774  1.00  0.00     0.045 C 
ATOM      2  C   UNL     1      19.320 -33.308  24.693  1.00  0.00    -0.039 A 
ATOM      3  C   UNL     1      18.016 -32.926  24.369  1.00  0.00     0.013 A 
ATOM      4  C   UNL     1      17.264 -33.603  23.383  1.00  0.00    -0.006 A 
ATOM      5  C   UNL     1      17.885 -34.662  22.655  1.00  0.00     0.039 A 
ATOM      6  C   UNL     1      17.133 -35.342  21.657  1.00  0.00     0.072 A 
ATOM      7  C   UNL     1      15.893 -34.832  21.242  1.00  0.00     0.169 A 
ATOM      8  C   UNL     1      15.327 -33.724  21.898  1.00  0.00     0.162 A 
ATOM      9  C   UNL     1      15.924 -33.213  23.073  1.00  0.00     0.008 A 
ATOM     10  C   UNL     1      19.255 -34.965  22.907  1.00  0.00     0.132 A 
ATOM     11  C   UNL     1      19.948 -34.323  23.954  1.00  0.00     0.031 A 
ENDROOT
BRANCH  11  12
ATOM     12  C   UNL     1      21.357 -34.692  24.254  1.00  0.00     0.031 A 
ATOM     13  C   UNL     1      22.420 -33.993  23.643  1.00  0.00     0.132 A 
ATOM     14  C   UNL     1      21.625 -35.760  25.124  1.00  0.00    -0.039 A 
ATOM     15  C   UNL     1      23.773 -34.301  23.977  1.00  0.00     0.039 A 
ATOM     16  C   UNL     1      22.948 -36.123  25.381  1.00  0.00     0.013 A 
ATOM     17  C   UNL     1      20.504 -36.562  25.740  1.00  0.00     0.045 C 
ATOM     18  C   UNL     1      24.038 -35.392  24.858  1.00  0.00    -0.006 A 
ATOM     19  C   UNL     1      24.872 -33.583  23.420  1.00  0.00     0.072 A 
ATOM     20  C   UNL     1      25.386 -35.760  25.160  1.00  0.00     0.008 A 
ATOM     21  C   UNL     1      26.184 -34.062  23.594  1.00  0.00     0.169 A 
ATOM     22  C   UNL     1      26.427 -35.195  24.391  1.00  0.00     0.162 A 
BRANCH  13  23
ATOM     23  O   UNL     1      22.133 -33.031  22.669  1.00  0.00    -0.507 OA
ATOM     24  H   UNL     1      22.596 -32.132  22.609  1.00  0.00     0.293 HD
ENDBRANCH  13  23
BRANCH  19  25
ATOM     25  C   UNL     1      24.695 -32.285  22.724  1.00  0.00     0.264 C 
ATOM     26  O   UNL     1      24.513 -31.219  23.370  1.00  0.00    -0.298 OA
ENDBRANCH  19  25
BRANCH  20  27
ATOM     27  C   UNL     1      25.721 -36.784  26.259  1.00  0.00     0.017 C 
ATOM     28  C   UNL     1      26.186 -38.111  25.651  1.00  0.00     0.012 C 
ATOM     29  C   UNL     1      26.725 -36.265  27.306  1.00  0.00     0.012 C 
ENDBRANCH  20  27
BRANCH  21  30
ATOM     30  O   UNL     1      27.242 -33.360  23.005  1.00  0.00    -0.504 OA
ATOM     31  H   UNL     1      27.892 -32.780  23.518  1.00  0.00     0.293 HD
ENDBRANCH  21  30
BRANCH  22  32
ATOM     32  O   UNL     1      27.694 -35.781  24.424  1.00  0.00    -0.504 OA
ATOM     33  H   UNL     1      28.530 -35.305  24.733  1.00  0.00     0.293 HD
ENDBRANCH  22  32
ENDBRANCH  11  12
BRANCH  10  34
ATOM     34  O   UNL     1      19.939 -35.861  22.078  1.00  0.00    -0.507 OA
ATOM     35  H   UNL     1      20.025 -36.852  22.268  1.00  0.00     0.293 HD
ENDBRANCH  10  34
BRANCH   9  36
ATOM     36  C   UNL     1      15.148 -32.210  23.948  1.00  0.00     0.017 C 
ATOM     37  C   UNL     1      14.887 -30.907  23.186  1.00  0.00     0.012 C 
ATOM     38  C   UNL     1      13.847 -32.780  24.544  1.00  0.00     0.012 C 
ENDBRANCH   9  36
BRANCH   6  39
ATOM     39  C   UNL     1      17.558 -36.629  21.062  1.00  0.00     0.264 C 
ATOM     40  O   UNL     1      17.924 -36.690  19.857  1.00  0.00    -0.298 OA
ENDBRANCH   6  39
BRANCH   8  41
ATOM     41  O   UNL     1      14.179 -33.109  21.392  1.00  0.00    -0.504 OA
ATOM     42  H   UNL     1      13.267 -33.541  21.369  1.00  0.00     0.293 HD
ENDBRANCH   8  41
BRANCH   7  43
ATOM     43  O   UNL     1      15.218 -35.481  20.202  1.00  0.00    -0.504 OA
ATOM     44  H   UNL     1      14.225 -35.403  20.034  1.00  0.00     0.293 HD
ENDBRANCH   7  43
TORSDOF 11
ENDMDL
MODEL 9
REMARK VINA RESULT:    -6.505      4.892      6.559
REMARK INTER + INTRA:         -11.044
REMARK INTER:                  -9.605
REMARK INTRA:                  -1.439
REMARK UNBOUND:                -1.497
REMARK SMILES Cc1cc2c(C(C)C)c(O)c(O)c(C=O)c2c(O)c1-c1c(C)cc2c(C(C)C)c(O)c(O)c(C=O)c2c1O
REMARK SMILES IDX 1 1 2 2 3 3 4 4 16 5 13 6 11 7 9 8 5 9 17 10 19 11 20 12
REMARK SMILES IDX 37 13 21 14 36 15 23 16 22 17 24 18 33 19 25 20 31 21 29 22
REMARK SMILES IDX 38 23 34 25 35 26 26 27 27 28 28 29 32 30 30 32 18 34 6 36
REMARK SMILES IDX 7 37 8 38 14 39 15 40 10 41 12 43
REMARK H PARENT 38 24 32 31 30 33 18 35 10 42 12 44
REMARK Flexibility Score: inf
ROOT
ATOM      1  C   UNL     1      22.288 -32.402  25.421  1.00  0.00     0.045 C 
ATOM      2  C   UNL     1      22.005 -31.361  24.365  1.00  0.00    -0.039 A 
ATOM      3  C   UNL     1      20.711 -31.242  23.852  1.00  0.00     0.013 A 
ATOM      4  C   UNL     1      20.390 -30.303  22.847  1.00  0.00    -0.006 A 
ATOM      5  C   UNL     1      21.407 -29.408  22.397  1.00  0.00     0.039 A 
ATOM      6  C   UNL     1      21.086 -28.457  21.388  1.00  0.00     0.072 A 
ATOM      7  C   UNL     1      19.749 -28.253  21.015  1.00  0.00     0.169 A 
ATOM      8  C   UNL     1      18.734 -29.074  21.538  1.00  0.00     0.162 A 
ATOM      9  C   UNL     1      19.065 -30.205  22.318  1.00  0.00     0.008 A 
ATOM     10  C   UNL     1      22.692 -29.453  23.011  1.00  0.00     0.132 A 
ATOM     11  C   UNL     1      22.998 -30.457  23.953  1.00  0.00     0.031 A 
ENDROOT
BRANCH  11  12
ATOM     12  C   UNL     1      24.361 -30.539  24.542  1.00  0.00     0.031 A 
ATOM     13  C   UNL     1      24.701 -29.752  25.663  1.00  0.00     0.132 A 
ATOM     14  C   UNL     1      25.321 -31.381  23.957  1.00  0.00    -0.039 A 
ATOM     15  C   UNL     1      25.986 -29.875  26.270  1.00  0.00     0.039 A 
ATOM     16  C   UNL     1      26.608 -31.435  24.493  1.00  0.00     0.013 A 
ATOM     17  C   UNL     1      24.999 -32.185  22.721  1.00  0.00     0.045 C 
ATOM     18  C   UNL     1      26.958 -30.729  25.666  1.00  0.00    -0.006 A 
ATOM     19  C   UNL     1      26.348 -29.135  27.434  1.00  0.00     0.072 A 
ATOM     20  C   UNL     1      28.273 -30.823  26.219  1.00  0.00     0.008 A 
ATOM     21  C   UNL     1      27.688 -29.111  27.862  1.00  0.00     0.169 A 
ATOM     22  C   UNL     1      28.659 -29.885  27.203  1.00  0.00     0.162 A 
BRANCH  13  23
ATOM     23  O   UNL     1      23.780 -28.813  26.141  1.00  0.00    -0.507 OA
ATOM     24  H   UNL     1      22.779 -28.966  26.167  1.00  0.00     0.293 HD
ENDBRANCH  13  23
BRANCH  19  25
ATOM     25  C   UNL     1      25.339 -28.446  28.275  1.00  0.00     0.264 C 
ATOM     26  O   UNL     1      25.244 -27.190  28.283  1.00  0.00    -0.298 OA
ENDBRANCH  19  25
BRANCH  20  27
ATOM     27  C   UNL     1      29.283 -31.878  25.736  1.00  0.00     0.017 C 
ATOM     28  C   UNL     1      28.663 -33.279  25.746  1.00  0.00     0.012 C 
ATOM     29  C   UNL     1      29.914 -31.555  24.368  1.00  0.00     0.012 C 
ENDBRANCH  20  27
BRANCH  21  30
ATOM     30  O   UNL     1      28.024 -28.345  28.985  1.00  0.00    -0.504 OA
ATOM     31  H   UNL     1      28.213 -28.734  29.899  1.00  0.00     0.293 HD
ENDBRANCH  21  30
BRANCH  22  32
ATOM     32  O   UNL     1      30.014 -29.731  27.503  1.00  0.00    -0.504 OA
ATOM     33  H   UNL     1      30.722 -30.421  27.292  1.00  0.00     0.293 HD
ENDBRANCH  22  32
ENDBRANCH  11  12
BRANCH  10  34
ATOM     34  O   UNL     1      23.641 -28.465  22.727  1.00  0.00    -0.507 OA
ATOM     35  H   UNL     1      23.815 -27.663  23.320  1.00  0.00     0.293 HD
ENDBRANCH  10  34
BRANCH   9  36
ATOM     36  C   UNL     1      17.988 -31.260  22.629  1.00  0.00     0.017 C 
ATOM     37  C   UNL     1      16.986 -30.730  23.660  1.00  0.00     0.012 C 
ATOM     38  C   UNL     1      17.269 -31.803  21.380  1.00  0.00     0.012 C 
ENDBRANCH   9  36
BRANCH   6  39
ATOM     39  C   UNL     1      22.111 -27.697  20.639  1.00  0.00     0.264 C 
ATOM     40  O   UNL     1      22.304 -26.473  20.873  1.00  0.00    -0.298 OA
ENDBRANCH   6  39
BRANCH   8  41
ATOM     41  O   UNL     1      17.388 -28.777  21.303  1.00  0.00    -0.504 OA
ATOM     42  H   UNL     1      16.622 -29.388  21.545  1.00  0.00     0.293 HD
ENDBRANCH   8  41
BRANCH   7  43
ATOM     43  O   UNL     1      19.462 -27.252  20.079  1.00  0.00    -0.504 OA
ATOM     44  H   UNL     1      19.998 -27.093  19.237  1.00  0.00     0.293 HD
ENDBRANCH   7  43
TORSDOF 11
ENDMDL
