MODEL 1
REMARK VINA RESULT:    -5.517      0.000      0.000
REMARK INTER + INTRA:          -6.458
REMARK INTER:                  -6.323
REMARK INTRA:                  -0.135
REMARK UNBOUND:                -0.135
REMARK SMILES O=C([O-])C=Cc1ccc(O)cc1
REMARK SMILES IDX 6 1 7 2 12 3 8 4 11 5 9 6 5 7 4 8 2 9 1 10 3 11 10 12
REMARK H PARENT 10 13
REMARK Flexibility Score: inf
ROOT
ATOM      1  C   UNL     1     -33.030  14.243  53.618  1.00  0.00    -0.025 A 
ATOM      2  C   UNL     1     -34.226  14.964  53.461  1.00  0.00     0.012 A 
ATOM      3  C   UNL     1     -31.985  14.452  52.694  1.00  0.00     0.012 A 
ATOM      4  C   UNL     1     -34.370  15.888  52.423  1.00  0.00     0.047 A 
ATOM      5  C   UNL     1     -32.133  15.377  51.656  1.00  0.00     0.047 A 
ATOM      6  C   UNL     1     -33.325  16.099  51.520  1.00  0.00     0.115 A 
ENDROOT
BRANCH   1   7
ATOM      7  C   UNL     1     -32.930  13.265  54.730  1.00  0.00     0.010 C 
ATOM      8  C   UNL     1     -33.410  12.014  54.669  1.00  0.00     0.025 C 
BRANCH   8   9
ATOM      9  C   UNL     1     -33.281  11.068  55.789  1.00  0.00     0.064 C 
ATOM     10  O   UNL     1     -32.151  10.694  56.201  1.00  0.00    -0.545 OA
ATOM     11  O   UNL     1     -34.426  10.579  56.404  1.00  0.00    -0.545 OA
ENDBRANCH   8   9
ENDBRANCH   1   7
BRANCH   6  12
ATOM     12  O   UNL     1     -33.482  17.025  50.490  1.00  0.00    -0.508 OA
ATOM     13  H   UNL     1     -34.112  17.813  50.578  1.00  0.00     0.293 HD
ENDBRANCH   6  12
TORSDOF 3
ENDMDL
MODEL 2
REMARK VINA RESULT:    -5.496      0.620      1.765
REMARK INTER + INTRA:          -6.434
REMARK INTER:                  -6.299
REMARK INTRA:                  -0.135
REMARK UNBOUND:                -0.135
REMARK SMILES O=C([O-])C=Cc1ccc(O)cc1
REMARK SMILES IDX 6 1 7 2 12 3 8 4 11 5 9 6 5 7 4 8 2 9 1 10 3 11 10 12
REMARK H PARENT 10 13
REMARK Flexibility Score: inf
ROOT
ATOM      1  C   UNL     1     -33.085  14.620  53.298  1.00  0.00    -0.025 A 
ATOM      2  C   UNL     1     -32.079  14.859  52.346  1.00  0.00     0.012 A 
ATOM      3  C   UNL     1     -34.324  15.277  53.157  1.00  0.00     0.012 A 
ATOM      4  C   UNL     1     -32.311  15.713  51.264  1.00  0.00     0.047 A 
ATOM      5  C   UNL     1     -34.552  16.131  52.073  1.00  0.00     0.047 A 
ATOM      6  C   UNL     1     -33.547  16.348  51.123  1.00  0.00     0.115 A 
ENDROOT
BRANCH   1   7
ATOM      7  C   UNL     1     -32.786  13.713  54.435  1.00  0.00     0.010 C 
ATOM      8  C   UNL     1     -33.412  12.546  54.643  1.00  0.00     0.025 C 
BRANCH   8   9
ATOM      9  C   UNL     1     -33.081  11.667  55.775  1.00  0.00     0.064 C 
ATOM     10  O   UNL     1     -33.883  10.780  56.170  1.00  0.00    -0.545 OA
ATOM     11  O   UNL     1     -31.859  11.815  56.420  1.00  0.00    -0.545 OA
ENDBRANCH   8   9
ENDBRANCH   1   7
BRANCH   6  12
ATOM     12  O   UNL     1     -33.765  17.196  50.039  1.00  0.00    -0.508 OA
ATOM     13  H   UNL     1     -34.638  17.700  49.928  1.00  0.00     0.293 HD
ENDBRANCH   6  12
TORSDOF 3
ENDMDL
MODEL 3
REMARK VINA RESULT:    -5.476      0.576      1.058
REMARK INTER + INTRA:          -6.412
REMARK INTER:                  -6.272
REMARK INTRA:                  -0.140
REMARK UNBOUND:                -0.135
REMARK SMILES O=C([O-])C=Cc1ccc(O)cc1
REMARK SMILES IDX 6 1 7 2 12 3 8 4 11 5 9 6 5 7 4 8 2 9 1 10 3 11 10 12
REMARK H PARENT 10 13
REMARK Flexibility Score: inf
ROOT
ATOM      1  C   UNL     1     -32.966  14.592  53.315  1.00  0.00    -0.025 A 
ATOM      2  C   UNL     1     -34.231  15.188  53.178  1.00  0.00     0.012 A 
ATOM      3  C   UNL     1     -31.981  14.856  52.341  1.00  0.00     0.012 A 
ATOM      4  C   UNL     1     -34.502  16.048  52.109  1.00  0.00     0.047 A 
ATOM      5  C   UNL     1     -32.256  15.716  51.272  1.00  0.00     0.047 A 
ATOM      6  C   UNL     1     -33.516  16.315  51.156  1.00  0.00     0.115 A 
ENDROOT
BRANCH   1   7
ATOM      7  C   UNL     1     -32.731  13.679  54.461  1.00  0.00     0.010 C 
ATOM      8  C   UNL     1     -33.385  12.522  54.640  1.00  0.00     0.025 C 
BRANCH   8   9
ATOM      9  C   UNL     1     -33.116  11.636  55.784  1.00  0.00     0.064 C 
ATOM     10  O   UNL     1     -33.960  10.780  56.159  1.00  0.00    -0.545 OA
ATOM     11  O   UNL     1     -31.908  11.743  56.461  1.00  0.00    -0.545 OA
ENDBRANCH   8   9
ENDBRANCH   1   7
BRANCH   6  12
ATOM     12  O   UNL     1     -33.799  17.174  50.096  1.00  0.00    -0.508 OA
ATOM     13  H   UNL     1     -33.479  16.977  49.155  1.00  0.00     0.293 HD
ENDBRANCH   6  12
TORSDOF 3
ENDMDL
MODEL 4
REMARK VINA RESULT:    -5.368      3.962      4.878
REMARK INTER + INTRA:          -6.288
REMARK INTER:                  -6.137
REMARK INTRA:                  -0.151
REMARK UNBOUND:                -0.135
REMARK SMILES O=C([O-])C=Cc1ccc(O)cc1
REMARK SMILES IDX 6 1 7 2 12 3 8 4 11 5 9 6 5 7 4 8 2 9 1 10 3 11 10 12
REMARK H PARENT 10 13
REMARK Flexibility Score: inf
ROOT
ATOM      1  C   UNL     1     -33.493  15.813  51.613  1.00  0.00    -0.025 A 
ATOM      2  C   UNL     1     -33.594  16.490  50.386  1.00  0.00     0.012 A 
ATOM      3  C   UNL     1     -34.673  15.354  52.235  1.00  0.00     0.012 A 
ATOM      4  C   UNL     1     -34.839  16.685  49.780  1.00  0.00     0.047 A 
ATOM      5  C   UNL     1     -35.916  15.551  51.626  1.00  0.00     0.047 A 
ATOM      6  C   UNL     1     -36.001  16.215  50.396  1.00  0.00     0.115 A 
ENDROOT
BRANCH   1   7
ATOM      7  C   UNL     1     -32.150  15.641  52.222  1.00  0.00     0.010 C 
ATOM      8  C   UNL     1     -31.004  15.954  51.600  1.00  0.00     0.025 C 
BRANCH   8   9
ATOM      9  C   UNL     1     -29.690  15.780  52.241  1.00  0.00     0.064 C 
ATOM     10  O   UNL     1     -29.160  14.643  52.345  1.00  0.00    -0.545 OA
ATOM     11  O   UNL     1     -29.021  16.891  52.737  1.00  0.00    -0.545 OA
ENDBRANCH   8   9
ENDBRANCH   1   7
BRANCH   6  12
ATOM     12  O   UNL     1     -37.235  16.415  49.780  1.00  0.00    -0.508 OA
ATOM     13  H   UNL     1     -37.841  15.637  49.544  1.00  0.00     0.293 HD
ENDBRANCH   6  12
TORSDOF 3
ENDMDL
MODEL 5
REMARK VINA RESULT:    -5.366      3.994      4.811
REMARK INTER + INTRA:          -6.286
REMARK INTER:                  -6.147
REMARK INTRA:                  -0.139
REMARK UNBOUND:                -0.135
REMARK SMILES O=C([O-])C=Cc1ccc(O)cc1
REMARK SMILES IDX 6 1 7 2 12 3 8 4 11 5 9 6 5 7 4 8 2 9 1 10 3 11 10 12
REMARK H PARENT 10 13
REMARK Flexibility Score: inf
ROOT
ATOM      1  C   UNL     1     -33.555  15.857  51.495  1.00  0.00    -0.025 A 
ATOM      2  C   UNL     1     -34.694  15.383  52.169  1.00  0.00     0.012 A 
ATOM      3  C   UNL     1     -33.720  16.504  50.253  1.00  0.00     0.012 A 
ATOM      4  C   UNL     1     -35.970  15.569  51.629  1.00  0.00     0.047 A 
ATOM      5  C   UNL     1     -34.998  16.688  49.716  1.00  0.00     0.047 A 
ATOM      6  C   UNL     1     -36.126  16.223  50.405  1.00  0.00     0.115 A 
ENDROOT
BRANCH   1   7
ATOM      7  C   UNL     1     -32.221  15.625  52.104  1.00  0.00     0.010 C 
ATOM      8  C   UNL     1     -31.068  16.021  51.546  1.00  0.00     0.025 C 
BRANCH   8   9
ATOM      9  C   UNL     1     -29.764  15.783  52.186  1.00  0.00     0.064 C 
ATOM     10  O   UNL     1     -29.265  14.628  52.243  1.00  0.00    -0.545 OA
ATOM     11  O   UNL     1     -29.068  16.853  52.736  1.00  0.00    -0.545 OA
ENDBRANCH   8   9
ENDBRANCH   1   7
BRANCH   6  12
ATOM     12  O   UNL     1     -37.403  16.403  49.879  1.00  0.00    -0.508 OA
ATOM     13  H   UNL     1     -38.008  17.150  50.201  1.00  0.00     0.293 HD
ENDBRANCH   6  12
TORSDOF 3
ENDMDL
MODEL 6
REMARK VINA RESULT:    -5.230      2.002      2.883
REMARK INTER + INTRA:          -6.130
REMARK INTER:                  -5.980
REMARK INTRA:                  -0.149
REMARK UNBOUND:                -0.135
REMARK SMILES O=C([O-])C=Cc1ccc(O)cc1
REMARK SMILES IDX 6 1 7 2 12 3 8 4 11 5 9 6 5 7 4 8 2 9 1 10 3 11 10 12
REMARK H PARENT 10 13
REMARK Flexibility Score: inf
ROOT
ATOM      1  C   UNL     1     -33.870  15.268  52.233  1.00  0.00    -0.025 A 
ATOM      2  C   UNL     1     -33.013  15.834  51.273  1.00  0.00     0.012 A 
ATOM      3  C   UNL     1     -35.263  15.377  52.048  1.00  0.00     0.012 A 
ATOM      4  C   UNL     1     -33.533  16.473  50.143  1.00  0.00     0.047 A 
ATOM      5  C   UNL     1     -35.779  16.018  50.918  1.00  0.00     0.047 A 
ATOM      6  C   UNL     1     -34.915  16.564  49.961  1.00  0.00     0.115 A 
ENDROOT
BRANCH   1   7
ATOM      7  C   UNL     1     -33.270  14.609  53.420  1.00  0.00     0.010 C 
ATOM      8  C   UNL     1     -32.052  14.048  53.426  1.00  0.00     0.025 C 
BRANCH   8   9
ATOM      9  C   UNL     1     -31.484  13.414  54.627  1.00  0.00     0.064 C 
ATOM     10  O   UNL     1     -30.310  12.960  54.633  1.00  0.00    -0.545 OA
ATOM     11  O   UNL     1     -32.257  13.318  55.777  1.00  0.00    -0.545 OA
ENDBRANCH   8   9
ENDBRANCH   1   7
BRANCH   6  12
ATOM     12  O   UNL     1     -35.419  17.203  48.830  1.00  0.00    -0.508 OA
ATOM     13  H   UNL     1     -34.923  17.968  48.389  1.00  0.00     0.293 HD
ENDBRANCH   6  12
TORSDOF 3
ENDMDL
MODEL 7
REMARK VINA RESULT:    -5.166      9.180     11.565
REMARK INTER + INTRA:          -6.056
REMARK INTER:                  -5.907
REMARK INTRA:                  -0.149
REMARK UNBOUND:                -0.135
REMARK SMILES O=C([O-])C=Cc1ccc(O)cc1
REMARK SMILES IDX 6 1 7 2 12 3 8 4 11 5 9 6 5 7 4 8 2 9 1 10 3 11 10 12
REMARK H PARENT 10 13
REMARK Flexibility Score: inf
ROOT
ATOM      1  C   UNL     1     -28.318   6.577  58.606  1.00  0.00    -0.025 A 
ATOM      2  C   UNL     1     -27.989   6.208  59.921  1.00  0.00     0.012 A 
ATOM      3  C   UNL     1     -28.949   5.631  57.772  1.00  0.00     0.012 A 
ATOM      4  C   UNL     1     -28.304   4.934  60.403  1.00  0.00     0.047 A 
ATOM      5  C   UNL     1     -29.261   4.357  58.258  1.00  0.00     0.047 A 
ATOM      6  C   UNL     1     -28.942   4.007  59.575  1.00  0.00     0.115 A 
ENDROOT
BRANCH   1   7
ATOM      7  C   UNL     1     -27.953   7.938  58.138  1.00  0.00     0.010 C 
ATOM      8  C   UNL     1     -26.917   8.639  58.619  1.00  0.00     0.025 C 
BRANCH   8   9
ATOM      9  C   UNL     1     -26.578   9.983  58.121  1.00  0.00     0.064 C 
ATOM     10  O   UNL     1     -26.622  10.253  56.892  1.00  0.00    -0.545 OA
ATOM     11  O   UNL     1     -26.206  10.971  59.023  1.00  0.00    -0.545 OA
ENDBRANCH   8   9
ENDBRANCH   1   7
BRANCH   6  12
ATOM     12  O   UNL     1     -29.250   2.741  60.068  1.00  0.00    -0.508 OA
ATOM     13  H   UNL     1     -30.205   2.473  60.278  1.00  0.00     0.293 HD
ENDBRANCH   6  12
TORSDOF 3
ENDMDL
MODEL 8
REMARK VINA RESULT:    -5.145      2.055      5.661
REMARK INTER + INTRA:          -6.033
REMARK INTER:                  -5.898
REMARK INTRA:                  -0.134
REMARK UNBOUND:                -0.135
REMARK SMILES O=C([O-])C=Cc1ccc(O)cc1
REMARK SMILES IDX 6 1 7 2 12 3 8 4 11 5 9 6 5 7 4 8 2 9 1 10 3 11 10 12
REMARK H PARENT 10 13
REMARK Flexibility Score: inf
ROOT
ATOM      1  C   UNL     1     -33.170  15.215  52.628  1.00  0.00    -0.025 A 
ATOM      2  C   UNL     1     -33.673  14.532  53.749  1.00  0.00     0.012 A 
ATOM      3  C   UNL     1     -31.801  15.092  52.315  1.00  0.00     0.012 A 
ATOM      4  C   UNL     1     -32.836  13.725  54.525  1.00  0.00     0.047 A 
ATOM      5  C   UNL     1     -30.967  14.285  53.095  1.00  0.00     0.047 A 
ATOM      6  C   UNL     1     -31.483  13.598  54.200  1.00  0.00     0.115 A 
ENDROOT
BRANCH   1   7
ATOM      7  C   UNL     1     -34.097  16.067  51.841  1.00  0.00     0.010 C 
ATOM      8  C   UNL     1     -34.990  15.586  50.964  1.00  0.00     0.025 C 
BRANCH   8   9
ATOM      9  C   UNL     1     -35.901  16.463  50.210  1.00  0.00     0.064 C 
ATOM     10  O   UNL     1     -37.110  16.587  50.541  1.00  0.00    -0.545 OA
ATOM     11  O   UNL     1     -35.419  17.167  49.115  1.00  0.00    -0.545 OA
ENDBRANCH   8   9
ENDBRANCH   1   7
BRANCH   6  12
ATOM     12  O   UNL     1     -30.661  12.790  54.983  1.00  0.00    -0.508 OA
ATOM     13  H   UNL     1     -29.695  12.617  54.731  1.00  0.00     0.293 HD
ENDBRANCH   6  12
TORSDOF 3
ENDMDL
MODEL 9
REMARK VINA RESULT:    -5.136      7.831      9.885
REMARK INTER + INTRA:          -6.022
REMARK INTER:                  -5.871
REMARK INTRA:                  -0.152
REMARK UNBOUND:                -0.135
REMARK SMILES O=C([O-])C=Cc1ccc(O)cc1
REMARK SMILES IDX 6 1 7 2 12 3 8 4 11 5 9 6 5 7 4 8 2 9 1 10 3 11 10 12
REMARK H PARENT 10 13
REMARK Flexibility Score: inf
ROOT
ATOM      1  C   UNL     1     -25.012  12.747  55.255  1.00  0.00    -0.025 A 
ATOM      2  C   UNL     1     -25.666  12.461  56.466  1.00  0.00     0.012 A 
ATOM      3  C   UNL     1     -23.939  11.925  54.852  1.00  0.00     0.012 A 
ATOM      4  C   UNL     1     -25.276  11.368  57.245  1.00  0.00     0.047 A 
ATOM      5  C   UNL     1     -23.552  10.833  55.635  1.00  0.00     0.047 A 
ATOM      6  C   UNL     1     -24.221  10.550  56.832  1.00  0.00     0.115 A 
ENDROOT
BRANCH   1   7
ATOM      7  C   UNL     1     -25.456  13.925  54.469  1.00  0.00     0.010 C 
ATOM      8  C   UNL     1     -26.257  14.885  54.952  1.00  0.00     0.025 C 
BRANCH   8   9
ATOM      9  C   UNL     1     -26.666  16.047  54.145  1.00  0.00     0.064 C 
ATOM     10  O   UNL     1     -27.011  15.916  52.941  1.00  0.00    -0.545 OA
ATOM     11  O   UNL     1     -26.676  17.310  54.723  1.00  0.00    -0.545 OA
ENDBRANCH   8   9
ENDBRANCH   1   7
BRANCH   6  12
ATOM     12  O   UNL     1     -23.844   9.464  57.617  1.00  0.00    -0.508 OA
ATOM     13  H   UNL     1     -24.532   8.849  58.037  1.00  0.00     0.293 HD
ENDBRANCH   6  12
TORSDOF 3
ENDMDL
