MODEL 1
REMARK VINA RESULT:    -3.996      0.000      0.000
REMARK INTER + INTRA:          -4.113
REMARK INTER:                  -4.113
REMARK INTRA:                   0.000
REMARK UNBOUND:                 0.000
REMARK SMILES Nc1ncnc2nc[nH]c12
REMARK SMILES IDX 8 1 7 2 6 3 5 4 4 5 3 6 2 7 10 8 9 9 1 11
REMARK H PARENT 9 10 1 12 1 13
REMARK Flexibility Score: inf
ROOT
ATOM      1  C   UNL     1     -11.902   9.490 -24.029  1.00  0.00     0.199 A 
ATOM      2  N   UNL     1     -10.868   9.828 -24.849  1.00  0.00    -0.217 NA
ATOM      3  C   UNL     1     -10.078  10.543 -24.031  1.00  0.00     0.182 A 
ATOM      4  N   UNL     1      -8.897  11.124 -24.353  1.00  0.00    -0.215 NA
ATOM      5  C   UNL     1      -8.232  11.816 -23.379  1.00  0.00     0.226 A 
ATOM      6  N   UNL     1      -8.755  11.915 -22.114  1.00  0.00    -0.217 NA
ATOM      7  C   UNL     1      -9.946  11.331 -21.788  1.00  0.00     0.152 A 
ATOM      8  C   UNL     1     -10.610  10.629 -22.790  1.00  0.00     0.127 A 
ATOM      9  N   UNL     1     -11.773   9.965 -22.764  1.00  0.00    -0.340 N 
ATOM     10  H   UNL     1     -12.434   9.836 -21.967  1.00  0.00     0.168 HD
ENDROOT
BRANCH   7  11
ATOM     11  N   UNL     1     -10.471  11.447 -20.465  1.00  0.00    -0.382 N 
ATOM     12  H   UNL     1     -11.456  11.748 -20.295  1.00  0.00     0.158 HD
ATOM     13  H   UNL     1      -9.866  11.229 -19.642  1.00  0.00     0.158 HD
ENDBRANCH   7  11
TORSDOF 1
ENDMDL
MODEL 2
REMARK VINA RESULT:    -3.869     13.189     14.849
REMARK INTER + INTRA:          -3.982
REMARK INTER:                  -3.982
REMARK INTRA:                   0.000
REMARK UNBOUND:                 0.000
REMARK SMILES Nc1ncnc2nc[nH]c12
REMARK SMILES IDX 8 1 7 2 6 3 5 4 4 5 3 6 2 7 10 8 9 9 1 11
REMARK H PARENT 9 10 1 12 1 13
REMARK Flexibility Score: inf
ROOT
ATOM      1  C   UNL     1     -19.134  17.331 -10.731  1.00  0.00     0.199 A 
ATOM      2  N   UNL     1     -18.892  16.021 -11.014  1.00  0.00    -0.217 NA
ATOM      3  C   UNL     1     -17.614  16.049 -11.426  1.00  0.00     0.182 A 
ATOM      4  N   UNL     1     -16.873  14.991 -11.833  1.00  0.00    -0.215 NA
ATOM      5  C   UNL     1     -15.581  15.218 -12.219  1.00  0.00     0.226 A 
ATOM      6  N   UNL     1     -15.059  16.487 -12.192  1.00  0.00    -0.217 NA
ATOM      7  C   UNL     1     -15.805  17.556 -11.782  1.00  0.00     0.152 A 
ATOM      8  C   UNL     1     -17.118  17.308 -11.392  1.00  0.00     0.127 A 
ATOM      9  N   UNL     1     -18.068  18.142 -10.952  1.00  0.00    -0.340 N 
ATOM     10  H   UNL     1     -18.015  19.175 -10.808  1.00  0.00     0.168 HD
ENDROOT
BRANCH   7  11
ATOM     11  N   UNL     1     -15.240  18.867 -11.762  1.00  0.00    -0.382 N 
ATOM     12  H   UNL     1     -15.842  19.717 -11.688  1.00  0.00     0.158 HD
ATOM     13  H   UNL     1     -14.205  18.991 -11.822  1.00  0.00     0.158 HD
ENDBRANCH   7  11
TORSDOF 1
ENDMDL
MODEL 3
REMARK VINA RESULT:    -3.847      3.965      5.913
REMARK INTER + INTRA:          -3.959
REMARK INTER:                  -3.959
REMARK INTRA:                   0.000
REMARK UNBOUND:                 0.000
REMARK SMILES Nc1ncnc2nc[nH]c12
REMARK SMILES IDX 8 1 7 2 6 3 5 4 4 5 3 6 2 7 10 8 9 9 1 11
REMARK H PARENT 9 10 1 12 1 13
REMARK Flexibility Score: inf
ROOT
ATOM      1  C   UNL     1      -9.539  11.368 -20.055  1.00  0.00     0.199 A 
ATOM      2  N   UNL     1      -9.818  12.598 -19.540  1.00  0.00    -0.217 NA
ATOM      3  C   UNL     1     -10.056  12.319 -18.248  1.00  0.00     0.182 A 
ATOM      4  N   UNL     1     -10.384  13.205 -17.278  1.00  0.00    -0.215 NA
ATOM      5  C   UNL     1     -10.589  12.729 -16.012  1.00  0.00     0.226 A 
ATOM      6  N   UNL     1     -10.463  11.390 -15.742  1.00  0.00    -0.217 NA
ATOM      7  C   UNL     1     -10.131  10.495 -16.720  1.00  0.00     0.152 A 
ATOM      8  C   UNL     1      -9.925  10.995 -18.003  1.00  0.00     0.127 A 
ATOM      9  N   UNL     1      -9.597  10.367 -19.139  1.00  0.00    -0.340 N 
ATOM     10  H   UNL     1      -9.423   9.350 -19.297  1.00  0.00     0.168 HD
ENDROOT
BRANCH   7  11
ATOM     11  N   UNL     1     -10.005   9.105 -16.416  1.00  0.00    -0.382 N 
ATOM     12  H   UNL     1      -9.199   8.741 -15.861  1.00  0.00     0.158 HD
ATOM     13  H   UNL     1     -10.729   8.430 -16.749  1.00  0.00     0.158 HD
ENDBRANCH   7  11
TORSDOF 1
ENDMDL
MODEL 4
REMARK VINA RESULT:    -3.847      0.914      2.992
REMARK INTER + INTRA:          -3.959
REMARK INTER:                  -3.959
REMARK INTRA:                   0.000
REMARK UNBOUND:                 0.000
REMARK SMILES Nc1ncnc2nc[nH]c12
REMARK SMILES IDX 8 1 7 2 6 3 5 4 4 5 3 6 2 7 10 8 9 9 1 11
REMARK H PARENT 9 10 1 12 1 13
REMARK Flexibility Score: inf
ROOT
ATOM      1  C   UNL     1      -8.947  12.436 -21.499  1.00  0.00     0.199 A 
ATOM      2  N   UNL     1      -8.187  12.261 -22.615  1.00  0.00    -0.217 NA
ATOM      3  C   UNL     1      -8.937  11.416 -23.342  1.00  0.00     0.182 A 
ATOM      4  N   UNL     1      -8.635  10.913 -24.563  1.00  0.00    -0.215 NA
ATOM      5  C   UNL     1      -9.529  10.061 -25.149  1.00  0.00     0.226 A 
ATOM      6  N   UNL     1     -10.697   9.729 -24.509  1.00  0.00    -0.217 NA
ATOM      7  C   UNL     1     -11.003  10.235 -23.278  1.00  0.00     0.152 A 
ATOM      8  C   UNL     1     -10.083  11.102 -22.695  1.00  0.00     0.127 A 
ATOM      9  N   UNL     1     -10.112  11.739 -21.518  1.00  0.00    -0.340 N 
ATOM     10  H   UNL     1     -10.850  11.716 -20.780  1.00  0.00     0.168 HD
ENDROOT
BRANCH   7  11
ATOM     11  N   UNL     1     -12.225   9.876 -22.631  1.00  0.00    -0.382 N 
ATOM     12  H   UNL     1     -13.083   9.647 -23.179  1.00  0.00     0.158 HD
ATOM     13  H   UNL     1     -12.272   9.837 -21.589  1.00  0.00     0.158 HD
ENDBRANCH   7  11
TORSDOF 1
ENDMDL
MODEL 5
REMARK VINA RESULT:    -3.762     13.029     14.483
REMARK INTER + INTRA:          -3.872
REMARK INTER:                  -3.872
REMARK INTRA:                   0.000
REMARK UNBOUND:                 0.000
REMARK SMILES Nc1ncnc2nc[nH]c12
REMARK SMILES IDX 8 1 7 2 6 3 5 4 4 5 3 6 2 7 10 8 9 9 1 11
REMARK H PARENT 9 10 1 12 1 13
REMARK Flexibility Score: inf
ROOT
ATOM      1  C   UNL     1     -13.934  18.566 -11.346  1.00  0.00     0.199 A 
ATOM      2  N   UNL     1     -13.648  17.344 -11.875  1.00  0.00    -0.217 NA
ATOM      3  C   UNL     1     -14.862  16.774 -11.948  1.00  0.00     0.182 A 
ATOM      4  N   UNL     1     -15.145  15.533 -12.411  1.00  0.00    -0.215 NA
ATOM      5  C   UNL     1     -16.450  15.125 -12.407  1.00  0.00     0.226 A 
ATOM      6  N   UNL     1     -17.439  15.957 -11.945  1.00  0.00    -0.217 NA
ATOM      7  C   UNL     1     -17.155  17.209 -11.477  1.00  0.00     0.152 A 
ATOM      8  C   UNL     1     -15.821  17.610 -11.488  1.00  0.00     0.127 A 
ATOM      9  N   UNL     1     -15.255  18.758 -11.099  1.00  0.00    -0.340 N 
ATOM     10  H   UNL     1     -15.709  19.608 -10.698  1.00  0.00     0.168 HD
ENDROOT
BRANCH   7  11
ATOM     11  N   UNL     1     -18.200  18.058 -11.001  1.00  0.00    -0.382 N 
ATOM     12  H   UNL     1     -19.120  17.669 -10.696  1.00  0.00     0.158 HD
ATOM     13  H   UNL     1     -18.053  19.090 -10.952  1.00  0.00     0.158 HD
ENDBRANCH   7  11
TORSDOF 1
ENDMDL
MODEL 6
REMARK VINA RESULT:    -3.729     12.755     13.570
REMARK INTER + INTRA:          -3.838
REMARK INTER:                  -3.838
REMARK INTRA:                   0.000
REMARK UNBOUND:                 0.000
REMARK SMILES Nc1ncnc2nc[nH]c12
REMARK SMILES IDX 8 1 7 2 6 3 5 4 4 5 3 6 2 7 10 8 9 9 1 11
REMARK H PARENT 9 10 1 12 1 13
REMARK Flexibility Score: inf
ROOT
ATOM      1  C   UNL     1     -17.035  16.158 -12.443  1.00  0.00     0.199 A 
ATOM      2  N   UNL     1     -16.075  15.192 -12.476  1.00  0.00    -0.217 NA
ATOM      3  C   UNL     1     -14.966  15.881 -12.161  1.00  0.00     0.182 A 
ATOM      4  N   UNL     1     -13.710  15.385 -12.054  1.00  0.00    -0.215 NA
ATOM      5  C   UNL     1     -12.702  16.247 -11.721  1.00  0.00     0.226 A 
ATOM      6  N   UNL     1     -12.966  17.576 -11.504  1.00  0.00    -0.217 NA
ATOM      7  C   UNL     1     -14.232  18.078 -11.611  1.00  0.00     0.152 A 
ATOM      8  C   UNL     1     -15.247  17.188 -11.950  1.00  0.00     0.127 A 
ATOM      9  N   UNL     1     -16.559  17.389 -12.124  1.00  0.00    -0.340 N 
ATOM     10  H   UNL     1     -17.101  18.277 -12.038  1.00  0.00     0.168 HD
ENDROOT
BRANCH   7  11
ATOM     11  N   UNL     1     -14.482  19.465 -11.381  1.00  0.00    -0.382 N 
ATOM     12  H   UNL     1     -13.712  20.169 -11.411  1.00  0.00     0.158 HD
ATOM     13  H   UNL     1     -15.452  19.794 -11.177  1.00  0.00     0.158 HD
ENDBRANCH   7  11
TORSDOF 1
ENDMDL
MODEL 7
REMARK VINA RESULT:    -3.709      4.525      6.773
REMARK INTER + INTRA:          -3.818
REMARK INTER:                  -3.818
REMARK INTRA:                   0.000
REMARK UNBOUND:                 0.000
REMARK SMILES Nc1ncnc2nc[nH]c12
REMARK SMILES IDX 8 1 7 2 6 3 5 4 4 5 3 6 2 7 10 8 9 9 1 11
REMARK H PARENT 9 10 1 12 1 13
REMARK Flexibility Score: inf
ROOT
ATOM      1  C   UNL     1      -9.489   9.591 -15.389  1.00  0.00     0.199 A 
ATOM      2  N   UNL     1     -10.125  10.728 -14.993  1.00  0.00    -0.217 NA
ATOM      3  C   UNL     1     -10.369  11.341 -16.164  1.00  0.00     0.182 A 
ATOM      4  N   UNL     1     -10.993  12.530 -16.338  1.00  0.00    -0.215 NA
ATOM      5  C   UNL     1     -11.151  12.995 -17.615  1.00  0.00     0.226 A 
ATOM      6  N   UNL     1     -10.686  12.269 -18.683  1.00  0.00    -0.217 NA
ATOM      7  C   UNL     1     -10.057  11.069 -18.508  1.00  0.00     0.152 A 
ATOM      8  C   UNL     1      -9.905  10.610 -17.203  1.00  0.00     0.127 A 
ATOM      9  N   UNL     1      -9.339   9.490 -16.735  1.00  0.00    -0.340 N 
ATOM     10  H   UNL     1      -8.886   8.715 -17.267  1.00  0.00     0.168 HD
ENDROOT
BRANCH   7  11
ATOM     11  N   UNL     1      -9.581  10.331 -19.635  1.00  0.00    -0.382 N 
ATOM     12  H   UNL     1     -10.198  10.131 -20.453  1.00  0.00     0.158 HD
ATOM     13  H   UNL     1      -8.598   9.980 -19.652  1.00  0.00     0.158 HD
ENDBRANCH   7  11
TORSDOF 1
ENDMDL
MODEL 8
REMARK VINA RESULT:    -3.659      0.697      2.820
REMARK INTER + INTRA:          -3.766
REMARK INTER:                  -3.766
REMARK INTRA:                   0.000
REMARK UNBOUND:                 0.000
REMARK SMILES Nc1ncnc2nc[nH]c12
REMARK SMILES IDX 8 1 7 2 6 3 5 4 4 5 3 6 2 7 10 8 9 9 1 11
REMARK H PARENT 9 10 1 12 1 13
REMARK Flexibility Score: inf
ROOT
ATOM      1  C   UNL     1      -7.772  11.364 -24.051  1.00  0.00     0.199 A 
ATOM      2  N   UNL     1      -8.528  10.814 -25.041  1.00  0.00    -0.217 NA
ATOM      3  C   UNL     1      -9.693  10.581 -24.414  1.00  0.00     0.182 A 
ATOM      4  N   UNL     1     -10.807  10.033 -24.956  1.00  0.00    -0.215 NA
ATOM      5  C   UNL     1     -11.903   9.874 -24.155  1.00  0.00     0.226 A 
ATOM      6  N   UNL     1     -11.867  10.263 -22.839  1.00  0.00    -0.217 NA
ATOM      7  C   UNL     1     -10.745  10.817 -22.291  1.00  0.00     0.152 A 
ATOM      8  C   UNL     1      -9.637  10.972 -23.120  1.00  0.00     0.127 A 
ATOM      9  N   UNL     1      -8.422  11.474 -22.864  1.00  0.00    -0.340 N 
ATOM     10  H   UNL     1      -8.050  11.861 -21.969  1.00  0.00     0.168 HD
ENDROOT
BRANCH   7  11
ATOM     11  N   UNL     1     -10.730  11.214 -20.919  1.00  0.00    -0.382 N 
ATOM     12  H   UNL     1     -11.174  10.627 -20.178  1.00  0.00     0.158 HD
ATOM     13  H   UNL     1     -10.269  12.108 -20.639  1.00  0.00     0.158 HD
ENDBRANCH   7  11
TORSDOF 1
ENDMDL
MODEL 9
REMARK VINA RESULT:    -3.505     16.865     18.211
REMARK INTER + INTRA:          -3.607
REMARK INTER:                  -3.607
REMARK INTRA:                   0.000
REMARK UNBOUND:                 0.000
REMARK SMILES Nc1ncnc2nc[nH]c12
REMARK SMILES IDX 8 1 7 2 6 3 5 4 4 5 3 6 2 7 10 8 9 9 1 11
REMARK H PARENT 9 10 1 12 1 13
REMARK Flexibility Score: inf
ROOT
ATOM      1  C   UNL     1     -20.020  15.455  -9.834  1.00  0.00     0.199 A 
ATOM      2  N   UNL     1     -21.182  15.529  -9.128  1.00  0.00    -0.217 NA
ATOM      3  C   UNL     1     -21.962  16.265  -9.937  1.00  0.00     0.182 A 
ATOM      4  N   UNL     1     -23.243  16.638  -9.704  1.00  0.00    -0.215 NA
ATOM      5  C   UNL     1     -23.877  17.393 -10.652  1.00  0.00     0.226 A 
ATOM      6  N   UNL     1     -23.226  17.757 -11.803  1.00  0.00    -0.217 NA
ATOM      7  C   UNL     1     -21.934  17.382 -12.040  1.00  0.00     0.152 A 
ATOM      8  C   UNL     1     -21.302  16.613 -11.066  1.00  0.00     0.127 A 
ATOM      9  N   UNL     1     -20.062  16.109 -11.024  1.00  0.00    -0.340 N 
ATOM     10  H   UNL     1     -19.299  16.191 -11.731  1.00  0.00     0.168 HD
ENDROOT
BRANCH   7  11
ATOM     11  N   UNL     1     -21.276  17.772 -13.246  1.00  0.00    -0.382 N 
ATOM     12  H   UNL     1     -20.256  17.601 -13.389  1.00  0.00     0.158 HD
ATOM     13  H   UNL     1     -21.816  18.240 -14.008  1.00  0.00     0.158 HD
ENDBRANCH   7  11
TORSDOF 1
ENDMDL
