MODEL 1
REMARK VINA RESULT:    -2.462      0.000      0.000
REMARK INTER + INTRA:          -2.678
REMARK INTER:                  -2.678
REMARK INTRA:                   0.000
REMARK UNBOUND:                 0.000
REMARK SMILES [NH3+]CC(=O)[O-]
REMARK SMILES IDX 2 1 1 2 3 6 4 7 5 8
REMARK H PARENT 1 3 1 4 1 5
REMARK Flexibility Score: inf
ROOT
ATOM      1  C   UNL     1     128.141 134.642 123.929  1.00  0.00     0.312 C 
ENDROOT
BRANCH   1   2
ATOM      2  N   UNL     1     129.414 134.631 123.211  1.00  0.00    -0.353 N 
ATOM      3  H   UNL     1     129.712 135.610 122.994  1.00  0.00     0.344 HD
ATOM      4  H   UNL     1     129.322 134.083 122.324  1.00  0.00     0.344 HD
ATOM      5  H   UNL     1     130.142 134.181 123.812  1.00  0.00     0.344 HD
ENDBRANCH   1   2
BRANCH   1   6
ATOM      6  C   UNL     1     127.294 133.479 123.518  1.00  0.00     0.096 C 
ATOM      7  O   UNL     1     127.826 132.447 123.032  1.00  0.00    -0.544 OA
ATOM      8  O   UNL     1     125.911 133.553 123.627  1.00  0.00    -0.544 OA
ENDBRANCH   1   6
TORSDOF 2
ENDMDL
MODEL 2
REMARK VINA RESULT:    -2.451      9.697      9.846
REMARK INTER + INTRA:          -2.666
REMARK INTER:                  -2.666
REMARK INTRA:                   0.000
REMARK UNBOUND:                 0.000
REMARK SMILES [NH3+]CC(=O)[O-]
REMARK SMILES IDX 2 1 1 2 3 6 4 7 5 8
REMARK H PARENT 1 3 1 4 1 5
REMARK Flexibility Score: inf
ROOT
ATOM      1  C   UNL     1     129.735 134.789 132.283  1.00  0.00     0.312 C 
ENDROOT
BRANCH   1   2
ATOM      2  N   UNL     1     128.530 134.696 133.105  1.00  0.00    -0.353 N 
ATOM      3  H   UNL     1     128.759 134.913 134.102  1.00  0.00     0.344 HD
ATOM      4  H   UNL     1     128.121 133.735 133.036  1.00  0.00     0.344 HD
ATOM      5  H   UNL     1     127.827 135.389 132.761  1.00  0.00     0.344 HD
ENDBRANCH   1   2
BRANCH   1   6
ATOM      6  C   UNL     1     130.665 133.654 132.578  1.00  0.00     0.096 C 
ATOM      7  O   UNL     1     130.248 132.636 133.192  1.00  0.00    -0.544 OA
ATOM      8  O   UNL     1     132.005 133.741 132.221  1.00  0.00    -0.544 OA
ENDBRANCH   1   6
TORSDOF 2
ENDMDL
MODEL 3
REMARK VINA RESULT:    -2.432     13.402     13.514
REMARK INTER + INTRA:          -2.645
REMARK INTER:                  -2.645
REMARK INTRA:                   0.000
REMARK UNBOUND:                 0.000
REMARK SMILES [NH3+]CC(=O)[O-]
REMARK SMILES IDX 2 1 1 2 3 6 4 7 5 8
REMARK H PARENT 1 3 1 4 1 5
REMARK Flexibility Score: inf
ROOT
ATOM      1  C   UNL     1     128.273 123.250 132.246  1.00  0.00     0.312 C 
ENDROOT
BRANCH   1   2
ATOM      2  N   UNL     1     129.442 123.343 133.119  1.00  0.00    -0.353 N 
ATOM      3  H   UNL     1     130.072 122.523 132.963  1.00  0.00     0.344 HD
ATOM      4  H   UNL     1     129.142 123.375 134.121  1.00  0.00     0.344 HD
ATOM      5  H   UNL     1     129.967 124.220 132.895  1.00  0.00     0.344 HD
ENDBRANCH   1   2
BRANCH   1   6
ATOM      6  C   UNL     1     127.250 124.276 132.624  1.00  0.00     0.096 C 
ATOM      7  O   UNL     1     127.578 125.271 133.322  1.00  0.00    -0.544 OA
ATOM      8  O   UNL     1     125.924 124.107 132.246  1.00  0.00    -0.544 OA
ENDBRANCH   1   6
TORSDOF 2
ENDMDL
MODEL 4
REMARK VINA RESULT:    -2.410      9.804     10.361
REMARK INTER + INTRA:          -2.621
REMARK INTER:                  -2.621
REMARK INTRA:                   0.000
REMARK UNBOUND:                 0.000
REMARK SMILES [NH3+]CC(=O)[O-]
REMARK SMILES IDX 2 1 1 2 3 6 4 7 5 8
REMARK H PARENT 1 3 1 4 1 5
REMARK Flexibility Score: inf
ROOT
ATOM      1  C   UNL     1     129.700 123.170 124.042  1.00  0.00     0.312 C 
ENDROOT
BRANCH   1   2
ATOM      2  N   UNL     1     128.515 123.265 123.192  1.00  0.00    -0.353 N 
ATOM      3  H   UNL     1     128.389 122.378 122.652  1.00  0.00     0.344 HD
ATOM      4  H   UNL     1     128.609 124.071 122.532  1.00  0.00     0.344 HD
ATOM      5  H   UNL     1     127.673 123.416 123.794  1.00  0.00     0.344 HD
ENDBRANCH   1   2
BRANCH   1   6
ATOM      6  C   UNL     1     130.608 124.338 123.813  1.00  0.00     0.096 C 
ATOM      7  O   UNL     1     130.228 125.307 123.105  1.00  0.00    -0.544 OA
ATOM      8  O   UNL     1     131.893 124.334 124.342  1.00  0.00    -0.544 OA
ENDBRANCH   1   6
TORSDOF 2
ENDMDL
MODEL 5
REMARK VINA RESULT:    -2.328      1.850      2.064
REMARK INTER + INTRA:          -2.532
REMARK INTER:                  -2.532
REMARK INTRA:                   0.000
REMARK UNBOUND:                 0.000
REMARK SMILES [NH3+]CC(=O)[O-]
REMARK SMILES IDX 2 1 1 2 3 6 4 7 5 8
REMARK H PARENT 1 3 1 4 1 5
REMARK Flexibility Score: inf
ROOT
ATOM      1  C   UNL     1     128.021 133.346 123.819  1.00  0.00     0.312 C 
ENDROOT
BRANCH   1   2
ATOM      2  N   UNL     1     127.895 132.601 122.568  1.00  0.00    -0.353 N 
ATOM      3  H   UNL     1     127.024 132.021 122.581  1.00  0.00     0.344 HD
ATOM      4  H   UNL     1     128.730 131.985 122.431  1.00  0.00     0.344 HD
ATOM      5  H   UNL     1     127.838 133.277 121.771  1.00  0.00     0.344 HD
ENDBRANCH   1   2
BRANCH   1   6
ATOM      6  C   UNL     1     126.870 134.289 123.989  1.00  0.00     0.096 C 
ATOM      7  O   UNL     1     127.077 135.491 124.303  1.00  0.00    -0.544 OA
ATOM      8  O   UNL     1     125.567 133.828 123.851  1.00  0.00    -0.544 OA
ENDBRANCH   1   6
TORSDOF 2
ENDMDL
MODEL 6
REMARK VINA RESULT:    -2.326     12.371     12.613
REMARK INTER + INTRA:          -2.530
REMARK INTER:                  -2.530
REMARK INTRA:                   0.000
REMARK UNBOUND:                 0.000
REMARK SMILES [NH3+]CC(=O)[O-]
REMARK SMILES IDX 2 1 1 2 3 6 4 7 5 8
REMARK H PARENT 1 3 1 4 1 5
REMARK Flexibility Score: inf
ROOT
ATOM      1  C   UNL     1     128.316 124.299 132.488  1.00  0.00     0.312 C 
ENDROOT
BRANCH   1   2
ATOM      2  N   UNL     1     129.418 123.455 132.947  1.00  0.00    -0.353 N 
ATOM      3  H   UNL     1     130.308 123.741 132.478  1.00  0.00     0.344 HD
ATOM      4  H   UNL     1     129.213 122.451 132.738  1.00  0.00     0.344 HD
ATOM      5  H   UNL     1     129.529 123.571 133.981  1.00  0.00     0.344 HD
ENDBRANCH   1   2
BRANCH   1   6
ATOM      6  C   UNL     1     128.295 124.371 130.993  1.00  0.00     0.096 C 
ATOM      7  O   UNL     1     128.882 125.311 130.395  1.00  0.00    -0.544 OA
ATOM      8  O   UNL     1     127.585 123.428 130.261  1.00  0.00    -0.544 OA
ENDBRANCH   1   6
TORSDOF 2
ENDMDL
MODEL 7
REMARK VINA RESULT:    -2.318     12.908     13.166
REMARK INTER + INTRA:          -2.521
REMARK INTER:                  -2.521
REMARK INTRA:                   0.000
REMARK UNBOUND:                 0.000
REMARK SMILES [NH3+]CC(=O)[O-]
REMARK SMILES IDX 2 1 1 2 3 6 4 7 5 8
REMARK H PARENT 1 3 1 4 1 5
REMARK Flexibility Score: inf
ROOT
ATOM      1  C   UNL     1     126.610 124.578 132.717  1.00  0.00     0.312 C 
ENDROOT
BRANCH   1   2
ATOM      2  N   UNL     1     126.531 125.621 133.737  1.00  0.00    -0.353 N 
ATOM      3  H   UNL     1     126.029 125.261 134.581  1.00  0.00     0.344 HD
ATOM      4  H   UNL     1     126.032 126.459 133.358  1.00  0.00     0.344 HD
ATOM      5  H   UNL     1     127.500 125.901 134.015  1.00  0.00     0.344 HD
ENDBRANCH   1   2
BRANCH   1   6
ATOM      6  C   UNL     1     128.032 124.343 132.310  1.00  0.00     0.096 C 
ATOM      7  O   UNL     1     128.516 124.949 131.318  1.00  0.00    -0.544 OA
ATOM      8  O   UNL     1     128.808 123.418 132.997  1.00  0.00    -0.544 OA
ENDBRANCH   1   6
TORSDOF 2
ENDMDL
MODEL 8
REMARK VINA RESULT:    -2.300      9.554      9.770
REMARK INTER + INTRA:          -2.501
REMARK INTER:                  -2.501
REMARK INTRA:                   0.000
REMARK UNBOUND:                 0.000
REMARK SMILES [NH3+]CC(=O)[O-]
REMARK SMILES IDX 2 1 1 2 3 6 4 7 5 8
REMARK H PARENT 1 3 1 4 1 5
REMARK Flexibility Score: inf
ROOT
ATOM      1  C   UNL     1     129.853 133.446 132.484  1.00  0.00     0.312 C 
ENDROOT
BRANCH   1   2
ATOM      2  N   UNL     1     130.083 132.694 133.716  1.00  0.00    -0.353 N 
ATOM      3  H   UNL     1     129.177 132.316 134.079  1.00  0.00     0.344 HD
ATOM      4  H   UNL     1     130.525 133.310 134.436  1.00  0.00     0.344 HD
ATOM      5  H   UNL     1     130.726 131.894 133.513  1.00  0.00     0.344 HD
ENDBRANCH   1   2
BRANCH   1   6
ATOM      6  C   UNL     1     131.144 133.976 131.941  1.00  0.00     0.096 C 
ATOM      7  O   UNL     1     131.153 134.667 130.889  1.00  0.00    -0.544 OA
ATOM      8  O   UNL     1     132.343 133.665 132.570  1.00  0.00    -0.544 OA
ENDBRANCH   1   6
TORSDOF 2
ENDMDL
MODEL 9
REMARK VINA RESULT:    -2.201     10.329     10.610
REMARK INTER + INTRA:          -2.394
REMARK INTER:                  -2.394
REMARK INTRA:                   0.000
REMARK UNBOUND:                 0.000
REMARK SMILES [NH3+]CC(=O)[O-]
REMARK SMILES IDX 2 1 1 2 3 6 4 7 5 8
REMARK H PARENT 1 3 1 4 1 5
REMARK Flexibility Score: inf
ROOT
ATOM      1  C   UNL     1     129.684 123.940 123.778  1.00  0.00     0.312 C 
ENDROOT
BRANCH   1   2
ATOM      2  N   UNL     1     128.516 123.281 123.197  1.00  0.00    -0.353 N 
ATOM      3  H   UNL     1     128.813 122.636 122.429  1.00  0.00     0.344 HD
ATOM      4  H   UNL     1     127.849 123.995 122.823  1.00  0.00     0.344 HD
ATOM      5  H   UNL     1     128.033 122.724 123.939  1.00  0.00     0.344 HD
ENDBRANCH   1   2
BRANCH   1   6
ATOM      6  C   UNL     1     129.733 123.720 125.258  1.00  0.00     0.096 C 
ATOM      7  O   UNL     1     130.491 124.420 125.978  1.00  0.00    -0.544 OA
ATOM      8  O   UNL     1     128.978 122.707 125.835  1.00  0.00    -0.544 OA
ENDBRANCH   1   6
TORSDOF 2
ENDMDL
