MODEL 1
REMARK VINA RESULT:    -5.257      0.000      0.000
REMARK INTER + INTRA:          -6.979
REMARK INTER:                  -6.793
REMARK INTRA:                  -0.186
REMARK UNBOUND:                -0.186
REMARK SMILES CCO[C@@H]1O[C@@H](CO)[C@H](O)[C@@H](O)[C@H]1O
REMARK SMILES IDX 4 1 13 2 11 3 9 4 6 5 5 6 3 7 2 8 1 9 14 10 12 12 7 14 8 15
REMARK SMILES IDX 10 17
REMARK H PARENT 14 11 12 13 8 16 10 18
REMARK Flexibility Score: inf
ROOT
ATOM      1  C   UNL     1     -11.523   1.621 -17.748  1.00  0.00     0.281 C 
ATOM      2  C   UNL     1     -10.613   2.189 -18.852  1.00  0.00     0.202 C 
ATOM      3  C   UNL     1     -11.433   3.073 -19.813  1.00  0.00     0.179 C 
ATOM      4  C   UNL     1     -12.239   4.113 -19.014  1.00  0.00     0.177 C 
ATOM      5  C   UNL     1     -13.046   3.410 -17.894  1.00  0.00     0.178 C 
ATOM      6  O   UNL     1     -12.183   2.668 -17.046  1.00  0.00    -0.341 OA
ENDROOT
BRANCH   1   7
ATOM      7  O   UNL     1     -12.448   0.701 -18.309  1.00  0.00    -0.350 OA
BRANCH   7   8
ATOM      8  C   UNL     1     -11.868  -0.584 -18.394  1.00  0.00     0.160 C 
ATOM      9  C   UNL     1     -12.295  -1.403 -17.186  1.00  0.00     0.035 C 
ENDBRANCH   7   8
ENDBRANCH   1   7
BRANCH   2  10
ATOM     10  O   UNL     1      -9.582   2.937 -18.256  1.00  0.00    -0.385 OA
ATOM     11  H   UNL     1      -9.125   2.337 -17.611  1.00  0.00     0.211 HD
ENDBRANCH   2  10
BRANCH   3  12
ATOM     12  O   UNL     1     -10.587   3.731 -20.721  1.00  0.00    -0.387 OA
ATOM     13  H   UNL     1     -10.773   4.702 -20.631  1.00  0.00     0.211 HD
ENDBRANCH   3  12
BRANCH   5  14
ATOM     14  C   UNL     1     -13.794   4.439 -17.040  1.00  0.00     0.191 C 
BRANCH  14  15
ATOM     15  O   UNL     1     -13.808   4.021 -15.703  1.00  0.00    -0.394 OA
ATOM     16  H   UNL     1     -14.615   3.453 -15.599  1.00  0.00     0.210 HD
ENDBRANCH  14  15
ENDBRANCH   5  14
BRANCH   4  17
ATOM     17  O   UNL     1     -13.080   4.846 -19.872  1.00  0.00    -0.387 OA
ATOM     18  H   UNL     1     -13.087   5.788 -19.554  1.00  0.00     0.211 HD
ENDBRANCH   4  17
TORSDOF 7
ENDMDL
MODEL 2
REMARK VINA RESULT:    -4.975      1.768      3.656
REMARK INTER + INTRA:          -6.615
REMARK INTER:                  -6.215
REMARK INTRA:                  -0.400
REMARK UNBOUND:                -0.186
REMARK SMILES CCO[C@@H]1O[C@@H](CO)[C@H](O)[C@@H](O)[C@H]1O
REMARK SMILES IDX 4 1 13 2 11 3 9 4 6 5 5 6 3 7 2 8 1 9 14 10 12 12 7 14 8 15
REMARK SMILES IDX 10 17
REMARK H PARENT 14 11 12 13 8 16 10 18
REMARK Flexibility Score: inf
ROOT
ATOM      1  C   UNL     1     -10.898   2.905 -20.316  1.00  0.00     0.281 C 
ATOM      2  C   UNL     1     -11.268   4.325 -19.851  1.00  0.00     0.202 C 
ATOM      3  C   UNL     1     -12.638   4.311 -19.145  1.00  0.00     0.179 C 
ATOM      4  C   UNL     1     -12.657   3.227 -18.052  1.00  0.00     0.177 C 
ATOM      5  C   UNL     1     -12.192   1.872 -18.643  1.00  0.00     0.178 C 
ATOM      6  O   UNL     1     -10.902   1.995 -19.222  1.00  0.00    -0.341 OA
ENDROOT
BRANCH   1   7
ATOM      7  O   UNL     1     -11.778   2.488 -21.348  1.00  0.00    -0.350 OA
BRANCH   7   8
ATOM      8  C   UNL     1     -11.572   3.265 -22.509  1.00  0.00     0.160 C 
ATOM      9  C   UNL     1     -10.218   2.917 -23.107  1.00  0.00     0.035 C 
ENDBRANCH   7   8
ENDBRANCH   1   7
BRANCH   2  10
ATOM     10  O   UNL     1     -10.271   4.796 -18.978  1.00  0.00    -0.385 OA
ATOM     11  H   UNL     1      -9.621   5.305 -19.530  1.00  0.00     0.211 HD
ENDBRANCH   2  10
BRANCH   3  12
ATOM     12  O   UNL     1     -12.909   5.563 -18.568  1.00  0.00    -0.387 OA
ATOM     13  H   UNL     1     -13.778   5.866 -18.941  1.00  0.00     0.211 HD
ENDBRANCH   3  12
BRANCH   5  14
ATOM     14  C   UNL     1     -12.131   0.798 -17.551  1.00  0.00     0.191 C 
BRANCH  14  15
ATOM     15  O   UNL     1     -12.002   1.409 -16.297  1.00  0.00    -0.394 OA
ATOM     16  H   UNL     1     -11.376   2.169 -16.423  1.00  0.00     0.210 HD
ENDBRANCH  14  15
ENDBRANCH   5  14
BRANCH   4  17
ATOM     17  O   UNL     1     -13.940   3.126 -17.483  1.00  0.00    -0.387 OA
ATOM     18  H   UNL     1     -14.307   4.046 -17.402  1.00  0.00     0.211 HD
ENDBRANCH   4  17
TORSDOF 7
ENDMDL
MODEL 3
REMARK VINA RESULT:    -4.816      1.520      3.783
REMARK INTER + INTRA:          -6.410
REMARK INTER:                  -6.038
REMARK INTRA:                  -0.372
REMARK UNBOUND:                -0.186
REMARK SMILES CCO[C@@H]1O[C@@H](CO)[C@H](O)[C@@H](O)[C@H]1O
REMARK SMILES IDX 4 1 13 2 11 3 9 4 6 5 5 6 3 7 2 8 1 9 14 10 12 12 7 14 8 15
REMARK SMILES IDX 10 17
REMARK H PARENT 14 11 12 13 8 16 10 18
REMARK Flexibility Score: inf
ROOT
ATOM      1  C   UNL     1     -11.139   2.338 -18.977  1.00  0.00     0.281 C 
ATOM      2  C   UNL     1     -11.783   1.399 -17.940  1.00  0.00     0.202 C 
ATOM      3  C   UNL     1     -12.393   2.221 -16.787  1.00  0.00     0.179 C 
ATOM      4  C   UNL     1     -13.311   3.320 -17.351  1.00  0.00     0.177 C 
ATOM      5  C   UNL     1     -12.558   4.136 -18.432  1.00  0.00     0.178 C 
ATOM      6  O   UNL     1     -12.085   3.281 -19.464  1.00  0.00    -0.341 OA
ENDROOT
BRANCH   1   7
ATOM      7  O   UNL     1     -10.004   2.976 -18.412  1.00  0.00    -0.350 OA
BRANCH   7   8
ATOM      8  C   UNL     1      -9.110   3.375 -19.431  1.00  0.00     0.160 C 
ATOM      9  C   UNL     1      -8.997   4.891 -19.428  1.00  0.00     0.035 C 
ENDBRANCH   7   8
ENDBRANCH   1   7
BRANCH   2  10
ATOM     10  O   UNL     1     -12.775   0.630 -18.573  1.00  0.00    -0.385 OA
ATOM     11  H   UNL     1     -12.332   0.135 -19.311  1.00  0.00     0.211 HD
ENDBRANCH   2  10
BRANCH   3  12
ATOM     12  O   UNL     1     -13.128   1.391 -15.925  1.00  0.00    -0.387 OA
ATOM     13  H   UNL     1     -13.259   1.900 -15.083  1.00  0.00     0.211 HD
ENDBRANCH   3  12
BRANCH   5  14
ATOM     14  C   UNL     1     -13.482   5.184 -19.060  1.00  0.00     0.191 C 
BRANCH  14  15
ATOM     15  O   UNL     1     -13.385   6.385 -18.345  1.00  0.00    -0.394 OA
ATOM     16  H   UNL     1     -12.551   6.322 -17.810  1.00  0.00     0.210 HD
ENDBRANCH  14  15
ENDBRANCH   5  14
BRANCH   4  17
ATOM     17  O   UNL     1     -13.778   4.148 -16.314  1.00  0.00    -0.387 OA
ATOM     18  H   UNL     1     -14.641   4.543 -16.609  1.00  0.00     0.211 HD
ENDBRANCH   4  17
TORSDOF 7
ENDMDL
MODEL 4
REMARK VINA RESULT:    -4.633      1.726      3.797
REMARK INTER + INTRA:          -6.174
REMARK INTER:                  -5.880
REMARK INTRA:                  -0.294
REMARK UNBOUND:                -0.186
REMARK SMILES CCO[C@@H]1O[C@@H](CO)[C@H](O)[C@@H](O)[C@H]1O
REMARK SMILES IDX 4 1 13 2 11 3 9 4 6 5 5 6 3 7 2 8 1 9 14 10 12 12 7 14 8 15
REMARK SMILES IDX 10 17
REMARK H PARENT 14 11 12 13 8 16 10 18
REMARK Flexibility Score: inf
ROOT
ATOM      1  C   UNL     1     -11.116   4.066 -19.635  1.00  0.00     0.281 C 
ATOM      2  C   UNL     1     -10.934   2.561 -19.908  1.00  0.00     0.202 C 
ATOM      3  C   UNL     1     -11.104   1.761 -18.602  1.00  0.00     0.179 C 
ATOM      4  C   UNL     1     -12.419   2.158 -17.907  1.00  0.00     0.177 C 
ATOM      5  C   UNL     1     -12.500   3.699 -17.767  1.00  0.00     0.178 C 
ATOM      6  O   UNL     1     -12.380   4.324 -19.036  1.00  0.00    -0.341 OA
ENDROOT
BRANCH   1   7
ATOM      7  O   UNL     1     -10.048   4.545 -18.834  1.00  0.00    -0.350 OA
BRANCH   7   8
ATOM      8  C   UNL     1      -8.807   4.207 -19.419  1.00  0.00     0.160 C 
ATOM      9  C   UNL     1      -7.983   5.471 -19.603  1.00  0.00     0.035 C 
ENDBRANCH   7   8
ENDBRANCH   1   7
BRANCH   2  10
ATOM     10  O   UNL     1     -11.883   2.151 -20.861  1.00  0.00    -0.385 OA
ATOM     11  H   UNL     1     -12.372   2.964 -21.153  1.00  0.00     0.211 HD
ENDBRANCH   2  10
BRANCH   3  12
ATOM     12  O   UNL     1     -11.110   0.382 -18.865  1.00  0.00    -0.387 OA
ATOM     13  H   UNL     1     -10.787  -0.067 -18.040  1.00  0.00     0.211 HD
ENDBRANCH   3  12
BRANCH   5  14
ATOM     14  C   UNL     1     -13.838   4.116 -17.148  1.00  0.00     0.191 C 
BRANCH  14  15
ATOM     15  O   UNL     1     -13.751   4.053 -15.751  1.00  0.00    -0.394 OA
ATOM     16  H   UNL     1     -13.007   3.428 -15.548  1.00  0.00     0.210 HD
ENDBRANCH  14  15
ENDBRANCH   5  14
BRANCH   4  17
ATOM     17  O   UNL     1     -12.526   1.521 -16.657  1.00  0.00    -0.387 OA
ATOM     18  H   UNL     1     -13.347   1.862 -16.214  1.00  0.00     0.211 HD
ENDBRANCH   4  17
TORSDOF 7
ENDMDL
MODEL 5
REMARK VINA RESULT:    -4.400      1.537      3.891
REMARK INTER + INTRA:          -5.872
REMARK INTER:                  -5.902
REMARK INTRA:                   0.030
REMARK UNBOUND:                -0.186
REMARK SMILES CCO[C@@H]1O[C@@H](CO)[C@H](O)[C@@H](O)[C@H]1O
REMARK SMILES IDX 4 1 13 2 11 3 9 4 6 5 5 6 3 7 2 8 1 9 14 10 12 12 7 14 8 15
REMARK SMILES IDX 10 17
REMARK H PARENT 14 11 12 13 8 16 10 18
REMARK Flexibility Score: inf
ROOT
ATOM      1  C   UNL     1     -12.225   3.807 -19.570  1.00  0.00     0.281 C 
ATOM      2  C   UNL     1     -10.803   4.144 -20.055  1.00  0.00     0.202 C 
ATOM      3  C   UNL     1      -9.762   3.644 -19.035  1.00  0.00     0.179 C 
ATOM      4  C   UNL     1     -10.018   2.163 -18.703  1.00  0.00     0.177 C 
ATOM      5  C   UNL     1     -11.501   1.959 -18.304  1.00  0.00     0.178 C 
ATOM      6  O   UNL     1     -12.364   2.411 -19.338  1.00  0.00    -0.341 OA
ENDROOT
BRANCH   1   7
ATOM      7  O   UNL     1     -12.533   4.565 -18.411  1.00  0.00    -0.350 OA
BRANCH   7   8
ATOM      8  C   UNL     1     -13.742   4.112 -17.838  1.00  0.00     0.160 C 
ATOM      9  C   UNL     1     -13.546   3.933 -16.340  1.00  0.00     0.035 C 
ENDBRANCH   7   8
ENDBRANCH   1   7
BRANCH   2  10
ATOM     10  O   UNL     1     -10.592   3.541 -21.308  1.00  0.00    -0.385 OA
ATOM     11  H   UNL     1      -9.610   3.482 -21.439  1.00  0.00     0.211 HD
ENDBRANCH   2  10
BRANCH   3  12
ATOM     12  O   UNL     1      -8.461   3.793 -19.544  1.00  0.00    -0.387 OA
ATOM     13  H   UNL     1      -8.300   3.019 -20.144  1.00  0.00     0.211 HD
ENDBRANCH   3  12
BRANCH   5  14
ATOM     14  C   UNL     1     -11.793   0.478 -18.045  1.00  0.00     0.191 C 
BRANCH  14  15
ATOM     15  O   UNL     1     -10.886  -0.314 -18.763  1.00  0.00    -0.394 OA
ATOM     16  H   UNL     1     -10.610   0.227 -19.548  1.00  0.00     0.210 HD
ENDBRANCH  14  15
ENDBRANCH   5  14
BRANCH   4  17
ATOM     17  O   UNL     1      -9.148   1.731 -17.685  1.00  0.00    -0.387 OA
ATOM     18  H   UNL     1      -9.703   1.354 -16.953  1.00  0.00     0.211 HD
ENDBRANCH   4  17
TORSDOF 7
ENDMDL
MODEL 6
REMARK VINA RESULT:    -4.267      1.952      4.610
REMARK INTER + INTRA:          -5.701
REMARK INTER:                  -5.559
REMARK INTRA:                  -0.141
REMARK UNBOUND:                -0.186
REMARK SMILES CCO[C@@H]1O[C@@H](CO)[C@H](O)[C@@H](O)[C@H]1O
REMARK SMILES IDX 4 1 13 2 11 3 9 4 6 5 5 6 3 7 2 8 1 9 14 10 12 12 7 14 8 15
REMARK SMILES IDX 10 17
REMARK H PARENT 14 11 12 13 8 16 10 18
REMARK Flexibility Score: inf
ROOT
ATOM      1  C   UNL     1     -11.934   3.909 -20.113  1.00  0.00     0.281 C 
ATOM      2  C   UNL     1     -12.469   3.226 -18.841  1.00  0.00     0.202 C 
ATOM      3  C   UNL     1     -11.473   2.155 -18.355  1.00  0.00     0.179 C 
ATOM      4  C   UNL     1     -10.062   2.760 -18.243  1.00  0.00     0.177 C 
ATOM      5  C   UNL     1      -9.686   3.477 -19.564  1.00  0.00     0.178 C 
ATOM      6  O   UNL     1     -10.648   4.471 -19.884  1.00  0.00    -0.341 OA
ENDROOT
BRANCH   1   7
ATOM      7  O   UNL     1     -11.919   2.984 -21.189  1.00  0.00    -0.350 OA
BRANCH   7   8
ATOM      8  C   UNL     1     -11.780   3.666 -22.419  1.00  0.00     0.160 C 
ATOM      9  C   UNL     1     -10.538   3.157 -23.133  1.00  0.00     0.035 C 
ENDBRANCH   7   8
ENDBRANCH   1   7
BRANCH   2  10
ATOM     10  O   UNL     1     -12.667   4.200 -17.847  1.00  0.00    -0.385 OA
ATOM     11  H   UNL     1     -13.642   4.379 -17.807  1.00  0.00     0.211 HD
ENDBRANCH   2  10
BRANCH   3  12
ATOM     12  O   UNL     1     -11.867   1.645 -17.107  1.00  0.00    -0.387 OA
ATOM     13  H   UNL     1     -12.685   1.106 -17.265  1.00  0.00     0.211 HD
ENDBRANCH   3  12
BRANCH   5  14
ATOM     14  C   UNL     1      -8.316   4.151 -19.442  1.00  0.00     0.191 C 
BRANCH  14  15
ATOM     15  O   UNL     1      -8.481   5.485 -19.045  1.00  0.00    -0.394 OA
ATOM     16  H   UNL     1      -7.717   5.985 -19.435  1.00  0.00     0.210 HD
ENDBRANCH  14  15
ENDBRANCH   5  14
BRANCH   4  17
ATOM     17  O   UNL     1      -9.126   1.763 -17.914  1.00  0.00    -0.387 OA
ATOM     18  H   UNL     1      -9.496   0.890 -18.214  1.00  0.00     0.211 HD
ENDBRANCH   4  17
TORSDOF 7
ENDMDL
MODEL 7
REMARK VINA RESULT:    -3.824      2.163      3.979
REMARK INTER + INTRA:          -5.127
REMARK INTER:                  -4.790
REMARK INTRA:                  -0.337
REMARK UNBOUND:                -0.186
REMARK SMILES CCO[C@@H]1O[C@@H](CO)[C@H](O)[C@@H](O)[C@H]1O
REMARK SMILES IDX 4 1 13 2 11 3 9 4 6 5 5 6 3 7 2 8 1 9 14 10 12 12 7 14 8 15
REMARK SMILES IDX 10 17
REMARK H PARENT 14 11 12 13 8 16 10 18
REMARK Flexibility Score: inf
ROOT
ATOM      1  C   UNL     1     -11.836   3.997 -18.931  1.00  0.00     0.281 C 
ATOM      2  C   UNL     1     -10.307   3.917 -18.772  1.00  0.00     0.202 C 
ATOM      3  C   UNL     1      -9.708   3.000 -19.856  1.00  0.00     0.179 C 
ATOM      4  C   UNL     1     -10.211   3.430 -21.246  1.00  0.00     0.177 C 
ATOM      5  C   UNL     1     -11.756   3.541 -21.239  1.00  0.00     0.178 C 
ATOM      6  O   UNL     1     -12.187   4.447 -20.234  1.00  0.00    -0.341 OA
ENDROOT
BRANCH   1   7
ATOM      7  O   UNL     1     -12.420   2.738 -18.634  1.00  0.00    -0.350 OA
BRANCH   7   8
ATOM      8  C   UNL     1     -12.724   2.652 -17.258  1.00  0.00     0.160 C 
ATOM      9  C   UNL     1     -13.751   3.717 -16.907  1.00  0.00     0.035 C 
ENDBRANCH   7   8
ENDBRANCH   1   7
BRANCH   2  10
ATOM     10  O   UNL     1      -9.767   5.212 -18.871  1.00  0.00    -0.385 OA
ATOM     11  H   UNL     1      -8.894   5.127 -19.335  1.00  0.00     0.211 HD
ENDBRANCH   2  10
BRANCH   3  12
ATOM     12  O   UNL     1      -8.305   3.053 -19.828  1.00  0.00    -0.387 OA
ATOM     13  H   UNL     1      -7.992   2.806 -20.737  1.00  0.00     0.211 HD
ENDBRANCH   3  12
BRANCH   5  14
ATOM     14  C   UNL     1     -12.269   4.043 -22.593  1.00  0.00     0.191 C 
BRANCH  14  15
ATOM     15  O   UNL     1     -12.790   2.969 -23.327  1.00  0.00    -0.394 OA
ATOM     16  H   UNL     1     -12.922   2.230 -22.678  1.00  0.00     0.210 HD
ENDBRANCH  14  15
ENDBRANCH   5  14
BRANCH   4  17
ATOM     17  O   UNL     1      -9.765   2.528 -22.230  1.00  0.00    -0.387 OA
ATOM     18  H   UNL     1     -10.474   1.842 -22.354  1.00  0.00     0.211 HD
ENDBRANCH   4  17
TORSDOF 7
ENDMDL
MODEL 8
REMARK VINA RESULT:    -3.628      1.923      3.786
REMARK INTER + INTRA:          -4.875
REMARK INTER:                  -4.528
REMARK INTRA:                  -0.347
REMARK UNBOUND:                -0.186
REMARK SMILES CCO[C@@H]1O[C@@H](CO)[C@H](O)[C@@H](O)[C@H]1O
REMARK SMILES IDX 4 1 13 2 11 3 9 4 6 5 5 6 3 7 2 8 1 9 14 10 12 12 7 14 8 15
REMARK SMILES IDX 10 17
REMARK H PARENT 14 11 12 13 8 16 10 18
REMARK Flexibility Score: inf
ROOT
ATOM      1  C   UNL     1     -12.075   2.472 -19.135  1.00  0.00     0.281 C 
ATOM      2  C   UNL     1     -11.210   3.624 -18.593  1.00  0.00     0.202 C 
ATOM      3  C   UNL     1      -9.912   3.745 -19.415  1.00  0.00     0.179 C 
ATOM      4  C   UNL     1     -10.243   3.811 -20.917  1.00  0.00     0.177 C 
ATOM      5  C   UNL     1     -11.177   2.638 -21.305  1.00  0.00     0.178 C 
ATOM      6  O   UNL     1     -12.358   2.657 -20.517  1.00  0.00    -0.341 OA
ENDROOT
BRANCH   1   7
ATOM      7  O   UNL     1     -11.434   1.229 -18.893  1.00  0.00    -0.350 OA
BRANCH   7   8
ATOM      8  C   UNL     1     -11.993   0.605 -17.756  1.00  0.00     0.160 C 
ATOM      9  C   UNL     1     -12.002  -0.901 -17.969  1.00  0.00     0.035 C 
ENDBRANCH   7   8
ENDBRANCH   1   7
BRANCH   2  10
ATOM     10  O   UNL     1     -11.946   4.820 -18.660  1.00  0.00    -0.385 OA
ATOM     11  H   UNL     1     -12.271   4.909 -19.593  1.00  0.00     0.211 HD
ENDBRANCH   2  10
BRANCH   3  12
ATOM     12  O   UNL     1      -9.196   4.894 -19.041  1.00  0.00    -0.387 OA
ATOM     13  H   UNL     1      -8.612   4.631 -18.282  1.00  0.00     0.211 HD
ENDBRANCH   3  12
BRANCH   5  14
ATOM     14  C   UNL     1     -11.580   2.732 -22.780  1.00  0.00     0.191 C 
BRANCH  14  15
ATOM     15  O   UNL     1     -10.661   2.024 -23.566  1.00  0.00    -0.394 OA
ATOM     16  H   UNL     1     -11.103   1.875 -24.442  1.00  0.00     0.210 HD
ENDBRANCH  14  15
ENDBRANCH   5  14
BRANCH   4  17
ATOM     17  O   UNL     1      -9.061   3.802 -21.681  1.00  0.00    -0.387 OA
ATOM     18  H   UNL     1      -9.030   4.649 -22.198  1.00  0.00     0.211 HD
ENDBRANCH   4  17
TORSDOF 7
ENDMDL
