MODEL 1
REMARK VINA RESULT:    -4.459      0.000      0.000
REMARK INTER + INTRA:          -7.033
REMARK INTER:                  -6.805
REMARK INTRA:                  -0.228
REMARK UNBOUND:                -0.228
REMARK SMILES CC1=CCC[C@H](C)C(=O)C[C@H](C(C)C)C(=O)C1
REMARK SMILES IDX 8 1 9 2 6 3 7 4 5 5 4 6 3 7 2 8 1 9 10 11 11 12 15 13 16 14
REMARK SMILES IDX 17 15 12 17 13 18 14 19
REMARK H PARENT
REMARK Flexibility Score: 70.00
ROOT
ATOM      1  C   UNL     1      16.708 -11.901  66.925  1.00  0.00     0.136 C 
ATOM      2  O   UNL     1      15.735 -11.375  67.447  1.00  0.00    -0.299 OA
ENDROOT
BRANCH   1   3
ATOM      3  C   UNL     1      17.909 -12.210  67.807  1.00  0.00     0.053 C 
ATOM      4  C   UNL     1      18.811 -13.326  67.256  1.00  0.00     0.016 C 
BRANCH   3   5
ATOM      5  C   UNL     1      18.685 -10.934  68.202  1.00  0.00     0.015 C 
BRANCH   5   6
ATOM      6  C   UNL     1      18.625  -9.806  67.152  1.00  0.00     0.028 C 
BRANCH   6   7
ATOM      7  C   UNL     1      19.694  -9.935  66.095  1.00  0.00    -0.028 C 
ATOM      8  C   UNL     1      19.495  -9.793  64.761  1.00  0.00    -0.070 CG0
ATOM      9  C   UNL     1      20.670 -10.040  63.848  1.00  0.00     0.039 C 
ATOM     10  G   UNL     1      18.165  -9.372  64.149  1.00  0.00     0.000 G0
ENDBRANCH   6   7
ENDBRANCH   5   6
ENDBRANCH   3   5
ENDBRANCH   1   3
BRANCH   1  11
ATOM     11  C   UNL     1      16.637 -12.229  65.446  1.00  0.00     0.087 C 
BRANCH  11  12
ATOM     12  C   UNL     1      16.174 -11.020  64.589  1.00  0.00     0.066 C 
BRANCH  12  13
ATOM     13  C   UNL     1      17.294 -10.522  63.688  1.00  0.00     0.140 C 
ATOM     14  O   UNL     1      17.471 -11.021  62.586  1.00  0.00    -0.299 OA
BRANCH  13  15
ATOM     15  C   UNL     1      18.166  -9.373  64.131  1.00  0.00     0.106 CG0
ATOM     16  G   UNL     1      19.490  -9.812  64.746  1.00  0.00     0.000 G0
ENDBRANCH  13  15
ENDBRANCH  12  13
BRANCH  12  17
ATOM     17  C   UNL     1      14.861 -11.296  63.784  1.00  0.00    -0.006 C 
ATOM     18  C   UNL     1      14.201  -9.989  63.314  1.00  0.00     0.008 C 
ATOM     19  C   UNL     1      13.832 -12.153  64.545  1.00  0.00     0.008 C 
ENDBRANCH  12  17
ENDBRANCH  11  12
ENDBRANCH   1  11
TORSDOF 1
ENDMDL
MODEL 2
REMARK VINA RESULT:    -4.417      1.630      2.086
REMARK INTER + INTRA:          -6.969
REMARK INTER:                  -6.890
REMARK INTRA:                  -0.079
REMARK UNBOUND:                -0.228
REMARK SMILES CC1=CCC[C@H](C)C(=O)C[C@H](C(C)C)C(=O)C1
REMARK SMILES IDX 8 1 9 2 6 3 7 4 5 5 4 6 3 7 2 8 1 9 10 11 11 12 15 13 16 14
REMARK SMILES IDX 17 15 12 17 13 18 14 19
REMARK H PARENT
REMARK Flexibility Score: 70.00
ROOT
ATOM      1  C   UNL     1      17.210 -11.836  66.460  1.00  0.00     0.136 C 
ATOM      2  O   UNL     1      16.339 -11.054  66.815  1.00  0.00    -0.299 OA
ENDROOT
BRANCH   1   3
ATOM      3  C   UNL     1      17.732 -12.832  67.484  1.00  0.00     0.053 C 
ATOM      4  C   UNL     1      18.509 -14.006  66.866  1.00  0.00     0.016 C 
BRANCH   3   5
ATOM      5  C   UNL     1      18.488 -12.139  68.639  1.00  0.00     0.015 C 
BRANCH   5   6
ATOM      6  C   UNL     1      19.294 -10.895  68.212  1.00  0.00     0.028 C 
BRANCH   6   7
ATOM      7  C   UNL     1      20.555 -11.246  67.463  1.00  0.00    -0.028 C 
ATOM      8  C   UNL     1      20.940 -10.701  66.281  1.00  0.00    -0.070 CG0
ATOM      9  C   UNL     1      22.195 -11.237  65.639  1.00  0.00     0.039 C 
ATOM     10  G   UNL     1      20.191  -9.566  65.595  1.00  0.00     0.000 G0
ENDBRANCH   6   7
ENDBRANCH   5   6
ENDBRANCH   3   5
ENDBRANCH   1   3
BRANCH   1  11
ATOM     11  C   UNL     1      17.687 -11.771  65.022  1.00  0.00     0.087 C 
BRANCH  11  12
ATOM     12  C   UNL     1      17.911 -10.315  64.533  1.00  0.00     0.066 C 
BRANCH  12  13
ATOM     13  C   UNL     1      19.394 -10.005  64.388  1.00  0.00     0.140 C 
ATOM     14  O   UNL     1      19.936 -10.068  63.293  1.00  0.00    -0.299 OA
BRANCH  13  15
ATOM     15  C   UNL     1      20.196  -9.569  65.590  1.00  0.00     0.106 CG0
ATOM     16  G   UNL     1      20.949 -10.708  66.267  1.00  0.00     0.000 G0
ENDBRANCH  13  15
ENDBRANCH  12  13
BRANCH  12  17
ATOM     17  C   UNL     1      17.116  -9.967  63.231  1.00  0.00    -0.006 C 
ATOM     18  C   UNL     1      16.023  -8.919  63.500  1.00  0.00     0.008 C 
ATOM     19  C   UNL     1      16.499 -11.193  62.531  1.00  0.00     0.008 C 
ENDBRANCH  12  17
ENDBRANCH  11  12
ENDBRANCH   1  11
TORSDOF 1
ENDMDL
MODEL 3
REMARK VINA RESULT:    -4.323      2.564      4.513
REMARK INTER + INTRA:          -6.826
REMARK INTER:                  -6.391
REMARK INTRA:                  -0.435
REMARK UNBOUND:                -0.228
REMARK SMILES CC1=CCC[C@H](C)C(=O)C[C@H](C(C)C)C(=O)C1
REMARK SMILES IDX 8 1 9 2 6 3 7 4 5 5 4 6 3 7 2 8 1 9 10 11 11 12 15 13 16 14
REMARK SMILES IDX 17 15 12 17 13 18 14 19
REMARK H PARENT
REMARK Flexibility Score: 70.00
ROOT
ATOM      1  C   UNL     1      19.483  -9.967  65.920  1.00  0.00     0.136 C 
ATOM      2  O   UNL     1      19.865  -8.895  66.368  1.00  0.00    -0.299 OA
ENDROOT
BRANCH   1   3
ATOM      3  C   UNL     1      20.243 -10.559  64.743  1.00  0.00     0.053 C 
ATOM      4  C   UNL     1      20.281  -9.646  63.507  1.00  0.00     0.016 C 
BRANCH   3   5
ATOM      5  C   UNL     1      21.634 -11.089  65.156  1.00  0.00     0.015 C 
BRANCH   5   6
ATOM      6  C   UNL     1      21.622 -12.522  65.724  1.00  0.00     0.028 C 
BRANCH   6   7
ATOM      7  C   UNL     1      21.647 -12.552  67.232  1.00  0.00    -0.028 C 
ATOM      8  C   UNL     1      20.698 -13.120  68.018  1.00  0.00    -0.070 CG0
ATOM      9  C   UNL     1      20.851 -12.980  69.512  1.00  0.00     0.039 C 
ATOM     10  G   UNL     1      19.515 -13.911  67.471  1.00  0.00     0.000 G0
ENDBRANCH   6   7
ENDBRANCH   5   6
ENDBRANCH   3   5
ENDBRANCH   1   3
BRANCH   1  11
ATOM     11  C   UNL     1      18.296 -10.637  66.585  1.00  0.00     0.087 C 
BRANCH  11  12
ATOM     12  C   UNL     1      18.118 -12.114  66.138  1.00  0.00     0.066 C 
BRANCH  12  13
ATOM     13  C   UNL     1      18.258 -13.066  67.317  1.00  0.00     0.140 C 
ATOM     14  O   UNL     1      17.349 -13.190  68.125  1.00  0.00    -0.299 OA
BRANCH  13  15
ATOM     15  C   UNL     1      19.505 -13.903  67.468  1.00  0.00     0.106 CG0
ATOM     16  G   UNL     1      20.693 -13.133  68.032  1.00  0.00     0.000 G0
ENDBRANCH  13  15
ENDBRANCH  12  13
BRANCH  12  17
ATOM     17  C   UNL     1      16.795 -12.367  65.342  1.00  0.00    -0.006 C 
ATOM     18  C   UNL     1      17.078 -12.935  63.942  1.00  0.00     0.008 C 
ATOM     19  C   UNL     1      15.891 -11.125  65.226  1.00  0.00     0.008 C 
ENDBRANCH  12  17
ENDBRANCH  11  12
ENDBRANCH   1  11
TORSDOF 1
ENDMDL
MODEL 4
REMARK VINA RESULT:    -3.922     15.133     16.968
REMARK INTER + INTRA:          -6.214
REMARK INTER:                  -6.285
REMARK INTRA:                   0.072
REMARK UNBOUND:                -0.228
REMARK SMILES CC1=CCC[C@H](C)C(=O)C[C@H](C(C)C)C(=O)C1
REMARK SMILES IDX 8 1 9 2 6 3 7 4 5 5 4 6 3 7 2 8 1 9 10 11 11 12 15 13 16 14
REMARK SMILES IDX 17 15 12 17 13 18 14 19
REMARK H PARENT
REMARK Flexibility Score: 70.00
ROOT
ATOM      1  C   UNL     1       9.133   2.074  63.807  1.00  0.00     0.136 C 
ATOM      2  O   UNL     1       9.208   2.964  64.643  1.00  0.00    -0.299 OA
ENDROOT
BRANCH   1   3
ATOM      3  C   UNL     1      10.264   1.947  62.799  1.00  0.00     0.053 C 
ATOM      4  C   UNL     1      10.081   0.790  61.803  1.00  0.00     0.016 C 
BRANCH   3   5
ATOM      5  C   UNL     1      10.592   3.294  62.118  1.00  0.00     0.015 C 
BRANCH   5   6
ATOM      6  C   UNL     1       9.352   4.127  61.733  1.00  0.00     0.028 C 
BRANCH   6   7
ATOM      7  C   UNL     1       8.785   3.743  60.389  1.00  0.00    -0.028 C 
ATOM      8  C   UNL     1       7.525   3.290  60.171  1.00  0.00    -0.070 CG0
ATOM      9  C   UNL     1       7.162   2.876  58.767  1.00  0.00     0.039 C 
ATOM     10  G   UNL     1       6.461   3.210  61.260  1.00  0.00     0.000 G0
ENDBRANCH   6   7
ENDBRANCH   5   6
ENDBRANCH   3   5
ENDBRANCH   1   3
BRANCH   1  11
ATOM     11  C   UNL     1       7.932   1.149  63.852  1.00  0.00     0.087 C 
BRANCH  11  12
ATOM     12  C   UNL     1       6.605   1.877  63.502  1.00  0.00     0.066 C 
BRANCH  12  13
ATOM     13  C   UNL     1       6.378   1.913  61.998  1.00  0.00     0.140 C 
ATOM     14  O   UNL     1       6.108   0.889  61.388  1.00  0.00    -0.299 OA
BRANCH  13  15
ATOM     15  C   UNL     1       6.436   3.226  61.256  1.00  0.00     0.106 CG0
ATOM     16  G   UNL     1       7.531   3.281  60.197  1.00  0.00     0.000 G0
ENDBRANCH  13  15
ENDBRANCH  12  13
BRANCH  12  17
ATOM     17  C   UNL     1       5.363   1.305  64.263  1.00  0.00    -0.006 C 
ATOM     18  C   UNL     1       5.261   1.877  65.687  1.00  0.00     0.008 C 
ATOM     19  C   UNL     1       5.320  -0.234  64.317  1.00  0.00     0.008 C 
ENDBRANCH  12  17
ENDBRANCH  11  12
ENDBRANCH   1  11
TORSDOF 1
ENDMDL
MODEL 5
REMARK VINA RESULT:    -3.874      2.400      4.319
REMARK INTER + INTRA:          -6.140
REMARK INTER:                  -5.740
REMARK INTRA:                  -0.400
REMARK UNBOUND:                -0.228
REMARK SMILES CC1=CCC[C@H](C)C(=O)C[C@H](C(C)C)C(=O)C1
REMARK SMILES IDX 8 1 9 2 6 3 7 4 5 5 4 6 3 7 2 8 1 9 10 11 11 12 15 13 16 14
REMARK SMILES IDX 17 15 12 17 13 18 14 19
REMARK H PARENT
REMARK Flexibility Score: 70.00
ROOT
ATOM      1  C   UNL     1      14.257 -12.429  62.314  1.00  0.00     0.136 C 
ATOM      2  O   UNL     1      14.320 -13.564  61.863  1.00  0.00    -0.299 OA
ENDROOT
BRANCH   1   3
ATOM      3  C   UNL     1      13.219 -12.148  63.389  1.00  0.00     0.053 C 
ATOM      4  C   UNL     1      11.796 -12.590  63.009  1.00  0.00     0.016 C 
BRANCH   3   5
ATOM      5  C   UNL     1      13.666 -12.655  64.778  1.00  0.00     0.015 C 
BRANCH   5   6
ATOM      6  C   UNL     1      14.444 -11.617  65.611  1.00  0.00     0.028 C 
BRANCH   6   7
ATOM      7  C   UNL     1      15.924 -11.903  65.666  1.00  0.00    -0.028 C 
ATOM      8  C   UNL     1      16.898 -11.078  65.207  1.00  0.00    -0.070 CG0
ATOM      9  C   UNL     1      18.322 -11.571  65.273  1.00  0.00     0.039 C 
ATOM     10  G   UNL     1      16.629  -9.679  64.664  1.00  0.00     0.000 G0
ENDBRANCH   6   7
ENDBRANCH   5   6
ENDBRANCH   3   5
ENDBRANCH   1   3
BRANCH   1  11
ATOM     11  C   UNL     1      15.232 -11.394  61.788  1.00  0.00     0.087 C 
BRANCH  11  12
ATOM     12  C   UNL     1      15.122 -10.037  62.535  1.00  0.00     0.066 C 
BRANCH  12  13
ATOM     13  C   UNL     1      16.453  -9.644  63.159  1.00  0.00     0.140 C 
ATOM     14  O   UNL     1      17.380  -9.266  62.456  1.00  0.00    -0.299 OA
BRANCH  13  15
ATOM     15  C   UNL     1      16.621  -9.670  64.659  1.00  0.00     0.106 CG0
ATOM     16  G   UNL     1      16.920 -11.057  65.215  1.00  0.00     0.000 G0
ENDBRANCH  13  15
ENDBRANCH  12  13
BRANCH  12  17
ATOM     17  C   UNL     1      14.533  -8.887  61.651  1.00  0.00    -0.006 C 
ATOM     18  C   UNL     1      14.216  -7.638  62.489  1.00  0.00     0.008 C 
ATOM     19  C   UNL     1      13.290  -9.299  60.840  1.00  0.00     0.008 C 
ENDBRANCH  12  17
ENDBRANCH  11  12
ENDBRANCH   1  11
TORSDOF 1
ENDMDL
MODEL 6
REMARK VINA RESULT:    -3.802      3.531      5.400
REMARK INTER + INTRA:          -6.030
REMARK INTER:                  -5.601
REMARK INTRA:                  -0.429
REMARK UNBOUND:                -0.228
REMARK SMILES CC1=CCC[C@H](C)C(=O)C[C@H](C(C)C)C(=O)C1
REMARK SMILES IDX 8 1 9 2 6 3 7 4 5 5 4 6 3 7 2 8 1 9 10 11 11 12 15 13 16 14
REMARK SMILES IDX 17 15 12 17 13 18 14 19
REMARK H PARENT
REMARK Flexibility Score: 70.00
ROOT
ATOM      1  C   UNL     1      16.353 -11.379  62.735  1.00  0.00     0.136 C 
ATOM      2  O   UNL     1      17.565 -11.534  62.740  1.00  0.00    -0.299 OA
ENDROOT
BRANCH   1   3
ATOM      3  C   UNL     1      15.757 -10.400  63.735  1.00  0.00     0.053 C 
ATOM      4  C   UNL     1      16.163 -10.677  65.192  1.00  0.00     0.016 C 
BRANCH   3   5
ATOM      5  C   UNL     1      15.970  -8.930  63.309  1.00  0.00     0.015 C 
BRANCH   5   6
ATOM      6  C   UNL     1      14.740  -8.278  62.647  1.00  0.00     0.028 C 
BRANCH   6   7
ATOM      7  C   UNL     1      14.970  -7.939  61.196  1.00  0.00    -0.028 C 
ATOM      8  C   UNL     1      14.359  -8.542  60.145  1.00  0.00    -0.070 CG0
ATOM      9  C   UNL     1      14.777  -8.125  58.758  1.00  0.00     0.039 C 
ATOM     10  G   UNL     1      13.260  -9.587  60.299  1.00  0.00     0.000 G0
ENDBRANCH   6   7
ENDBRANCH   5   6
ENDBRANCH   3   5
ENDBRANCH   1   3
BRANCH   1  11
ATOM     11  C   UNL     1      15.535 -12.154  61.720  1.00  0.00     0.087 C 
BRANCH  11  12
ATOM     12  C   UNL     1      14.058 -11.679  61.656  1.00  0.00     0.066 C 
BRANCH  12  13
ATOM     13  C   UNL     1      13.752 -11.014  60.322  1.00  0.00     0.140 C 
ATOM     14  O   UNL     1      13.865 -11.640  59.277  1.00  0.00    -0.299 OA
BRANCH  13  15
ATOM     15  C   UNL     1      13.257  -9.589  60.283  1.00  0.00     0.106 CG0
ATOM     16  G   UNL     1      14.372  -8.558  60.150  1.00  0.00     0.000 G0
ENDBRANCH  13  15
ENDBRANCH  12  13
BRANCH  12  17
ATOM     17  C   UNL     1      13.027 -12.807  61.992  1.00  0.00    -0.006 C 
ATOM     18  C   UNL     1      11.899 -12.289  62.898  1.00  0.00     0.008 C 
ATOM     19  C   UNL     1      13.661 -14.064  62.618  1.00  0.00     0.008 C 
ENDBRANCH  12  17
ENDBRANCH  11  12
ENDBRANCH   1  11
TORSDOF 1
ENDMDL
MODEL 7
REMARK VINA RESULT:    -3.769      3.542      6.385
REMARK INTER + INTRA:          -5.981
REMARK INTER:                  -5.458
REMARK INTRA:                  -0.523
REMARK UNBOUND:                -0.228
REMARK SMILES CC1=CCC[C@H](C)C(=O)C[C@H](C(C)C)C(=O)C1
REMARK SMILES IDX 8 1 9 2 6 3 7 4 5 5 4 6 3 7 2 8 1 9 10 11 11 12 15 13 16 14
REMARK SMILES IDX 17 15 12 17 13 18 14 19
REMARK H PARENT
REMARK Flexibility Score: 70.00
ROOT
ATOM      1  C   UNL     1      12.786 -10.986  62.122  1.00  0.00     0.136 C 
ATOM      2  O   UNL     1      11.621 -10.971  62.493  1.00  0.00    -0.299 OA
ENDROOT
BRANCH   1   3
ATOM      3  C   UNL     1      13.083 -11.530  60.733  1.00  0.00     0.053 C 
ATOM      4  C   UNL     1      12.578 -12.964  60.507  1.00  0.00     0.016 C 
BRANCH   3   5
ATOM      5  C   UNL     1      12.655 -10.548  59.620  1.00  0.00     0.015 C 
BRANCH   5   6
ATOM      6  C   UNL     1      13.754  -9.553  59.196  1.00  0.00     0.028 C 
BRANCH   6   7
ATOM      7  C   UNL     1      13.545  -8.174  59.770  1.00  0.00    -0.028 C 
ATOM      8  C   UNL     1      14.389  -7.548  60.629  1.00  0.00    -0.070 CG0
ATOM      9  C   UNL     1      13.972  -6.201  61.163  1.00  0.00     0.039 C 
ATOM     10  G   UNL     1      15.737  -8.121  61.051  1.00  0.00     0.000 G0
ENDBRANCH   6   7
ENDBRANCH   5   6
ENDBRANCH   3   5
ENDBRANCH   1   3
BRANCH   1  11
ATOM     11  C   UNL     1      13.844 -10.442  63.062  1.00  0.00     0.087 C 
BRANCH  11  12
ATOM     12  C   UNL     1      15.238 -10.325  62.387  1.00  0.00     0.066 C 
BRANCH  12  13
ATOM     13  C   UNL     1      15.717  -8.881  62.363  1.00  0.00     0.140 C 
ATOM     14  O   UNL     1      16.117  -8.343  63.386  1.00  0.00    -0.299 OA
BRANCH  13  15
ATOM     15  C   UNL     1      15.749  -8.117  61.061  1.00  0.00     0.106 CG0
ATOM     16  G   UNL     1      14.391  -7.567  60.642  1.00  0.00     0.000 G0
ENDBRANCH  13  15
ENDBRANCH  12  13
BRANCH  12  17
ATOM     17  C   UNL     1      16.310 -11.282  63.006  1.00  0.00    -0.006 C 
ATOM     18  C   UNL     1      16.513 -12.537  62.141  1.00  0.00     0.008 C 
ATOM     19  C   UNL     1      16.011 -11.695  64.460  1.00  0.00     0.008 C 
ENDBRANCH  12  17
ENDBRANCH  11  12
ENDBRANCH   1  11
TORSDOF 1
ENDMDL
MODEL 8
REMARK VINA RESULT:    -3.744      2.843      5.563
REMARK INTER + INTRA:          -5.942
REMARK INTER:                  -5.723
REMARK INTRA:                  -0.219
REMARK UNBOUND:                -0.228
REMARK SMILES CC1=CCC[C@H](C)C(=O)C[C@H](C(C)C)C(=O)C1
REMARK SMILES IDX 8 1 9 2 6 3 7 4 5 5 4 6 3 7 2 8 1 9 10 11 11 12 15 13 16 14
REMARK SMILES IDX 17 15 12 17 13 18 14 19
REMARK H PARENT
REMARK Flexibility Score: 70.00
ROOT
ATOM      1  C   UNL     1      12.236 -10.401  61.720  1.00  0.00     0.136 C 
ATOM      2  O   UNL     1      11.248  -9.703  61.545  1.00  0.00    -0.299 OA
ENDROOT
BRANCH   1   3
ATOM      3  C   UNL     1      12.020 -11.854  62.113  1.00  0.00     0.053 C 
ATOM      4  C   UNL     1      12.467 -12.860  61.040  1.00  0.00     0.016 C 
BRANCH   3   5
ATOM      5  C   UNL     1      12.583 -12.168  63.517  1.00  0.00     0.015 C 
BRANCH   5   6
ATOM      6  C   UNL     1      13.917 -12.940  63.507  1.00  0.00     0.028 C 
BRANCH   6   7
ATOM      7  C   UNL     1      14.893 -12.434  64.540  1.00  0.00    -0.028 C 
ATOM      8  C   UNL     1      15.823 -11.469  64.331  1.00  0.00    -0.070 CG0
ATOM      9  C   UNL     1      16.769 -11.151  65.462  1.00  0.00     0.039 C 
ATOM     10  G   UNL     1      15.937 -10.678  63.033  1.00  0.00     0.000 G0
ENDBRANCH   6   7
ENDBRANCH   5   6
ENDBRANCH   3   5
ENDBRANCH   1   3
BRANCH   1  11
ATOM     11  C   UNL     1      13.601  -9.775  61.510  1.00  0.00     0.087 C 
BRANCH  11  12
ATOM     12  C   UNL     1      14.045  -8.895  62.711  1.00  0.00     0.066 C 
BRANCH  12  13
ATOM     13  C   UNL     1      15.457  -9.245  63.157  1.00  0.00     0.140 C 
ATOM     14  O   UNL     1      16.181  -8.391  63.649  1.00  0.00    -0.299 OA
BRANCH  13  15
ATOM     15  C   UNL     1      15.957 -10.664  63.039  1.00  0.00     0.106 CG0
ATOM     16  G   UNL     1      15.818 -11.469  64.326  1.00  0.00     0.000 G0
ENDBRANCH  13  15
ENDBRANCH  12  13
BRANCH  12  17
ATOM     17  C   UNL     1      13.882  -7.361  62.450  1.00  0.00    -0.006 C 
ATOM     18  C   UNL     1      12.491  -6.861  62.874  1.00  0.00     0.008 C 
ATOM     19  C   UNL     1      14.164  -6.942  60.995  1.00  0.00     0.008 C 
ENDBRANCH  12  17
ENDBRANCH  11  12
ENDBRANCH   1  11
TORSDOF 1
ENDMDL
MODEL 9
REMARK VINA RESULT:    -3.647      2.469      4.176
REMARK INTER + INTRA:          -5.794
REMARK INTER:                  -5.695
REMARK INTRA:                  -0.099
REMARK UNBOUND:                -0.228
REMARK SMILES CC1=CCC[C@H](C)C(=O)C[C@H](C(C)C)C(=O)C1
REMARK SMILES IDX 8 1 9 2 6 3 7 4 5 5 4 6 3 7 2 8 1 9 10 11 11 12 15 13 16 14
REMARK SMILES IDX 17 15 12 17 13 18 14 19
REMARK H PARENT
REMARK Flexibility Score: 70.00
ROOT
ATOM      1  C   UNL     1      17.429  -9.762  63.899  1.00  0.00     0.136 C 
ATOM      2  O   UNL     1      17.885  -9.681  62.767  1.00  0.00    -0.299 OA
ENDROOT
BRANCH   1   3
ATOM      3  C   UNL     1      18.381 -10.131  65.025  1.00  0.00     0.053 C 
ATOM      4  C   UNL     1      17.866  -9.751  66.423  1.00  0.00     0.016 C 
BRANCH   3   5
ATOM      5  C   UNL     1      18.857 -11.598  64.928  1.00  0.00     0.015 C 
BRANCH   5   6
ATOM      6  C   UNL     1      17.791 -12.638  65.325  1.00  0.00     0.028 C 
BRANCH   6   7
ATOM      7  C   UNL     1      17.197 -13.349  64.134  1.00  0.00    -0.028 C 
ATOM      8  C   UNL     1      15.926 -13.195  63.685  1.00  0.00    -0.070 CG0
ATOM      9  C   UNL     1      15.484 -14.054  62.527  1.00  0.00     0.039 C 
ATOM     10  G   UNL     1      14.945 -12.185  64.267  1.00  0.00     0.000 G0
ENDBRANCH   6   7
ENDBRANCH   5   6
ENDBRANCH   3   5
ENDBRANCH   1   3
BRANCH   1  11
ATOM     11  C   UNL     1      15.955  -9.463  64.099  1.00  0.00     0.087 C 
BRANCH  11  12
ATOM     12  C   UNL     1      15.082  -9.946  62.910  1.00  0.00     0.066 C 
BRANCH  12  13
ATOM     13  C   UNL     1      14.343 -11.231  63.256  1.00  0.00     0.140 C 
ATOM     14  O   UNL     1      13.297 -11.516  62.690  1.00  0.00    -0.299 OA
BRANCH  13  15
ATOM     15  C   UNL     1      14.924 -12.188  64.268  1.00  0.00     0.106 CG0
ATOM     16  G   UNL     1      15.910 -13.185  63.669  1.00  0.00     0.000 G0
ENDBRANCH  13  15
ENDBRANCH  12  13
BRANCH  12  17
ATOM     17  C   UNL     1      14.110  -8.847  62.366  1.00  0.00    -0.006 C 
ATOM     18  C   UNL     1      14.061  -8.848  60.829  1.00  0.00     0.008 C 
ATOM     19  C   UNL     1      14.427  -7.428  62.875  1.00  0.00     0.008 C 
ENDBRANCH  12  17
ENDBRANCH  11  12
ENDBRANCH   1  11
TORSDOF 1
ENDMDL
