MODEL 1
REMARK VINA RESULT:    -2.302      0.000      0.000
REMARK INTER + INTRA:          -3.435
REMARK INTER:                  -3.110
REMARK INTRA:                  -0.325
REMARK UNBOUND:                -0.325
REMARK SMILES CCCCCCCC(=O)[O-]
REMARK SMILES IDX 5 1 6 2 7 3 8 4 9 5 10 6 4 7 3 8 2 9 1 10
REMARK H PARENT
REMARK Flexibility Score: inf
ROOT
ATOM      1  C   UNL     1     177.191 208.125 200.316  1.00  0.00     0.000 C 
ENDROOT
BRANCH   1   2
ATOM      2  C   UNL     1     178.466 207.326 199.975  1.00  0.00     0.006 C 
BRANCH   2   3
ATOM      3  C   UNL     1     178.701 207.119 198.471  1.00  0.00     0.053 C 
BRANCH   3   4
ATOM      4  C   UNL     1     180.146 206.884 198.156  1.00  0.00     0.041 C 
ATOM      5  O   UNL     1     181.040 207.266 198.958  1.00  0.00    -0.550 OA
ATOM      6  O   UNL     1     180.509 206.274 196.962  1.00  0.00    -0.550 OA
ENDBRANCH   3   4
ENDBRANCH   2   3
ENDBRANCH   1   2
BRANCH   1   7
ATOM      7  C   UNL     1     176.389 207.595 201.521  1.00  0.00     0.000 C 
BRANCH   7   8
ATOM      8  C   UNL     1     176.401 206.066 201.692  1.00  0.00    -0.000 C 
BRANCH   8   9
ATOM      9  C   UNL     1     177.000 205.621 203.034  1.00  0.00    -0.003 C 
ATOM     10  C   UNL     1     178.426 205.109 202.855  1.00  0.00     0.004 C 
ENDBRANCH   8   9
ENDBRANCH   7   8
ENDBRANCH   1   7
TORSDOF 6
ENDMDL
MODEL 2
REMARK VINA RESULT:    -2.291      3.182      3.983
REMARK INTER + INTRA:          -3.419
REMARK INTER:                  -2.763
REMARK INTRA:                  -0.656
REMARK UNBOUND:                -0.325
REMARK SMILES CCCCCCCC(=O)[O-]
REMARK SMILES IDX 5 1 6 2 7 3 8 4 9 5 10 6 4 7 3 8 2 9 1 10
REMARK H PARENT
REMARK Flexibility Score: inf
ROOT
ATOM      1  C   UNL     1     178.704 207.356 198.530  1.00  0.00     0.000 C 
ENDROOT
BRANCH   1   2
ATOM      2  C   UNL     1     177.525 206.744 197.745  1.00  0.00     0.006 C 
BRANCH   2   3
ATOM      3  C   UNL     1     176.335 207.694 197.545  1.00  0.00     0.053 C 
BRANCH   3   4
ATOM      4  C   UNL     1     175.107 207.211 198.252  1.00  0.00     0.041 C 
ATOM      5  O   UNL     1     174.984 205.993 198.550  1.00  0.00    -0.550 OA
ATOM      6  O   UNL     1     174.082 208.099 198.554  1.00  0.00    -0.550 OA
ENDBRANCH   3   4
ENDBRANCH   2   3
ENDBRANCH   1   2
BRANCH   1   7
ATOM      7  C   UNL     1     178.413 207.667 200.011  1.00  0.00     0.000 C 
BRANCH   7   8
ATOM      8  C   UNL     1     178.014 206.452 200.866  1.00  0.00    -0.000 C 
BRANCH   8   9
ATOM      9  C   UNL     1     176.695 206.665 201.625  1.00  0.00    -0.003 C 
ATOM     10  C   UNL     1     176.257 208.125 201.563  1.00  0.00     0.004 C 
ENDBRANCH   8   9
ENDBRANCH   7   8
ENDBRANCH   1   7
TORSDOF 6
ENDMDL
MODEL 3
REMARK VINA RESULT:    -2.281      3.203      4.722
REMARK INTER + INTRA:          -3.407
REMARK INTER:                  -2.902
REMARK INTRA:                  -0.505
REMARK UNBOUND:                -0.325
REMARK SMILES CCCCCCCC(=O)[O-]
REMARK SMILES IDX 5 1 6 2 7 3 8 4 9 5 10 6 4 7 3 8 2 9 1 10
REMARK H PARENT
REMARK Flexibility Score: inf
ROOT
ATOM      1  C   UNL     1     177.202 205.622 201.485  1.00  0.00     0.000 C 
ENDROOT
BRANCH   1   2
ATOM      2  C   UNL     1     176.504 206.741 202.285  1.00  0.00     0.006 C 
BRANCH   2   3
ATOM      3  C   UNL     1     176.297 208.046 201.501  1.00  0.00     0.053 C 
BRANCH   3   4
ATOM      4  C   UNL     1     175.062 208.001 200.655  1.00  0.00     0.041 C 
ATOM      5  O   UNL     1     173.930 207.862 201.191  1.00  0.00    -0.550 OA
ATOM      6  O   UNL     1     175.161 208.081 199.272  1.00  0.00    -0.550 OA
ENDBRANCH   3   4
ENDBRANCH   2   3
ENDBRANCH   1   2
BRANCH   1   7
ATOM      7  C   UNL     1     178.735 205.568 201.636  1.00  0.00     0.000 C 
BRANCH   7   8
ATOM      8  C   UNL     1     179.526 205.745 200.328  1.00  0.00    -0.000 C 
BRANCH   8   9
ATOM      9  C   UNL     1     179.533 207.197 199.829  1.00  0.00    -0.003 C 
ATOM     10  C   UNL     1     178.616 207.367 198.621  1.00  0.00     0.004 C 
ENDBRANCH   8   9
ENDBRANCH   7   8
ENDBRANCH   1   7
TORSDOF 6
ENDMDL
MODEL 4
REMARK VINA RESULT:    -2.186      1.803      2.271
REMARK INTER + INTRA:          -3.278
REMARK INTER:                  -2.965
REMARK INTRA:                  -0.313
REMARK UNBOUND:                -0.325
REMARK SMILES CCCCCCCC(=O)[O-]
REMARK SMILES IDX 5 1 6 2 7 3 8 4 9 5 10 6 4 7 3 8 2 9 1 10
REMARK H PARENT
REMARK Flexibility Score: inf
ROOT
ATOM      1  C   UNL     1     177.904 206.963 199.835  1.00  0.00     0.000 C 
ENDROOT
BRANCH   1   2
ATOM      2  C   UNL     1     179.249 207.386 199.208  1.00  0.00     0.006 C 
BRANCH   2   3
ATOM      3  C   UNL     1     180.465 207.192 200.127  1.00  0.00     0.053 C 
BRANCH   3   4
ATOM      4  C   UNL     1     180.503 205.819 200.724  1.00  0.00     0.041 C 
ATOM      5  O   UNL     1     180.392 205.666 201.970  1.00  0.00    -0.550 OA
ATOM      6  O   UNL     1     180.695 204.711 199.910  1.00  0.00    -0.550 OA
ENDBRANCH   3   4
ENDBRANCH   2   3
ENDBRANCH   1   2
BRANCH   1   7
ATOM      7  C   UNL     1     177.021 208.123 200.336  1.00  0.00     0.000 C 
BRANCH   7   8
ATOM      8  C   UNL     1     176.299 207.864 201.670  1.00  0.00    -0.000 C 
BRANCH   8   9
ATOM      9  C   UNL     1     175.975 206.380 201.894  1.00  0.00    -0.003 C 
ATOM     10  C   UNL     1     176.821 205.798 203.022  1.00  0.00     0.004 C 
ENDBRANCH   8   9
ENDBRANCH   7   8
ENDBRANCH   1   7
TORSDOF 6
ENDMDL
MODEL 5
REMARK VINA RESULT:    -2.184      1.902      3.004
REMARK INTER + INTRA:          -3.275
REMARK INTER:                  -2.889
REMARK INTRA:                  -0.386
REMARK UNBOUND:                -0.325
REMARK SMILES CCCCCCCC(=O)[O-]
REMARK SMILES IDX 5 1 6 2 7 3 8 4 9 5 10 6 4 7 3 8 2 9 1 10
REMARK H PARENT
REMARK Flexibility Score: inf
ROOT
ATOM      1  C   UNL     1     178.000 206.399 200.856  1.00  0.00     0.000 C 
ENDROOT
BRANCH   1   2
ATOM      2  C   UNL     1     178.649 207.521 200.020  1.00  0.00     0.006 C 
BRANCH   2   3
ATOM      3  C   UNL     1     179.227 207.056 198.675  1.00  0.00     0.053 C 
BRANCH   3   4
ATOM      4  C   UNL     1     178.176 206.980 197.610  1.00  0.00     0.041 C 
ATOM      5  O   UNL     1     177.160 207.722 197.667  1.00  0.00    -0.550 OA
ATOM      6  O   UNL     1     178.302 206.066 196.572  1.00  0.00    -0.550 OA
ENDBRANCH   3   4
ENDBRANCH   2   3
ENDBRANCH   1   2
BRANCH   1   7
ATOM      7  C   UNL     1     176.598 206.721 201.411  1.00  0.00     0.000 C 
BRANCH   7   8
ATOM      8  C   UNL     1     176.069 208.125 201.071  1.00  0.00    -0.000 C 
BRANCH   8   9
ATOM      9  C   UNL     1     174.761 208.090 200.267  1.00  0.00    -0.003 C 
ATOM     10  C   UNL     1     173.548 208.089 201.192  1.00  0.00     0.004 C 
ENDBRANCH   8   9
ENDBRANCH   7   8
ENDBRANCH   1   7
TORSDOF 6
ENDMDL
MODEL 6
REMARK VINA RESULT:    -2.160      3.579      5.309
REMARK INTER + INTRA:          -3.243
REMARK INTER:                  -2.673
REMARK INTRA:                  -0.570
REMARK UNBOUND:                -0.325
REMARK SMILES CCCCCCCC(=O)[O-]
REMARK SMILES IDX 5 1 6 2 7 3 8 4 9 5 10 6 4 7 3 8 2 9 1 10
REMARK H PARENT
REMARK Flexibility Score: inf
ROOT
ATOM      1  C   UNL     1     177.557 206.784 200.534  1.00  0.00     0.000 C 
ENDROOT
BRANCH   1   2
ATOM      2  C   UNL     1     176.610 207.746 201.280  1.00  0.00     0.006 C 
BRANCH   2   3
ATOM      3  C   UNL     1     175.344 208.125 200.496  1.00  0.00     0.053 C 
BRANCH   3   4
ATOM      4  C   UNL     1     174.355 207.001 200.452  1.00  0.00     0.041 C 
ATOM      5  O   UNL     1     174.220 206.315 199.404  1.00  0.00    -0.550 OA
ATOM      6  O   UNL     1     173.558 206.731 201.557  1.00  0.00    -0.550 OA
ENDBRANCH   3   4
ENDBRANCH   2   3
ENDBRANCH   1   2
BRANCH   1   7
ATOM      7  C   UNL     1     178.735 207.458 199.805  1.00  0.00     0.000 C 
BRANCH   7   8
ATOM      8  C   UNL     1     178.681 207.384 198.268  1.00  0.00    -0.000 C 
BRANCH   8   9
ATOM      9  C   UNL     1     177.386 206.744 197.749  1.00  0.00    -0.003 C 
ATOM     10  C   UNL     1     176.581 207.734 196.913  1.00  0.00     0.004 C 
ENDBRANCH   8   9
ENDBRANCH   7   8
ENDBRANCH   1   7
TORSDOF 6
ENDMDL
MODEL 7
REMARK VINA RESULT:    -2.156      3.002      4.626
REMARK INTER + INTRA:          -3.237
REMARK INTER:                  -2.938
REMARK INTRA:                  -0.299
REMARK UNBOUND:                -0.325
REMARK SMILES CCCCCCCC(=O)[O-]
REMARK SMILES IDX 5 1 6 2 7 3 8 4 9 5 10 6 4 7 3 8 2 9 1 10
REMARK H PARENT
REMARK Flexibility Score: inf
ROOT
ATOM      1  C   UNL     1     177.239 207.309 199.202  1.00  0.00     0.000 C 
ENDROOT
BRANCH   1   2
ATOM      2  C   UNL     1     176.182 208.125 199.975  1.00  0.00     0.006 C 
BRANCH   2   3
ATOM      3  C   UNL     1     176.331 208.068 201.503  1.00  0.00     0.053 C 
BRANCH   3   4
ATOM      4  C   UNL     1     176.179 206.674 202.029  1.00  0.00     0.041 C 
ATOM      5  O   UNL     1     177.131 206.120 202.641  1.00  0.00    -0.550 OA
ATOM      6  O   UNL     1     174.999 205.974 201.816  1.00  0.00    -0.550 OA
ENDBRANCH   3   4
ENDBRANCH   2   3
ENDBRANCH   1   2
BRANCH   1   7
ATOM      7  C   UNL     1     178.704 207.642 199.547  1.00  0.00     0.000 C 
BRANCH   7   8
ATOM      8  C   UNL     1     179.750 207.071 198.574  1.00  0.00    -0.000 C 
BRANCH   8   9
ATOM      9  C   UNL     1     181.058 206.671 199.272  1.00  0.00    -0.003 C 
ATOM     10  C   UNL     1     180.881 206.631 200.787  1.00  0.00     0.004 C 
ENDBRANCH   8   9
ENDBRANCH   7   8
ENDBRANCH   1   7
TORSDOF 6
ENDMDL
