MODEL 1
REMARK VINA RESULT:     0.000      0.000      0.000
REMARK INTER + INTRA:          -1.271
REMARK INTER:                   0.000
REMARK INTRA:                  -1.271
REMARK UNBOUND:                -1.271
REMARK SMILES O=c1c(-c2ccc(O)cc2)coc2c([C@@H]3O[C@@H](CO)[C@@H](O)[C@@H](O)[C@H]3O)c(O)ccc12
REMARK SMILES IDX 3 1 11 2 12 3 13 4 30 5 2 6 1 7 29 8 28 9 26 10 14 11 4 12
REMARK SMILES IDX 5 13 6 14 7 15 10 16 9 17 8 18 15 20 24 21 16 22 22 23 17 24
REMARK SMILES IDX 20 25 25 26 23 28 18 30 19 31 21 33 27 35
REMARK H PARENT 8 19 25 27 23 29 19 32 21 34 27 36
REMARK Flexibility Score: inf
ROOT
ATOM      1  C   UNL     1      16.292  19.707  53.913  1.00  0.00     0.065 A 
ATOM      2  C   UNL     1      15.464  19.024  54.801  1.00  0.00     0.208 A 
ATOM      3  O   UNL     1      15.383  19.416  56.077  1.00  0.00    -0.463 OA
ATOM      4  C   UNL     1      16.085  20.414  56.582  1.00  0.00     0.147 A 
ATOM      5  C   UNL     1      17.141  20.957  55.803  1.00  0.00     0.066 A 
ATOM      6  C   UNL     1      17.219  20.616  54.424  1.00  0.00     0.200 A 
ATOM      7  O   UNL     1      18.158  21.046  53.705  1.00  0.00    -0.288 OA
ATOM      8  C   UNL     1      18.051  21.830  56.375  1.00  0.00     0.020 A 
ATOM      9  C   UNL     1      17.827  22.339  57.633  1.00  0.00     0.047 A 
ATOM     10  C   UNL     1      16.694  21.958  58.398  1.00  0.00     0.125 A 
ATOM     11  C   UNL     1      15.770  20.975  57.890  1.00  0.00     0.069 A 
ENDROOT
BRANCH   1  12
ATOM     12  C   UNL     1      16.070  19.570  52.466  1.00  0.00    -0.011 A 
ATOM     13  C   UNL     1      16.618  18.449  51.814  1.00  0.00     0.013 A 
ATOM     14  C   UNL     1      16.483  18.287  50.437  1.00  0.00     0.047 A 
ATOM     15  C   UNL     1      15.575  19.100  49.737  1.00  0.00     0.115 A 
ATOM     16  C   UNL     1      15.265  20.451  51.718  1.00  0.00     0.013 A 
ATOM     17  C   UNL     1      14.910  20.143  50.403  1.00  0.00     0.047 A 
BRANCH  15  18
ATOM     18  O   UNL     1      15.350  18.889  48.365  1.00  0.00    -0.508 OA
ATOM     19  H   UNL     1      14.417  18.703  47.994  1.00  0.00     0.293 HD
ENDBRANCH  15  18
ENDBRANCH   1  12
BRANCH  11  20
ATOM     20  C   UNL     1      14.340  20.950  58.551  1.00  0.00     0.188 C 
ATOM     21  C   UNL     1      14.010  20.053  59.800  1.00  0.00     0.179 C 
ATOM     22  O   UNL     1      13.814  22.280  58.685  1.00  0.00    -0.362 OA
ATOM     23  C   UNL     1      13.410  20.853  60.978  1.00  0.00     0.177 C 
ATOM     24  C   UNL     1      12.448  22.354  59.132  1.00  0.00     0.176 C 
ATOM     25  C   UNL     1      12.266  21.804  60.560  1.00  0.00     0.177 C 
BRANCH  21  26
ATOM     26  O   UNL     1      13.206  18.950  59.409  1.00  0.00    -0.387 OA
ATOM     27  H   UNL     1      12.330  19.229  59.819  1.00  0.00     0.211 HD
ENDBRANCH  21  26
BRANCH  23  28
ATOM     28  O   UNL     1      12.977  20.020  62.040  1.00  0.00    -0.387 OA
ATOM     29  H   UNL     1      12.150  19.531  61.747  1.00  0.00     0.211 HD
ENDBRANCH  23  28
BRANCH  24  30
ATOM     30  C   UNL     1      11.444  21.745  58.098  1.00  0.00     0.191 C 
BRANCH  30  31
ATOM     31  O   UNL     1      10.205  22.400  58.184  1.00  0.00    -0.394 OA
ATOM     32  H   UNL     1       9.652  21.926  58.857  1.00  0.00     0.210 HD
ENDBRANCH  30  31
ENDBRANCH  24  30
BRANCH  25  33
ATOM     33  O   UNL     1      10.964  21.311  60.804  1.00  0.00    -0.388 OA
ATOM     34  H   UNL     1      10.890  20.451  60.304  1.00  0.00     0.211 HD
ENDBRANCH  25  33
ENDBRANCH  11  20
BRANCH  10  35
ATOM     35  O   UNL     1      16.404  22.633  59.593  1.00  0.00    -0.507 OA
ATOM     36  H   UNL     1      16.250  23.643  59.649  1.00  0.00     0.293 HD
ENDBRANCH  10  35
TORSDOF 9
ENDMDL
MODEL 2
REMARK VINA RESULT:     0.000      5.540      7.298
REMARK INTER + INTRA:          -1.270
REMARK INTER:                   0.000
REMARK INTRA:                  -1.270
REMARK UNBOUND:                -1.271
REMARK SMILES O=c1c(-c2ccc(O)cc2)coc2c([C@@H]3O[C@@H](CO)[C@@H](O)[C@@H](O)[C@H]3O)c(O)ccc12
REMARK SMILES IDX 3 1 11 2 12 3 13 4 30 5 2 6 1 7 29 8 28 9 26 10 14 11 4 12
REMARK SMILES IDX 5 13 6 14 7 15 10 16 9 17 8 18 15 20 24 21 16 22 22 23 17 24
REMARK SMILES IDX 20 25 25 26 23 28 18 30 19 31 21 33 27 35
REMARK H PARENT 8 19 25 27 23 29 19 32 21 34 27 36
REMARK Flexibility Score: inf
ROOT
ATOM      1  C   UNL     1      16.207  18.143  50.484  1.00  0.00     0.065 A 
ATOM      2  C   UNL     1      16.121  18.820  51.699  1.00  0.00     0.208 A 
ATOM      3  O   UNL     1      17.228  19.074  52.404  1.00  0.00    -0.463 OA
ATOM      4  C   UNL     1      18.435  18.683  52.037  1.00  0.00     0.147 A 
ATOM      5  C   UNL     1      18.547  17.756  50.966  1.00  0.00     0.066 A 
ATOM      6  C   UNL     1      17.406  17.512  50.152  1.00  0.00     0.200 A 
ATOM      7  O   UNL     1      17.450  16.673  49.215  1.00  0.00    -0.288 OA
ATOM      8  C   UNL     1      19.757  17.135  50.706  1.00  0.00     0.020 A 
ATOM      9  C   UNL     1      20.903  17.556  51.339  1.00  0.00     0.047 A 
ATOM     10  C   UNL     1      20.879  18.597  52.303  1.00  0.00     0.125 A 
ATOM     11  C   UNL     1      19.630  19.207  52.686  1.00  0.00     0.069 A 
ENDROOT
BRANCH   1  12
ATOM     12  C   UNL     1      15.098  18.237  49.523  1.00  0.00    -0.011 A 
ATOM     13  C   UNL     1      13.993  17.383  49.701  1.00  0.00     0.013 A 
ATOM     14  C   UNL     1      12.932  17.390  48.797  1.00  0.00     0.047 A 
ATOM     15  C   UNL     1      12.838  18.433  47.860  1.00  0.00     0.115 A 
ATOM     16  C   UNL     1      15.043  19.194  48.492  1.00  0.00     0.013 A 
ATOM     17  C   UNL     1      13.869  19.381  47.759  1.00  0.00     0.047 A 
BRANCH  15  18
ATOM     18  O   UNL     1      11.725  18.515  47.004  1.00  0.00    -0.508 OA
ATOM     19  H   UNL     1      10.851  18.026  47.207  1.00  0.00     0.293 HD
ENDBRANCH  15  18
ENDBRANCH   1  12
BRANCH  11  20
ATOM     20  C   UNL     1      19.723  20.620  53.377  1.00  0.00     0.188 C 
ATOM     21  C   UNL     1      19.838  20.782  54.938  1.00  0.00     0.179 C 
ATOM     22  O   UNL     1      20.638  21.475  52.674  1.00  0.00    -0.362 OA
ATOM     23  C   UNL     1      21.052  21.635  55.368  1.00  0.00     0.177 C 
ATOM     24  C   UNL     1      20.675  22.838  53.134  1.00  0.00     0.176 C 
ATOM     25  C   UNL     1      21.189  22.958  54.581  1.00  0.00     0.177 C 
BRANCH  21  26
ATOM     26  O   UNL     1      18.610  21.253  55.471  1.00  0.00    -0.387 OA
ATOM     27  H   UNL     1      18.694  22.230  55.246  1.00  0.00     0.211 HD
ENDBRANCH  21  26
BRANCH  23  28
ATOM     28  O   UNL     1      21.065  21.903  56.761  1.00  0.00    -0.387 OA
ATOM     29  H   UNL     1      21.607  21.192  57.219  1.00  0.00     0.211 HD
ENDBRANCH  23  28
BRANCH  24  30
ATOM     30  C   UNL     1      19.324  23.591  52.890  1.00  0.00     0.191 C 
BRANCH  30  31
ATOM     31  O   UNL     1      19.563  24.959  52.683  1.00  0.00    -0.394 OA
ATOM     32  H   UNL     1      20.519  25.137  52.880  1.00  0.00     0.210 HD
ENDBRANCH  30  31
ENDBRANCH  24  30
BRANCH  25  33
ATOM     33  O   UNL     1      20.702  24.103  55.252  1.00  0.00    -0.388 OA
ATOM     34  H   UNL     1      20.177  24.621  54.579  1.00  0.00     0.211 HD
ENDBRANCH  25  33
ENDBRANCH  11  20
BRANCH  10  35
ATOM     35  O   UNL     1      22.086  19.120  52.790  1.00  0.00    -0.507 OA
ATOM     36  H   UNL     1      22.529  19.963  52.414  1.00  0.00     0.293 HD
ENDBRANCH  10  35
TORSDOF 9
ENDMDL
MODEL 3
REMARK VINA RESULT:     0.000      5.095      8.676
REMARK INTER + INTRA:          -1.270
REMARK INTER:                   0.000
REMARK INTRA:                  -1.270
REMARK UNBOUND:                -1.271
REMARK SMILES O=c1c(-c2ccc(O)cc2)coc2c([C@@H]3O[C@@H](CO)[C@@H](O)[C@@H](O)[C@H]3O)c(O)ccc12
REMARK SMILES IDX 3 1 11 2 12 3 13 4 30 5 2 6 1 7 29 8 28 9 26 10 14 11 4 12
REMARK SMILES IDX 5 13 6 14 7 15 10 16 9 17 8 18 15 20 24 21 16 22 22 23 17 24
REMARK SMILES IDX 20 25 25 26 23 28 18 30 19 31 21 33 27 35
REMARK H PARENT 8 19 25 27 23 29 19 32 21 34 27 36
REMARK Flexibility Score: inf
ROOT
ATOM      1  C   UNL     1      14.403  23.251  52.808  1.00  0.00     0.065 A 
ATOM      2  C   UNL     1      15.304  22.464  53.522  1.00  0.00     0.208 A 
ATOM      3  O   UNL     1      15.410  21.158  53.256  1.00  0.00    -0.463 OA
ATOM      4  C   UNL     1      14.669  20.531  52.359  1.00  0.00     0.147 A 
ATOM      5  C   UNL     1      13.553  21.217  51.810  1.00  0.00     0.066 A 
ATOM      6  C   UNL     1      13.443  22.620  52.016  1.00  0.00     0.200 A 
ATOM      7  O   UNL     1      12.453  23.262  51.577  1.00  0.00    -0.288 OA
ATOM      8  C   UNL     1      12.615  20.530  51.059  1.00  0.00     0.020 A 
ATOM      9  C   UNL     1      12.856  19.234  50.665  1.00  0.00     0.047 A 
ATOM     10  C   UNL     1      14.038  18.549  51.047  1.00  0.00     0.125 A 
ATOM     11  C   UNL     1      15.000  19.184  51.914  1.00  0.00     0.069 A 
ENDROOT
BRANCH   1  12
ATOM     12  C   UNL     1      14.578  24.711  52.785  1.00  0.00    -0.011 A 
ATOM     13  C   UNL     1      14.074  25.456  53.868  1.00  0.00     0.013 A 
ATOM     14  C   UNL     1      14.165  26.846  53.882  1.00  0.00     0.047 A 
ATOM     15  C   UNL     1      14.995  27.488  52.948  1.00  0.00     0.115 A 
ATOM     16  C   UNL     1      15.298  25.390  51.784  1.00  0.00     0.013 A 
ATOM     17  C   UNL     1      15.621  26.741  51.936  1.00  0.00     0.047 A 
BRANCH  15  18
ATOM     18  O   UNL     1      15.180  28.881  53.005  1.00  0.00    -0.508 OA
ATOM     19  H   UNL     1      14.830  29.440  53.785  1.00  0.00     0.293 HD
ENDBRANCH  15  18
ENDBRANCH   1  12
BRANCH  11  20
ATOM     20  C   UNL     1      16.453  18.575  51.913  1.00  0.00     0.188 C 
ATOM     21  C   UNL     1      16.883  17.435  52.908  1.00  0.00     0.179 C 
ATOM     22  O   UNL     1      16.902  18.323  50.572  1.00  0.00    -0.362 OA
ATOM     23  C   UNL     1      17.479  16.202  52.193  1.00  0.00     0.177 C 
ATOM     24  C   UNL     1      18.277  17.914  50.456  1.00  0.00     0.176 C 
ATOM     25  C   UNL     1      18.546  16.556  51.134  1.00  0.00     0.177 C 
BRANCH  21  26
ATOM     26  O   UNL     1      17.738  17.962  53.913  1.00  0.00    -0.387 OA
ATOM     27  H   UNL     1      18.395  17.205  53.987  1.00  0.00     0.211 HD
ENDBRANCH  21  26
BRANCH  23  28
ATOM     28  O   UNL     1      18.002  15.245  53.099  1.00  0.00    -0.387 OA
ATOM     29  H   UNL     1      18.741  14.741  52.642  1.00  0.00     0.211 HD
ENDBRANCH  23  28
BRANCH  24  30
ATOM     30  C   UNL     1      19.276  19.036  50.893  1.00  0.00     0.191 C 
BRANCH  30  31
ATOM     31  O   UNL     1      20.476  18.924  50.172  1.00  0.00    -0.394 OA
ATOM     32  H   UNL     1      20.503  18.022  49.760  1.00  0.00     0.210 HD
ENDBRANCH  30  31
ENDBRANCH  24  30
BRANCH  25  33
ATOM     33  O   UNL     1      19.885  16.406  51.564  1.00  0.00    -0.388 OA
ATOM     34  H   UNL     1      20.118  15.445  51.431  1.00  0.00     0.211 HD
ENDBRANCH  25  33
ENDBRANCH  11  20
BRANCH  10  35
ATOM     35  O   UNL     1      14.332  17.301  50.479  1.00  0.00    -0.507 OA
ATOM     36  H   UNL     1      14.883  17.185  49.624  1.00  0.00     0.293 HD
ENDBRANCH  10  35
TORSDOF 9
ENDMDL
MODEL 4
REMARK VINA RESULT:     0.000      6.331     11.560
REMARK INTER + INTRA:          -1.270
REMARK INTER:                   0.000
REMARK INTRA:                  -1.270
REMARK UNBOUND:                -1.271
REMARK SMILES O=c1c(-c2ccc(O)cc2)coc2c([C@@H]3O[C@@H](CO)[C@@H](O)[C@@H](O)[C@H]3O)c(O)ccc12
REMARK SMILES IDX 3 1 11 2 12 3 13 4 30 5 2 6 1 7 29 8 28 9 26 10 14 11 4 12
REMARK SMILES IDX 5 13 6 14 7 15 10 16 9 17 8 18 15 20 24 21 16 22 22 23 17 24
REMARK SMILES IDX 20 25 25 26 23 28 18 30 19 31 21 33 27 35
REMARK H PARENT 8 19 25 27 23 29 19 32 21 34 27 36
REMARK Flexibility Score: inf
ROOT
ATOM      1  C   UNL     1      13.795  16.164  52.535  1.00  0.00     0.065 A 
ATOM      2  C   UNL     1      13.978  14.823  52.204  1.00  0.00     0.208 A 
ATOM      3  O   UNL     1      13.073  14.190  51.451  1.00  0.00    -0.463 OA
ATOM      4  C   UNL     1      11.960  14.753  51.015  1.00  0.00     0.147 A 
ATOM      5  C   UNL     1      11.589  16.015  51.552  1.00  0.00     0.066 A 
ATOM      6  C   UNL     1      12.550  16.748  52.302  1.00  0.00     0.200 A 
ATOM      7  O   UNL     1      12.253  17.854  52.826  1.00  0.00    -0.288 OA
ATOM      8  C   UNL     1      10.326  16.529  51.313  1.00  0.00     0.020 A 
ATOM      9  C   UNL     1       9.496  15.930  50.394  1.00  0.00     0.047 A 
ATOM     10  C   UNL     1       9.881  14.754  49.701  1.00  0.00     0.125 A 
ATOM     11  C   UNL     1      11.144  14.121  49.987  1.00  0.00     0.069 A 
ENDROOT
BRANCH   1  12
ATOM     12  C   UNL     1      14.948  16.964  52.976  1.00  0.00    -0.011 A 
ATOM     13  C   UNL     1      15.334  16.882  54.328  1.00  0.00     0.013 A 
ATOM     14  C   UNL     1      16.387  17.652  54.817  1.00  0.00     0.047 A 
ATOM     15  C   UNL     1      17.235  18.308  53.910  1.00  0.00     0.115 A 
ATOM     16  C   UNL     1      15.737  17.735  52.101  1.00  0.00     0.013 A 
ATOM     17  C   UNL     1      16.944  18.287  52.536  1.00  0.00     0.047 A 
BRANCH  15  18
ATOM     18  O   UNL     1      18.362  19.009  54.376  1.00  0.00    -0.508 OA
ATOM     19  H   UNL     1      19.310  18.754  54.096  1.00  0.00     0.293 HD
ENDBRANCH  15  18
ENDBRANCH   1  12
BRANCH  11  20
ATOM     20  C   UNL     1      11.698  13.134  48.890  1.00  0.00     0.188 C 
ATOM     21  C   UNL     1      11.362  11.597  48.901  1.00  0.00     0.179 C 
ATOM     22  O   UNL     1      11.578  13.706  47.578  1.00  0.00    -0.362 OA
ATOM     23  C   UNL     1      10.758  11.101  47.568  1.00  0.00     0.177 C 
ATOM     24  C   UNL     1      12.199  12.949  46.524  1.00  0.00     0.176 C 
ATOM     25  C   UNL     1      11.541  11.571  46.322  1.00  0.00     0.177 C 
BRANCH  21  26
ATOM     26  O   UNL     1      12.501  10.852  49.307  1.00  0.00    -0.387 OA
ATOM     27  H   UNL     1      12.061   9.968  49.500  1.00  0.00     0.211 HD
ENDBRANCH  21  26
BRANCH  23  28
ATOM     28  O   UNL     1      10.599   9.693  47.532  1.00  0.00    -0.387 OA
ATOM     29  H   UNL     1      11.483   9.276  47.302  1.00  0.00     0.211 HD
ENDBRANCH  23  28
BRANCH  24  30
ATOM     30  C   UNL     1      13.755  12.880  46.671  1.00  0.00     0.191 C 
BRANCH  30  31
ATOM     31  O   UNL     1      14.358  12.786  45.406  1.00  0.00    -0.394 OA
ATOM     32  H   UNL     1      14.583  11.834  45.243  1.00  0.00     0.210 HD
ENDBRANCH  30  31
ENDBRANCH  24  30
BRANCH  25  33
ATOM     33  O   UNL     1      12.421  10.610  45.775  1.00  0.00    -0.388 OA
ATOM     34  H   UNL     1      12.843  11.035  44.976  1.00  0.00     0.211 HD
ENDBRANCH  25  33
ENDBRANCH  11  20
BRANCH  10  35
ATOM     35  O   UNL     1       9.089  14.280  48.644  1.00  0.00    -0.507 OA
ATOM     36  H   UNL     1       8.153  13.886  48.772  1.00  0.00     0.293 HD
ENDBRANCH  10  35
TORSDOF 9
ENDMDL
MODEL 5
REMARK VINA RESULT:     0.000      5.096      7.368
REMARK INTER + INTRA:          -1.270
REMARK INTER:                   0.000
REMARK INTRA:                  -1.270
REMARK UNBOUND:                -1.271
REMARK SMILES O=c1c(-c2ccc(O)cc2)coc2c([C@@H]3O[C@@H](CO)[C@@H](O)[C@@H](O)[C@H]3O)c(O)ccc12
REMARK SMILES IDX 3 1 11 2 12 3 13 4 30 5 2 6 1 7 29 8 28 9 26 10 14 11 4 12
REMARK SMILES IDX 5 13 6 14 7 15 10 16 9 17 8 18 15 20 24 21 16 22 22 23 17 24
REMARK SMILES IDX 20 25 25 26 23 28 18 30 19 31 21 33 27 35
REMARK H PARENT 8 19 25 27 23 29 19 32 21 34 27 36
REMARK Flexibility Score: inf
ROOT
ATOM      1  C   UNL     1      14.221  18.271  56.160  1.00  0.00     0.065 A 
ATOM      2  C   UNL     1      13.006  18.202  56.838  1.00  0.00     0.208 A 
ATOM      3  O   UNL     1      11.891  18.670  56.266  1.00  0.00    -0.463 OA
ATOM      4  C   UNL     1      11.866  19.249  55.079  1.00  0.00     0.147 A 
ATOM      5  C   UNL     1      13.102  19.597  54.472  1.00  0.00     0.066 A 
ATOM      6  C   UNL     1      14.304  19.063  55.013  1.00  0.00     0.200 A 
ATOM      7  O   UNL     1      15.424  19.373  54.530  1.00  0.00    -0.288 OA
ATOM      8  C   UNL     1      13.123  20.414  53.354  1.00  0.00     0.020 A 
ATOM      9  C   UNL     1      11.954  20.725  52.700  1.00  0.00     0.047 A 
ATOM     10  C   UNL     1      10.696  20.264  53.168  1.00  0.00     0.125 A 
ATOM     11  C   UNL     1      10.608  19.496  54.385  1.00  0.00     0.069 A 
ENDROOT
BRANCH   1  12
ATOM     12  C   UNL     1      15.331  17.401  56.574  1.00  0.00    -0.011 A 
ATOM     13  C   UNL     1      16.131  17.817  57.655  1.00  0.00     0.013 A 
ATOM     14  C   UNL     1      17.227  17.060  58.065  1.00  0.00     0.047 A 
ATOM     15  C   UNL     1      17.378  15.752  57.575  1.00  0.00     0.115 A 
ATOM     16  C   UNL     1      15.580  16.137  56.006  1.00  0.00     0.013 A 
ATOM     17  C   UNL     1      16.502  15.266  56.590  1.00  0.00     0.047 A 
BRANCH  15  18
ATOM     18  O   UNL     1      18.421  14.936  58.049  1.00  0.00    -0.508 OA
ATOM     19  H   UNL     1      18.969  14.344  57.424  1.00  0.00     0.293 HD
ENDBRANCH  15  18
ENDBRANCH   1  12
BRANCH  11  20
ATOM     20  C   UNL     1       9.297  18.646  54.584  1.00  0.00     0.188 C 
ATOM     21  C   UNL     1       8.027  19.224  55.311  1.00  0.00     0.179 C 
ATOM     22  O   UNL     1       8.958  17.938  53.381  1.00  0.00    -0.362 OA
ATOM     23  C   UNL     1       6.741  19.109  54.463  1.00  0.00     0.177 C 
ATOM     24  C   UNL     1       7.865  17.010  53.507  1.00  0.00     0.176 C 
ATOM     25  C   UNL     1       6.533  17.711  53.840  1.00  0.00     0.177 C 
BRANCH  21  26
ATOM     26  O   UNL     1       7.897  18.644  56.600  1.00  0.00    -0.387 OA
ATOM     27  H   UNL     1       8.355  17.764  56.434  1.00  0.00     0.211 HD
ENDBRANCH  21  26
BRANCH  23  28
ATOM     28  O   UNL     1       5.579  19.492  55.180  1.00  0.00    -0.387 OA
ATOM     29  H   UNL     1       4.927  18.727  55.166  1.00  0.00     0.211 HD
ENDBRANCH  23  28
BRANCH  24  30
ATOM     30  C   UNL     1       8.197  15.818  54.465  1.00  0.00     0.191 C 
BRANCH  30  31
ATOM     31  O   UNL     1       7.500  14.667  54.064  1.00  0.00    -0.394 OA
ATOM     32  H   UNL     1       6.540  14.799  54.277  1.00  0.00     0.210 HD
ENDBRANCH  30  31
ENDBRANCH  24  30
BRANCH  25  33
ATOM     33  O   UNL     1       5.626  16.878  54.535  1.00  0.00    -0.388 OA
ATOM     34  H   UNL     1       5.047  16.452  53.842  1.00  0.00     0.211 HD
ENDBRANCH  25  33
ENDBRANCH  11  20
BRANCH  10  35
ATOM     35  O   UNL     1       9.552  20.447  52.377  1.00  0.00    -0.507 OA
ATOM     36  H   UNL     1       8.979  19.676  52.025  1.00  0.00     0.293 HD
ENDBRANCH  10  35
TORSDOF 9
ENDMDL
MODEL 6
REMARK VINA RESULT:     0.000      3.860      5.806
REMARK INTER + INTRA:          -1.270
REMARK INTER:                   0.000
REMARK INTRA:                  -1.270
REMARK UNBOUND:                -1.271
REMARK SMILES O=c1c(-c2ccc(O)cc2)coc2c([C@@H]3O[C@@H](CO)[C@@H](O)[C@@H](O)[C@H]3O)c(O)ccc12
REMARK SMILES IDX 3 1 11 2 12 3 13 4 30 5 2 6 1 7 29 8 28 9 26 10 14 11 4 12
REMARK SMILES IDX 5 13 6 14 7 15 10 16 9 17 8 18 15 20 24 21 16 22 22 23 17 24
REMARK SMILES IDX 20 25 25 26 23 28 18 30 19 31 21 33 27 35
REMARK H PARENT 8 19 25 27 23 29 19 32 21 34 27 36
REMARK Flexibility Score: inf
ROOT
ATOM      1  C   UNL     1      13.103  19.288  52.283  1.00  0.00     0.065 A 
ATOM      2  C   UNL     1      13.036  19.932  53.516  1.00  0.00     0.208 A 
ATOM      3  O   UNL     1      12.115  19.566  54.414  1.00  0.00    -0.463 OA
ATOM      4  C   UNL     1      11.209  18.631  54.193  1.00  0.00     0.147 A 
ATOM      5  C   UNL     1      11.052  18.144  52.867  1.00  0.00     0.066 A 
ATOM      6  C   UNL     1      12.048  18.458  51.902  1.00  0.00     0.200 A 
ATOM      7  O   UNL     1      11.931  18.078  50.707  1.00  0.00    -0.288 OA
ATOM      8  C   UNL     1       9.965  17.351  52.541  1.00  0.00     0.020 A 
ATOM      9  C   UNL     1       9.145  16.857  53.529  1.00  0.00     0.047 A 
ATOM     10  C   UNL     1       9.354  17.176  54.896  1.00  0.00     0.125 A 
ATOM     11  C   UNL     1      10.409  18.080  55.280  1.00  0.00     0.069 A 
ENDROOT
BRANCH   1  12
ATOM     12  C   UNL     1      14.337  19.375  51.487  1.00  0.00    -0.011 A 
ATOM     13  C   UNL     1      14.529  20.516  50.685  1.00  0.00     0.013 A 
ATOM     14  C   UNL     1      15.654  20.636  49.872  1.00  0.00     0.047 A 
ATOM     15  C   UNL     1      16.726  19.746  50.051  1.00  0.00     0.115 A 
ATOM     16  C   UNL     1      15.372  18.423  51.554  1.00  0.00     0.013 A 
ATOM     17  C   UNL     1      16.607  18.675  50.952  1.00  0.00     0.047 A 
BRANCH  15  18
ATOM     18  O   UNL     1      17.911  19.908  49.310  1.00  0.00    -0.508 OA
ATOM     19  H   UNL     1      18.263  19.179  48.688  1.00  0.00     0.293 HD
ENDBRANCH  15  18
ENDBRANCH   1  12
BRANCH  11  20
ATOM     20  C   UNL     1      10.870  18.021  56.785  1.00  0.00     0.188 C 
ATOM     21  C   UNL     1      10.216  18.922  57.897  1.00  0.00     0.179 C 
ATOM     22  O   UNL     1      11.034  16.661  57.217  1.00  0.00    -0.362 OA
ATOM     23  C   UNL     1       9.687  18.110  59.100  1.00  0.00     0.177 C 
ATOM     24  C   UNL     1      11.605  16.502  58.529  1.00  0.00     0.176 C 
ATOM     25  C   UNL     1      10.698  17.072  59.638  1.00  0.00     0.177 C 
BRANCH  21  26
ATOM     26  O   UNL     1      11.112  19.957  58.275  1.00  0.00    -0.387 OA
ATOM     27  H   UNL     1      11.172  20.453  57.402  1.00  0.00     0.211 HD
ENDBRANCH  21  26
BRANCH  23  28
ATOM     28  O   UNL     1       9.238  18.935  60.162  1.00  0.00    -0.387 OA
ATOM     29  H   UNL     1       9.775  19.785  60.156  1.00  0.00     0.211 HD
ENDBRANCH  23  28
BRANCH  24  30
ATOM     30  C   UNL     1      13.081  17.015  58.608  1.00  0.00     0.191 C 
BRANCH  30  31
ATOM     31  O   UNL     1      13.799  16.278  59.563  1.00  0.00    -0.394 OA
ATOM     32  H   UNL     1      13.153  15.726  60.075  1.00  0.00     0.210 HD
ENDBRANCH  30  31
ENDBRANCH  24  30
BRANCH  25  33
ATOM     33  O   UNL     1      11.414  17.478  60.787  1.00  0.00    -0.388 OA
ATOM     34  H   UNL     1      12.375  17.278  60.606  1.00  0.00     0.211 HD
ENDBRANCH  25  33
ENDBRANCH  11  20
BRANCH  10  35
ATOM     35  O   UNL     1       8.614  16.511  55.885  1.00  0.00    -0.507 OA
ATOM     36  H   UNL     1       8.484  16.874  56.833  1.00  0.00     0.293 HD
ENDBRANCH  10  35
TORSDOF 9
ENDMDL
MODEL 7
REMARK VINA RESULT:     0.001      7.181     12.724
REMARK INTER + INTRA:          -1.269
REMARK INTER:                   0.000
REMARK INTRA:                  -1.269
REMARK UNBOUND:                -1.271
REMARK SMILES O=c1c(-c2ccc(O)cc2)coc2c([C@@H]3O[C@@H](CO)[C@@H](O)[C@@H](O)[C@H]3O)c(O)ccc12
REMARK SMILES IDX 3 1 11 2 12 3 13 4 30 5 2 6 1 7 29 8 28 9 26 10 14 11 4 12
REMARK SMILES IDX 5 13 6 14 7 15 10 16 9 17 8 18 15 20 24 21 16 22 22 23 17 24
REMARK SMILES IDX 20 25 25 26 23 28 18 30 19 31 21 33 27 35
REMARK H PARENT 8 19 25 27 23 29 19 32 21 34 27 36
REMARK Flexibility Score: inf
ROOT
ATOM      1  C   UNL     1      11.671  18.119  49.467  1.00  0.00     0.065 A 
ATOM      2  C   UNL     1      10.393  17.563  49.471  1.00  0.00     0.208 A 
ATOM      3  O   UNL     1       9.969  16.853  48.420  1.00  0.00    -0.463 OA
ATOM      4  C   UNL     1      10.684  16.667  47.325  1.00  0.00     0.147 A 
ATOM      5  C   UNL     1      11.865  17.438  47.153  1.00  0.00     0.066 A 
ATOM      6  C   UNL     1      12.384  18.152  48.268  1.00  0.00     0.200 A 
ATOM      7  O   UNL     1      13.407  18.876  48.152  1.00  0.00    -0.288 OA
ATOM      8  C   UNL     1      12.511  17.457  45.928  1.00  0.00     0.020 A 
ATOM      9  C   UNL     1      12.142  16.579  44.936  1.00  0.00     0.047 A 
ATOM     10  C   UNL     1      11.071  15.666  45.112  1.00  0.00     0.125 A 
ATOM     11  C   UNL     1      10.299  15.675  46.329  1.00  0.00     0.069 A 
ENDROOT
BRANCH   1  12
ATOM     12  C   UNL     1      12.291  18.515  50.740  1.00  0.00    -0.011 A 
ATOM     13  C   UNL     1      11.955  19.772  51.278  1.00  0.00     0.013 A 
ATOM     14  C   UNL     1      12.545  20.225  52.456  1.00  0.00     0.047 A 
ATOM     15  C   UNL     1      13.273  19.322  53.249  1.00  0.00     0.115 A 
ATOM     16  C   UNL     1      13.131  17.670  51.489  1.00  0.00     0.013 A 
ATOM     17  C   UNL     1      13.504  18.014  52.791  1.00  0.00     0.047 A 
BRANCH  15  18
ATOM     18  O   UNL     1      13.794  19.731  54.490  1.00  0.00    -0.508 OA
ATOM     19  H   UNL     1      13.188  19.966  55.278  1.00  0.00     0.293 HD
ENDBRANCH  15  18
ENDBRANCH   1  12
BRANCH  11  20
ATOM     20  C   UNL     1       9.467  14.373  46.641  1.00  0.00     0.188 C 
ATOM     21  C   UNL     1       7.982  14.194  46.155  1.00  0.00     0.179 C 
ATOM     22  O   UNL     1      10.257  13.195  46.419  1.00  0.00    -0.362 OA
ATOM     23  C   UNL     1       7.764  12.896  45.345  1.00  0.00     0.177 C 
ATOM     24  C   UNL     1       9.639  11.961  46.826  1.00  0.00     0.176 C 
ATOM     25  C   UNL     1       8.371  11.641  46.012  1.00  0.00     0.177 C 
BRANCH  21  26
ATOM     26  O   UNL     1       7.091  14.319  47.254  1.00  0.00    -0.387 OA
ATOM     27  H   UNL     1       7.208  15.299  47.452  1.00  0.00     0.211 HD
ENDBRANCH  21  26
BRANCH  23  28
ATOM     28  O   UNL     1       6.399  12.665  45.040  1.00  0.00    -0.387 OA
ATOM     29  H   UNL     1       5.839  13.309  45.570  1.00  0.00     0.211 HD
ENDBRANCH  23  28
BRANCH  24  30
ATOM     30  C   UNL     1       9.421  11.880  48.374  1.00  0.00     0.191 C 
BRANCH  30  31
ATOM     31  O   UNL     1       9.492  10.545  48.803  1.00  0.00    -0.394 OA
ATOM     32  H   UNL     1      10.233  10.471  49.458  1.00  0.00     0.210 HD
ENDBRANCH  30  31
ENDBRANCH  24  30
BRANCH  25  33
ATOM     33  O   UNL     1       7.446  10.836  46.717  1.00  0.00    -0.388 OA
ATOM     34  H   UNL     1       7.298  10.022  46.158  1.00  0.00     0.211 HD
ENDBRANCH  25  33
ENDBRANCH  11  20
BRANCH  10  35
ATOM     35  O   UNL     1      10.844  14.668  44.152  1.00  0.00    -0.507 OA
ATOM     36  H   UNL     1       9.927  14.480  43.739  1.00  0.00     0.293 HD
ENDBRANCH  10  35
TORSDOF 9
ENDMDL
MODEL 8
REMARK VINA RESULT:     0.001     10.194     12.529
REMARK INTER + INTRA:          -1.269
REMARK INTER:                   0.000
REMARK INTRA:                  -1.269
REMARK UNBOUND:                -1.271
REMARK SMILES O=c1c(-c2ccc(O)cc2)coc2c([C@@H]3O[C@@H](CO)[C@@H](O)[C@@H](O)[C@H]3O)c(O)ccc12
REMARK SMILES IDX 3 1 11 2 12 3 13 4 30 5 2 6 1 7 29 8 28 9 26 10 14 11 4 12
REMARK SMILES IDX 5 13 6 14 7 15 10 16 9 17 8 18 15 20 24 21 16 22 22 23 17 24
REMARK SMILES IDX 20 25 25 26 23 28 18 30 19 31 21 33 27 35
REMARK H PARENT 8 19 25 27 23 29 19 32 21 34 27 36
REMARK Flexibility Score: inf
ROOT
ATOM      1  C   UNL     1       3.533  16.040  49.934  1.00  0.00     0.065 A 
ATOM      2  C   UNL     1       3.939  17.276  50.433  1.00  0.00     0.208 A 
ATOM      3  O   UNL     1       3.895  17.514  51.749  1.00  0.00    -0.463 OA
ATOM      4  C   UNL     1       3.443  16.645  52.635  1.00  0.00     0.147 A 
ATOM      5  C   UNL     1       2.760  15.493  52.161  1.00  0.00     0.066 A 
ATOM      6  C   UNL     1       2.841  15.170  50.778  1.00  0.00     0.200 A 
ATOM      7  O   UNL     1       2.224  14.179  50.309  1.00  0.00    -0.288 OA
ATOM      8  C   UNL     1       2.063  14.685  53.043  1.00  0.00     0.020 A 
ATOM      9  C   UNL     1       2.191  14.868  54.401  1.00  0.00     0.047 A 
ATOM     10  C   UNL     1       2.995  15.906  54.938  1.00  0.00     0.125 A 
ATOM     11  C   UNL     1       3.662  16.838  54.063  1.00  0.00     0.069 A 
ENDROOT
BRANCH   1  12
ATOM     12  C   UNL     1       3.969  15.623  48.593  1.00  0.00    -0.011 A 
ATOM     13  C   UNL     1       3.242  16.094  47.483  1.00  0.00     0.013 A 
ATOM     14  C   UNL     1       3.576  15.697  46.190  1.00  0.00     0.047 A 
ATOM     15  C   UNL     1       4.798  15.040  45.970  1.00  0.00     0.115 A 
ATOM     16  C   UNL     1       5.124  14.852  48.358  1.00  0.00     0.013 A 
ATOM     17  C   UNL     1       5.609  14.680  47.059  1.00  0.00     0.047 A 
BRANCH  15  18
ATOM     18  O   UNL     1       5.201  14.717  44.661  1.00  0.00    -0.508 OA
ATOM     19  H   UNL     1       4.913  15.274  43.855  1.00  0.00     0.293 HD
ENDBRANCH  15  18
ENDBRANCH   1  12
BRANCH  11  20
ATOM     20  C   UNL     1       4.871  17.637  54.680  1.00  0.00     0.188 C 
ATOM     21  C   UNL     1       4.679  19.030  55.386  1.00  0.00     0.179 C 
ATOM     22  O   UNL     1       5.734  16.765  55.426  1.00  0.00    -0.362 OA
ATOM     23  C   UNL     1       5.261  19.067  56.817  1.00  0.00     0.177 C 
ATOM     24  C   UNL     1       6.952  17.370  55.898  1.00  0.00     0.176 C 
ATOM     25  C   UNL     1       6.693  18.495  56.918  1.00  0.00     0.177 C 
BRANCH  21  26
ATOM     26  O   UNL     1       5.177  20.070  54.557  1.00  0.00    -0.387 OA
ATOM     27  H   UNL     1       4.313  20.382  54.145  1.00  0.00     0.211 HD
ENDBRANCH  21  26
BRANCH  23  28
ATOM     28  O   UNL     1       5.221  20.363  57.390  1.00  0.00    -0.387 OA
ATOM     29  H   UNL     1       4.554  20.361  58.141  1.00  0.00     0.211 HD
ENDBRANCH  23  28
BRANCH  24  30
ATOM     30  C   UNL     1       7.903  17.795  54.730  1.00  0.00     0.191 C 
BRANCH  30  31
ATOM     31  O   UNL     1       9.243  17.717  55.144  1.00  0.00    -0.394 OA
ATOM     32  H   UNL     1       9.265  17.267  56.027  1.00  0.00     0.210 HD
ENDBRANCH  30  31
ENDBRANCH  24  30
BRANCH  25  33
ATOM     33  O   UNL     1       7.721  19.466  56.946  1.00  0.00    -0.388 OA
ATOM     34  H   UNL     1       7.271  20.355  56.878  1.00  0.00     0.211 HD
ENDBRANCH  25  33
ENDBRANCH  11  20
BRANCH  10  35
ATOM     35  O   UNL     1       3.246  15.946  56.317  1.00  0.00    -0.507 OA
ATOM     36  H   UNL     1       2.555  15.683  57.025  1.00  0.00     0.293 HD
ENDBRANCH  10  35
TORSDOF 9
ENDMDL
MODEL 9
REMARK VINA RESULT:     0.001      4.909      6.388
REMARK INTER + INTRA:          -1.269
REMARK INTER:                   0.000
REMARK INTRA:                  -1.269
REMARK UNBOUND:                -1.271
REMARK SMILES O=c1c(-c2ccc(O)cc2)coc2c([C@@H]3O[C@@H](CO)[C@@H](O)[C@@H](O)[C@H]3O)c(O)ccc12
REMARK SMILES IDX 3 1 11 2 12 3 13 4 30 5 2 6 1 7 29 8 28 9 26 10 14 11 4 12
REMARK SMILES IDX 5 13 6 14 7 15 10 16 9 17 8 18 15 20 24 21 16 22 22 23 17 24
REMARK SMILES IDX 20 25 25 26 23 28 18 30 19 31 21 33 27 35
REMARK H PARENT 8 19 25 27 23 29 19 32 21 34 27 36
REMARK Flexibility Score: inf
ROOT
ATOM      1  C   UNL     1      11.915  25.108  53.379  1.00  0.00     0.065 A 
ATOM      2  C   UNL     1      12.502  23.845  53.397  1.00  0.00     0.208 A 
ATOM      3  O   UNL     1      13.571  23.614  54.168  1.00  0.00    -0.463 OA
ATOM      4  C   UNL     1      14.152  24.539  54.909  1.00  0.00     0.147 A 
ATOM      5  C   UNL     1      13.774  25.895  54.714  1.00  0.00     0.066 A 
ATOM      6  C   UNL     1      12.604  26.176  53.956  1.00  0.00     0.200 A 
ATOM      7  O   UNL     1      12.251  27.362  53.728  1.00  0.00    -0.288 OA
ATOM      8  C   UNL     1      14.516  26.914  55.285  1.00  0.00     0.020 A 
ATOM      9  C   UNL     1      15.495  26.626  56.208  1.00  0.00     0.047 A 
ATOM     10  C   UNL     1      15.806  25.289  56.568  1.00  0.00     0.125 A 
ATOM     11  C   UNL     1      15.133  24.187  55.928  1.00  0.00     0.069 A 
ENDROOT
BRANCH   1  12
ATOM     12  C   UNL     1      10.534  25.257  52.895  1.00  0.00    -0.011 A 
ATOM     13  C   UNL     1      10.325  25.351  51.506  1.00  0.00     0.013 A 
ATOM     14  C   UNL     1       9.046  25.541  50.988  1.00  0.00     0.047 A 
ATOM     15  C   UNL     1       7.934  25.372  51.830  1.00  0.00     0.115 A 
ATOM     16  C   UNL     1       9.408  25.220  53.740  1.00  0.00     0.013 A 
ATOM     17  C   UNL     1       8.121  25.139  53.203  1.00  0.00     0.047 A 
BRANCH  15  18
ATOM     18  O   UNL     1       6.631  25.462  51.307  1.00  0.00    -0.508 OA
ATOM     19  H   UNL     1       6.406  26.077  50.524  1.00  0.00     0.293 HD
ENDBRANCH  15  18
ENDBRANCH   1  12
BRANCH  11  20
ATOM     20  C   UNL     1      15.179  22.804  56.681  1.00  0.00     0.188 C 
ATOM     21  C   UNL     1      16.322  21.752  56.429  1.00  0.00     0.179 C 
ATOM     22  O   UNL     1      14.896  22.972  58.079  1.00  0.00    -0.362 OA
ATOM     23  C   UNL     1      17.037  21.314  57.727  1.00  0.00     0.177 C 
ATOM     24  C   UNL     1      14.759  21.749  58.825  1.00  0.00     0.176 C 
ATOM     25  C   UNL     1      16.068  20.938  58.871  1.00  0.00     0.177 C 
BRANCH  21  26
ATOM     26  O   UNL     1      15.820  20.659  55.675  1.00  0.00    -0.387 OA
ATOM     27  H   UNL     1      15.412  20.116  56.418  1.00  0.00     0.211 HD
ENDBRANCH  21  26
BRANCH  23  28
ATOM     28  O   UNL     1      17.959  20.259  57.513  1.00  0.00    -0.387 OA
ATOM     29  H   UNL     1      18.316  20.330  56.577  1.00  0.00     0.211 HD
ENDBRANCH  23  28
BRANCH  24  30
ATOM     30  C   UNL     1      13.520  20.906  58.374  1.00  0.00     0.191 C 
BRANCH  30  31
ATOM     31  O   UNL     1      13.016  20.169  59.458  1.00  0.00    -0.394 OA
ATOM     32  H   UNL     1      12.585  20.803  60.087  1.00  0.00     0.210 HD
ENDBRANCH  30  31
ENDBRANCH  24  30
BRANCH  25  33
ATOM     33  O   UNL     1      15.856  19.550  59.039  1.00  0.00    -0.388 OA
ATOM     34  H   UNL     1      16.692  19.098  58.735  1.00  0.00     0.211 HD
ENDBRANCH  25  33
ENDBRANCH  11  20
BRANCH  10  35
ATOM     35  O   UNL     1      16.677  25.044  57.640  1.00  0.00    -0.507 OA
ATOM     36  H   UNL     1      17.218  25.776  58.108  1.00  0.00     0.293 HD
ENDBRANCH  10  35
TORSDOF 9
ENDMDL
