MODEL 1
REMARK VINA RESULT:    -4.096      0.000      0.000
REMARK INTER + INTRA:          -9.164
REMARK INTER:                  -7.449
REMARK INTRA:                  -1.715
REMARK UNBOUND:                -1.715
REMARK SMILES CCCCCCCCCCCCCCCC(=O)[O-]
REMARK SMILES IDX 9 1 10 2 11 3 12 4 13 5 14 6 15 7 16 8 17 9 18 10 8 11 7 12
REMARK SMILES IDX 6 13 5 14 4 15 3 16 2 17 1 18
REMARK H PARENT
REMARK Flexibility Score: inf
ROOT
ATOM      1  C   UNL     1      11.187  28.423  35.074  1.00  0.00     0.000 C 
ENDROOT
BRANCH   1   2
ATOM      2  C   UNL     1      11.470  27.320  34.040  1.00  0.00     0.000 C 
BRANCH   2   3
ATOM      3  C   UNL     1      12.524  26.306  34.520  1.00  0.00     0.000 C 
BRANCH   3   4
ATOM      4  C   UNL     1      13.067  25.368  33.427  1.00  0.00     0.000 C 
BRANCH   4   5
ATOM      5  C   UNL     1      14.522  25.674  33.043  1.00  0.00     0.000 C 
BRANCH   5   6
ATOM      6  C   UNL     1      15.495  24.768  33.808  1.00  0.00     0.006 C 
BRANCH   6   7
ATOM      7  C   UNL     1      15.592  23.388  33.150  1.00  0.00     0.053 C 
BRANCH   7   8
ATOM      8  C   UNL     1      15.721  22.320  34.189  1.00  0.00     0.041 C 
ATOM      9  O   UNL     1      15.377  22.549  35.379  1.00  0.00    -0.550 OA
ATOM     10  O   UNL     1      16.178  21.057  33.836  1.00  0.00    -0.550 OA
ENDBRANCH   7   8
ENDBRANCH   6   7
ENDBRANCH   5   6
ENDBRANCH   4   5
ENDBRANCH   3   4
ENDBRANCH   2   3
ENDBRANCH   1   2
BRANCH   1  11
ATOM     11  C   UNL     1      12.059  28.292  36.334  1.00  0.00     0.000 C 
BRANCH  11  12
ATOM     12  C   UNL     1      13.222  29.300  36.354  1.00  0.00    -0.000 C 
BRANCH  12  13
ATOM     13  C   UNL     1      14.521  28.688  36.903  1.00  0.00    -0.000 C 
BRANCH  13  14
ATOM     14  C   UNL     1      15.389  28.057  35.804  1.00  0.00    -0.000 C 
BRANCH  14  15
ATOM     15  C   UNL     1      15.461  28.971  34.571  1.00  0.00    -0.000 C 
BRANCH  15  16
ATOM     16  C   UNL     1      16.706  28.707  33.711  1.00  0.00    -0.000 C 
BRANCH  16  17
ATOM     17  C   UNL     1      16.645  29.413  32.348  1.00  0.00    -0.003 C 
ATOM     18  C   UNL     1      17.125  28.492  31.230  1.00  0.00     0.004 C 
ENDBRANCH  16  17
ENDBRANCH  15  16
ENDBRANCH  14  15
ENDBRANCH  13  14
ENDBRANCH  12  13
ENDBRANCH  11  12
ENDBRANCH   1  11
TORSDOF 14
ENDMDL
MODEL 2
REMARK VINA RESULT:    -4.072      2.754      5.270
REMARK INTER + INTRA:          -9.120
REMARK INTER:                  -6.998
REMARK INTRA:                  -2.122
REMARK UNBOUND:                -1.715
REMARK SMILES CCCCCCCCCCCCCCCC(=O)[O-]
REMARK SMILES IDX 9 1 10 2 11 3 12 4 13 5 14 6 15 7 16 8 17 9 18 10 8 11 7 12
REMARK SMILES IDX 6 13 5 14 4 15 3 16 2 17 1 18
REMARK H PARENT
REMARK Flexibility Score: inf
ROOT
ATOM      1  C   UNL     1      11.838  27.464  35.683  1.00  0.00     0.000 C 
ENDROOT
BRANCH   1   2
ATOM      2  C   UNL     1      11.880  28.984  35.916  1.00  0.00     0.000 C 
BRANCH   2   3
ATOM      3  C   UNL     1      13.308  29.515  36.141  1.00  0.00     0.000 C 
BRANCH   3   4
ATOM      4  C   UNL     1      14.321  28.464  36.631  1.00  0.00     0.000 C 
BRANCH   4   5
ATOM      5  C   UNL     1      15.668  28.542  35.896  1.00  0.00     0.000 C 
BRANCH   5   6
ATOM      6  C   UNL     1      15.477  28.998  34.444  1.00  0.00     0.006 C 
BRANCH   6   7
ATOM      7  C   UNL     1      16.458  28.281  33.510  1.00  0.00     0.053 C 
BRANCH   7   8
ATOM      8  C   UNL     1      16.653  29.066  32.253  1.00  0.00     0.041 C 
ATOM      9  O   UNL     1      16.470  30.313  32.249  1.00  0.00    -0.550 OA
ATOM     10  O   UNL     1      17.080  28.430  31.095  1.00  0.00    -0.550 OA
ENDBRANCH   7   8
ENDBRANCH   6   7
ENDBRANCH   5   6
ENDBRANCH   4   5
ENDBRANCH   3   4
ENDBRANCH   2   3
ENDBRANCH   1   2
BRANCH   1  11
ATOM     11  C   UNL     1      11.806  27.093  34.191  1.00  0.00     0.000 C 
BRANCH  11  12
ATOM     12  C   UNL     1      13.016  26.239  33.769  1.00  0.00    -0.000 C 
BRANCH  12  13
ATOM     13  C   UNL     1      13.488  25.295  34.885  1.00  0.00    -0.000 C 
BRANCH  13  14
ATOM     14  C   UNL     1      15.004  25.048  34.851  1.00  0.00    -0.000 C 
BRANCH  14  15
ATOM     15  C   UNL     1      15.489  24.814  33.412  1.00  0.00    -0.000 C 
BRANCH  15  16
ATOM     16  C   UNL     1      15.484  23.329  33.020  1.00  0.00    -0.000 C 
BRANCH  16  17
ATOM     17  C   UNL     1      16.519  22.507  33.803  1.00  0.00    -0.003 C 
ATOM     18  C   UNL     1      15.855  21.348  34.540  1.00  0.00     0.004 C 
ENDBRANCH  16  17
ENDBRANCH  15  16
ENDBRANCH  14  15
ENDBRANCH  13  14
ENDBRANCH  12  13
ENDBRANCH  11  12
ENDBRANCH   1  11
TORSDOF 14
ENDMDL
MODEL 3
REMARK VINA RESULT:    -4.042      2.911      6.090
REMARK INTER + INTRA:          -9.064
REMARK INTER:                  -7.490
REMARK INTRA:                  -1.575
REMARK UNBOUND:                -1.715
REMARK SMILES CCCCCCCCCCCCCCCC(=O)[O-]
REMARK SMILES IDX 9 1 10 2 11 3 12 4 13 5 14 6 15 7 16 8 17 9 18 10 8 11 7 12
REMARK SMILES IDX 6 13 5 14 4 15 3 16 2 17 1 18
REMARK H PARENT
REMARK Flexibility Score: inf
ROOT
ATOM      1  C   UNL     1      12.360  26.636  33.885  1.00  0.00     0.000 C 
ENDROOT
BRANCH   1   2
ATOM      2  C   UNL     1      12.800  26.938  35.329  1.00  0.00     0.000 C 
BRANCH   2   3
ATOM      3  C   UNL     1      12.960  28.445  35.602  1.00  0.00     0.000 C 
BRANCH   3   4
ATOM      4  C   UNL     1      14.411  28.958  35.575  1.00  0.00     0.000 C 
BRANCH   4   5
ATOM      5  C   UNL     1      15.448  27.828  35.648  1.00  0.00     0.000 C 
BRANCH   5   6
ATOM      6  C   UNL     1      16.557  28.032  34.607  1.00  0.00     0.006 C 
BRANCH   6   7
ATOM      7  C   UNL     1      16.012  27.869  33.185  1.00  0.00     0.053 C 
BRANCH   7   8
ATOM      8  C   UNL     1      16.749  28.758  32.236  1.00  0.00     0.041 C 
ATOM      9  O   UNL     1      17.121  28.319  31.115  1.00  0.00    -0.550 OA
ATOM     10  O   UNL     1      16.987  30.085  32.568  1.00  0.00    -0.550 OA
ENDBRANCH   7   8
ENDBRANCH   6   7
ENDBRANCH   5   6
ENDBRANCH   4   5
ENDBRANCH   3   4
ENDBRANCH   2   3
ENDBRANCH   1   2
BRANCH   1  11
ATOM     11  C   UNL     1      12.835  25.258  33.396  1.00  0.00     0.000 C 
BRANCH  11  12
ATOM     12  C   UNL     1      14.154  24.819  34.056  1.00  0.00    -0.000 C 
BRANCH  12  13
ATOM     13  C   UNL     1      15.168  24.272  33.038  1.00  0.00    -0.000 C 
BRANCH  13  14
ATOM     14  C   UNL     1      15.774  22.928  33.469  1.00  0.00    -0.000 C 
BRANCH  14  15
ATOM     15  C   UNL     1      15.597  22.707  34.980  1.00  0.00    -0.000 C 
BRANCH  15  16
ATOM     16  C   UNL     1      15.830  21.247  35.395  1.00  0.00    -0.000 C 
BRANCH  16  17
ATOM     17  C   UNL     1      15.862  20.288  34.196  1.00  0.00    -0.003 C 
ATOM     18  C   UNL     1      15.231  18.945  34.550  1.00  0.00     0.004 C 
ENDBRANCH  16  17
ENDBRANCH  15  16
ENDBRANCH  14  15
ENDBRANCH  13  14
ENDBRANCH  12  13
ENDBRANCH  11  12
ENDBRANCH   1  11
TORSDOF 14
ENDMDL
MODEL 4
REMARK VINA RESULT:    -4.032      4.547      9.166
REMARK INTER + INTRA:          -9.047
REMARK INTER:                  -8.341
REMARK INTRA:                  -0.706
REMARK UNBOUND:                -1.715
REMARK SMILES CCCCCCCCCCCCCCCC(=O)[O-]
REMARK SMILES IDX 9 1 10 2 11 3 12 4 13 5 14 6 15 7 16 8 17 9 18 10 8 11 7 12
REMARK SMILES IDX 6 13 5 14 4 15 3 16 2 17 1 18
REMARK H PARENT
REMARK Flexibility Score: inf
ROOT
ATOM      1  C   UNL     1      15.864  21.234  33.778  1.00  0.00     0.000 C 
ENDROOT
BRANCH   1   2
ATOM      2  C   UNL     1      16.301  22.651  33.367  1.00  0.00     0.000 C 
BRANCH   2   3
ATOM      3  C   UNL     1      15.204  23.705  33.603  1.00  0.00     0.000 C 
BRANCH   3   4
ATOM      4  C   UNL     1      15.659  25.165  33.426  1.00  0.00     0.000 C 
BRANCH   4   5
ATOM      5  C   UNL     1      14.491  26.131  33.177  1.00  0.00     0.000 C 
BRANCH   5   6
ATOM      6  C   UNL     1      13.185  25.576  33.759  1.00  0.00     0.006 C 
BRANCH   6   7
ATOM      7  C   UNL     1      12.732  26.395  34.972  1.00  0.00     0.053 C 
BRANCH   7   8
ATOM      8  C   UNL     1      11.663  27.365  34.582  1.00  0.00     0.041 C 
ATOM      9  O   UNL     1      11.121  27.287  33.447  1.00  0.00    -0.550 OA
ATOM     10  O   UNL     1      11.233  28.327  35.485  1.00  0.00    -0.550 OA
ENDBRANCH   7   8
ENDBRANCH   6   7
ENDBRANCH   5   6
ENDBRANCH   4   5
ENDBRANCH   3   4
ENDBRANCH   2   3
ENDBRANCH   1   2
BRANCH   1  11
ATOM     11  C   UNL     1      15.592  21.110  35.286  1.00  0.00     0.000 C 
BRANCH  11  12
ATOM     12  C   UNL     1      15.420  19.648  35.737  1.00  0.00    -0.000 C 
BRANCH  12  13
ATOM     13  C   UNL     1      15.219  18.687  34.554  1.00  0.00    -0.000 C 
BRANCH  13  14
ATOM     14  C   UNL     1      15.387  17.213  34.953  1.00  0.00    -0.000 C 
BRANCH  14  15
ATOM     15  C   UNL     1      16.600  16.589  34.245  1.00  0.00    -0.000 C 
BRANCH  15  16
ATOM     16  C   UNL     1      16.245  15.299  33.491  1.00  0.00    -0.000 C 
BRANCH  16  17
ATOM     17  C   UNL     1      15.076  14.538  34.135  1.00  0.00    -0.003 C 
ATOM     18  C   UNL     1      14.243  13.816  33.081  1.00  0.00     0.004 C 
ENDBRANCH  16  17
ENDBRANCH  15  16
ENDBRANCH  14  15
ENDBRANCH  13  14
ENDBRANCH  12  13
ENDBRANCH  11  12
ENDBRANCH   1  11
TORSDOF 14
ENDMDL
MODEL 5
REMARK VINA RESULT:    -4.021      1.076      2.218
REMARK INTER + INTRA:          -9.028
REMARK INTER:                  -7.184
REMARK INTRA:                  -1.844
REMARK UNBOUND:                -1.715
REMARK SMILES CCCCCCCCCCCCCCCC(=O)[O-]
REMARK SMILES IDX 9 1 10 2 11 3 12 4 13 5 14 6 15 7 16 8 17 9 18 10 8 11 7 12
REMARK SMILES IDX 6 13 5 14 4 15 3 16 2 17 1 18
REMARK H PARENT
REMARK Flexibility Score: inf
ROOT
ATOM      1  C   UNL     1      12.524  26.263  34.618  1.00  0.00     0.000 C 
ENDROOT
BRANCH   1   2
ATOM      2  C   UNL     1      12.672  25.313  33.417  1.00  0.00     0.000 C 
BRANCH   2   3
ATOM      3  C   UNL     1      14.142  25.036  33.051  1.00  0.00     0.000 C 
BRANCH   3   4
ATOM      4  C   UNL     1      14.941  24.266  34.118  1.00  0.00     0.000 C 
BRANCH   4   5
ATOM      5  C   UNL     1      16.434  24.145  33.777  1.00  0.00     0.000 C 
BRANCH   5   6
ATOM      6  C   UNL     1      17.016  22.831  34.313  1.00  0.00     0.006 C 
BRANCH   6   7
ATOM      7  C   UNL     1      16.421  21.626  33.578  1.00  0.00     0.053 C 
BRANCH   7   8
ATOM      8  C   UNL     1      15.791  20.678  34.548  1.00  0.00     0.041 C 
ATOM      9  O   UNL     1      15.629  19.468  34.236  1.00  0.00    -0.550 OA
ATOM     10  O   UNL     1      15.424  21.119  35.812  1.00  0.00    -0.550 OA
ENDBRANCH   7   8
ENDBRANCH   6   7
ENDBRANCH   5   6
ENDBRANCH   4   5
ENDBRANCH   3   4
ENDBRANCH   2   3
ENDBRANCH   1   2
BRANCH   1  11
ATOM     11  C   UNL     1      11.611  27.462  34.318  1.00  0.00     0.000 C 
BRANCH  11  12
ATOM     12  C   UNL     1      11.671  28.539  35.416  1.00  0.00    -0.000 C 
BRANCH  12  13
ATOM     13  C   UNL     1      12.791  28.279  36.436  1.00  0.00    -0.000 C 
BRANCH  13  14
ATOM     14  C   UNL     1      14.128  28.911  36.021  1.00  0.00    -0.000 C 
BRANCH  14  15
ATOM     15  C   UNL     1      15.303  27.979  36.359  1.00  0.00    -0.000 C 
BRANCH  15  16
ATOM     16  C   UNL     1      16.218  27.719  35.153  1.00  0.00    -0.000 C 
BRANCH  16  17
ATOM     17  C   UNL     1      15.645  28.281  33.843  1.00  0.00    -0.003 C 
ATOM     18  C   UNL     1      16.479  27.839  32.645  1.00  0.00     0.004 C 
ENDBRANCH  16  17
ENDBRANCH  15  16
ENDBRANCH  14  15
ENDBRANCH  13  14
ENDBRANCH  12  13
ENDBRANCH  11  12
ENDBRANCH   1  11
TORSDOF 14
ENDMDL
MODEL 6
REMARK VINA RESULT:    -4.004      3.589      6.599
REMARK INTER + INTRA:          -8.996
REMARK INTER:                  -7.741
REMARK INTRA:                  -1.255
REMARK UNBOUND:                -1.715
REMARK SMILES CCCCCCCCCCCCCCCC(=O)[O-]
REMARK SMILES IDX 9 1 10 2 11 3 12 4 13 5 14 6 15 7 16 8 17 9 18 10 8 11 7 12
REMARK SMILES IDX 6 13 5 14 4 15 3 16 2 17 1 18
REMARK H PARENT
REMARK Flexibility Score: inf
ROOT
ATOM      1  C   UNL     1      12.591  26.883  34.330  1.00  0.00     0.000 C 
ENDROOT
BRANCH   1   2
ATOM      2  C   UNL     1      13.368  27.966  35.099  1.00  0.00     0.000 C 
BRANCH   2   3
ATOM      3  C   UNL     1      14.875  27.668  35.193  1.00  0.00     0.000 C 
BRANCH   3   4
ATOM      4  C   UNL     1      15.751  28.434  34.185  1.00  0.00     0.000 C 
BRANCH   4   5
ATOM      5  C   UNL     1      16.077  27.613  32.928  1.00  0.00     0.000 C 
BRANCH   5   6
ATOM      6  C   UNL     1      16.956  28.415  31.960  1.00  0.00     0.006 C 
BRANCH   6   7
ATOM      7  C   UNL     1      16.683  29.917  32.086  1.00  0.00     0.053 C 
BRANCH   7   8
ATOM      8  C   UNL     1      16.680  30.564  30.739  1.00  0.00     0.041 C 
ATOM      9  O   UNL     1      16.692  31.820  30.639  1.00  0.00    -0.550 OA
ATOM     10  O   UNL     1      16.709  29.783  29.591  1.00  0.00    -0.550 OA
ENDBRANCH   7   8
ENDBRANCH   6   7
ENDBRANCH   5   6
ENDBRANCH   4   5
ENDBRANCH   3   4
ENDBRANCH   2   3
ENDBRANCH   1   2
BRANCH   1  11
ATOM     11  C   UNL     1      13.257  25.500  34.418  1.00  0.00     0.000 C 
BRANCH  11  12
ATOM     12  C   UNL     1      13.510  24.877  33.034  1.00  0.00    -0.000 C 
BRANCH  12  13
ATOM     13  C   UNL     1      14.873  24.173  32.945  1.00  0.00    -0.000 C 
BRANCH  13  14
ATOM     14  C   UNL     1      15.258  23.462  34.252  1.00  0.00    -0.000 C 
BRANCH  14  15
ATOM     15  C   UNL     1      16.566  22.672  34.080  1.00  0.00    -0.000 C 
BRANCH  15  16
ATOM     16  C   UNL     1      16.323  21.195  33.737  1.00  0.00    -0.000 C 
BRANCH  16  17
ATOM     17  C   UNL     1      15.886  20.368  34.955  1.00  0.00    -0.003 C 
ATOM     18  C   UNL     1      15.176  19.088  34.524  1.00  0.00     0.004 C 
ENDBRANCH  16  17
ENDBRANCH  15  16
ENDBRANCH  14  15
ENDBRANCH  13  14
ENDBRANCH  12  13
ENDBRANCH  11  12
ENDBRANCH   1  11
TORSDOF 14
ENDMDL
MODEL 7
REMARK VINA RESULT:    -3.998      1.332      2.072
REMARK INTER + INTRA:          -8.985
REMARK INTER:                  -7.371
REMARK INTRA:                  -1.614
REMARK UNBOUND:                -1.715
REMARK SMILES CCCCCCCCCCCCCCCC(=O)[O-]
REMARK SMILES IDX 9 1 10 2 11 3 12 4 13 5 14 6 15 7 16 8 17 9 18 10 8 11 7 12
REMARK SMILES IDX 6 13 5 14 4 15 3 16 2 17 1 18
REMARK H PARENT
REMARK Flexibility Score: inf
ROOT
ATOM      1  C   UNL     1      12.347  26.684  34.094  1.00  0.00     0.000 C 
ENDROOT
BRANCH   1   2
ATOM      2  C   UNL     1      12.650  25.354  33.381  1.00  0.00     0.000 C 
BRANCH   2   3
ATOM      3  C   UNL     1      14.141  25.190  33.033  1.00  0.00     0.000 C 
BRANCH   3   4
ATOM      4  C   UNL     1      14.730  23.801  33.340  1.00  0.00     0.000 C 
BRANCH   4   5
ATOM      5  C   UNL     1      16.177  23.864  33.852  1.00  0.00     0.000 C 
BRANCH   5   6
ATOM      6  C   UNL     1      16.843  22.484  33.787  1.00  0.00     0.006 C 
BRANCH   6   7
ATOM      7  C   UNL     1      16.840  21.807  35.161  1.00  0.00     0.053 C 
BRANCH   7   8
ATOM      8  C   UNL     1      15.757  20.779  35.236  1.00  0.00     0.041 C 
ATOM      9  O   UNL     1      15.019  20.710  36.256  1.00  0.00    -0.550 OA
ATOM     10  O   UNL     1      15.530  19.926  34.164  1.00  0.00    -0.550 OA
ENDBRANCH   7   8
ENDBRANCH   6   7
ENDBRANCH   5   6
ENDBRANCH   4   5
ENDBRANCH   3   4
ENDBRANCH   2   3
ENDBRANCH   1   2
BRANCH   1  11
ATOM     11  C   UNL     1      13.088  26.823  35.433  1.00  0.00     0.000 C 
BRANCH  11  12
ATOM     12  C   UNL     1      14.158  27.929  35.404  1.00  0.00    -0.000 C 
BRANCH  12  13
ATOM     13  C   UNL     1      15.526  27.439  35.906  1.00  0.00    -0.000 C 
BRANCH  13  14
ATOM     14  C   UNL     1      16.668  27.771  34.933  1.00  0.00    -0.000 C 
BRANCH  14  15
ATOM     15  C   UNL     1      16.115  28.157  33.551  1.00  0.00    -0.000 C 
BRANCH  15  16
ATOM     16  C   UNL     1      16.971  27.610  32.399  1.00  0.00    -0.000 C 
BRANCH  16  17
ATOM     17  C   UNL     1      17.062  28.584  31.215  1.00  0.00    -0.003 C 
ATOM     18  C   UNL     1      16.817  30.021  31.666  1.00  0.00     0.004 C 
ENDBRANCH  16  17
ENDBRANCH  15  16
ENDBRANCH  14  15
ENDBRANCH  13  14
ENDBRANCH  12  13
ENDBRANCH  11  12
ENDBRANCH   1  11
TORSDOF 14
ENDMDL
MODEL 8
REMARK VINA RESULT:    -3.963      5.044      9.803
REMARK INTER + INTRA:          -8.921
REMARK INTER:                  -8.130
REMARK INTRA:                  -0.791
REMARK UNBOUND:                -1.715
REMARK SMILES CCCCCCCCCCCCCCCC(=O)[O-]
REMARK SMILES IDX 9 1 10 2 11 3 12 4 13 5 14 6 15 7 16 8 17 9 18 10 8 11 7 12
REMARK SMILES IDX 6 13 5 14 4 15 3 16 2 17 1 18
REMARK H PARENT
REMARK Flexibility Score: inf
ROOT
ATOM      1  C   UNL     1      15.386  19.947  34.054  1.00  0.00     0.000 C 
ENDROOT
BRANCH   1   2
ATOM      2  C   UNL     1      16.130  21.290  33.954  1.00  0.00     0.000 C 
BRANCH   2   3
ATOM      3  C   UNL     1      15.757  22.265  35.086  1.00  0.00     0.000 C 
BRANCH   3   4
ATOM      4  C   UNL     1      15.552  23.725  34.643  1.00  0.00     0.000 C 
BRANCH   4   5
ATOM      5  C   UNL     1      14.970  23.845  33.226  1.00  0.00     0.000 C 
BRANCH   5   6
ATOM      6  C   UNL     1      14.330  25.222  33.011  1.00  0.00     0.006 C 
BRANCH   6   7
ATOM      7  C   UNL     1      12.854  25.213  33.423  1.00  0.00     0.053 C 
BRANCH   7   8
ATOM      8  C   UNL     1      12.607  26.209  34.510  1.00  0.00     0.041 C 
ATOM      9  O   UNL     1      13.015  25.985  35.681  1.00  0.00    -0.550 OA
ATOM     10  O   UNL     1      11.966  27.407  34.223  1.00  0.00    -0.550 OA
ENDBRANCH   7   8
ENDBRANCH   6   7
ENDBRANCH   5   6
ENDBRANCH   4   5
ENDBRANCH   3   4
ENDBRANCH   2   3
ENDBRANCH   1   2
BRANCH   1  11
ATOM     11  C   UNL     1      15.554  19.274  35.426  1.00  0.00     0.000 C 
BRANCH  11  12
ATOM     12  C   UNL     1      16.696  18.242  35.441  1.00  0.00    -0.000 C 
BRANCH  12  13
ATOM     13  C   UNL     1      16.527  17.162  34.360  1.00  0.00    -0.000 C 
BRANCH  13  14
ATOM     14  C   UNL     1      15.349  16.219  34.645  1.00  0.00    -0.000 C 
BRANCH  14  15
ATOM     15  C   UNL     1      15.596  14.832  34.029  1.00  0.00    -0.000 C 
BRANCH  15  16
ATOM     16  C   UNL     1      14.369  14.289  33.283  1.00  0.00    -0.000 C 
BRANCH  16  17
ATOM     17  C   UNL     1      14.719  13.144  32.321  1.00  0.00    -0.003 C 
ATOM     18  C   UNL     1      16.074  13.378  31.660  1.00  0.00     0.004 C 
ENDBRANCH  16  17
ENDBRANCH  15  16
ENDBRANCH  14  15
ENDBRANCH  13  14
ENDBRANCH  12  13
ENDBRANCH  11  12
ENDBRANCH   1  11
TORSDOF 14
ENDMDL
MODEL 9
REMARK VINA RESULT:    -3.889      2.644      6.289
REMARK INTER + INTRA:          -8.786
REMARK INTER:                  -7.506
REMARK INTRA:                  -1.280
REMARK UNBOUND:                -1.715
REMARK SMILES CCCCCCCCCCCCCCCC(=O)[O-]
REMARK SMILES IDX 9 1 10 2 11 3 12 4 13 5 14 6 15 7 16 8 17 9 18 10 8 11 7 12
REMARK SMILES IDX 6 13 5 14 4 15 3 16 2 17 1 18
REMARK H PARENT
REMARK Flexibility Score: inf
ROOT
ATOM      1  C   UNL     1      12.542  26.391  34.169  1.00  0.00     0.000 C 
ENDROOT
BRANCH   1   2
ATOM      2  C   UNL     1      12.656  26.128  35.681  1.00  0.00     0.000 C 
BRANCH   2   3
ATOM      3  C   UNL     1      12.020  27.243  36.531  1.00  0.00     0.000 C 
BRANCH   3   4
ATOM      4  C   UNL     1      11.415  28.408  35.725  1.00  0.00     0.000 C 
BRANCH   4   5
ATOM      5  C   UNL     1      12.026  29.769  36.090  1.00  0.00     0.000 C 
BRANCH   5   6
ATOM      6  C   UNL     1      13.408  29.597  36.734  1.00  0.00     0.006 C 
BRANCH   6   7
ATOM      7  C   UNL     1      14.523  29.955  35.747  1.00  0.00     0.053 C 
BRANCH   7   8
ATOM      8  C   UNL     1      15.250  28.725  35.308  1.00  0.00     0.041 C 
ATOM      9  O   UNL     1      15.498  28.536  34.087  1.00  0.00    -0.550 OA
ATOM     10  O   UNL     1      15.696  27.807  36.250  1.00  0.00    -0.550 OA
ENDBRANCH   7   8
ENDBRANCH   6   7
ENDBRANCH   5   6
ENDBRANCH   4   5
ENDBRANCH   3   4
ENDBRANCH   2   3
ENDBRANCH   1   2
BRANCH   1  11
ATOM     11  C   UNL     1      13.132  25.252  33.322  1.00  0.00     0.000 C 
BRANCH  11  12
ATOM     12  C   UNL     1      14.644  25.074  33.545  1.00  0.00    -0.000 C 
BRANCH  12  13
ATOM     13  C   UNL     1      15.169  23.743  32.983  1.00  0.00    -0.000 C 
BRANCH  13  14
ATOM     14  C   UNL     1      16.402  23.226  33.739  1.00  0.00    -0.000 C 
BRANCH  14  15
ATOM     15  C   UNL     1      16.242  21.740  34.097  1.00  0.00    -0.000 C 
BRANCH  15  16
ATOM     16  C   UNL     1      15.658  21.530  35.502  1.00  0.00    -0.000 C 
BRANCH  16  17
ATOM     17  C   UNL     1      15.342  20.056  35.798  1.00  0.00    -0.003 C 
ATOM     18  C   UNL     1      15.328  19.230  34.516  1.00  0.00     0.004 C 
ENDBRANCH  16  17
ENDBRANCH  15  16
ENDBRANCH  14  15
ENDBRANCH  13  14
ENDBRANCH  12  13
ENDBRANCH  11  12
ENDBRANCH   1  11
TORSDOF 14
ENDMDL
