MODEL 1
REMARK VINA RESULT:     7.526      0.000      0.000
REMARK INTER + INTRA:           8.501
REMARK INTER:                   8.846
REMARK INTRA:                  -0.345
REMARK UNBOUND:                -0.345
REMARK SMILES C=C(C)[C@@H]1CC[C@@]2(CO)CC[C@@]3(C)[C@H](CC[C@H]4[C@@]5(C)CC[C@@H](O)C(C)(C)[C@@H]5CC[C@]43C)[C@@H]12
REMARK SMILES IDX 4 1 5 2 6 3 7 4 32 5 14 6 15 7 16 8 17 9 18 10 20 11 21 12
REMARK SMILES IDX 22 13 24 14 27 15 28 16 29 17 30 18 12 19 11 20 10 21 13 22
REMARK SMILES IDX 31 23 25 24 26 25 19 26 2 27 3 28 1 29 8 30 9 31 23 33
REMARK H PARENT 9 32 23 34
REMARK Flexibility Score: inf
ROOT
ATOM      1  C   UNL     1     -26.793  18.810  58.212  1.00  0.00     0.018 C 
ATOM      2  C   UNL     1     -26.173  20.161  57.804  1.00  0.00     0.009 C 
ATOM      3  C   UNL     1     -27.297  20.983  57.180  1.00  0.00     0.010 C 
ATOM      4  C   UNL     1     -28.584  20.445  57.822  1.00  0.00    -0.003 C 
ATOM      5  C   UNL     1     -28.330  18.925  57.902  1.00  0.00     0.008 C 
ATOM      6  C   UNL     1     -28.670  18.080  56.598  1.00  0.00    -0.000 C 
ATOM      7  C   UNL     1     -28.796  16.602  57.056  1.00  0.00     0.005 C 
ATOM      8  C   UNL     1     -29.448  15.732  56.015  1.00  0.00     0.005 C 
ATOM      9  C   UNL     1     -30.951  16.110  55.779  1.00  0.00     0.002 C 
ATOM     10  C   UNL     1     -32.064  15.168  56.486  1.00  0.00    -0.026 C 
ATOM     11  C   UNL     1     -31.536  13.712  56.733  1.00  0.00     0.010 C 
ATOM     12  C   UNL     1     -32.501  12.805  57.516  1.00  0.00     0.033 C 
ATOM     13  C   UNL     1     -32.824  13.399  58.895  1.00  0.00     0.120 C 
ATOM     14  C   UNL     1     -33.399  14.849  58.801  1.00  0.00    -0.006 C 
ATOM     15  C   UNL     1     -32.455  15.754  57.896  1.00  0.00     0.003 C 
ATOM     16  C   UNL     1     -32.925  17.216  57.783  1.00  0.00     0.005 C 
ATOM     17  C   UNL     1     -31.817  18.113  57.244  1.00  0.00     0.008 C 
ATOM     18  C   UNL     1     -31.217  17.703  55.865  1.00  0.00    -0.024 C 
ATOM     19  C   UNL     1     -29.851  18.550  55.621  1.00  0.00    -0.024 C 
ATOM     20  C   UNL     1     -30.006  20.116  55.694  1.00  0.00     0.008 C 
ATOM     21  C   UNL     1     -29.871  20.785  57.054  1.00  0.00     0.010 C 
ATOM     22  C   UNL     1     -29.408  18.332  54.123  1.00  0.00     0.012 C 
ATOM     23  C   UNL     1     -32.285  18.069  54.778  1.00  0.00     0.012 C 
ATOM     24  C   UNL     1     -33.456  15.420  60.248  1.00  0.00     0.014 C 
ATOM     25  C   UNL     1     -34.867  14.791  58.300  1.00  0.00     0.014 C 
ATOM     26  C   UNL     1     -33.298  15.056  55.513  1.00  0.00     0.012 C 
ENDROOT
BRANCH   1  27
ATOM     27  C   UNL     1     -26.359  18.388  59.622  1.00  0.00    -0.077 C 
ATOM     28  C   UNL     1     -27.408  18.378  60.706  1.00  0.00     0.039 C 
ATOM     29  C   UNL     1     -25.118  17.992  59.961  1.00  0.00     0.008 C 
ENDBRANCH   1  27
BRANCH   4  30
ATOM     30  C   UNL     1     -28.734  21.056  59.255  1.00  0.00     0.163 C 
BRANCH  30  31
ATOM     31  O   UNL     1     -30.036  21.537  59.474  1.00  0.00    -0.396 OA
ATOM     32  H   UNL     1     -30.435  20.986  60.199  1.00  0.00     0.210 HD
ENDBRANCH  30  31
ENDBRANCH   4  30
BRANCH  13  33
ATOM     33  O   UNL     1     -31.660  13.388  59.688  1.00  0.00    -0.393 OA
ATOM     34  H   UNL     1     -31.742  14.135  60.338  1.00  0.00     0.210 HD
ENDBRANCH  13  33
TORSDOF 4
ENDMDL
MODEL 2
REMARK VINA RESULT:     7.916      2.142      3.975
REMARK INTER + INTRA:           8.960
REMARK INTER:                   9.359
REMARK INTRA:                  -0.399
REMARK UNBOUND:                -0.345
REMARK SMILES C=C(C)[C@@H]1CC[C@@]2(CO)CC[C@@]3(C)[C@H](CC[C@H]4[C@@]5(C)CC[C@@H](O)C(C)(C)[C@@H]5CC[C@]43C)[C@@H]12
REMARK SMILES IDX 4 1 5 2 6 3 7 4 32 5 14 6 15 7 16 8 17 9 18 10 20 11 21 12
REMARK SMILES IDX 22 13 24 14 27 15 28 16 29 17 30 18 12 19 11 20 10 21 13 22
REMARK SMILES IDX 31 23 25 24 26 25 19 26 2 27 3 28 1 29 8 30 9 31 23 33
REMARK H PARENT 9 32 23 34
REMARK Flexibility Score: inf
ROOT
ATOM      1  C   UNL     1     -27.940  19.838  54.871  1.00  0.00     0.018 C 
ATOM      2  C   UNL     1     -27.024  20.898  55.513  1.00  0.00     0.009 C 
ATOM      3  C   UNL     1     -27.033  20.628  57.015  1.00  0.00     0.010 C 
ATOM      4  C   UNL     1     -27.339  19.129  57.146  1.00  0.00    -0.003 C 
ATOM      5  C   UNL     1     -28.388  18.885  56.039  1.00  0.00     0.008 C 
ATOM      6  C   UNL     1     -29.902  19.189  56.418  1.00  0.00    -0.000 C 
ATOM      7  C   UNL     1     -30.772  18.441  55.373  1.00  0.00     0.005 C 
ATOM      8  C   UNL     1     -32.216  18.346  55.791  1.00  0.00     0.005 C 
ATOM      9  C   UNL     1     -32.411  17.442  57.057  1.00  0.00     0.002 C 
ATOM     10  C   UNL     1     -32.944  15.932  56.805  1.00  0.00    -0.026 C 
ATOM     11  C   UNL     1     -33.780  15.813  55.484  1.00  0.00     0.010 C 
ATOM     12  C   UNL     1     -34.207  14.380  55.123  1.00  0.00     0.033 C 
ATOM     13  C   UNL     1     -32.987  13.463  54.960  1.00  0.00     0.120 C 
ATOM     14  C   UNL     1     -32.072  13.453  56.227  1.00  0.00    -0.006 C 
ATOM     15  C   UNL     1     -31.726  14.943  56.662  1.00  0.00     0.003 C 
ATOM     16  C   UNL     1     -30.790  15.028  57.883  1.00  0.00     0.005 C 
ATOM     17  C   UNL     1     -30.190  16.421  58.023  1.00  0.00     0.008 C 
ATOM     18  C   UNL     1     -31.208  17.596  58.127  1.00  0.00    -0.024 C 
ATOM     19  C   UNL     1     -30.407  18.997  57.927  1.00  0.00    -0.024 C 
ATOM     20  C   UNL     1     -29.209  19.237  58.921  1.00  0.00     0.008 C 
ATOM     21  C   UNL     1     -27.840  18.697  58.533  1.00  0.00     0.010 C 
ATOM     22  C   UNL     1     -31.388  20.173  58.304  1.00  0.00     0.012 C 
ATOM     23  C   UNL     1     -31.834  17.529  59.563  1.00  0.00     0.012 C 
ATOM     24  C   UNL     1     -30.768  12.691  55.852  1.00  0.00     0.014 C 
ATOM     25  C   UNL     1     -32.752  12.623  57.348  1.00  0.00     0.014 C 
ATOM     26  C   UNL     1     -33.901  15.548  57.996  1.00  0.00     0.012 C 
ENDROOT
BRANCH   1  27
ATOM     27  C   UNL     1     -27.301  19.217  53.622  1.00  0.00    -0.077 C 
ATOM     28  C   UNL     1     -26.976  17.744  53.658  1.00  0.00     0.039 C 
ATOM     29  C   UNL     1     -27.040  19.878  52.479  1.00  0.00     0.008 C 
ENDBRANCH   1  27
BRANCH   4  30
ATOM     30  C   UNL     1     -26.033  18.315  56.858  1.00  0.00     0.163 C 
BRANCH  30  31
ATOM     31  O   UNL     1     -25.882  17.251  57.765  1.00  0.00    -0.396 OA
ATOM     32  H   UNL     1     -24.942  17.268  58.084  1.00  0.00     0.210 HD
ENDBRANCH  30  31
ENDBRANCH   4  30
BRANCH  13  33
ATOM     33  O   UNL     1     -32.249  13.870  53.831  1.00  0.00    -0.393 OA
ATOM     34  H   UNL     1     -32.785  14.563  53.365  1.00  0.00     0.210 HD
ENDBRANCH  13  33
TORSDOF 4
ENDMDL
MODEL 3
REMARK VINA RESULT:     8.926      2.151      3.928
REMARK INTER + INTRA:          10.146
REMARK INTER:                  10.387
REMARK INTRA:                  -0.241
REMARK UNBOUND:                -0.345
REMARK SMILES C=C(C)[C@@H]1CC[C@@]2(CO)CC[C@@]3(C)[C@H](CC[C@H]4[C@@]5(C)CC[C@@H](O)C(C)(C)[C@@H]5CC[C@]43C)[C@@H]12
REMARK SMILES IDX 4 1 5 2 6 3 7 4 32 5 14 6 15 7 16 8 17 9 18 10 20 11 21 12
REMARK SMILES IDX 22 13 24 14 27 15 28 16 29 17 30 18 12 19 11 20 10 21 13 22
REMARK SMILES IDX 31 23 25 24 26 25 19 26 2 27 3 28 1 29 8 30 9 31 23 33
REMARK H PARENT 9 32 23 34
REMARK Flexibility Score: inf
ROOT
ATOM      1  C   UNL     1     -29.289  21.268  57.776  1.00  0.00     0.018 C 
ATOM      2  C   UNL     1     -27.876  21.835  57.533  1.00  0.00     0.009 C 
ATOM      3  C   UNL     1     -27.155  20.831  56.636  1.00  0.00     0.010 C 
ATOM      4  C   UNL     1     -28.272  20.127  55.853  1.00  0.00    -0.003 C 
ATOM      5  C   UNL     1     -29.392  19.965  56.903  1.00  0.00     0.008 C 
ATOM      6  C   UNL     1     -29.299  18.688  57.847  1.00  0.00    -0.000 C 
ATOM      7  C   UNL     1     -30.715  18.487  58.450  1.00  0.00     0.005 C 
ATOM      8  C   UNL     1     -30.881  17.133  59.087  1.00  0.00     0.005 C 
ATOM      9  C   UNL     1     -30.825  15.970  58.038  1.00  0.00     0.002 C 
ATOM     10  C   UNL     1     -32.240  15.329  57.577  1.00  0.00    -0.026 C 
ATOM     11  C   UNL     1     -33.347  15.490  58.676  1.00  0.00     0.010 C 
ATOM     12  C   UNL     1     -34.747  15.015  58.250  1.00  0.00     0.033 C 
ATOM     13  C   UNL     1     -35.238  15.778  57.011  1.00  0.00     0.120 C 
ATOM     14  C   UNL     1     -34.242  15.675  55.812  1.00  0.00    -0.006 C 
ATOM     15  C   UNL     1     -32.773  16.058  56.287  1.00  0.00     0.003 C 
ATOM     16  C   UNL     1     -31.729  16.025  55.154  1.00  0.00     0.005 C 
ATOM     17  C   UNL     1     -30.453  16.753  55.556  1.00  0.00     0.008 C 
ATOM     18  C   UNL     1     -29.757  16.244  56.854  1.00  0.00    -0.024 C 
ATOM     19  C   UNL     1     -28.636  17.333  57.303  1.00  0.00    -0.024 C 
ATOM     20  C   UNL     1     -27.552  17.675  56.213  1.00  0.00     0.008 C 
ATOM     21  C   UNL     1     -27.862  18.787  55.221  1.00  0.00     0.010 C 
ATOM     22  C   UNL     1     -27.761  16.685  58.445  1.00  0.00     0.012 C 
ATOM     23  C   UNL     1     -29.075  14.879  56.498  1.00  0.00     0.012 C 
ATOM     24  C   UNL     1     -34.726  16.671  54.719  1.00  0.00     0.014 C 
ATOM     25  C   UNL     1     -34.338  14.260  55.180  1.00  0.00     0.014 C 
ATOM     26  C   UNL     1     -32.027  13.783  57.356  1.00  0.00     0.012 C 
ENDROOT
BRANCH   1  27
ATOM     27  C   UNL     1     -30.368  22.346  57.614  1.00  0.00    -0.077 C 
ATOM     28  C   UNL     1     -31.180  22.341  56.343  1.00  0.00     0.039 C 
ATOM     29  C   UNL     1     -30.672  23.278  58.537  1.00  0.00     0.008 C 
ENDBRANCH   1  27
BRANCH   4  30
ATOM     30  C   UNL     1     -28.741  21.058  54.685  1.00  0.00     0.163 C 
BRANCH  30  31
ATOM     31  O   UNL     1     -28.936  20.331  53.497  1.00  0.00    -0.396 OA
ATOM     32  H   UNL     1     -29.021  19.373  53.749  1.00  0.00     0.210 HD
ENDBRANCH  30  31
ENDBRANCH   4  30
BRANCH  13  33
ATOM     33  O   UNL     1     -35.449  17.128  57.352  1.00  0.00    -0.393 OA
ATOM     34  H   UNL     1     -36.418  17.235  57.538  1.00  0.00     0.210 HD
ENDBRANCH  13  33
TORSDOF 4
ENDMDL
MODEL 4
REMARK VINA RESULT:     9.563      1.767      7.409
REMARK INTER + INTRA:          10.896
REMARK INTER:                  11.010
REMARK INTRA:                  -0.114
REMARK UNBOUND:                -0.345
REMARK SMILES C=C(C)[C@@H]1CC[C@@]2(CO)CC[C@@]3(C)[C@H](CC[C@H]4[C@@]5(C)CC[C@@H](O)C(C)(C)[C@@H]5CC[C@]43C)[C@@H]12
REMARK SMILES IDX 4 1 5 2 6 3 7 4 32 5 14 6 15 7 16 8 17 9 18 10 20 11 21 12
REMARK SMILES IDX 22 13 24 14 27 15 28 16 29 17 30 18 12 19 11 20 10 21 13 22
REMARK SMILES IDX 31 23 25 24 26 25 19 26 2 27 3 28 1 29 8 30 9 31 23 33
REMARK H PARENT 9 32 23 34
REMARK Flexibility Score: inf
ROOT
ATOM      1  C   UNL     1     -35.476  14.143  59.117  1.00  0.00     0.018 C 
ATOM      2  C   UNL     1     -36.332  12.929  58.704  1.00  0.00     0.009 C 
ATOM      3  C   UNL     1     -35.595  12.252  57.552  1.00  0.00     0.010 C 
ATOM      4  C   UNL     1     -34.117  12.610  57.762  1.00  0.00    -0.003 C 
ATOM      5  C   UNL     1     -34.173  14.077  58.240  1.00  0.00     0.008 C 
ATOM      6  C   UNL     1     -34.244  15.189  57.106  1.00  0.00    -0.000 C 
ATOM      7  C   UNL     1     -33.816  16.523  57.775  1.00  0.00     0.005 C 
ATOM      8  C   UNL     1     -33.499  17.596  56.767  1.00  0.00     0.005 C 
ATOM      9  C   UNL     1     -32.228  17.257  55.916  1.00  0.00     0.002 C 
ATOM     10  C   UNL     1     -30.847  17.996  56.333  1.00  0.00    -0.026 C 
ATOM     11  C   UNL     1     -31.104  19.367  57.050  1.00  0.00     0.010 C 
ATOM     12  C   UNL     1     -29.838  20.058  57.585  1.00  0.00     0.033 C 
ATOM     13  C   UNL     1     -29.101  19.162  58.591  1.00  0.00     0.120 C 
ATOM     14  C   UNL     1     -28.744  17.762  57.996  1.00  0.00    -0.006 C 
ATOM     15  C   UNL     1     -30.035  17.101  57.343  1.00  0.00     0.003 C 
ATOM     16  C   UNL     1     -29.785  15.694  56.767  1.00  0.00     0.005 C 
ATOM     17  C   UNL     1     -31.095  14.961  56.510  1.00  0.00     0.008 C 
ATOM     18  C   UNL     1     -32.107  15.681  55.570  1.00  0.00    -0.024 C 
ATOM     19  C   UNL     1     -33.546  14.933  55.685  1.00  0.00    -0.024 C 
ATOM     20  C   UNL     1     -33.531  13.390  55.373  1.00  0.00     0.008 C 
ATOM     21  C   UNL     1     -33.233  12.432  56.518  1.00  0.00     0.010 C 
ATOM     22  C   UNL     1     -34.475  15.492  54.539  1.00  0.00     0.012 C 
ATOM     23  C   UNL     1     -31.544  15.553  54.112  1.00  0.00     0.012 C 
ATOM     24  C   UNL     1     -28.226  16.878  59.167  1.00  0.00     0.014 C 
ATOM     25  C   UNL     1     -27.557  17.908  57.006  1.00  0.00     0.014 C 
ATOM     26  C   UNL     1     -30.042  18.306  55.014  1.00  0.00     0.012 C 
ENDROOT
BRANCH   1  27
ATOM     27  C   UNL     1     -35.330  14.242  60.642  1.00  0.00    -0.077 C 
ATOM     28  C   UNL     1     -34.376  15.274  61.190  1.00  0.00     0.039 C 
ATOM     29  C   UNL     1     -36.015  13.500  61.532  1.00  0.00     0.008 C 
ENDBRANCH   1  27
BRANCH   4  30
ATOM     30  C   UNL     1     -33.522  11.688  58.880  1.00  0.00     0.163 C 
BRANCH  30  31
ATOM     31  O   UNL     1     -34.515  10.875  59.454  1.00  0.00    -0.396 OA
ATOM     32  H   UNL     1     -34.078  10.024  59.722  1.00  0.00     0.210 HD
ENDBRANCH  30  31
ENDBRANCH   4  30
BRANCH  13  33
ATOM     33  O   UNL     1     -29.893  19.012  59.745  1.00  0.00    -0.393 OA
ATOM     34  H   UNL     1     -30.696  19.585  59.625  1.00  0.00     0.210 HD
ENDBRANCH  13  33
TORSDOF 4
ENDMDL
MODEL 5
REMARK VINA RESULT:     9.924      2.320      7.189
REMARK INTER + INTRA:          11.320
REMARK INTER:                  11.892
REMARK INTRA:                  -0.572
REMARK UNBOUND:                -0.345
REMARK SMILES C=C(C)[C@@H]1CC[C@@]2(CO)CC[C@@]3(C)[C@H](CC[C@H]4[C@@]5(C)CC[C@@H](O)C(C)(C)[C@@H]5CC[C@]43C)[C@@H]12
REMARK SMILES IDX 4 1 5 2 6 3 7 4 32 5 14 6 15 7 16 8 17 9 18 10 20 11 21 12
REMARK SMILES IDX 22 13 24 14 27 15 28 16 29 17 30 18 12 19 11 20 10 21 13 22
REMARK SMILES IDX 31 23 25 24 26 25 19 26 2 27 3 28 1 29 8 30 9 31 23 33
REMARK H PARENT 9 32 23 34
REMARK Flexibility Score: inf
ROOT
ATOM      1  C   UNL     1     -31.976  13.003  57.014  1.00  0.00     0.018 C 
ATOM      2  C   UNL     1     -33.385  12.493  57.374  1.00  0.00     0.009 C 
ATOM      3  C   UNL     1     -34.318  13.698  57.289  1.00  0.00     0.010 C 
ATOM      4  C   UNL     1     -33.650  14.645  56.281  1.00  0.00    -0.003 C 
ATOM      5  C   UNL     1     -32.149  14.514  56.614  1.00  0.00     0.008 C 
ATOM      6  C   UNL     1     -31.600  15.437  57.788  1.00  0.00    -0.000 C 
ATOM      7  C   UNL     1     -30.059  15.490  57.617  1.00  0.00     0.005 C 
ATOM      8  C   UNL     1     -29.428  16.589  58.431  1.00  0.00     0.005 C 
ATOM      9  C   UNL     1     -29.843  18.014  57.929  1.00  0.00     0.002 C 
ATOM     10  C   UNL     1     -28.767  18.811  57.015  1.00  0.00    -0.026 C 
ATOM     11  C   UNL     1     -27.294  18.358  57.304  1.00  0.00     0.010 C 
ATOM     12  C   UNL     1     -26.237  18.985  56.379  1.00  0.00     0.033 C 
ATOM     13  C   UNL     1     -26.522  18.654  54.907  1.00  0.00     0.120 C 
ATOM     14  C   UNL     1     -27.956  19.087  54.464  1.00  0.00    -0.006 C 
ATOM     15  C   UNL     1     -29.037  18.529  55.489  1.00  0.00     0.003 C 
ATOM     16  C   UNL     1     -30.488  18.874  55.104  1.00  0.00     0.005 C 
ATOM     17  C   UNL     1     -31.483  18.016  55.876  1.00  0.00     0.008 C 
ATOM     18  C   UNL     1     -31.379  18.080  57.429  1.00  0.00    -0.024 C 
ATOM     19  C   UNL     1     -32.264  16.871  58.059  1.00  0.00    -0.024 C 
ATOM     20  C   UNL     1     -33.778  16.844  57.624  1.00  0.00     0.008 C 
ATOM     21  C   UNL     1     -34.142  16.099  56.348  1.00  0.00     0.010 C 
ATOM     22  C   UNL     1     -32.373  17.110  59.615  1.00  0.00     0.012 C 
ATOM     23  C   UNL     1     -31.966  19.467  57.866  1.00  0.00     0.012 C 
ATOM     24  C   UNL     1     -28.205  18.489  53.049  1.00  0.00     0.014 C 
ATOM     25  C   UNL     1     -28.001  20.630  54.296  1.00  0.00     0.014 C 
ATOM     26  C   UNL     1     -28.861  20.343  57.375  1.00  0.00     0.012 C 
ENDROOT
BRANCH   1  27
ATOM     27  C   UNL     1     -31.265  12.062  56.034  1.00  0.00    -0.077 C 
ATOM     28  C   UNL     1     -32.038  10.875  55.514  1.00  0.00     0.039 C 
ATOM     29  C   UNL     1     -30.012  12.232  55.572  1.00  0.00     0.008 C 
ENDBRANCH   1  27
BRANCH   4  30
ATOM     30  C   UNL     1     -33.941  14.132  54.830  1.00  0.00     0.163 C 
BRANCH  30  31
ATOM     31  O   UNL     1     -35.246  13.623  54.719  1.00  0.00    -0.396 OA
ATOM     32  H   UNL     1     -35.628  13.589  55.635  1.00  0.00     0.210 HD
ENDBRANCH  30  31
ENDBRANCH   4  30
BRANCH  13  33
ATOM     33  O   UNL     1     -26.346  17.272  54.702  1.00  0.00    -0.393 OA
ATOM     34  H   UNL     1     -25.430  17.044  55.009  1.00  0.00     0.210 HD
ENDBRANCH  13  33
TORSDOF 4
ENDMDL
