MODEL 1
REMARK VINA RESULT:     0.787      0.000      0.000
REMARK INTER + INTRA:           0.787
REMARK INTER:                   0.787
REMARK INTRA:                   0.000
REMARK UNBOUND:                 0.000
REMARK SMILES C=C1[C@@H]2CC[C@@H](C2)C1(C)C
REMARK SMILES IDX 9 1 8 2 6 3 5 4 4 5 3 6 7 7 2 8 1 9 10 10
REMARK H PARENT
REMARK Flexibility Score: inf
ROOT
ATOM      1  C   UNL     1      -9.034  -8.628  18.402  1.00  0.00     0.016 C 
ATOM      2  C   UNL     1      -9.855  -7.474  19.023  1.00  0.00    -0.012 C 
ATOM      3  C   UNL     1     -11.024  -7.954  19.953  1.00  0.00    -0.001 C 
ATOM      4  C   UNL     1     -10.533  -9.015  20.967  1.00  0.00     0.005 C 
ATOM      5  C   UNL     1      -9.599  -8.202  21.889  1.00  0.00     0.008 C 
ATOM      6  C   UNL     1      -9.758  -6.766  21.360  1.00  0.00     0.015 C 
ATOM      7  C   UNL     1     -11.199  -6.772  20.901  1.00  0.00     0.012 C 
ATOM      8  C   UNL     1      -9.051  -6.692  20.034  1.00  0.00    -0.068 C 
ATOM      9  C   UNL     1      -7.880  -6.081  19.817  1.00  0.00     0.008 C 
ATOM     10  C   UNL     1     -10.378  -6.564  17.889  1.00  0.00     0.016 C 
ENDROOT
TORSDOF 0
ENDMDL
MODEL 2
REMARK VINA RESULT:     0.826      0.982      2.109
REMARK INTER + INTRA:           0.826
REMARK INTER:                   0.826
REMARK INTRA:                   0.000
REMARK UNBOUND:                 0.000
REMARK SMILES C=C1[C@@H]2CC[C@@H](C2)C1(C)C
REMARK SMILES IDX 9 1 8 2 6 3 5 4 4 5 3 6 7 7 2 8 1 9 10 10
REMARK H PARENT
REMARK Flexibility Score: inf
ROOT
ATOM      1  C   UNL     1     -11.345  -7.622  17.943  1.00  0.00     0.016 C 
ATOM      2  C   UNL     1      -9.991  -7.236  18.583  1.00  0.00    -0.012 C 
ATOM      3  C   UNL     1     -10.128  -6.472  19.947  1.00  0.00    -0.001 C 
ATOM      4  C   UNL     1     -11.108  -7.198  20.898  1.00  0.00     0.005 C 
ATOM      5  C   UNL     1     -10.351  -8.498  21.245  1.00  0.00     0.008 C 
ATOM      6  C   UNL     1      -8.996  -8.305  20.542  1.00  0.00     0.015 C 
ATOM      7  C   UNL     1      -8.814  -6.807  20.646  1.00  0.00     0.012 C 
ATOM      8  C   UNL     1      -9.230  -8.448  19.063  1.00  0.00    -0.068 C 
ATOM      9  C   UNL     1      -8.868  -9.504  18.323  1.00  0.00     0.008 C 
ATOM     10  C   UNL     1      -9.168  -6.418  17.562  1.00  0.00     0.016 C 
ENDROOT
TORSDOF 0
ENDMDL
MODEL 3
REMARK VINA RESULT:     1.099      0.989      3.136
REMARK INTER + INTRA:           1.099
REMARK INTER:                   1.099
REMARK INTRA:                   0.000
REMARK UNBOUND:                 0.000
REMARK SMILES C=C1[C@@H]2CC[C@@H](C2)C1(C)C
REMARK SMILES IDX 9 1 8 2 6 3 5 4 4 5 3 6 7 7 2 8 1 9 10 10
REMARK H PARENT
REMARK Flexibility Score: inf
ROOT
ATOM      1  C   UNL     1     -10.106  -9.097  21.486  1.00  0.00     0.016 C 
ATOM      2  C   UNL     1      -9.630  -7.733  20.935  1.00  0.00    -0.012 C 
ATOM      3  C   UNL     1      -8.700  -7.846  19.675  1.00  0.00    -0.001 C 
ATOM      4  C   UNL     1      -9.309  -8.794  18.615  1.00  0.00     0.005 C 
ATOM      5  C   UNL     1     -10.547  -8.013  18.126  1.00  0.00     0.008 C 
ATOM      6  C   UNL     1     -10.433  -6.678  18.881  1.00  0.00     0.015 C 
ATOM      7  C   UNL     1      -8.933  -6.512  18.973  1.00  0.00     0.012 C 
ATOM      8  C   UNL     1     -10.764  -6.946  20.325  1.00  0.00    -0.068 C 
ATOM      9  C   UNL     1     -11.902  -6.589  20.934  1.00  0.00     0.008 C 
ATOM     10  C   UNL     1      -8.941  -6.945  22.071  1.00  0.00     0.016 C 
ENDROOT
TORSDOF 0
ENDMDL
MODEL 4
REMARK VINA RESULT:     1.137      6.871      8.401
REMARK INTER + INTRA:           1.137
REMARK INTER:                   1.137
REMARK INTRA:                   0.000
REMARK UNBOUND:                 0.000
REMARK SMILES C=C1[C@@H]2CC[C@@H](C2)C1(C)C
REMARK SMILES IDX 9 1 8 2 6 3 5 4 4 5 3 6 7 7 2 8 1 9 10 10
REMARK H PARENT
REMARK Flexibility Score: inf
ROOT
ATOM      1  C   UNL     1     -16.039  -2.967  19.187  1.00  0.00     0.016 C 
ATOM      2  C   UNL     1     -14.918  -2.269  18.383  1.00  0.00    -0.012 C 
ATOM      3  C   UNL     1     -14.203  -3.204  17.345  1.00  0.00    -0.001 C 
ATOM      4  C   UNL     1     -15.233  -3.972  16.484  1.00  0.00     0.005 C 
ATOM      5  C   UNL     1     -15.874  -2.854  15.635  1.00  0.00     0.008 C 
ATOM      6  C   UNL     1     -15.062  -1.610  16.034  1.00  0.00     0.015 C 
ATOM      7  C   UNL     1     -13.700  -2.213  16.300  1.00  0.00     0.012 C 
ATOM      8  C   UNL     1     -15.469  -1.234  17.433  1.00  0.00    -0.068 C 
ATOM      9  C   UNL     1     -16.239  -0.186  17.756  1.00  0.00     0.008 C 
ATOM     10  C   UNL     1     -13.904  -1.648  19.370  1.00  0.00     0.016 C 
ENDROOT
TORSDOF 0
ENDMDL
MODEL 5
REMARK VINA RESULT:     1.219      1.009      2.536
REMARK INTER + INTRA:           1.219
REMARK INTER:                   1.219
REMARK INTRA:                   0.000
REMARK UNBOUND:                 0.000
REMARK SMILES C=C1[C@@H]2CC[C@@H](C2)C1(C)C
REMARK SMILES IDX 9 1 8 2 6 3 5 4 4 5 3 6 7 7 2 8 1 9 10 10
REMARK H PARENT
REMARK Flexibility Score: inf
ROOT
ATOM      1  C   UNL     1     -12.161  -8.193  20.471  1.00  0.00     0.016 C 
ATOM      2  C   UNL     1     -11.051  -7.127  20.621  1.00  0.00    -0.012 C 
ATOM      3  C   UNL     1      -9.909  -7.533  21.617  1.00  0.00    -0.001 C 
ATOM      4  C   UNL     1      -9.395  -8.963  21.324  1.00  0.00     0.005 C 
ATOM      5  C   UNL     1      -8.693  -8.803  19.959  1.00  0.00     0.008 C 
ATOM      6  C   UNL     1      -8.796  -7.291  19.693  1.00  0.00     0.015 C 
ATOM      7  C   UNL     1      -8.718  -6.734  21.097  1.00  0.00     0.012 C 
ATOM      8  C   UNL     1     -10.232  -6.987  19.361  1.00  0.00    -0.068 C 
ATOM      9  C   UNL     1     -10.695  -6.700  18.138  1.00  0.00     0.008 C 
ATOM     10  C   UNL     1     -11.698  -5.783  21.027  1.00  0.00     0.016 C 
ENDROOT
TORSDOF 0
ENDMDL
MODEL 6
REMARK VINA RESULT:     1.247      6.875      8.608
REMARK INTER + INTRA:           1.247
REMARK INTER:                   1.247
REMARK INTRA:                   0.000
REMARK UNBOUND:                 0.000
REMARK SMILES C=C1[C@@H]2CC[C@@H](C2)C1(C)C
REMARK SMILES IDX 9 1 8 2 6 3 5 4 4 5 3 6 7 7 2 8 1 9 10 10
REMARK H PARENT
REMARK Flexibility Score: inf
ROOT
ATOM      1  C   UNL     1     -15.053   0.303  17.387  1.00  0.00     0.016 C 
ATOM      2  C   UNL     1     -15.703  -1.093  17.248  1.00  0.00    -0.012 C 
ATOM      3  C   UNL     1     -15.358  -1.824  15.903  1.00  0.00    -0.001 C 
ATOM      4  C   UNL     1     -13.837  -1.789  15.622  1.00  0.00     0.005 C 
ATOM      5  C   UNL     1     -13.261  -2.699  16.728  1.00  0.00     0.008 C 
ATOM      6  C   UNL     1     -14.524  -3.227  17.431  1.00  0.00     0.015 C 
ATOM      7  C   UNL     1     -15.503  -3.295  16.280  1.00  0.00     0.012 C 
ATOM      8  C   UNL     1     -15.112  -2.087  18.219  1.00  0.00    -0.068 C 
ATOM      9  C   UNL     1     -15.060  -1.963  19.551  1.00  0.00     0.008 C 
ATOM     10  C   UNL     1     -17.231  -0.957  17.437  1.00  0.00     0.016 C 
ENDROOT
TORSDOF 0
ENDMDL
MODEL 7
REMARK VINA RESULT:     1.254      6.052      7.931
REMARK INTER + INTRA:           1.254
REMARK INTER:                   1.254
REMARK INTRA:                   0.000
REMARK UNBOUND:                 0.000
REMARK SMILES C=C1[C@@H]2CC[C@@H](C2)C1(C)C
REMARK SMILES IDX 9 1 8 2 6 3 5 4 4 5 3 6 7 7 2 8 1 9 10 10
REMARK H PARENT
REMARK Flexibility Score: inf
ROOT
ATOM      1  C   UNL     1     -13.131  -2.144  15.045  1.00  0.00     0.016 C 
ATOM      2  C   UNL     1     -13.512  -2.794  16.395  1.00  0.00    -0.012 C 
ATOM      3  C   UNL     1     -13.972  -1.767  17.489  1.00  0.00    -0.001 C 
ATOM      4  C   UNL     1     -15.025  -0.784  16.925  1.00  0.00     0.005 C 
ATOM      5  C   UNL     1     -16.252  -1.691  16.691  1.00  0.00     0.008 C 
ATOM      6  C   UNL     1     -15.789  -3.047  17.250  1.00  0.00     0.015 C 
ATOM      7  C   UNL     1     -14.878  -2.614  18.377  1.00  0.00     0.012 C 
ATOM      8  C   UNL     1     -14.778  -3.611  16.287  1.00  0.00    -0.068 C 
ATOM      9  C   UNL     1     -14.999  -4.627  15.445  1.00  0.00     0.008 C 
ATOM     10  C   UNL     1     -12.327  -3.651  16.893  1.00  0.00     0.016 C 
ENDROOT
TORSDOF 0
ENDMDL
MODEL 8
REMARK VINA RESULT:     1.259      6.944      8.600
REMARK INTER + INTRA:           1.259
REMARK INTER:                   1.259
REMARK INTRA:                   0.000
REMARK UNBOUND:                 0.000
REMARK SMILES C=C1[C@@H]2CC[C@@H](C2)C1(C)C
REMARK SMILES IDX 9 1 8 2 6 3 5 4 4 5 3 6 7 7 2 8 1 9 10 10
REMARK H PARENT
REMARK Flexibility Score: inf
ROOT
ATOM      1  C   UNL     1     -15.235  -4.128  16.537  1.00  0.00     0.016 C 
ATOM      2  C   UNL     1     -14.620  -2.730  16.778  1.00  0.00    -0.012 C 
ATOM      3  C   UNL     1     -15.145  -1.627  15.793  1.00  0.00    -0.001 C 
ATOM      4  C   UNL     1     -16.690  -1.647  15.703  1.00  0.00     0.005 C 
ATOM      5  C   UNL     1     -17.122  -1.166  17.104  1.00  0.00     0.008 C 
ATOM      6  C   UNL     1     -15.783  -0.828  17.781  1.00  0.00     0.015 C 
ATOM      7  C   UNL     1     -14.964  -0.347  16.603  1.00  0.00     0.012 C 
ATOM      8  C   UNL     1     -15.087  -2.128  18.081  1.00  0.00    -0.068 C 
ATOM      9  C   UNL     1     -14.962  -2.673  19.298  1.00  0.00     0.008 C 
ATOM     10  C   UNL     1     -13.080  -2.842  16.725  1.00  0.00     0.016 C 
ENDROOT
TORSDOF 0
ENDMDL
MODEL 9
REMARK VINA RESULT:     1.286      0.678      2.426
REMARK INTER + INTRA:           1.286
REMARK INTER:                   1.286
REMARK INTRA:                   0.000
REMARK UNBOUND:                 0.000
REMARK SMILES C=C1[C@@H]2CC[C@@H](C2)C1(C)C
REMARK SMILES IDX 9 1 8 2 6 3 5 4 4 5 3 6 7 7 2 8 1 9 10 10
REMARK H PARENT
REMARK Flexibility Score: inf
ROOT
ATOM      1  C   UNL     1      -8.049  -6.462  19.831  1.00  0.00     0.016 C 
ATOM      2  C   UNL     1      -9.056  -7.636  19.818  1.00  0.00    -0.012 C 
ATOM      3  C   UNL     1      -9.606  -8.018  21.238  1.00  0.00    -0.001 C 
ATOM      4  C   UNL     1     -10.085  -6.764  22.007  1.00  0.00     0.005 C 
ATOM      5  C   UNL     1     -11.328  -6.322  21.205  1.00  0.00     0.008 C 
ATOM      6  C   UNL     1     -11.469  -7.433  20.150  1.00  0.00     0.015 C 
ATOM      7  C   UNL     1     -10.961  -8.637  20.911  1.00  0.00     0.012 C 
ATOM      8  C   UNL     1     -10.356  -7.253  19.153  1.00  0.00    -0.068 C 
ATOM      9  C   UNL     1     -10.504  -6.779  17.910  1.00  0.00     0.008 C 
ATOM     10  C   UNL     1      -8.401  -8.851  19.125  1.00  0.00     0.016 C 
ENDROOT
TORSDOF 0
ENDMDL
