MODEL 1
REMARK VINA RESULT:    -4.209      0.000      0.000
REMARK INTER + INTRA:          -4.658
REMARK INTER:                  -4.455
REMARK INTRA:                  -0.203
REMARK UNBOUND:                -0.203
REMARK SMILES C=C(C)[C@@H]1CC=C(C)C(=O)C1
REMARK SMILES IDX 8 1 7 2 6 3 5 4 4 5 11 6 9 7 10 8 2 9 1 10 3 11
REMARK H PARENT
REMARK Flexibility Score: inf
ROOT
ATOM      1  C   UNL     1       0.234  17.079  22.014  1.00  0.00     0.048 C 
ATOM      2  C   UNL     1       1.341  16.064  21.949  1.00  0.00    -0.012 C 
ATOM      3  C   UNL     1       2.348  16.120  22.835  1.00  0.00    -0.019 C 
ATOM      4  C   UNL     1       3.504  15.157  22.808  1.00  0.00     0.036 C 
ATOM      5  C   UNL     1       3.138  13.771  22.238  1.00  0.00     0.025 C 
ATOM      6  C   UNL     1       2.324  13.884  20.932  1.00  0.00     0.089 C 
ATOM      7  C   UNL     1       1.239  14.921  21.011  1.00  0.00     0.158 C 
ATOM      8  O   UNL     1       0.251  14.829  20.234  1.00  0.00    -0.295 OA
ENDROOT
BRANCH   5   9
ATOM      9  C   UNL     1       2.485  12.855  23.274  1.00  0.00    -0.077 C 
ATOM     10  C   UNL     1       2.872  12.837  24.562  1.00  0.00     0.008 C 
ATOM     11  C   UNL     1       1.365  11.933  22.861  1.00  0.00     0.039 C 
ENDBRANCH   5   9
TORSDOF 1
ENDMDL
MODEL 2
REMARK VINA RESULT:    -4.013      5.134      7.149
REMARK INTER + INTRA:          -4.451
REMARK INTER:                  -4.251
REMARK INTRA:                  -0.199
REMARK UNBOUND:                -0.203
REMARK SMILES C=C(C)[C@@H]1CC=C(C)C(=O)C1
REMARK SMILES IDX 8 1 7 2 6 3 5 4 4 5 11 6 9 7 10 8 2 9 1 10 3 11
REMARK H PARENT
REMARK Flexibility Score: inf
ROOT
ATOM      1  C   UNL     1      -0.184   8.072  18.961  1.00  0.00     0.048 C 
ATOM      2  C   UNL     1       0.801   9.159  18.630  1.00  0.00    -0.012 C 
ATOM      3  C   UNL     1       1.902   8.866  17.921  1.00  0.00    -0.019 C 
ATOM      4  C   UNL     1       2.944   9.897  17.582  1.00  0.00     0.036 C 
ATOM      5  C   UNL     1       2.378  11.326  17.452  1.00  0.00     0.025 C 
ATOM      6  C   UNL     1       1.436  11.678  18.622  1.00  0.00     0.089 C 
ATOM      7  C   UNL     1       0.478  10.569  18.953  1.00  0.00     0.158 C 
ATOM      8  O   UNL     1      -0.596  10.849  19.549  1.00  0.00    -0.295 OA
ENDROOT
BRANCH   5   9
ATOM      9  C   UNL     1       1.757  11.597  16.080  1.00  0.00    -0.077 C 
ATOM     10  C   UNL     1       2.071  10.869  14.994  1.00  0.00     0.008 C 
ATOM     11  C   UNL     1       0.756  12.714  15.917  1.00  0.00     0.039 C 
ENDBRANCH   5   9
TORSDOF 1
ENDMDL
MODEL 3
REMARK VINA RESULT:    -3.938      5.487      7.088
REMARK INTER + INTRA:          -4.371
REMARK INTER:                  -4.152
REMARK INTRA:                  -0.219
REMARK UNBOUND:                -0.203
REMARK SMILES C=C(C)[C@@H]1CC=C(C)C(=O)C1
REMARK SMILES IDX 8 1 7 2 6 3 5 4 4 5 11 6 9 7 10 8 2 9 1 10 3 11
REMARK H PARENT
REMARK Flexibility Score: inf
ROOT
ATOM      1  C   UNL     1       2.165   9.170  22.597  1.00  0.00     0.048 C 
ATOM      2  C   UNL     1       1.338   9.082  21.345  1.00  0.00    -0.012 C 
ATOM      3  C   UNL     1       0.663  10.161  20.917  1.00  0.00    -0.019 C 
ATOM      4  C   UNL     1      -0.210  10.135  19.691  1.00  0.00     0.036 C 
ATOM      5  C   UNL     1       0.255   9.121  18.625  1.00  0.00     0.025 C 
ATOM      6  C   UNL     1       0.587   7.748  19.246  1.00  0.00     0.089 C 
ATOM      7  C   UNL     1       1.393   7.860  20.509  1.00  0.00     0.158 C 
ATOM      8  O   UNL     1       2.093   6.878  20.875  1.00  0.00    -0.295 OA
ENDROOT
BRANCH   5   9
ATOM      9  C   UNL     1       1.375   9.664  17.736  1.00  0.00    -0.077 C 
ATOM     10  C   UNL     1       2.313   8.867  17.196  1.00  0.00     0.008 C 
ATOM     11  C   UNL     1       1.450  11.142  17.442  1.00  0.00     0.039 C 
ENDBRANCH   5   9
TORSDOF 1
ENDMDL
MODEL 4
REMARK VINA RESULT:    -3.935      1.803      3.750
REMARK INTER + INTRA:          -4.368
REMARK INTER:                  -4.152
REMARK INTRA:                  -0.216
REMARK UNBOUND:                -0.203
REMARK SMILES C=C(C)[C@@H]1CC=C(C)C(=O)C1
REMARK SMILES IDX 8 1 7 2 6 3 5 4 4 5 11 6 9 7 10 8 2 9 1 10 3 11
REMARK H PARENT
REMARK Flexibility Score: inf
ROOT
ATOM      1  C   UNL     1       4.001  14.191  23.879  1.00  0.00     0.048 C 
ATOM      2  C   UNL     1       2.794  14.651  23.109  1.00  0.00    -0.012 C 
ATOM      3  C   UNL     1       2.591  15.964  22.913  1.00  0.00    -0.019 C 
ATOM      4  C   UNL     1       1.389  16.496  22.180  1.00  0.00     0.036 C 
ATOM      5  C   UNL     1       0.839  15.527  21.113  1.00  0.00     0.025 C 
ATOM      6  C   UNL     1       0.717  14.087  21.654  1.00  0.00     0.089 C 
ATOM      7  C   UNL     1       1.922  13.656  22.442  1.00  0.00     0.158 C 
ATOM      8  O   UNL     1       2.163  12.425  22.563  1.00  0.00    -0.295 OA
ENDROOT
BRANCH   5   9
ATOM      9  C   UNL     1       1.601  15.606  19.789  1.00  0.00    -0.077 C 
ATOM     10  C   UNL     1       2.248  16.718  19.399  1.00  0.00     0.008 C 
ATOM     11  C   UNL     1       1.641  14.408  18.873  1.00  0.00     0.039 C 
ENDBRANCH   5   9
TORSDOF 1
ENDMDL
MODEL 5
REMARK VINA RESULT:    -3.885      1.874      4.084
REMARK INTER + INTRA:          -4.315
REMARK INTER:                  -4.095
REMARK INTRA:                  -0.220
REMARK UNBOUND:                -0.203
REMARK SMILES C=C(C)[C@@H]1CC=C(C)C(=O)C1
REMARK SMILES IDX 8 1 7 2 6 3 5 4 4 5 11 6 9 7 10 8 2 9 1 10 3 11
REMARK H PARENT
REMARK Flexibility Score: inf
ROOT
ATOM      1  C   UNL     1       3.224  12.241  22.811  1.00  0.00     0.048 C 
ATOM      2  C   UNL     1       3.231  13.595  22.157  1.00  0.00    -0.012 C 
ATOM      3  C   UNL     1       3.092  13.691  20.825  1.00  0.00    -0.019 C 
ATOM      4  C   UNL     1       3.123  15.010  20.101  1.00  0.00     0.036 C 
ATOM      5  C   UNL     1       2.616  16.192  20.953  1.00  0.00     0.025 C 
ATOM      6  C   UNL     1       3.230  16.184  22.368  1.00  0.00     0.089 C 
ATOM      7  C   UNL     1       3.236  14.818  22.994  1.00  0.00     0.158 C 
ATOM      8  O   UNL     1       3.285  14.722  24.249  1.00  0.00    -0.295 OA
ENDROOT
BRANCH   5   9
ATOM      9  C   UNL     1       1.090  16.306  20.963  1.00  0.00    -0.077 C 
ATOM     10  C   UNL     1       0.415  16.808  22.011  1.00  0.00     0.008 C 
ATOM     11  C   UNL     1       0.296  15.847  19.765  1.00  0.00     0.039 C 
ENDBRANCH   5   9
TORSDOF 1
ENDMDL
MODEL 6
REMARK VINA RESULT:    -3.873      5.366      6.692
REMARK INTER + INTRA:          -4.302
REMARK INTER:                  -4.201
REMARK INTRA:                  -0.101
REMARK UNBOUND:                -0.203
REMARK SMILES C=C(C)[C@@H]1CC=C(C)C(=O)C1
REMARK SMILES IDX 8 1 7 2 6 3 5 4 4 5 11 6 9 7 10 8 2 9 1 10 3 11
REMARK H PARENT
REMARK Flexibility Score: inf
ROOT
ATOM      1  C   UNL     1       1.883  10.810  15.285  1.00  0.00     0.048 C 
ATOM      2  C   UNL     1       1.770  10.718  16.782  1.00  0.00    -0.012 C 
ATOM      3  C   UNL     1       1.029  11.618  17.449  1.00  0.00    -0.019 C 
ATOM      4  C   UNL     1       0.898  11.605  18.948  1.00  0.00     0.036 C 
ATOM      5  C   UNL     1       1.029  10.197  19.566  1.00  0.00     0.025 C 
ATOM      6  C   UNL     1       2.234   9.427  18.988  1.00  0.00     0.089 C 
ATOM      7  C   UNL     1       2.344   9.553  17.494  1.00  0.00     0.158 C 
ATOM      8  O   UNL     1       2.971   8.668  16.852  1.00  0.00    -0.295 OA
ENDROOT
BRANCH   5   9
ATOM      9  C   UNL     1      -0.275   9.399  19.510  1.00  0.00    -0.077 C 
ATOM     10  C   UNL     1      -0.360   8.205  18.898  1.00  0.00     0.008 C 
ATOM     11  C   UNL     1      -1.521   9.952  20.156  1.00  0.00     0.039 C 
ENDBRANCH   5   9
TORSDOF 1
ENDMDL
MODEL 7
REMARK VINA RESULT:    -3.827      1.476      1.935
REMARK INTER + INTRA:          -4.254
REMARK INTER:                  -4.037
REMARK INTRA:                  -0.217
REMARK UNBOUND:                -0.203
REMARK SMILES C=C(C)[C@@H]1CC=C(C)C(=O)C1
REMARK SMILES IDX 8 1 7 2 6 3 5 4 4 5 11 6 9 7 10 8 2 9 1 10 3 11
REMARK H PARENT
REMARK Flexibility Score: inf
ROOT
ATOM      1  C   UNL     1       0.102  17.074  22.155  1.00  0.00     0.048 C 
ATOM      2  C   UNL     1       1.407  16.472  21.713  1.00  0.00    -0.012 C 
ATOM      3  C   UNL     1       2.263  15.994  22.629  1.00  0.00    -0.019 C 
ATOM      4  C   UNL     1       3.599  15.408  22.260  1.00  0.00     0.036 C 
ATOM      5  C   UNL     1       3.621  14.756  20.862  1.00  0.00     0.025 C 
ATOM      6  C   UNL     1       2.963  15.658  19.798  1.00  0.00     0.089 C 
ATOM      7  C   UNL     1       1.673  16.270  20.269  1.00  0.00     0.158 C 
ATOM      8  O   UNL     1       0.830  16.649  19.413  1.00  0.00    -0.295 OA
ENDROOT
BRANCH   5   9
ATOM      9  C   UNL     1       3.068  13.329  20.863  1.00  0.00    -0.077 C 
ATOM     10  C   UNL     1       3.162  12.524  21.935  1.00  0.00     0.008 C 
ATOM     11  C   UNL     1       2.390  12.787  19.629  1.00  0.00     0.039 C 
ENDBRANCH   5   9
TORSDOF 1
ENDMDL
MODEL 8
REMARK VINA RESULT:    -3.826      5.045      6.291
REMARK INTER + INTRA:          -4.253
REMARK INTER:                  -4.033
REMARK INTRA:                  -0.220
REMARK UNBOUND:                -0.203
REMARK SMILES C=C(C)[C@@H]1CC=C(C)C(=O)C1
REMARK SMILES IDX 8 1 7 2 6 3 5 4 4 5 11 6 9 7 10 8 2 9 1 10 3 11
REMARK H PARENT
REMARK Flexibility Score: inf
ROOT
ATOM      1  C   UNL     1       1.897  10.944  17.121  1.00  0.00     0.048 C 
ATOM      2  C   UNL     1       1.006  10.183  18.063  1.00  0.00    -0.012 C 
ATOM      3  C   UNL     1       0.961   8.843  18.001  1.00  0.00    -0.019 C 
ATOM      4  C   UNL     1       0.068   8.021  18.891  1.00  0.00     0.036 C 
ATOM      5  C   UNL     1      -0.209   8.676  20.260  1.00  0.00     0.025 C 
ATOM      6  C   UNL     1      -0.585  10.165  20.118  1.00  0.00     0.089 C 
ATOM      7  C   UNL     1       0.302  10.901  19.153  1.00  0.00     0.158 C 
ATOM      8  O   UNL     1       0.411  12.152  19.257  1.00  0.00    -0.295 OA
ENDROOT
BRANCH   5   9
ATOM      9  C   UNL     1       0.913   8.434  21.272  1.00  0.00    -0.077 C 
ATOM     10  C   UNL     1       1.153   9.277  22.291  1.00  0.00     0.008 C 
ATOM     11  C   UNL     1       1.792   7.215  21.141  1.00  0.00     0.039 C 
ENDBRANCH   5   9
TORSDOF 1
ENDMDL
MODEL 9
REMARK VINA RESULT:    -3.769      2.045      4.098
REMARK INTER + INTRA:          -4.192
REMARK INTER:                  -4.026
REMARK INTRA:                  -0.166
REMARK UNBOUND:                -0.203
REMARK SMILES C=C(C)[C@@H]1CC=C(C)C(=O)C1
REMARK SMILES IDX 8 1 7 2 6 3 5 4 4 5 11 6 9 7 10 8 2 9 1 10 3 11
REMARK H PARENT
REMARK Flexibility Score: inf
ROOT
ATOM      1  C   UNL     1       2.184  11.871  25.256  1.00  0.00     0.048 C 
ATOM      2  C   UNL     1       2.280  12.495  23.891  1.00  0.00    -0.012 C 
ATOM      3  C   UNL     1       1.185  12.573  23.117  1.00  0.00    -0.019 C 
ATOM      4  C   UNL     1       1.216  13.155  21.729  1.00  0.00     0.036 C 
ATOM      5  C   UNL     1       2.296  14.240  21.540  1.00  0.00     0.025 C 
ATOM      6  C   UNL     1       3.657  13.802  22.117  1.00  0.00     0.089 C 
ATOM      7  C   UNL     1       3.537  13.158  23.470  1.00  0.00     0.158 C 
ATOM      8  O   UNL     1       4.539  13.153  24.234  1.00  0.00    -0.295 OA
ENDROOT
BRANCH   5   9
ATOM      9  C   UNL     1       1.849  15.616  22.037  1.00  0.00    -0.077 C 
ATOM     10  C   UNL     1       2.644  16.402  22.785  1.00  0.00     0.008 C 
ATOM     11  C   UNL     1       0.474  16.130  21.689  1.00  0.00     0.039 C 
ENDBRANCH   5   9
TORSDOF 1
ENDMDL
