MODEL 1
REMARK VINA RESULT:    -5.501      0.000      0.000
REMARK INTER + INTRA:          -6.350
REMARK INTER:                  -6.304
REMARK INTRA:                  -0.046
REMARK UNBOUND:                -0.046
REMARK SMILES COc1cc(C(=O)[O-])ccc1O
REMARK SMILES IDX 5 1 9 2 4 3 10 4 3 5 11 6 6 7 7 8 8 9 2 10 1 11 12 12
REMARK H PARENT 12 13
REMARK Flexibility Score: inf
ROOT
ATOM      1  C   UNL     1     -12.880   1.627  -9.597  1.00  0.00     0.001 A 
ATOM      2  C   UNL     1     -14.028   1.020 -10.132  1.00  0.00     0.014 A 
ATOM      3  C   UNL     1     -11.672   0.907  -9.575  1.00  0.00     0.060 A 
ATOM      4  C   UNL     1     -13.969  -0.280 -10.635  1.00  0.00     0.051 A 
ATOM      5  C   UNL     1     -11.608  -0.406 -10.081  1.00  0.00     0.161 A 
ATOM      6  C   UNL     1     -12.768  -0.996 -10.613  1.00  0.00     0.157 A 
ENDROOT
BRANCH   1   7
ATOM      7  C   UNL     1     -12.938   3.007  -9.063  1.00  0.00     0.072 C 
ATOM      8  O   UNL     1     -13.914   3.382  -8.360  1.00  0.00    -0.545 OA
ATOM      9  O   UNL     1     -11.915   3.910  -9.329  1.00  0.00    -0.545 OA
ENDBRANCH   1   7
BRANCH   5  10
ATOM     10  O   UNL     1     -10.415  -1.149 -10.072  1.00  0.00    -0.493 OA
ATOM     11  C   UNL     1     -10.078  -2.126  -9.093  1.00  0.00     0.278 C 
ENDBRANCH   5  10
BRANCH   6  12
ATOM     12  O   UNL     1     -12.749  -2.293 -11.124  1.00  0.00    -0.504 OA
ATOM     13  H   UNL     1     -13.559  -2.714 -11.561  1.00  0.00     0.293 HD
ENDBRANCH   6  12
TORSDOF 3
ENDMDL
MODEL 2
REMARK VINA RESULT:    -5.232      1.505      2.588
REMARK INTER + INTRA:          -6.042
REMARK INTER:                  -5.941
REMARK INTRA:                  -0.101
REMARK UNBOUND:                -0.046
REMARK SMILES COc1cc(C(=O)[O-])ccc1O
REMARK SMILES IDX 5 1 9 2 4 3 10 4 3 5 11 6 6 7 7 8 8 9 2 10 1 11 12 12
REMARK H PARENT 12 13
REMARK Flexibility Score: inf
ROOT
ATOM      1  C   UNL     1     -12.907   0.633  -9.818  1.00  0.00     0.001 A 
ATOM      2  C   UNL     1     -11.524   0.429  -9.681  1.00  0.00     0.014 A 
ATOM      3  C   UNL     1     -13.725  -0.453 -10.177  1.00  0.00     0.060 A 
ATOM      4  C   UNL     1     -10.971  -0.834  -9.897  1.00  0.00     0.051 A 
ATOM      5  C   UNL     1     -13.172  -1.730 -10.397  1.00  0.00     0.161 A 
ATOM      6  C   UNL     1     -11.786  -1.913 -10.253  1.00  0.00     0.157 A 
ENDROOT
BRANCH   1   7
ATOM      7  C   UNL     1     -13.497   1.971  -9.589  1.00  0.00     0.072 C 
ATOM      8  O   UNL     1     -14.747   2.122  -9.547  1.00  0.00    -0.545 OA
ATOM      9  O   UNL     1     -12.680   3.082  -9.416  1.00  0.00    -0.545 OA
ENDBRANCH   1   7
BRANCH   5  10
ATOM     10  O   UNL     1     -13.966  -2.832 -10.756  1.00  0.00    -0.493 OA
ATOM     11  C   UNL     1     -14.653  -3.670  -9.833  1.00  0.00     0.278 C 
ENDBRANCH   5  10
BRANCH   6  12
ATOM     12  O   UNL     1     -11.197  -3.160 -10.462  1.00  0.00    -0.504 OA
ATOM     13  H   UNL     1     -11.505  -3.786 -11.195  1.00  0.00     0.293 HD
ENDBRANCH   6  12
TORSDOF 3
ENDMDL
MODEL 3
REMARK VINA RESULT:    -5.151     15.854     17.430
REMARK INTER + INTRA:          -5.950
REMARK INTER:                  -5.870
REMARK INTRA:                  -0.079
REMARK UNBOUND:                -0.046
REMARK SMILES COc1cc(C(=O)[O-])ccc1O
REMARK SMILES IDX 5 1 9 2 4 3 10 4 3 5 11 6 6 7 7 8 8 9 2 10 1 11 12 12
REMARK H PARENT 12 13
REMARK Flexibility Score: inf
ROOT
ATOM      1  C   UNL     1      -9.793   6.480   6.560  1.00  0.00     0.001 A 
ATOM      2  C   UNL     1      -9.710   5.784   7.777  1.00  0.00     0.014 A 
ATOM      3  C   UNL     1     -10.866   6.213   5.691  1.00  0.00     0.060 A 
ATOM      4  C   UNL     1     -10.679   4.839   8.118  1.00  0.00     0.051 A 
ATOM      5  C   UNL     1     -11.847   5.259   6.030  1.00  0.00     0.161 A 
ATOM      6  C   UNL     1     -11.745   4.573   7.253  1.00  0.00     0.157 A 
ENDROOT
BRANCH   1   7
ATOM      7  C   UNL     1      -8.768   7.484   6.195  1.00  0.00     0.072 C 
ATOM      8  O   UNL     1      -8.078   8.047   7.086  1.00  0.00    -0.545 OA
ATOM      9  O   UNL     1      -8.550   7.818   4.864  1.00  0.00    -0.545 OA
ENDBRANCH   1   7
BRANCH   5  10
ATOM     10  O   UNL     1     -12.929   4.971   5.181  1.00  0.00    -0.493 OA
ATOM     11  C   UNL     1     -13.194   5.640   3.953  1.00  0.00     0.278 C 
ENDBRANCH   5  10
BRANCH   6  12
ATOM     12  O   UNL     1     -12.694   3.622   7.628  1.00  0.00    -0.504 OA
ATOM     13  H   UNL     1     -13.129   3.624   8.542  1.00  0.00     0.293 HD
ENDBRANCH   6  12
TORSDOF 3
ENDMDL
MODEL 4
REMARK VINA RESULT:    -5.057      1.162      4.348
REMARK INTER + INTRA:          -5.842
REMARK INTER:                  -5.759
REMARK INTRA:                  -0.083
REMARK UNBOUND:                -0.046
REMARK SMILES COc1cc(C(=O)[O-])ccc1O
REMARK SMILES IDX 5 1 9 2 4 3 10 4 3 5 11 6 6 7 7 8 8 9 2 10 1 11 12 12
REMARK H PARENT 12 13
REMARK Flexibility Score: inf
ROOT
ATOM      1  C   UNL     1     -11.911  -0.289  -9.860  1.00  0.00     0.001 A 
ATOM      2  C   UNL     1     -13.244  -0.696 -10.025  1.00  0.00     0.014 A 
ATOM      3  C   UNL     1     -11.637   1.063  -9.589  1.00  0.00     0.060 A 
ATOM      4  C   UNL     1     -14.283   0.229  -9.921  1.00  0.00     0.051 A 
ATOM      5  C   UNL     1     -12.682   2.002  -9.482  1.00  0.00     0.161 A 
ATOM      6  C   UNL     1     -14.011   1.574  -9.651  1.00  0.00     0.157 A 
ENDROOT
BRANCH   1   7
ATOM      7  C   UNL     1     -10.806  -1.269  -9.970  1.00  0.00     0.072 C 
ATOM      8  O   UNL     1      -9.734  -0.962 -10.556  1.00  0.00    -0.545 OA
ATOM      9  O   UNL     1     -10.934  -2.541  -9.426  1.00  0.00    -0.545 OA
ENDBRANCH   1   7
BRANCH   5  10
ATOM     10  O   UNL     1     -12.438   3.359  -9.212  1.00  0.00    -0.493 OA
ATOM     11  C   UNL     1     -11.476   3.838  -8.279  1.00  0.00     0.278 C 
ENDBRANCH   5  10
BRANCH   6  12
ATOM     12  O   UNL     1     -15.075   2.470  -9.554  1.00  0.00    -0.504 OA
ATOM     13  H   UNL     1     -15.370   2.865  -8.670  1.00  0.00     0.293 HD
ENDBRANCH   6  12
TORSDOF 3
ENDMDL
MODEL 5
REMARK VINA RESULT:    -4.963     15.750     17.442
REMARK INTER + INTRA:          -5.734
REMARK INTER:                  -5.659
REMARK INTRA:                  -0.075
REMARK UNBOUND:                -0.046
REMARK SMILES COc1cc(C(=O)[O-])ccc1O
REMARK SMILES IDX 5 1 9 2 4 3 10 4 3 5 11 6 6 7 7 8 8 9 2 10 1 11 12 12
REMARK H PARENT 12 13
REMARK Flexibility Score: inf
ROOT
ATOM      1  C   UNL     1     -12.281   5.725   5.799  1.00  0.00     0.001 A 
ATOM      2  C   UNL     1     -12.528   4.937   6.935  1.00  0.00     0.014 A 
ATOM      3  C   UNL     1     -11.080   6.451   5.718  1.00  0.00     0.060 A 
ATOM      4  C   UNL     1     -11.593   4.876   7.968  1.00  0.00     0.051 A 
ATOM      5  C   UNL     1     -10.132   6.393   6.759  1.00  0.00     0.161 A 
ATOM      6  C   UNL     1     -10.398   5.598   7.888  1.00  0.00     0.157 A 
ENDROOT
BRANCH   1   7
ATOM      7  C   UNL     1     -13.271   5.791   4.700  1.00  0.00     0.072 C 
ATOM      8  O   UNL     1     -13.030   5.251   3.587  1.00  0.00    -0.545 OA
ATOM      9  O   UNL     1     -14.482   6.450   4.880  1.00  0.00    -0.545 OA
ENDBRANCH   1   7
BRANCH   5  10
ATOM     10  O   UNL     1      -8.924   7.108   6.705  1.00  0.00    -0.493 OA
ATOM     11  C   UNL     1      -8.713   8.284   5.932  1.00  0.00     0.278 C 
ENDBRANCH   5  10
BRANCH   6  12
ATOM     12  O   UNL     1      -9.488   5.513   8.941  1.00  0.00    -0.504 OA
ATOM     13  H   UNL     1      -9.569   4.815   9.670  1.00  0.00     0.293 HD
ENDBRANCH   6  12
TORSDOF 3
ENDMDL
MODEL 6
REMARK VINA RESULT:    -4.842      4.177      6.870
REMARK INTER + INTRA:          -5.595
REMARK INTER:                  -5.521
REMARK INTRA:                  -0.075
REMARK UNBOUND:                -0.046
REMARK SMILES COc1cc(C(=O)[O-])ccc1O
REMARK SMILES IDX 5 1 9 2 4 3 10 4 3 5 11 6 6 7 7 8 8 9 2 10 1 11 12 12
REMARK H PARENT 12 13
REMARK Flexibility Score: inf
ROOT
ATOM      1  C   UNL     1     -10.075  -4.834  -7.576  1.00  0.00     0.001 A 
ATOM      2  C   UNL     1      -8.748  -4.423  -7.787  1.00  0.00     0.014 A 
ATOM      3  C   UNL     1     -11.096  -4.286  -8.373  1.00  0.00     0.060 A 
ATOM      4  C   UNL     1      -8.449  -3.483  -8.775  1.00  0.00     0.051 A 
ATOM      5  C   UNL     1     -10.799  -3.335  -9.370  1.00  0.00     0.161 A 
ATOM      6  C   UNL     1      -9.465  -2.938  -9.566  1.00  0.00     0.157 A 
ENDROOT
BRANCH   1   7
ATOM      7  C   UNL     1     -10.396  -5.832  -6.531  1.00  0.00     0.072 C 
ATOM      8  O   UNL     1      -9.880  -6.981  -6.561  1.00  0.00    -0.545 OA
ATOM      9  O   UNL     1     -11.271  -5.515  -5.498  1.00  0.00    -0.545 OA
ENDBRANCH   1   7
BRANCH   5  10
ATOM     10  O   UNL     1     -11.799  -2.771 -10.180  1.00  0.00    -0.493 OA
ATOM     11  C   UNL     1     -13.196  -2.963  -9.992  1.00  0.00     0.278 C 
ENDBRANCH   5  10
BRANCH   6  12
ATOM     12  O   UNL     1      -9.127  -2.001 -10.542  1.00  0.00    -0.504 OA
ATOM     13  H   UNL     1      -9.636  -1.921 -11.413  1.00  0.00     0.293 HD
ENDBRANCH   6  12
TORSDOF 3
ENDMDL
MODEL 7
REMARK VINA RESULT:    -4.781      5.823      7.278
REMARK INTER + INTRA:          -5.525
REMARK INTER:                  -5.434
REMARK INTRA:                  -0.091
REMARK UNBOUND:                -0.046
REMARK SMILES COc1cc(C(=O)[O-])ccc1O
REMARK SMILES IDX 5 1 9 2 4 3 10 4 3 5 11 6 6 7 7 8 8 9 2 10 1 11 12 12
REMARK H PARENT 12 13
REMARK Flexibility Score: inf
ROOT
ATOM      1  C   UNL     1     -11.715  -5.969  -7.074  1.00  0.00     0.001 A 
ATOM      2  C   UNL     1     -12.607  -5.658  -8.113  1.00  0.00     0.014 A 
ATOM      3  C   UNL     1     -10.360  -5.616  -7.208  1.00  0.00     0.060 A 
ATOM      4  C   UNL     1     -12.154  -5.007  -9.261  1.00  0.00     0.051 A 
ATOM      5  C   UNL     1      -9.898  -4.959  -8.366  1.00  0.00     0.161 A 
ATOM      6  C   UNL     1     -10.808  -4.656  -9.394  1.00  0.00     0.157 A 
ENDROOT
BRANCH   1   7
ATOM      7  C   UNL     1     -12.191  -6.659  -5.854  1.00  0.00     0.072 C 
ATOM      8  O   UNL     1     -11.376  -7.227  -5.080  1.00  0.00    -0.545 OA
ATOM      9  O   UNL     1     -13.546  -6.689  -5.545  1.00  0.00    -0.545 OA
ENDBRANCH   1   7
BRANCH   5  10
ATOM     10  O   UNL     1      -8.550  -4.595  -8.526  1.00  0.00    -0.493 OA
ATOM     11  C   UNL     1      -7.993  -3.353  -8.111  1.00  0.00     0.278 C 
ENDBRANCH   5  10
BRANCH   6  12
ATOM     12  O   UNL     1     -10.392  -4.007 -10.556  1.00  0.00    -0.504 OA
ATOM     13  H   UNL     1     -10.775  -4.231 -11.466  1.00  0.00     0.293 HD
ENDBRANCH   6  12
TORSDOF 3
ENDMDL
MODEL 8
REMARK VINA RESULT:    -4.673      3.263      5.562
REMARK INTER + INTRA:          -5.402
REMARK INTER:                  -5.316
REMARK INTRA:                  -0.087
REMARK UNBOUND:                -0.046
REMARK SMILES COc1cc(C(=O)[O-])ccc1O
REMARK SMILES IDX 5 1 9 2 4 3 10 4 3 5 11 6 6 7 7 8 8 9 2 10 1 11 12 12
REMARK H PARENT 12 13
REMARK Flexibility Score: inf
ROOT
ATOM      1  C   UNL     1     -10.683  -2.722  -9.223  1.00  0.00     0.001 A 
ATOM      2  C   UNL     1      -9.872  -2.499  -8.099  1.00  0.00     0.014 A 
ATOM      3  C   UNL     1     -10.972  -4.044  -9.605  1.00  0.00     0.060 A 
ATOM      4  C   UNL     1      -9.360  -3.574  -7.372  1.00  0.00     0.051 A 
ATOM      5  C   UNL     1     -10.458  -5.134  -8.875  1.00  0.00     0.161 A 
ATOM      6  C   UNL     1      -9.648  -4.889  -7.752  1.00  0.00     0.157 A 
ENDROOT
BRANCH   1   7
ATOM      7  C   UNL     1     -11.228  -1.584  -9.996  1.00  0.00     0.072 C 
ATOM      8  O   UNL     1     -10.547  -0.537 -10.162  1.00  0.00    -0.545 OA
ATOM      9  O   UNL     1     -12.501  -1.653 -10.551  1.00  0.00    -0.545 OA
ENDBRANCH   1   7
BRANCH   5  10
ATOM     10  O   UNL     1     -10.730  -6.465  -9.235  1.00  0.00    -0.493 OA
ATOM     11  C   UNL     1     -12.029  -6.981  -9.502  1.00  0.00     0.278 C 
ENDBRANCH   5  10
BRANCH   6  12
ATOM     12  O   UNL     1      -9.118  -5.938  -7.002  1.00  0.00    -0.504 OA
ATOM     13  H   UNL     1      -9.704  -6.599  -6.508  1.00  0.00     0.293 HD
ENDBRANCH   6  12
TORSDOF 3
ENDMDL
MODEL 9
REMARK VINA RESULT:    -4.512      5.339      7.847
REMARK INTER + INTRA:          -5.217
REMARK INTER:                  -5.127
REMARK INTRA:                  -0.090
REMARK UNBOUND:                -0.046
REMARK SMILES COc1cc(C(=O)[O-])ccc1O
REMARK SMILES IDX 5 1 9 2 4 3 10 4 3 5 11 6 6 7 7 8 8 9 2 10 1 11 12 12
REMARK H PARENT 12 13
REMARK Flexibility Score: inf
ROOT
ATOM      1  C   UNL     1     -12.682  -6.283  -6.596  1.00  0.00     0.001 A 
ATOM      2  C   UNL     1     -11.667  -6.426  -5.636  1.00  0.00     0.014 A 
ATOM      3  C   UNL     1     -12.370  -5.707  -7.840  1.00  0.00     0.060 A 
ATOM      4  C   UNL     1     -10.367  -6.004  -5.915  1.00  0.00     0.051 A 
ATOM      5  C   UNL     1     -11.059  -5.278  -8.127  1.00  0.00     0.161 A 
ATOM      6  C   UNL     1     -10.057  -5.432  -7.153  1.00  0.00     0.157 A 
ENDROOT
BRANCH   1   7
ATOM      7  C   UNL     1     -14.063  -6.730  -6.304  1.00  0.00     0.072 C 
ATOM      8  O   UNL     1     -14.294  -7.503  -5.336  1.00  0.00    -0.545 OA
ATOM      9  O   UNL     1     -15.124  -6.304  -7.093  1.00  0.00    -0.545 OA
ENDBRANCH   1   7
BRANCH   5  10
ATOM     10  O   UNL     1     -10.719  -4.700  -9.362  1.00  0.00    -0.493 OA
ATOM     11  C   UNL     1     -10.778  -3.307  -9.646  1.00  0.00     0.278 C 
ENDBRANCH   5  10
BRANCH   6  12
ATOM     12  O   UNL     1      -8.747  -5.021  -7.395  1.00  0.00    -0.504 OA
ATOM     13  H   UNL     1      -8.317  -4.257  -6.887  1.00  0.00     0.293 HD
ENDBRANCH   6  12
TORSDOF 3
ENDMDL
