MODEL 1
REMARK VINA RESULT:    -2.790      0.000      0.000
REMARK INTER + INTRA:         -11.995
REMARK INTER:                  -7.029
REMARK INTRA:                  -4.965
REMARK UNBOUND:                -4.965
REMARK SMILES CCCCCCCCCCCCCCCCCCCCCCCCCCCC(=O)[O-]
REMARK SMILES IDX 15 1 16 2 17 3 18 4 19 5 20 6 21 7 22 8 23 9 24 10 25 11
REMARK SMILES IDX 26 12 27 13 28 14 29 15 30 16 14 17 13 18 12 19 11 20 10 21
REMARK SMILES IDX 9 22 8 23 7 24 6 25 5 26 4 27 3 28 2 29 1 30
REMARK H PARENT
REMARK Flexibility Score: inf
ROOT
ATOM      1  C   UNL     1     110.869  56.742 227.122  1.00  0.00     0.000 C 
ENDROOT
BRANCH   1   2
ATOM      2  C   UNL     1     110.906  56.016 225.772  1.00  0.00     0.000 C 
BRANCH   2   3
ATOM      3  C   UNL     1     110.107  54.705 225.834  1.00  0.00     0.000 C 
BRANCH   3   4
ATOM      4  C   UNL     1     111.000  53.458 225.725  1.00  0.00     0.000 C 
BRANCH   4   5
ATOM      5  C   UNL     1     112.485  53.747 225.431  1.00  0.00     0.000 C 
BRANCH   5   6
ATOM      6  C   UNL     1     113.452  53.216 226.512  1.00  0.00     0.000 C 
BRANCH   6   7
ATOM      7  C   UNL     1     112.914  53.434 227.937  1.00  0.00     0.000 C 
BRANCH   7   8
ATOM      8  C   UNL     1     113.479  54.703 228.596  1.00  0.00     0.000 C 
BRANCH   8   9
ATOM      9  C   UNL     1     113.471  54.626 230.133  1.00  0.00     0.000 C 
BRANCH   9  10
ATOM     10  C   UNL     1     112.629  53.453 230.659  1.00  0.00     0.000 C 
BRANCH  10  11
ATOM     11  C   UNL     1     112.906  53.149 232.141  1.00  0.00     0.000 C 
BRANCH  11  12
ATOM     12  C   UNL     1     111.736  53.542 233.064  1.00  0.00     0.006 C 
BRANCH  12  13
ATOM     13  C   UNL     1     110.353  53.409 232.407  1.00  0.00     0.053 C 
BRANCH  13  14
ATOM     14  C   UNL     1     109.533  52.311 233.013  1.00  0.00     0.041 C 
ATOM     15  O   UNL     1     109.655  51.127 232.599  1.00  0.00    -0.550 OA
ATOM     16  O   UNL     1     108.655  52.590 234.053  1.00  0.00    -0.550 OA
ENDBRANCH  13  14
ENDBRANCH  12  13
ENDBRANCH  11  12
ENDBRANCH  10  11
ENDBRANCH   9  10
ENDBRANCH   8   9
ENDBRANCH   7   8
ENDBRANCH   6   7
ENDBRANCH   5   6
ENDBRANCH   4   5
ENDBRANCH   3   4
ENDBRANCH   2   3
ENDBRANCH   1   2
BRANCH   1  17
ATOM     17  C   UNL     1     109.764  56.169 228.022  1.00  0.00     0.000 C 
BRANCH  17  18
ATOM     18  C   UNL     1     110.151  56.158 229.509  1.00  0.00     0.000 C 
BRANCH  18  19
ATOM     19  C   UNL     1     109.517  57.321 230.293  1.00  0.00     0.000 C 
BRANCH  19  20
ATOM     20  C   UNL     1     110.557  58.196 231.018  1.00  0.00     0.000 C 
BRANCH  20  21
ATOM     21  C   UNL     1     111.907  57.514 231.303  1.00  0.00     0.000 C 
BRANCH  21  22
ATOM     22  C   UNL     1     112.071  57.081 232.768  1.00  0.00    -0.000 C 
BRANCH  22  23
ATOM     23  C   UNL     1     111.016  57.755 233.658  1.00  0.00    -0.000 C 
BRANCH  23  24
ATOM     24  C   UNL     1     110.168  56.748 234.461  1.00  0.00    -0.000 C 
BRANCH  24  25
ATOM     25  C   UNL     1     108.818  56.391 233.810  1.00  0.00    -0.000 C 
BRANCH  25  26
ATOM     26  C   UNL     1     107.611  56.657 234.726  1.00  0.00    -0.000 C 
BRANCH  26  27
ATOM     27  C   UNL     1     106.675  57.731 234.146  1.00  0.00    -0.000 C 
BRANCH  27  28
ATOM     28  C   UNL     1     107.263  58.445 232.907  1.00  0.00    -0.000 C 
BRANCH  28  29
ATOM     29  C   UNL     1     107.918  59.797 233.233  1.00  0.00    -0.003 C 
ATOM     30  C   UNL     1     107.089  60.639 234.202  1.00  0.00     0.004 C 
ENDBRANCH  28  29
ENDBRANCH  27  28
ENDBRANCH  26  27
ENDBRANCH  25  26
ENDBRANCH  24  25
ENDBRANCH  23  24
ENDBRANCH  22  23
ENDBRANCH  21  22
ENDBRANCH  20  21
ENDBRANCH  19  20
ENDBRANCH  18  19
ENDBRANCH  17  18
ENDBRANCH   1  17
TORSDOF 26
ENDMDL
MODEL 2
REMARK VINA RESULT:    -2.777     13.021     16.321
REMARK INTER + INTRA:         -11.963
REMARK INTER:                  -6.621
REMARK INTRA:                  -5.342
REMARK UNBOUND:                -4.965
REMARK SMILES CCCCCCCCCCCCCCCCCCCCCCCCCCCC(=O)[O-]
REMARK SMILES IDX 15 1 16 2 17 3 18 4 19 5 20 6 21 7 22 8 23 9 24 10 25 11
REMARK SMILES IDX 26 12 27 13 28 14 29 15 30 16 14 17 13 18 12 19 11 20 10 21
REMARK SMILES IDX 9 22 8 23 7 24 6 25 5 26 4 27 3 28 2 29 1 30
REMARK H PARENT
REMARK Flexibility Score: inf
ROOT
ATOM      1  C   UNL     1      99.498  61.789 227.068  1.00  0.00     0.000 C 
ENDROOT
BRANCH   1   2
ATOM      2  C   UNL     1     100.442  60.998 226.155  1.00  0.00     0.000 C 
BRANCH   2   3
ATOM      3  C   UNL     1     101.568  61.897 225.620  1.00  0.00     0.000 C 
BRANCH   3   4
ATOM      4  C   UNL     1     101.286  62.424 224.203  1.00  0.00     0.000 C 
BRANCH   4   5
ATOM      5  C   UNL     1     100.932  63.921 224.125  1.00  0.00     0.000 C 
BRANCH   5   6
ATOM      6  C   UNL     1      99.416  64.203 224.041  1.00  0.00     0.000 C 
BRANCH   6   7
ATOM      7  C   UNL     1      99.062  65.636 224.476  1.00  0.00     0.000 C 
BRANCH   7   8
ATOM      8  C   UNL     1     100.286  66.566 224.503  1.00  0.00     0.000 C 
BRANCH   8   9
ATOM      9  C   UNL     1     100.422  67.327 225.833  1.00  0.00     0.000 C 
BRANCH   9  10
ATOM     10  C   UNL     1      99.662  66.647 226.981  1.00  0.00     0.000 C 
BRANCH  10  11
ATOM     11  C   UNL     1     100.605  66.097 228.066  1.00  0.00     0.000 C 
BRANCH  11  12
ATOM     12  C   UNL     1     101.470  64.923 227.572  1.00  0.00     0.006 C 
BRANCH  12  13
ATOM     13  C   UNL     1     102.983  65.172 227.684  1.00  0.00     0.053 C 
BRANCH  13  14
ATOM     14  C   UNL     1     103.639  65.334 226.347  1.00  0.00     0.041 C 
ATOM     15  O   UNL     1     104.063  64.325 225.723  1.00  0.00    -0.550 OA
ATOM     16  O   UNL     1     103.757  66.596 225.777  1.00  0.00    -0.550 OA
ENDBRANCH  13  14
ENDBRANCH  12  13
ENDBRANCH  11  12
ENDBRANCH  10  11
ENDBRANCH   9  10
ENDBRANCH   8   9
ENDBRANCH   7   8
ENDBRANCH   6   7
ENDBRANCH   5   6
ENDBRANCH   4   5
ENDBRANCH   3   4
ENDBRANCH   2   3
ENDBRANCH   1   2
BRANCH   1  17
ATOM     17  C   UNL     1      98.036  61.605 226.636  1.00  0.00     0.000 C 
BRANCH  17  18
ATOM     18  C   UNL     1      97.279  62.936 226.509  1.00  0.00     0.000 C 
BRANCH  18  19
ATOM     19  C   UNL     1      97.444  63.829 227.751  1.00  0.00     0.000 C 
BRANCH  19  20
ATOM     20  C   UNL     1      96.889  63.184 229.035  1.00  0.00     0.000 C 
BRANCH  20  21
ATOM     21  C   UNL     1      96.751  64.132 230.240  1.00  0.00     0.000 C 
BRANCH  21  22
ATOM     22  C   UNL     1      95.806  65.315 229.977  1.00  0.00    -0.000 C 
BRANCH  22  23
ATOM     23  C   UNL     1      96.560  66.649 230.074  1.00  0.00    -0.000 C 
BRANCH  23  24
ATOM     24  C   UNL     1      96.658  67.391 228.726  1.00  0.00    -0.000 C 
BRANCH  24  25
ATOM     25  C   UNL     1      95.569  67.007 227.707  1.00  0.00    -0.000 C 
BRANCH  25  26
ATOM     26  C   UNL     1      96.037  67.110 226.246  1.00  0.00    -0.000 C 
BRANCH  26  27
ATOM     27  C   UNL     1      95.490  65.960 225.383  1.00  0.00    -0.000 C 
BRANCH  27  28
ATOM     28  C   UNL     1      95.623  66.221 223.865  1.00  0.00    -0.000 C 
BRANCH  28  29
ATOM     29  C   UNL     1      95.563  64.941 223.015  1.00  0.00    -0.003 C 
ATOM     30  C   UNL     1      94.959  65.177 221.631  1.00  0.00     0.004 C 
ENDBRANCH  28  29
ENDBRANCH  27  28
ENDBRANCH  26  27
ENDBRANCH  25  26
ENDBRANCH  24  25
ENDBRANCH  23  24
ENDBRANCH  22  23
ENDBRANCH  21  22
ENDBRANCH  20  21
ENDBRANCH  19  20
ENDBRANCH  18  19
ENDBRANCH  17  18
ENDBRANCH   1  17
TORSDOF 26
ENDMDL
MODEL 3
REMARK VINA RESULT:    -2.753      1.863      3.722
REMARK INTER + INTRA:         -11.902
REMARK INTER:                  -6.641
REMARK INTRA:                  -5.261
REMARK UNBOUND:                -4.965
REMARK SMILES CCCCCCCCCCCCCCCCCCCCCCCCCCCC(=O)[O-]
REMARK SMILES IDX 15 1 16 2 17 3 18 4 19 5 20 6 21 7 22 8 23 9 24 10 25 11
REMARK SMILES IDX 26 12 27 13 28 14 29 15 30 16 14 17 13 18 12 19 11 20 10 21
REMARK SMILES IDX 9 22 8 23 7 24 6 25 5 26 4 27 3 28 2 29 1 30
REMARK H PARENT
REMARK Flexibility Score: inf
ROOT
ATOM      1  C   UNL     1     110.946  56.756 227.059  1.00  0.00     0.000 C 
ENDROOT
BRANCH   1   2
ATOM      2  C   UNL     1     110.891  55.982 225.736  1.00  0.00     0.000 C 
BRANCH   2   3
ATOM      3  C   UNL     1     110.159  54.643 225.915  1.00  0.00     0.000 C 
BRANCH   3   4
ATOM      4  C   UNL     1     111.091  53.430 225.758  1.00  0.00     0.000 C 
BRANCH   4   5
ATOM      5  C   UNL     1     112.555  53.775 225.425  1.00  0.00     0.000 C 
BRANCH   5   6
ATOM      6  C   UNL     1     113.568  53.301 226.490  1.00  0.00     0.000 C 
BRANCH   6   7
ATOM      7  C   UNL     1     113.037  53.480 227.923  1.00  0.00     0.000 C 
BRANCH   7   8
ATOM      8  C   UNL     1     113.492  54.802 228.563  1.00  0.00     0.000 C 
BRANCH   8   9
ATOM      9  C   UNL     1     113.548  54.728 230.098  1.00  0.00     0.000 C 
BRANCH   9  10
ATOM     10  C   UNL     1     112.677  53.598 230.666  1.00  0.00     0.000 C 
BRANCH  10  11
ATOM     11  C   UNL     1     112.889  53.392 232.175  1.00  0.00     0.000 C 
BRANCH  11  12
ATOM     12  C   UNL     1     111.732  53.947 233.027  1.00  0.00     0.006 C 
BRANCH  12  13
ATOM     13  C   UNL     1     110.338  53.671 232.440  1.00  0.00     0.053 C 
BRANCH  13  14
ATOM     14  C   UNL     1     109.666  52.497 233.085  1.00  0.00     0.041 C 
ATOM     15  O   UNL     1     109.806  51.343 232.601  1.00  0.00    -0.550 OA
ATOM     16  O   UNL     1     108.910  52.675 234.237  1.00  0.00    -0.550 OA
ENDBRANCH  13  14
ENDBRANCH  12  13
ENDBRANCH  11  12
ENDBRANCH  10  11
ENDBRANCH   9  10
ENDBRANCH   8   9
ENDBRANCH   7   8
ENDBRANCH   6   7
ENDBRANCH   5   6
ENDBRANCH   4   5
ENDBRANCH   3   4
ENDBRANCH   2   3
ENDBRANCH   1   2
BRANCH   1  17
ATOM     17  C   UNL     1     109.736  56.416 227.942  1.00  0.00     0.000 C 
BRANCH  17  18
ATOM     18  C   UNL     1     110.129  56.091 229.393  1.00  0.00     0.000 C 
BRANCH  18  19
ATOM     19  C   UNL     1     110.244  57.351 230.268  1.00  0.00     0.000 C 
BRANCH  19  20
ATOM     20  C   UNL     1     111.367  57.255 231.318  1.00  0.00     0.000 C 
BRANCH  20  21
ATOM     21  C   UNL     1     110.956  57.620 232.757  1.00  0.00     0.000 C 
BRANCH  21  22
ATOM     22  C   UNL     1     111.502  58.981 233.217  1.00  0.00    -0.000 C 
BRANCH  22  23
ATOM     23  C   UNL     1     112.527  59.526 232.212  1.00  0.00    -0.000 C 
BRANCH  23  24
ATOM     24  C   UNL     1     112.165  60.925 231.674  1.00  0.00    -0.000 C 
BRANCH  24  25
ATOM     25  C   UNL     1     110.916  60.957 230.773  1.00  0.00    -0.000 C 
BRANCH  25  26
ATOM     26  C   UNL     1     111.219  61.389 229.327  1.00  0.00    -0.000 C 
BRANCH  26  27
ATOM     27  C   UNL     1     111.533  60.186 228.421  1.00  0.00    -0.000 C 
BRANCH  27  28
ATOM     28  C   UNL     1     112.820  60.374 227.586  1.00  0.00    -0.000 C 
BRANCH  28  29
ATOM     29  C   UNL     1     113.728  59.133 227.571  1.00  0.00    -0.003 C 
ATOM     30  C   UNL     1     113.852  58.474 228.944  1.00  0.00     0.004 C 
ENDBRANCH  28  29
ENDBRANCH  27  28
ENDBRANCH  26  27
ENDBRANCH  25  26
ENDBRANCH  24  25
ENDBRANCH  23  24
ENDBRANCH  22  23
ENDBRANCH  21  22
ENDBRANCH  20  21
ENDBRANCH  19  20
ENDBRANCH  18  19
ENDBRANCH  17  18
ENDBRANCH   1  17
TORSDOF 26
ENDMDL
MODEL 4
REMARK VINA RESULT:    -2.731     12.384     15.790
REMARK INTER + INTRA:         -11.847
REMARK INTER:                  -5.837
REMARK INTRA:                  -6.009
REMARK UNBOUND:                -4.965
REMARK SMILES CCCCCCCCCCCCCCCCCCCCCCCCCCCC(=O)[O-]
REMARK SMILES IDX 15 1 16 2 17 3 18 4 19 5 20 6 21 7 22 8 23 9 24 10 25 11
REMARK SMILES IDX 26 12 27 13 28 14 29 15 30 16 14 17 13 18 12 19 11 20 10 21
REMARK SMILES IDX 9 22 8 23 7 24 6 25 5 26 4 27 3 28 2 29 1 30
REMARK H PARENT
REMARK Flexibility Score: inf
ROOT
ATOM      1  C   UNL     1      98.362  64.570 224.240  1.00  0.00     0.000 C 
ENDROOT
BRANCH   1   2
ATOM      2  C   UNL     1      98.459  65.834 225.103  1.00  0.00     0.000 C 
BRANCH   2   3
ATOM      3  C   UNL     1      99.583  65.702 226.142  1.00  0.00     0.000 C 
BRANCH   3   4
ATOM      4  C   UNL     1      99.060  65.324 227.539  1.00  0.00     0.000 C 
BRANCH   4   5
ATOM      5  C   UNL     1      99.305  63.860 227.950  1.00  0.00     0.000 C 
BRANCH   5   6
ATOM      6  C   UNL     1      98.128  62.913 227.627  1.00  0.00     0.000 C 
BRANCH   6   7
ATOM      7  C   UNL     1      98.538  61.775 226.675  1.00  0.00     0.000 C 
BRANCH   7   8
ATOM      8  C   UNL     1      99.731  60.962 227.202  1.00  0.00     0.000 C 
BRANCH   8   9
ATOM      9  C   UNL     1     100.974  61.085 226.304  1.00  0.00     0.000 C 
BRANCH   9  10
ATOM     10  C   UNL     1     100.729  61.977 225.078  1.00  0.00     0.000 C 
BRANCH  10  11
ATOM     11  C   UNL     1     102.034  62.542 224.491  1.00  0.00     0.000 C 
BRANCH  11  12
ATOM     12  C   UNL     1     103.061  62.928 225.571  1.00  0.00     0.006 C 
BRANCH  12  13
ATOM     13  C   UNL     1     102.918  64.371 226.081  1.00  0.00     0.053 C 
BRANCH  13  14
ATOM     14  C   UNL     1     102.907  64.453 227.577  1.00  0.00     0.041 C 
ATOM     15  O   UNL     1     102.836  65.573 228.149  1.00  0.00    -0.550 OA
ATOM     16  O   UNL     1     102.946  63.292 228.339  1.00  0.00    -0.550 OA
ENDBRANCH  13  14
ENDBRANCH  12  13
ENDBRANCH  11  12
ENDBRANCH  10  11
ENDBRANCH   9  10
ENDBRANCH   8   9
ENDBRANCH   7   8
ENDBRANCH   6   7
ENDBRANCH   5   6
ENDBRANCH   4   5
ENDBRANCH   3   4
ENDBRANCH   2   3
ENDBRANCH   1   2
BRANCH   1  17
ATOM     17  C   UNL     1      96.931  64.010 224.249  1.00  0.00     0.000 C 
BRANCH  17  18
ATOM     18  C   UNL     1      95.882  65.047 223.817  1.00  0.00     0.000 C 
BRANCH  18  19
ATOM     19  C   UNL     1      94.773  65.236 224.867  1.00  0.00     0.000 C 
BRANCH  19  20
ATOM     20  C   UNL     1      95.007  64.410 226.146  1.00  0.00     0.000 C 
BRANCH  20  21
ATOM     21  C   UNL     1      95.416  65.221 227.389  1.00  0.00     0.000 C 
BRANCH  21  22
ATOM     22  C   UNL     1      95.514  66.731 227.122  1.00  0.00    -0.000 C 
BRANCH  22  23
ATOM     23  C   UNL     1      95.988  67.479 228.377  1.00  0.00    -0.000 C 
BRANCH  23  24
ATOM     24  C   UNL     1      95.878  66.636 229.663  1.00  0.00    -0.000 C 
BRANCH  24  25
ATOM     25  C   UNL     1      97.165  66.592 230.508  1.00  0.00    -0.000 C 
BRANCH  25  26
ATOM     26  C   UNL     1      97.551  65.172 230.957  1.00  0.00    -0.000 C 
BRANCH  26  27
ATOM     27  C   UNL     1      96.377  64.186 230.822  1.00  0.00    -0.000 C 
BRANCH  27  28
ATOM     28  C   UNL     1      96.593  62.872 231.606  1.00  0.00    -0.000 C 
BRANCH  28  29
ATOM     29  C   UNL     1      97.135  61.723 230.739  1.00  0.00    -0.003 C 
ATOM     30  C   UNL     1      98.613  61.432 230.998  1.00  0.00     0.004 C 
ENDBRANCH  28  29
ENDBRANCH  27  28
ENDBRANCH  26  27
ENDBRANCH  25  26
ENDBRANCH  24  25
ENDBRANCH  23  24
ENDBRANCH  22  23
ENDBRANCH  21  22
ENDBRANCH  20  21
ENDBRANCH  19  20
ENDBRANCH  18  19
ENDBRANCH  17  18
ENDBRANCH   1  17
TORSDOF 26
ENDMDL
MODEL 5
REMARK VINA RESULT:    -2.729     12.400     15.445
REMARK INTER + INTRA:         -11.841
REMARK INTER:                  -6.090
REMARK INTRA:                  -5.751
REMARK UNBOUND:                -4.965
REMARK SMILES CCCCCCCCCCCCCCCCCCCCCCCCCCCC(=O)[O-]
REMARK SMILES IDX 15 1 16 2 17 3 18 4 19 5 20 6 21 7 22 8 23 9 24 10 25 11
REMARK SMILES IDX 26 12 27 13 28 14 29 15 30 16 14 17 13 18 12 19 11 20 10 21
REMARK SMILES IDX 9 22 8 23 7 24 6 25 5 26 4 27 3 28 2 29 1 30
REMARK H PARENT
REMARK Flexibility Score: inf
ROOT
ATOM      1  C   UNL     1      97.241  63.615 224.630  1.00  0.00     0.000 C 
ENDROOT
BRANCH   1   2
ATOM      2  C   UNL     1      98.416  64.397 225.232  1.00  0.00     0.000 C 
BRANCH   2   3
ATOM      3  C   UNL     1      98.994  65.387 224.210  1.00  0.00     0.000 C 
BRANCH   3   4
ATOM      4  C   UNL     1     100.463  65.093 223.862  1.00  0.00     0.000 C 
BRANCH   4   5
ATOM      5  C   UNL     1     100.846  63.601 223.871  1.00  0.00     0.000 C 
BRANCH   5   6
ATOM      6  C   UNL     1     102.231  63.313 224.492  1.00  0.00     0.000 C 
BRANCH   6   7
ATOM      7  C   UNL     1     102.343  61.875 225.030  1.00  0.00     0.000 C 
BRANCH   7   8
ATOM      8  C   UNL     1     101.006  61.119 224.983  1.00  0.00     0.000 C 
BRANCH   8   9
ATOM      9  C   UNL     1     100.591  60.566 226.357  1.00  0.00     0.000 C 
BRANCH   9  10
ATOM     10  C   UNL     1     100.827  61.572 227.493  1.00  0.00     0.000 C 
BRANCH  10  11
ATOM     11  C   UNL     1      99.628  61.668 228.453  1.00  0.00     0.000 C 
BRANCH  11  12
ATOM     12  C   UNL     1      98.276  61.749 227.720  1.00  0.00     0.006 C 
BRANCH  12  13
ATOM     13  C   UNL     1      97.324  60.585 228.038  1.00  0.00     0.053 C 
BRANCH  13  14
ATOM     14  C   UNL     1      96.689  60.714 229.389  1.00  0.00     0.041 C 
ATOM     15  O   UNL     1      96.659  61.831 229.970  1.00  0.00    -0.550 OA
ATOM     16  O   UNL     1      96.105  59.607 229.993  1.00  0.00    -0.550 OA
ENDBRANCH  13  14
ENDBRANCH  12  13
ENDBRANCH  11  12
ENDBRANCH  10  11
ENDBRANCH   9  10
ENDBRANCH   8   9
ENDBRANCH   7   8
ENDBRANCH   6   7
ENDBRANCH   5   6
ENDBRANCH   4   5
ENDBRANCH   3   4
ENDBRANCH   2   3
ENDBRANCH   1   2
BRANCH   1  17
ATOM     17  C   UNL     1      96.109  64.565 224.211  1.00  0.00     0.000 C 
BRANCH  17  18
ATOM     18  C   UNL     1      95.123  64.860 225.353  1.00  0.00     0.000 C 
BRANCH  18  19
ATOM     19  C   UNL     1      94.752  66.351 225.442  1.00  0.00     0.000 C 
BRANCH  19  20
ATOM     20  C   UNL     1      95.982  67.275 225.511  1.00  0.00     0.000 C 
BRANCH  20  21
ATOM     21  C   UNL     1      96.692  67.325 226.877  1.00  0.00     0.000 C 
BRANCH  21  22
ATOM     22  C   UNL     1      95.721  67.257 228.067  1.00  0.00    -0.000 C 
BRANCH  22  23
ATOM     23  C   UNL     1      96.019  66.034 228.946  1.00  0.00    -0.000 C 
BRANCH  23  24
ATOM     24  C   UNL     1      97.267  65.250 228.493  1.00  0.00    -0.000 C 
BRANCH  24  25
ATOM     25  C   UNL     1      98.288  64.975 229.613  1.00  0.00    -0.000 C 
BRANCH  25  26
ATOM     26  C   UNL     1      99.547  65.855 229.520  1.00  0.00    -0.000 C 
BRANCH  26  27
ATOM     27  C   UNL     1      99.938  66.148 228.061  1.00  0.00    -0.000 C 
BRANCH  27  28
ATOM     28  C   UNL     1     101.080  65.243 227.545  1.00  0.00    -0.000 C 
BRANCH  28  29
ATOM     29  C   UNL     1     102.107  64.875 228.629  1.00  0.00    -0.003 C 
ATOM     30  C   UNL     1     103.355  64.202 228.059  1.00  0.00     0.004 C 
ENDBRANCH  28  29
ENDBRANCH  27  28
ENDBRANCH  26  27
ENDBRANCH  25  26
ENDBRANCH  24  25
ENDBRANCH  23  24
ENDBRANCH  22  23
ENDBRANCH  21  22
ENDBRANCH  20  21
ENDBRANCH  19  20
ENDBRANCH  18  19
ENDBRANCH  17  18
ENDBRANCH   1  17
TORSDOF 26
ENDMDL
MODEL 6
REMARK VINA RESULT:    -2.716      3.247      6.292
REMARK INTER + INTRA:         -11.809
REMARK INTER:                  -7.348
REMARK INTRA:                  -4.461
REMARK UNBOUND:                -4.965
REMARK SMILES CCCCCCCCCCCCCCCCCCCCCCCCCCCC(=O)[O-]
REMARK SMILES IDX 15 1 16 2 17 3 18 4 19 5 20 6 21 7 22 8 23 9 24 10 25 11
REMARK SMILES IDX 26 12 27 13 28 14 29 15 30 16 14 17 13 18 12 19 11 20 10 21
REMARK SMILES IDX 9 22 8 23 7 24 6 25 5 26 4 27 3 28 2 29 1 30
REMARK H PARENT
REMARK Flexibility Score: inf
ROOT
ATOM      1  C   UNL     1     112.630  53.516 230.951  1.00  0.00     0.000 C 
ENDROOT
BRANCH   1   2
ATOM      2  C   UNL     1     113.356  54.784 230.487  1.00  0.00     0.000 C 
BRANCH   2   3
ATOM      3  C   UNL     1     113.506  54.801 228.958  1.00  0.00     0.000 C 
BRANCH   3   4
ATOM      4  C   UNL     1     113.005  53.505 228.297  1.00  0.00     0.000 C 
BRANCH   4   5
ATOM      5  C   UNL     1     113.490  53.285 226.851  1.00  0.00     0.000 C 
BRANCH   5   6
ATOM      6  C   UNL     1     113.539  54.575 226.003  1.00  0.00     0.000 C 
BRANCH   6   7
ATOM      7  C   UNL     1     112.361  54.672 225.018  1.00  0.00     0.000 C 
BRANCH   7   8
ATOM      8  C   UNL     1     111.127  55.350 225.636  1.00  0.00     0.000 C 
BRANCH   8   9
ATOM      9  C   UNL     1     109.924  54.398 225.749  1.00  0.00     0.000 C 
BRANCH   9  10
ATOM     10  C   UNL     1     110.282  52.950 225.384  1.00  0.00     0.000 C 
BRANCH  10  11
ATOM     11  C   UNL     1     109.246  52.306 224.446  1.00  0.00     0.000 C 
BRANCH  11  12
ATOM     12  C   UNL     1     107.955  53.135 224.316  1.00  0.00     0.006 C 
BRANCH  12  13
ATOM     13  C   UNL     1     107.022  52.663 223.190  1.00  0.00     0.053 C 
BRANCH  13  14
ATOM     14  C   UNL     1     105.587  53.008 223.450  1.00  0.00     0.041 C 
ATOM     15  O   UNL     1     105.295  53.966 224.214  1.00  0.00    -0.550 OA
ATOM     16  O   UNL     1     104.574  52.291 222.825  1.00  0.00    -0.550 OA
ENDBRANCH  13  14
ENDBRANCH  12  13
ENDBRANCH  11  12
ENDBRANCH  10  11
ENDBRANCH   9  10
ENDBRANCH   8   9
ENDBRANCH   7   8
ENDBRANCH   6   7
ENDBRANCH   5   6
ENDBRANCH   4   5
ENDBRANCH   3   4
ENDBRANCH   2   3
ENDBRANCH   1   2
BRANCH   1  17
ATOM     17  C   UNL     1     113.076  53.116 232.365  1.00  0.00     0.000 C 
BRANCH  17  18
ATOM     18  C   UNL     1     111.898  52.731 233.276  1.00  0.00     0.000 C 
BRANCH  18  19
ATOM     19  C   UNL     1     110.602  52.475 232.487  1.00  0.00     0.000 C 
BRANCH  19  20
ATOM     20  C   UNL     1     109.331  52.814 233.289  1.00  0.00     0.000 C 
BRANCH  20  21
ATOM     21  C   UNL     1     109.554  53.692 234.534  1.00  0.00     0.000 C 
BRANCH  21  22
ATOM     22  C   UNL     1     109.077  55.141 234.347  1.00  0.00    -0.000 C 
BRANCH  22  23
ATOM     23  C   UNL     1     110.260  56.118 234.415  1.00  0.00    -0.000 C 
BRANCH  23  24
ATOM     24  C   UNL     1     111.052  56.205 233.095  1.00  0.00    -0.000 C 
BRANCH  24  25
ATOM     25  C   UNL     1     110.270  56.828 231.923  1.00  0.00    -0.000 C 
BRANCH  25  26
ATOM     26  C   UNL     1     109.829  55.798 230.868  1.00  0.00    -0.000 C 
BRANCH  26  27
ATOM     27  C   UNL     1     110.112  56.284 229.436  1.00  0.00    -0.000 C 
BRANCH  27  28
ATOM     28  C   UNL     1     110.720  57.704 229.386  1.00  0.00    -0.000 C 
BRANCH  28  29
ATOM     29  C   UNL     1     111.129  58.145 227.970  1.00  0.00    -0.003 C 
ATOM     30  C   UNL     1     112.634  58.031 227.726  1.00  0.00     0.004 C 
ENDBRANCH  28  29
ENDBRANCH  27  28
ENDBRANCH  26  27
ENDBRANCH  25  26
ENDBRANCH  24  25
ENDBRANCH  23  24
ENDBRANCH  22  23
ENDBRANCH  21  22
ENDBRANCH  20  21
ENDBRANCH  19  20
ENDBRANCH  18  19
ENDBRANCH  17  18
ENDBRANCH   1  17
TORSDOF 26
ENDMDL
MODEL 7
REMARK VINA RESULT:    -2.644     12.630     15.904
REMARK INTER + INTRA:         -11.629
REMARK INTER:                  -5.716
REMARK INTRA:                  -5.913
REMARK UNBOUND:                -4.965
REMARK SMILES CCCCCCCCCCCCCCCCCCCCCCCCCCCC(=O)[O-]
REMARK SMILES IDX 15 1 16 2 17 3 18 4 19 5 20 6 21 7 22 8 23 9 24 10 25 11
REMARK SMILES IDX 26 12 27 13 28 14 29 15 30 16 14 17 13 18 12 19 11 20 10 21
REMARK SMILES IDX 9 22 8 23 7 24 6 25 5 26 4 27 3 28 2 29 1 30
REMARK H PARENT
REMARK Flexibility Score: inf
ROOT
ATOM      1  C   UNL     1      98.811  67.608 227.286  1.00  0.00     0.000 C 
ENDROOT
BRANCH   1   2
ATOM      2  C   UNL     1      98.246  67.277 225.899  1.00  0.00     0.000 C 
BRANCH   2   3
ATOM      3  C   UNL     1      99.244  66.435 225.088  1.00  0.00     0.000 C 
BRANCH   3   4
ATOM      4  C   UNL     1     100.593  66.259 225.804  1.00  0.00     0.000 C 
BRANCH   4   5
ATOM      5  C   UNL     1     101.331  64.945 225.485  1.00  0.00     0.000 C 
BRANCH   5   6
ATOM      6  C   UNL     1     100.486  63.930 224.683  1.00  0.00     0.000 C 
BRANCH   6   7
ATOM      7  C   UNL     1     100.976  62.484 224.871  1.00  0.00     0.000 C 
BRANCH   7   8
ATOM      8  C   UNL     1     100.053  61.660 225.783  1.00  0.00     0.000 C 
BRANCH   8   9
ATOM      9  C   UNL     1     100.825  60.898 226.874  1.00  0.00     0.000 C 
BRANCH   9  10
ATOM     10  C   UNL     1     101.214  61.796 228.057  1.00  0.00     0.000 C 
BRANCH  10  11
ATOM     11  C   UNL     1     100.799  61.197 229.412  1.00  0.00     0.000 C 
BRANCH  11  12
ATOM     12  C   UNL     1      99.741  60.086 229.279  1.00  0.00     0.006 C 
BRANCH  12  13
ATOM     13  C   UNL     1      98.315  60.537 229.634  1.00  0.00     0.053 C 
BRANCH  13  14
ATOM     14  C   UNL     1      97.323  59.416 229.563  1.00  0.00     0.041 C 
ATOM     15  O   UNL     1      97.662  58.300 229.086  1.00  0.00    -0.550 OA
ATOM     16  O   UNL     1      96.034  59.594 230.051  1.00  0.00    -0.550 OA
ENDBRANCH  13  14
ENDBRANCH  12  13
ENDBRANCH  11  12
ENDBRANCH  10  11
ENDBRANCH   9  10
ENDBRANCH   8   9
ENDBRANCH   7   8
ENDBRANCH   6   7
ENDBRANCH   5   6
ENDBRANCH   4   5
ENDBRANCH   3   4
ENDBRANCH   2   3
ENDBRANCH   1   2
BRANCH   1  17
ATOM     17  C   UNL     1      97.678  67.817 228.302  1.00  0.00     0.000 C 
BRANCH  17  18
ATOM     18  C   UNL     1      96.330  67.260 227.816  1.00  0.00     0.000 C 
BRANCH  18  19
ATOM     19  C   UNL     1      95.302  67.130 228.954  1.00  0.00     0.000 C 
BRANCH  19  20
ATOM     20  C   UNL     1      95.085  65.674 229.406  1.00  0.00     0.000 C 
BRANCH  20  21
ATOM     21  C   UNL     1      96.093  65.150 230.445  1.00  0.00     0.000 C 
BRANCH  21  22
ATOM     22  C   UNL     1      96.859  63.904 229.972  1.00  0.00    -0.000 C 
BRANCH  22  23
ATOM     23  C   UNL     1      98.228  64.291 229.394  1.00  0.00    -0.000 C 
BRANCH  23  24
ATOM     24  C   UNL     1      98.341  64.032 227.878  1.00  0.00    -0.000 C 
BRANCH  24  25
ATOM     25  C   UNL     1      97.110  63.346 227.256  1.00  0.00    -0.000 C 
BRANCH  25  26
ATOM     26  C   UNL     1      96.735  63.907 225.873  1.00  0.00    -0.000 C 
BRANCH  26  27
ATOM     27  C   UNL     1      95.282  64.411 225.832  1.00  0.00    -0.000 C 
BRANCH  27  28
ATOM     28  C   UNL     1      95.041  65.484 224.745  1.00  0.00    -0.000 C 
BRANCH  28  29
ATOM     29  C   UNL     1      95.872  65.262 223.471  1.00  0.00    -0.003 C 
ATOM     30  C   UNL     1      95.015  65.202 222.207  1.00  0.00     0.004 C 
ENDBRANCH  28  29
ENDBRANCH  27  28
ENDBRANCH  26  27
ENDBRANCH  25  26
ENDBRANCH  24  25
ENDBRANCH  23  24
ENDBRANCH  22  23
ENDBRANCH  21  22
ENDBRANCH  20  21
ENDBRANCH  19  20
ENDBRANCH  18  19
ENDBRANCH  17  18
ENDBRANCH   1  17
TORSDOF 26
ENDMDL
MODEL 8
REMARK VINA RESULT:    -2.643     11.921     15.099
REMARK INTER + INTRA:         -11.627
REMARK INTER:                  -5.889
REMARK INTRA:                  -5.738
REMARK UNBOUND:                -4.965
REMARK SMILES CCCCCCCCCCCCCCCCCCCCCCCCCCCC(=O)[O-]
REMARK SMILES IDX 15 1 16 2 17 3 18 4 19 5 20 6 21 7 22 8 23 9 24 10 25 11
REMARK SMILES IDX 26 12 27 13 28 14 29 15 30 16 14 17 13 18 12 19 11 20 10 21
REMARK SMILES IDX 9 22 8 23 7 24 6 25 5 26 4 27 3 28 2 29 1 30
REMARK H PARENT
REMARK Flexibility Score: inf
ROOT
ATOM      1  C   UNL     1      99.362  62.175 229.988  1.00  0.00     0.000 C 
ENDROOT
BRANCH   1   2
ATOM      2  C   UNL     1      98.128  61.535 230.634  1.00  0.00     0.000 C 
BRANCH   2   3
ATOM      3  C   UNL     1      97.928  60.098 230.128  1.00  0.00     0.000 C 
BRANCH   3   4
ATOM      4  C   UNL     1      96.870  60.000 229.016  1.00  0.00     0.000 C 
BRANCH   4   5
ATOM      5  C   UNL     1      97.294  59.171 227.788  1.00  0.00     0.000 C 
BRANCH   5   6
ATOM      6  C   UNL     1      98.816  58.929 227.689  1.00  0.00     0.000 C 
BRANCH   6   7
ATOM      7  C   UNL     1      99.185  57.990 226.528  1.00  0.00     0.000 C 
BRANCH   7   8
ATOM      8  C   UNL     1     100.484  58.405 225.819  1.00  0.00     0.000 C 
BRANCH   8   9
ATOM      9  C   UNL     1     101.115  59.668 226.432  1.00  0.00     0.000 C 
BRANCH   9  10
ATOM     10  C   UNL     1     102.006  60.424 225.435  1.00  0.00     0.000 C 
BRANCH  10  11
ATOM     11  C   UNL     1     101.210  61.414 224.567  1.00  0.00     0.000 C 
BRANCH  11  12
ATOM     12  C   UNL     1     101.942  62.752 224.356  1.00  0.00     0.006 C 
BRANCH  12  13
ATOM     13  C   UNL     1     103.269  62.864 225.124  1.00  0.00     0.053 C 
BRANCH  13  14
ATOM     14  C   UNL     1     103.286  64.019 226.078  1.00  0.00     0.041 C 
ATOM     15  O   UNL     1     103.933  65.062 225.798  1.00  0.00    -0.550 OA
ATOM     16  O   UNL     1     102.563  63.954 227.263  1.00  0.00    -0.550 OA
ENDBRANCH  13  14
ENDBRANCH  12  13
ENDBRANCH  11  12
ENDBRANCH  10  11
ENDBRANCH   9  10
ENDBRANCH   8   9
ENDBRANCH   7   8
ENDBRANCH   6   7
ENDBRANCH   5   6
ENDBRANCH   4   5
ENDBRANCH   3   4
ENDBRANCH   2   3
ENDBRANCH   1   2
BRANCH   1  17
ATOM     17  C   UNL     1      98.956  63.108 228.837  1.00  0.00     0.000 C 
BRANCH  17  18
ATOM     18  C   UNL     1      99.368  62.569 227.458  1.00  0.00     0.000 C 
BRANCH  18  19
ATOM     19  C   UNL     1      98.179  62.464 226.486  1.00  0.00     0.000 C 
BRANCH  19  20
ATOM     20  C   UNL     1      96.921  63.194 226.993  1.00  0.00     0.000 C 
BRANCH  20  21
ATOM     21  C   UNL     1      96.272  64.162 225.987  1.00  0.00     0.000 C 
BRANCH  21  22
ATOM     22  C   UNL     1      96.823  64.013 224.560  1.00  0.00    -0.000 C 
BRANCH  22  23
ATOM     23  C   UNL     1      97.602  65.268 224.140  1.00  0.00    -0.000 C 
BRANCH  23  24
ATOM     24  C   UNL     1      99.129  65.062 224.139  1.00  0.00    -0.000 C 
BRANCH  24  25
ATOM     25  C   UNL     1      99.915  66.116 224.941  1.00  0.00    -0.000 C 
BRANCH  25  26
ATOM     26  C   UNL     1      99.766  65.959 226.464  1.00  0.00    -0.000 C 
BRANCH  26  27
ATOM     27  C   UNL     1      98.939  67.101 227.082  1.00  0.00    -0.000 C 
BRANCH  27  28
ATOM     28  C   UNL     1      98.024  66.633 228.237  1.00  0.00    -0.000 C 
BRANCH  28  29
ATOM     29  C   UNL     1      96.569  67.110 228.098  1.00  0.00    -0.003 C 
ATOM     30  C   UNL     1      96.298  67.805 226.764  1.00  0.00     0.004 C 
ENDBRANCH  28  29
ENDBRANCH  27  28
ENDBRANCH  26  27
ENDBRANCH  25  26
ENDBRANCH  24  25
ENDBRANCH  23  24
ENDBRANCH  22  23
ENDBRANCH  21  22
ENDBRANCH  20  21
ENDBRANCH  19  20
ENDBRANCH  18  19
ENDBRANCH  17  18
ENDBRANCH   1  17
TORSDOF 26
ENDMDL
MODEL 9
REMARK VINA RESULT:    -2.616      2.883      6.713
REMARK INTER + INTRA:         -11.558
REMARK INTER:                  -6.079
REMARK INTRA:                  -5.479
REMARK UNBOUND:                -4.965
REMARK SMILES CCCCCCCCCCCCCCCCCCCCCCCCCCCC(=O)[O-]
REMARK SMILES IDX 15 1 16 2 17 3 18 4 19 5 20 6 21 7 22 8 23 9 24 10 25 11
REMARK SMILES IDX 26 12 27 13 28 14 29 15 30 16 14 17 13 18 12 19 11 20 10 21
REMARK SMILES IDX 9 22 8 23 7 24 6 25 5 26 4 27 3 28 2 29 1 30
REMARK H PARENT
REMARK Flexibility Score: inf
ROOT
ATOM      1  C   UNL     1     108.486  56.210 231.732  1.00  0.00     0.000 C 
ENDROOT
BRANCH   1   2
ATOM      2  C   UNL     1     108.297  55.271 232.929  1.00  0.00     0.000 C 
BRANCH   2   3
ATOM      3  C   UNL     1     109.614  54.561 233.281  1.00  0.00     0.000 C 
BRANCH   3   4
ATOM      4  C   UNL     1     109.480  53.029 233.289  1.00  0.00     0.000 C 
BRANCH   4   5
ATOM      5  C   UNL     1     110.566  52.278 232.496  1.00  0.00     0.000 C 
BRANCH   5   6
ATOM      6  C   UNL     1     111.594  53.204 231.809  1.00  0.00     0.000 C 
BRANCH   6   7
ATOM      7  C   UNL     1     113.044  52.836 232.168  1.00  0.00     0.000 C 
BRANCH   7   8
ATOM      8  C   UNL     1     113.912  54.069 232.466  1.00  0.00     0.000 C 
BRANCH   8   9
ATOM      9  C   UNL     1     113.172  55.125 233.305  1.00  0.00     0.000 C 
BRANCH   9  10
ATOM     10  C   UNL     1     113.523  56.561 232.888  1.00  0.00     0.000 C 
BRANCH  10  11
ATOM     11  C   UNL     1     112.596  57.604 233.535  1.00  0.00     0.000 C 
BRANCH  11  12
ATOM     12  C   UNL     1     112.760  59.011 232.929  1.00  0.00     0.006 C 
BRANCH  12  13
ATOM     13  C   UNL     1     112.764  59.032 231.392  1.00  0.00     0.053 C 
BRANCH  13  14
ATOM     14  C   UNL     1     111.744  59.974 230.828  1.00  0.00     0.041 C 
ATOM     15  O   UNL     1     112.036  60.710 229.848  1.00  0.00    -0.550 OA
ATOM     16  O   UNL     1     110.463  60.017 231.365  1.00  0.00    -0.550 OA
ENDBRANCH  13  14
ENDBRANCH  12  13
ENDBRANCH  11  12
ENDBRANCH  10  11
ENDBRANCH   9  10
ENDBRANCH   8   9
ENDBRANCH   7   8
ENDBRANCH   6   7
ENDBRANCH   5   6
ENDBRANCH   4   5
ENDBRANCH   3   4
ENDBRANCH   2   3
ENDBRANCH   1   2
BRANCH   1  17
ATOM     17  C   UNL     1     109.978  56.416 231.428  1.00  0.00     0.000 C 
BRANCH  17  18
ATOM     18  C   UNL     1     110.253  56.668 229.936  1.00  0.00     0.000 C 
BRANCH  18  19
ATOM     19  C   UNL     1     111.193  55.614 229.325  1.00  0.00     0.000 C 
BRANCH  19  20
ATOM     20  C   UNL     1     112.666  56.064 229.296  1.00  0.00     0.000 C 
BRANCH  20  21
ATOM     21  C   UNL     1     113.648  55.060 228.665  1.00  0.00     0.000 C 
BRANCH  21  22
ATOM     22  C   UNL     1     113.014  53.690 228.377  1.00  0.00    -0.000 C 
BRANCH  22  23
ATOM     23  C   UNL     1     113.413  53.185 226.983  1.00  0.00    -0.000 C 
BRANCH  23  24
ATOM     24  C   UNL     1     112.569  53.800 225.849  1.00  0.00    -0.000 C 
BRANCH  24  25
ATOM     25  C   UNL     1     111.059  53.518 225.955  1.00  0.00    -0.000 C 
BRANCH  25  26
ATOM     26  C   UNL     1     110.187  54.750 225.654  1.00  0.00    -0.000 C 
BRANCH  26  27
ATOM     27  C   UNL     1     111.012  56.048 225.635  1.00  0.00    -0.000 C 
BRANCH  27  28
ATOM     28  C   UNL     1     110.244  57.264 226.203  1.00  0.00    -0.000 C 
BRANCH  28  29
ATOM     29  C   UNL     1     108.722  57.175 226.003  1.00  0.00    -0.003 C 
ATOM     30  C   UNL     1     107.935  57.638 227.229  1.00  0.00     0.004 C 
ENDBRANCH  28  29
ENDBRANCH  27  28
ENDBRANCH  26  27
ENDBRANCH  25  26
ENDBRANCH  24  25
ENDBRANCH  23  24
ENDBRANCH  22  23
ENDBRANCH  21  22
ENDBRANCH  20  21
ENDBRANCH  19  20
ENDBRANCH  18  19
ENDBRANCH  17  18
ENDBRANCH   1  17
TORSDOF 26
ENDMDL
