MODEL 1
REMARK VINA RESULT:    -3.524      0.000      0.000
REMARK INTER + INTRA:          -4.461
REMARK INTER:                  -4.245
REMARK INTRA:                  -0.216
REMARK UNBOUND:                -0.216
REMARK SMILES OCC(O)CO
REMARK SMILES IDX 3 1 5 2 6 3 2 5 1 6 4 8
REMARK H PARENT 6 4 1 7 4 9
REMARK Flexibility Score: inf
ROOT
ATOM      1  C   UNL     1      -6.648  35.817  24.436  1.00  0.00     0.165 C 
ENDROOT
BRANCH   1   2
ATOM      2  C   UNL     1      -5.503  36.340  25.313  1.00  0.00     0.190 C 
BRANCH   2   3
ATOM      3  O   UNL     1      -5.923  36.463  26.645  1.00  0.00    -0.394 OA
ATOM      4  H   UNL     1      -5.810  35.565  27.053  1.00  0.00     0.210 HD
ENDBRANCH   2   3
ENDBRANCH   1   2
BRANCH   1   5
ATOM      5  C   UNL     1      -7.485  36.964  23.842  1.00  0.00     0.190 C 
BRANCH   5   6
ATOM      6  O   UNL     1      -7.962  37.814  24.851  1.00  0.00    -0.394 OA
ATOM      7  H   UNL     1      -7.173  38.298  25.211  1.00  0.00     0.210 HD
ENDBRANCH   5   6
ENDBRANCH   1   5
BRANCH   1   8
ATOM      8  O   UNL     1      -6.112  35.034  23.401  1.00  0.00    -0.388 OA
ATOM      9  H   UNL     1      -5.981  34.121  23.769  1.00  0.00     0.211 HD
ENDBRANCH   1   8
TORSDOF 5
ENDMDL
MODEL 2
REMARK VINA RESULT:    -3.380      1.572      1.991
REMARK INTER + INTRA:          -4.288
REMARK INTER:                  -4.067
REMARK INTRA:                  -0.220
REMARK UNBOUND:                -0.216
REMARK SMILES OCC(O)CO
REMARK SMILES IDX 3 1 5 2 6 3 2 5 1 6 4 8
REMARK H PARENT 6 4 1 7 4 9
REMARK Flexibility Score: inf
ROOT
ATOM      1  C   UNL     1      -7.136  35.994  24.471  1.00  0.00     0.165 C 
ENDROOT
BRANCH   1   2
ATOM      2  C   UNL     1      -7.051  37.302  25.269  1.00  0.00     0.190 C 
BRANCH   2   3
ATOM      3  O   UNL     1      -8.119  38.148  24.938  1.00  0.00    -0.394 OA
ATOM      4  H   UNL     1      -7.733  39.058  24.857  1.00  0.00     0.210 HD
ENDBRANCH   2   3
ENDBRANCH   1   2
BRANCH   1   5
ATOM      5  C   UNL     1      -8.346  35.979  23.520  1.00  0.00     0.190 C 
BRANCH   5   6
ATOM      6  O   UNL     1      -8.119  36.799  22.404  1.00  0.00    -0.394 OA
ATOM      7  H   UNL     1      -7.879  37.696  22.755  1.00  0.00     0.210 HD
ENDBRANCH   5   6
ENDBRANCH   1   5
BRANCH   1   8
ATOM      8  O   UNL     1      -5.951  35.828  23.736  1.00  0.00    -0.388 OA
ATOM      9  H   UNL     1      -6.062  36.339  22.892  1.00  0.00     0.211 HD
ENDBRANCH   1   8
TORSDOF 5
ENDMDL
MODEL 3
REMARK VINA RESULT:    -3.305      1.290      2.565
REMARK INTER + INTRA:          -4.197
REMARK INTER:                  -3.974
REMARK INTRA:                  -0.224
REMARK UNBOUND:                -0.216
REMARK SMILES OCC(O)CO
REMARK SMILES IDX 3 1 5 2 6 3 2 5 1 6 4 8
REMARK H PARENT 6 4 1 7 4 9
REMARK Flexibility Score: inf
ROOT
ATOM      1  C   UNL     1      -7.397  36.780  23.980  1.00  0.00     0.165 C 
ENDROOT
BRANCH   1   2
ATOM      2  C   UNL     1      -6.294  36.227  24.892  1.00  0.00     0.190 C 
BRANCH   2   3
ATOM      3  O   UNL     1      -5.534  35.264  24.213  1.00  0.00    -0.394 OA
ATOM      4  H   UNL     1      -5.558  34.448  24.777  1.00  0.00     0.210 HD
ENDBRANCH   2   3
ENDBRANCH   1   2
BRANCH   1   5
ATOM      5  C   UNL     1      -8.430  35.701  23.609  1.00  0.00     0.190 C 
BRANCH   5   6
ATOM      6  O   UNL     1      -7.947  34.875  22.582  1.00  0.00    -0.394 OA
ATOM      7  H   UNL     1      -7.308  34.242  23.003  1.00  0.00     0.210 HD
ENDBRANCH   5   6
ENDBRANCH   1   5
BRANCH   1   8
ATOM      8  O   UNL     1      -8.037  37.848  24.629  1.00  0.00    -0.388 OA
ATOM      9  H   UNL     1      -8.235  37.545  25.554  1.00  0.00     0.211 HD
ENDBRANCH   1   8
TORSDOF 5
ENDMDL
MODEL 4
REMARK VINA RESULT:    -3.284      1.738      3.445
REMARK INTER + INTRA:          -4.172
REMARK INTER:                  -3.952
REMARK INTRA:                  -0.220
REMARK UNBOUND:                -0.216
REMARK SMILES OCC(O)CO
REMARK SMILES IDX 3 1 5 2 6 3 2 5 1 6 4 8
REMARK H PARENT 6 4 1 7 4 9
REMARK Flexibility Score: inf
ROOT
ATOM      1  C   UNL     1      -7.843  36.573  23.919  1.00  0.00     0.165 C 
ENDROOT
BRANCH   1   2
ATOM      2  C   UNL     1      -8.781  35.478  23.395  1.00  0.00     0.190 C 
BRANCH   2   3
ATOM      3  O   UNL     1      -8.575  35.271  22.024  1.00  0.00    -0.394 OA
ATOM      4  H   UNL     1      -7.665  34.885  21.938  1.00  0.00     0.210 HD
ENDBRANCH   2   3
ENDBRANCH   1   2
BRANCH   1   5
ATOM      5  C   UNL     1      -6.512  35.993  24.430  1.00  0.00     0.190 C 
BRANCH   5   6
ATOM      6  O   UNL     1      -5.963  35.098  23.499  1.00  0.00    -0.394 OA
ATOM      7  H   UNL     1      -5.777  34.255  23.991  1.00  0.00     0.210 HD
ENDBRANCH   5   6
ENDBRANCH   1   5
BRANCH   1   8
ATOM      8  O   UNL     1      -7.595  37.496  22.890  1.00  0.00    -0.388 OA
ATOM      9  H   UNL     1      -8.184  37.246  22.132  1.00  0.00     0.211 HD
ENDBRANCH   1   8
TORSDOF 5
ENDMDL
MODEL 5
REMARK VINA RESULT:    -3.245      1.303      2.519
REMARK INTER + INTRA:          -4.125
REMARK INTER:                  -3.908
REMARK INTRA:                  -0.217
REMARK UNBOUND:                -0.216
REMARK SMILES OCC(O)CO
REMARK SMILES IDX 3 1 5 2 6 3 2 5 1 6 4 8
REMARK H PARENT 6 4 1 7 4 9
REMARK Flexibility Score: inf
ROOT
ATOM      1  C   UNL     1      -5.981  37.018  25.764  1.00  0.00     0.165 C 
ENDROOT
BRANCH   1   2
ATOM      2  C   UNL     1      -6.743  36.077  24.823  1.00  0.00     0.190 C 
BRANCH   2   3
ATOM      3  O   UNL     1      -6.531  36.443  23.487  1.00  0.00    -0.394 OA
ATOM      4  H   UNL     1      -6.451  35.595  22.978  1.00  0.00     0.210 HD
ENDBRANCH   2   3
ENDBRANCH   1   2
BRANCH   1   5
ATOM      5  C   UNL     1      -6.845  38.213  26.204  1.00  0.00     0.190 C 
BRANCH   5   6
ATOM      6  O   UNL     1      -7.931  38.396  25.334  1.00  0.00    -0.394 OA
ATOM      7  H   UNL     1      -7.801  39.279  24.899  1.00  0.00     0.210 HD
ENDBRANCH   5   6
ENDBRANCH   1   5
BRANCH   1   8
ATOM      8  O   UNL     1      -5.558  36.297  26.892  1.00  0.00    -0.388 OA
ATOM      9  H   UNL     1      -5.170  35.446  26.560  1.00  0.00     0.211 HD
ENDBRANCH   1   8
TORSDOF 5
ENDMDL
MODEL 6
REMARK VINA RESULT:    -3.215      1.620      2.168
REMARK INTER + INTRA:          -4.088
REMARK INTER:                  -4.085
REMARK INTRA:                  -0.003
REMARK UNBOUND:                -0.216
REMARK SMILES OCC(O)CO
REMARK SMILES IDX 3 1 5 2 6 3 2 5 1 6 4 8
REMARK H PARENT 6 4 1 7 4 9
REMARK Flexibility Score: inf
ROOT
ATOM      1  C   UNL     1      -7.693  36.719  24.105  1.00  0.00     0.165 C 
ENDROOT
BRANCH   1   2
ATOM      2  C   UNL     1      -7.021  35.350  23.942  1.00  0.00     0.190 C 
BRANCH   2   3
ATOM      3  O   UNL     1      -5.636  35.499  23.786  1.00  0.00    -0.394 OA
ATOM      4  H   UNL     1      -5.446  35.319  22.828  1.00  0.00     0.210 HD
ENDBRANCH   2   3
ENDBRANCH   1   2
BRANCH   1   5
ATOM      5  C   UNL     1      -7.135  37.491  25.314  1.00  0.00     0.190 C 
BRANCH   5   6
ATOM      6  O   UNL     1      -7.909  38.631  25.584  1.00  0.00    -0.394 OA
ATOM      7  H   UNL     1      -8.711  38.573  25.002  1.00  0.00     0.210 HD
ENDBRANCH   5   6
ENDBRANCH   1   5
BRANCH   1   8
ATOM      8  O   UNL     1      -7.500  37.468  22.933  1.00  0.00    -0.388 OA
ATOM      9  H   UNL     1      -7.915  36.954  22.192  1.00  0.00     0.211 HD
ENDBRANCH   1   8
TORSDOF 5
ENDMDL
MODEL 7
REMARK VINA RESULT:    -3.186     17.551     17.720
REMARK INTER + INTRA:          -4.054
REMARK INTER:                  -3.831
REMARK INTRA:                  -0.223
REMARK UNBOUND:                -0.216
REMARK SMILES OCC(O)CO
REMARK SMILES IDX 3 1 5 2 6 3 2 5 1 6 4 8
REMARK H PARENT 6 4 1 7 4 9
REMARK Flexibility Score: inf
ROOT
ATOM      1  C   UNL     1     -14.530  42.727  38.507  1.00  0.00     0.165 C 
ENDROOT
BRANCH   1   2
ATOM      2  C   UNL     1     -15.624  41.668  38.328  1.00  0.00     0.190 C 
BRANCH   2   3
ATOM      3  O   UNL     1     -16.683  41.903  39.216  1.00  0.00    -0.394 OA
ATOM      4  H   UNL     1     -17.268  42.573  38.776  1.00  0.00     0.210 HD
ENDBRANCH   2   3
ENDBRANCH   1   2
BRANCH   1   5
ATOM      5  C   UNL     1     -14.772  43.959  37.616  1.00  0.00     0.190 C 
BRANCH   5   6
ATOM      6  O   UNL     1     -16.106  44.385  37.700  1.00  0.00    -0.394 OA
ATOM      7  H   UNL     1     -16.344  44.388  38.664  1.00  0.00     0.210 HD
ENDBRANCH   5   6
ENDBRANCH   1   5
BRANCH   1   8
ATOM      8  O   UNL     1     -14.484  43.117  39.855  1.00  0.00    -0.388 OA
ATOM      9  H   UNL     1     -15.422  43.138  40.181  1.00  0.00     0.211 HD
ENDBRANCH   1   8
TORSDOF 5
ENDMDL
MODEL 8
REMARK VINA RESULT:    -3.181      2.091      3.951
REMARK INTER + INTRA:          -4.047
REMARK INTER:                  -3.824
REMARK INTRA:                  -0.224
REMARK UNBOUND:                -0.216
REMARK SMILES OCC(O)CO
REMARK SMILES IDX 3 1 5 2 6 3 2 5 1 6 4 8
REMARK H PARENT 6 4 1 7 4 9
REMARK Flexibility Score: inf
ROOT
ATOM      1  C   UNL     1      -4.917  36.710  26.601  1.00  0.00     0.165 C 
ENDROOT
BRANCH   1   2
ATOM      2  C   UNL     1      -5.825  36.463  25.389  1.00  0.00     0.190 C 
BRANCH   2   3
ATOM      3  O   UNL     1      -5.265  35.493  24.547  1.00  0.00    -0.394 OA
ATOM      4  H   UNL     1      -4.358  35.823  24.314  1.00  0.00     0.210 HD
ENDBRANCH   2   3
ENDBRANCH   1   2
BRANCH   1   5
ATOM      5  C   UNL     1      -3.478  36.229  26.347  1.00  0.00     0.190 C 
BRANCH   5   6
ATOM      6  O   UNL     1      -3.333  34.876  26.689  1.00  0.00    -0.394 OA
ATOM      7  H   UNL     1      -3.207  34.843  27.673  1.00  0.00     0.210 HD
ENDBRANCH   5   6
ENDBRANCH   1   5
BRANCH   1   8
ATOM      8  O   UNL     1      -4.914  38.082  26.900  1.00  0.00    -0.388 OA
ATOM      9  H   UNL     1      -4.008  38.300  27.244  1.00  0.00     0.211 HD
ENDBRANCH   1   8
TORSDOF 5
ENDMDL
MODEL 9
REMARK VINA RESULT:    -3.151     16.933     17.662
REMARK INTER + INTRA:          -4.012
REMARK INTER:                  -3.791
REMARK INTRA:                  -0.221
REMARK UNBOUND:                -0.216
REMARK SMILES OCC(O)CO
REMARK SMILES IDX 3 1 5 2 6 3 2 5 1 6 4 8
REMARK H PARENT 6 4 1 7 4 9
REMARK Flexibility Score: inf
ROOT
ATOM      1  C   UNL     1     -13.100  44.343  39.231  1.00  0.00     0.165 C 
ENDROOT
BRANCH   1   2
ATOM      2  C   UNL     1     -13.008  43.434  40.463  1.00  0.00     0.190 C 
BRANCH   2   3
ATOM      3  O   UNL     1     -11.931  43.815  41.275  1.00  0.00    -0.394 OA
ATOM      4  H   UNL     1     -12.329  44.196  42.100  1.00  0.00     0.210 HD
ENDBRANCH   2   3
ENDBRANCH   1   2
BRANCH   1   5
ATOM      5  C   UNL     1     -12.142  43.893  38.114  1.00  0.00     0.190 C 
BRANCH   5   6
ATOM      6  O   UNL     1     -10.804  44.032  38.512  1.00  0.00    -0.394 OA
ATOM      7  H   UNL     1     -10.570  43.207  39.013  1.00  0.00     0.210 HD
ENDBRANCH   5   6
ENDBRANCH   1   5
BRANCH   1   8
ATOM      8  O   UNL     1     -14.421  44.341  38.755  1.00  0.00    -0.388 OA
ATOM      9  H   UNL     1     -14.871  45.132  39.151  1.00  0.00     0.211 HD
ENDBRANCH   1   8
TORSDOF 5
ENDMDL
