MODEL 1
REMARK VINA RESULT:    -3.938      0.000      0.000
REMARK INTER + INTRA:          -5.197
REMARK INTER:                  -4.744
REMARK INTRA:                  -0.454
REMARK UNBOUND:                -0.454
REMARK SMILES NC(=O)C[C@@H]([NH3+])C(=O)[O-]
REMARK SMILES IDX 4 1 5 2 6 3 7 7 8 8 9 9 2 10 3 11 1 12
REMARK H PARENT 6 4 6 5 6 6 1 13 1 14
REMARK Flexibility Score: inf
ROOT
ATOM      1  C   UNL     1     159.900 151.175 167.920  1.00  0.00     0.171 C 
ENDROOT
BRANCH   1   2
ATOM      2  C   UNL     1     160.300 152.462 167.169  1.00  0.00     0.237 C 
BRANCH   2   3
ATOM      3  N   UNL     1     160.310 152.253 165.715  1.00  0.00    -0.350 N 
ATOM      4  H   UNL     1     161.290 152.324 165.354  1.00  0.00     0.345 HD
ATOM      5  H   UNL     1     159.716 152.966 165.233  1.00  0.00     0.345 HD
ATOM      6  H   UNL     1     159.955 151.297 165.487  1.00  0.00     0.345 HD
ENDBRANCH   2   3
BRANCH   2   7
ATOM      7  C   UNL     1     159.349 153.572 167.526  1.00  0.00     0.100 C 
ATOM      8  O   UNL     1     159.402 154.671 166.915  1.00  0.00    -0.544 OA
ATOM      9  O   UNL     1     158.419 153.397 168.544  1.00  0.00    -0.544 OA
ENDBRANCH   2   7
ENDBRANCH   1   2
BRANCH   1  10
ATOM     10  C   UNL     1     158.920 150.355 167.132  1.00  0.00     0.223 C 
ATOM     11  O   UNL     1     159.335 149.421 166.396  1.00  0.00    -0.275 OA
ATOM     12  N   UNL     1     157.524 150.647 167.185  1.00  0.00    -0.369 N 
ATOM     13  H   UNL     1     156.846 150.081 166.628  1.00  0.00     0.159 HD
ATOM     14  H   UNL     1     157.165 151.433 167.772  1.00  0.00     0.159 HD
ENDBRANCH   1  10
TORSDOF 4
ENDMDL
MODEL 2
REMARK VINA RESULT:    -3.932     20.455     21.816
REMARK INTER + INTRA:          -5.191
REMARK INTER:                  -4.736
REMARK INTRA:                  -0.455
REMARK UNBOUND:                -0.454
REMARK SMILES NC(=O)C[C@@H]([NH3+])C(=O)[O-]
REMARK SMILES IDX 4 1 5 2 6 3 7 7 8 8 9 9 2 10 3 11 1 12
REMARK H PARENT 6 4 6 5 6 6 1 13 1 14
REMARK Flexibility Score: inf
ROOT
ATOM      1  C   UNL     1     159.909 166.798 150.067  1.00  0.00     0.171 C 
ENDROOT
BRANCH   1   2
ATOM      2  C   UNL     1     160.297 165.508 150.817  1.00  0.00     0.237 C 
BRANCH   2   3
ATOM      3  N   UNL     1     160.298 165.713 152.272  1.00  0.00    -0.350 N 
ATOM      4  H   UNL     1     159.554 165.123 152.713  1.00  0.00     0.345 HD
ATOM      5  H   UNL     1     160.122 166.717 152.505  1.00  0.00     0.345 HD
ATOM      6  H   UNL     1     161.217 165.421 152.675  1.00  0.00     0.345 HD
ENDBRANCH   2   3
BRANCH   2   7
ATOM      7  C   UNL     1     159.342 164.403 150.452  1.00  0.00     0.100 C 
ATOM      8  O   UNL     1     159.382 163.304 151.063  1.00  0.00    -0.544 OA
ATOM      9  O   UNL     1     158.422 164.584 149.425  1.00  0.00    -0.544 OA
ENDBRANCH   2   7
ENDBRANCH   1   2
BRANCH   1  10
ATOM     10  C   UNL     1     158.934 167.625 150.852  1.00  0.00     0.223 C 
ATOM     11  O   UNL     1     159.354 168.556 151.590  1.00  0.00    -0.275 OA
ATOM     12  N   UNL     1     157.535 167.345 150.796  1.00  0.00    -0.369 N 
ATOM     13  H   UNL     1     156.861 167.916 151.352  1.00  0.00     0.159 HD
ATOM     14  H   UNL     1     157.171 166.562 150.209  1.00  0.00     0.159 HD
ENDBRANCH   1  10
TORSDOF 4
ENDMDL
MODEL 3
REMARK VINA RESULT:    -3.921     12.557     14.441
REMARK INTER + INTRA:          -5.178
REMARK INTER:                  -4.722
REMARK INTRA:                  -0.456
REMARK UNBOUND:                -0.454
REMARK SMILES NC(=O)C[C@@H]([NH3+])C(=O)[O-]
REMARK SMILES IDX 4 1 5 2 6 3 7 7 8 8 9 9 2 10 3 11 1 12
REMARK H PARENT 6 4 6 5 6 6 1 13 1 14
REMARK Flexibility Score: inf
ROOT
ATOM      1  C   UNL     1     158.105 166.760 167.925  1.00  0.00     0.171 C 
ENDROOT
BRANCH   1   2
ATOM      2  C   UNL     1     157.708 165.481 167.161  1.00  0.00     0.237 C 
BRANCH   2   3
ATOM      3  N   UNL     1     157.694 165.706 165.709  1.00  0.00    -0.350 N 
ATOM      4  H   UNL     1     156.854 165.245 165.287  1.00  0.00     0.345 HD
ATOM      5  H   UNL     1     158.557 165.317 165.264  1.00  0.00     0.345 HD
ATOM      6  H   UNL     1     157.632 166.729 165.505  1.00  0.00     0.345 HD
ENDBRANCH   2   3
BRANCH   2   7
ATOM      7  C   UNL     1     158.665 164.371 167.502  1.00  0.00     0.100 C 
ATOM      8  O   UNL     1     158.622 163.281 166.872  1.00  0.00    -0.544 OA
ATOM      9  O   UNL     1     159.591 164.534 168.526  1.00  0.00    -0.544 OA
ENDBRANCH   2   7
ENDBRANCH   1   2
BRANCH   1  10
ATOM     10  C   UNL     1     159.076 167.596 167.142  1.00  0.00     0.223 C 
ATOM     11  O   UNL     1     158.651 168.532 166.414  1.00  0.00    -0.275 OA
ATOM     12  N   UNL     1     160.475 167.317 167.191  1.00  0.00    -0.369 N 
ATOM     13  H   UNL     1     161.146 167.894 166.637  1.00  0.00     0.159 HD
ATOM     14  H   UNL     1     160.842 166.530 167.770  1.00  0.00     0.159 HD
ENDBRANCH   1  10
TORSDOF 4
ENDMDL
MODEL 4
REMARK VINA RESULT:    -3.915     15.986     16.513
REMARK INTER + INTRA:          -5.170
REMARK INTER:                  -4.718
REMARK INTRA:                  -0.451
REMARK UNBOUND:                -0.454
REMARK SMILES NC(=O)C[C@@H]([NH3+])C(=O)[O-]
REMARK SMILES IDX 4 1 5 2 6 3 7 7 8 8 9 9 2 10 3 11 1 12
REMARK H PARENT 6 4 6 5 6 6 1 13 1 14
REMARK Flexibility Score: inf
ROOT
ATOM      1  C   UNL     1     158.071 151.214 150.075  1.00  0.00     0.171 C 
ENDROOT
BRANCH   1   2
ATOM      2  C   UNL     1     157.679 152.499 150.831  1.00  0.00     0.237 C 
BRANCH   2   3
ATOM      3  N   UNL     1     157.693 152.291 152.285  1.00  0.00    -0.350 N 
ATOM      4  H   UNL     1     158.356 151.518 152.526  1.00  0.00     0.345 HD
ATOM      5  H   UNL     1     156.739 152.045 152.635  1.00  0.00     0.345 HD
ATOM      6  H   UNL     1     158.025 153.157 152.769  1.00  0.00     0.345 HD
ENDBRANCH   2   3
BRANCH   2   7
ATOM      7  C   UNL     1     158.621 153.613 150.459  1.00  0.00     0.100 C 
ATOM      8  O   UNL     1     158.593 154.702 151.089  1.00  0.00    -0.544 OA
ATOM      9  O   UNL     1     159.514 153.452 149.406  1.00  0.00    -0.544 OA
ENDBRANCH   2   7
ENDBRANCH   1   2
BRANCH   1  10
ATOM     10  C   UNL     1     159.041 150.381 150.861  1.00  0.00     0.223 C 
ATOM     11  O   UNL     1     158.616 149.445 151.589  1.00  0.00    -0.275 OA
ATOM     12  N   UNL     1     160.440 150.663 150.818  1.00  0.00    -0.369 N 
ATOM     13  H   UNL     1     161.111 150.088 151.374  1.00  0.00     0.159 HD
ATOM     14  H   UNL     1     160.808 151.450 150.238  1.00  0.00     0.159 HD
ENDBRANCH   1  10
TORSDOF 4
ENDMDL
MODEL 5
REMARK VINA RESULT:    -3.841     21.373     22.236
REMARK INTER + INTRA:          -5.080
REMARK INTER:                  -4.760
REMARK INTRA:                  -0.321
REMARK UNBOUND:                -0.454
REMARK SMILES NC(=O)C[C@@H]([NH3+])C(=O)[O-]
REMARK SMILES IDX 4 1 5 2 6 3 7 7 8 8 9 9 2 10 3 11 1 12
REMARK H PARENT 6 4 6 5 6 6 1 13 1 14
REMARK Flexibility Score: inf
ROOT
ATOM      1  C   UNL     1     160.285 167.416 150.262  1.00  0.00     0.171 C 
ENDROOT
BRANCH   1   2
ATOM      2  C   UNL     1     160.935 166.164 150.887  1.00  0.00     0.237 C 
BRANCH   2   3
ATOM      3  N   UNL     1     160.142 165.656 152.015  1.00  0.00    -0.350 N 
ATOM      4  H   UNL     1     159.145 165.534 151.721  1.00  0.00     0.345 HD
ATOM      5  H   UNL     1     160.182 166.317 152.825  1.00  0.00     0.345 HD
ATOM      6  H   UNL     1     160.502 164.721 152.315  1.00  0.00     0.345 HD
ENDBRANCH   2   3
BRANCH   2   7
ATOM      7  C   UNL     1     161.086 165.096 149.839  1.00  0.00     0.100 C 
ATOM      8  O   UNL     1     160.278 165.035 148.875  1.00  0.00    -0.544 OA
ATOM      9  O   UNL     1     162.107 164.158 149.937  1.00  0.00    -0.544 OA
ENDBRANCH   2   7
ENDBRANCH   1   2
BRANCH   1  10
ATOM     10  C   UNL     1     158.995 167.771 150.943  1.00  0.00     0.223 C 
ATOM     11  O   UNL     1     157.936 167.163 150.632  1.00  0.00    -0.275 OA
ATOM     12  N   UNL     1     158.952 168.815 151.915  1.00  0.00    -0.369 N 
ATOM     13  H   UNL     1     158.051 169.065 152.379  1.00  0.00     0.159 HD
ATOM     14  H   UNL     1     159.816 169.344 152.168  1.00  0.00     0.159 HD
ENDBRANCH   1  10
TORSDOF 4
ENDMDL
MODEL 6
REMARK VINA RESULT:    -3.815      1.216      1.605
REMARK INTER + INTRA:          -5.049
REMARK INTER:                  -4.705
REMARK INTRA:                  -0.344
REMARK UNBOUND:                -0.454
REMARK SMILES NC(=O)C[C@@H]([NH3+])C(=O)[O-]
REMARK SMILES IDX 4 1 5 2 6 3 7 7 8 8 9 9 2 10 3 11 1 12
REMARK H PARENT 6 4 6 5 6 6 1 13 1 14
REMARK Flexibility Score: inf
ROOT
ATOM      1  C   UNL     1     160.349 151.085 167.971  1.00  0.00     0.171 C 
ENDROOT
BRANCH   1   2
ATOM      2  C   UNL     1     160.561 152.383 167.166  1.00  0.00     0.237 C 
BRANCH   2   3
ATOM      3  N   UNL     1     160.155 152.216 165.763  1.00  0.00    -0.350 N 
ATOM      4  H   UNL     1     160.995 152.008 165.174  1.00  0.00     0.345 HD
ATOM      5  H   UNL     1     159.692 153.083 165.405  1.00  0.00     0.345 HD
ATOM      6  H   UNL     1     159.495 151.411 165.674  1.00  0.00     0.345 HD
ENDBRANCH   2   3
BRANCH   2   7
ATOM      7  C   UNL     1     159.784 153.505 167.799  1.00  0.00     0.100 C 
ATOM      8  O   UNL     1     159.321 153.376 168.963  1.00  0.00    -0.544 OA
ATOM      9  O   UNL     1     159.556 154.683 167.097  1.00  0.00    -0.544 OA
ENDBRANCH   2   7
ENDBRANCH   1   2
BRANCH   1  10
ATOM     10  C   UNL     1     159.356 150.176 167.307  1.00  0.00     0.223 C 
ATOM     11  O   UNL     1     158.162 150.551 167.164  1.00  0.00    -0.275 OA
ATOM     12  N   UNL     1     159.746 148.875 166.868  1.00  0.00    -0.369 N 
ATOM     13  H   UNL     1     159.050 148.241 166.416  1.00  0.00     0.159 HD
ATOM     14  H   UNL     1     160.726 148.538 167.000  1.00  0.00     0.159 HD
ENDBRANCH   1  10
TORSDOF 4
ENDMDL
MODEL 7
REMARK VINA RESULT:    -3.745     16.301     16.767
REMARK INTER + INTRA:          -4.965
REMARK INTER:                  -4.624
REMARK INTRA:                  -0.340
REMARK UNBOUND:                -0.454
REMARK SMILES NC(=O)C[C@@H]([NH3+])C(=O)[O-]
REMARK SMILES IDX 4 1 5 2 6 3 7 7 8 8 9 9 2 10 3 11 1 12
REMARK H PARENT 6 4 6 5 6 6 1 13 1 14
REMARK Flexibility Score: inf
ROOT
ATOM      1  C   UNL     1     157.318 151.004 150.116  1.00  0.00     0.171 C 
ENDROOT
BRANCH   1   2
ATOM      2  C   UNL     1     157.046 152.289 150.924  1.00  0.00     0.237 C 
BRANCH   2   3
ATOM      3  N   UNL     1     157.748 152.269 152.215  1.00  0.00    -0.350 N 
ATOM      4  H   UNL     1     158.364 151.425 152.270  1.00  0.00     0.345 HD
ATOM      5  H   UNL     1     157.067 152.248 153.008  1.00  0.00     0.345 HD
ATOM      6  H   UNL     1     158.356 153.115 152.306  1.00  0.00     0.345 HD
ENDBRANCH   2   3
BRANCH   2   7
ATOM      7  C   UNL     1     157.470 153.490 150.123  1.00  0.00     0.100 C 
ATOM      8  O   UNL     1     157.235 154.651 150.550  1.00  0.00    -0.544 OA
ATOM      9  O   UNL     1     158.108 153.326 148.900  1.00  0.00    -0.544 OA
ENDBRANCH   2   7
ENDBRANCH   1   2
BRANCH   1  10
ATOM     10  C   UNL     1     158.461 150.218 150.690  1.00  0.00     0.223 C 
ATOM     11  O   UNL     1     159.607 150.737 150.755  1.00  0.00    -0.275 OA
ATOM     12  N   UNL     1     158.267 148.875 151.133  1.00  0.00    -0.369 N 
ATOM     13  H   UNL     1     159.067 148.328 151.522  1.00  0.00     0.159 HD
ATOM     14  H   UNL     1     157.329 148.421 151.066  1.00  0.00     0.159 HD
ENDBRANCH   1  10
TORSDOF 4
ENDMDL
MODEL 8
REMARK VINA RESULT:    -3.659     13.021     14.708
REMARK INTER + INTRA:          -4.861
REMARK INTER:                  -4.606
REMARK INTRA:                  -0.255
REMARK UNBOUND:                -0.454
REMARK SMILES NC(=O)C[C@@H]([NH3+])C(=O)[O-]
REMARK SMILES IDX 4 1 5 2 6 3 7 7 8 8 9 9 2 10 3 11 1 12
REMARK H PARENT 6 4 6 5 6 6 1 13 1 14
REMARK Flexibility Score: inf
ROOT
ATOM      1  C   UNL     1     157.553 166.846 167.493  1.00  0.00     0.171 C 
ENDROOT
BRANCH   1   2
ATOM      2  C   UNL     1     157.558 165.594 166.593  1.00  0.00     0.237 C 
BRANCH   2   3
ATOM      3  N   UNL     1     158.571 164.623 167.031  1.00  0.00    -0.350 N 
ATOM      4  H   UNL     1     159.524 165.047 166.954  1.00  0.00     0.345 HD
ATOM      5  H   UNL     1     158.533 163.757 166.446  1.00  0.00     0.345 HD
ATOM      6  H   UNL     1     158.415 164.369 168.033  1.00  0.00     0.345 HD
ENDBRANCH   2   3
BRANCH   2   7
ATOM      7  C   UNL     1     156.194 164.958 166.604  1.00  0.00     0.100 C 
ATOM      8  O   UNL     1     155.256 165.461 165.932  1.00  0.00    -0.544 OA
ATOM      9  O   UNL     1     155.956 163.822 167.369  1.00  0.00    -0.544 OA
ENDBRANCH   2   7
ENDBRANCH   1   2
BRANCH   1  10
ATOM     10  C   UNL     1     158.708 167.754 167.187  1.00  0.00     0.223 C 
ATOM     11  O   UNL     1     159.886 167.313 167.252  1.00  0.00    -0.275 OA
ATOM     12  N   UNL     1     158.484 169.125 166.855  1.00  0.00    -0.369 N 
ATOM     13  H   UNL     1     159.291 169.756 166.652  1.00  0.00     0.159 HD
ATOM     14  H   UNL     1     157.516 169.514 166.819  1.00  0.00     0.159 HD
ENDBRANCH   1  10
TORSDOF 4
ENDMDL
MODEL 9
REMARK VINA RESULT:    -3.568     21.014     22.399
REMARK INTER + INTRA:          -4.752
REMARK INTER:                  -4.453
REMARK INTRA:                  -0.299
REMARK UNBOUND:                -0.454
REMARK SMILES NC(=O)C[C@@H]([NH3+])C(=O)[O-]
REMARK SMILES IDX 4 1 5 2 6 3 7 7 8 8 9 9 2 10 3 11 1 12
REMARK H PARENT 6 4 6 5 6 6 1 13 1 14
REMARK Flexibility Score: inf
ROOT
ATOM      1  C   UNL     1     160.915 166.567 149.583  1.00  0.00     0.171 C 
ENDROOT
BRANCH   1   2
ATOM      2  C   UNL     1     160.579 165.519 150.663  1.00  0.00     0.237 C 
BRANCH   2   3
ATOM      3  N   UNL     1     160.071 166.154 151.887  1.00  0.00    -0.350 N 
ATOM      4  H   UNL     1     159.706 167.110 151.664  1.00  0.00     0.345 HD
ATOM      5  H   UNL     1     160.827 166.235 152.605  1.00  0.00     0.345 HD
ATOM      6  H   UNL     1     159.280 165.595 152.280  1.00  0.00     0.345 HD
ENDBRANCH   2   3
BRANCH   2   7
ATOM      7  C   UNL     1     159.565 164.545 150.127  1.00  0.00     0.100 C 
ATOM      8  O   UNL     1     159.179 164.628 148.931  1.00  0.00    -0.544 OA
ATOM      9  O   UNL     1     159.034 163.561 150.952  1.00  0.00    -0.544 OA
ENDBRANCH   2   7
ENDBRANCH   1   2
BRANCH   1  10
ATOM     10  C   UNL     1     160.824 167.966 150.119  1.00  0.00     0.223 C 
ATOM     11  O   UNL     1     159.696 168.493 150.307  1.00  0.00    -0.275 OA
ATOM     12  N   UNL     1     162.009 168.717 150.387  1.00  0.00    -0.369 N 
ATOM     13  H   UNL     1     161.942 169.694 150.750  1.00  0.00     0.159 HD
ATOM     14  H   UNL     1     162.952 168.305 150.215  1.00  0.00     0.159 HD
ENDBRANCH   1  10
TORSDOF 4
ENDMDL
