MODEL 1
REMARK VINA RESULT:    -3.793      0.000      0.000
REMARK INTER + INTRA:          -3.904
REMARK INTER:                  -3.904
REMARK INTRA:                   0.000
REMARK UNBOUND:                 0.000
REMARK SMILES Nc1ncnc2nc[nH]c12
REMARK SMILES IDX 8 1 7 2 6 3 5 4 4 5 3 6 2 7 10 8 9 9 1 11
REMARK H PARENT 9 10 1 12 1 13
REMARK Flexibility Score: inf
ROOT
ATOM      1  C   UNL     1      39.804   1.292 105.522  1.00  0.00     0.199 A 
ATOM      2  N   UNL     1      40.606   0.966 104.471  1.00  0.00    -0.217 NA
ATOM      3  C   UNL     1      41.287   2.107 104.267  1.00  0.00     0.182 A 
ATOM      4  N   UNL     1      42.232   2.326 103.322  1.00  0.00    -0.215 NA
ATOM      5  C   UNL     1      42.817   3.560 103.269  1.00  0.00     0.226 A 
ATOM      6  N   UNL     1      42.450   4.543 104.153  1.00  0.00    -0.217 NA
ATOM      7  C   UNL     1      41.496   4.325 105.106  1.00  0.00     0.152 A 
ATOM      8  C   UNL     1      40.910   3.062 105.148  1.00  0.00     0.127 A 
ATOM      9  N   UNL     1      39.966   2.567 105.957  1.00  0.00    -0.340 N 
ATOM     10  H   UNL     1      39.465   3.040 106.742  1.00  0.00     0.168 HD
ENDROOT
BRANCH   7  11
ATOM     11  N   UNL     1      41.130   5.363 106.015  1.00  0.00    -0.382 N 
ATOM     12  H   UNL     1      41.003   6.349 105.692  1.00  0.00     0.158 HD
ATOM     13  H   UNL     1      40.985   5.146 107.026  1.00  0.00     0.158 HD
ENDBRANCH   7  11
TORSDOF 1
ENDMDL
MODEL 2
REMARK VINA RESULT:    -3.750      4.952      6.186
REMARK INTER + INTRA:          -3.860
REMARK INTER:                  -3.860
REMARK INTRA:                   0.000
REMARK UNBOUND:                 0.000
REMARK SMILES Nc1ncnc2nc[nH]c12
REMARK SMILES IDX 8 1 7 2 6 3 5 4 4 5 3 6 2 7 10 8 9 9 1 11
REMARK H PARENT 9 10 1 12 1 13
REMARK Flexibility Score: inf
ROOT
ATOM      1  C   UNL     1      47.576   6.875 104.576  1.00  0.00     0.199 A 
ATOM      2  N   UNL     1      47.612   5.681 103.923  1.00  0.00    -0.217 NA
ATOM      3  C   UNL     1      46.401   5.636 103.344  1.00  0.00     0.182 A 
ATOM      4  N   UNL     1      45.915   4.641 102.564  1.00  0.00    -0.215 NA
ATOM      5  C   UNL     1      44.651   4.774 102.062  1.00  0.00     0.226 A 
ATOM      6  N   UNL     1      43.902   5.888 102.347  1.00  0.00    -0.217 NA
ATOM      7  C   UNL     1      44.390   6.892 103.133  1.00  0.00     0.152 A 
ATOM      8  C   UNL     1      45.680   6.742 103.637  1.00  0.00     0.127 A 
ATOM      9  N   UNL     1      46.408   7.547 104.421  1.00  0.00    -0.340 N 
ATOM     10  H   UNL     1      46.149   8.475 104.824  1.00  0.00     0.168 HD
ENDROOT
BRANCH   7  11
ATOM     11  N   UNL     1      43.593   8.043 103.416  1.00  0.00    -0.382 N 
ATOM     12  H   UNL     1      43.834   8.981 103.025  1.00  0.00     0.158 HD
ATOM     13  H   UNL     1      42.749   7.957 104.025  1.00  0.00     0.158 HD
ENDBRANCH   7  11
TORSDOF 1
ENDMDL
MODEL 3
REMARK VINA RESULT:    -3.740      1.530      2.381
REMARK INTER + INTRA:          -3.849
REMARK INTER:                  -3.849
REMARK INTRA:                   0.000
REMARK UNBOUND:                 0.000
REMARK SMILES Nc1ncnc2nc[nH]c12
REMARK SMILES IDX 8 1 7 2 6 3 5 4 4 5 3 6 2 7 10 8 9 9 1 11
REMARK H PARENT 9 10 1 12 1 13
REMARK Flexibility Score: inf
ROOT
ATOM      1  C   UNL     1      40.899   3.093 102.195  1.00  0.00     0.199 A 
ATOM      2  N   UNL     1      41.214   1.935 102.838  1.00  0.00    -0.217 NA
ATOM      3  C   UNL     1      41.448   2.358 104.091  1.00  0.00     0.182 A 
ATOM      4  N   UNL     1      41.805   1.592 105.149  1.00  0.00    -0.215 NA
ATOM      5  C   UNL     1      42.001   2.207 106.354  1.00  0.00     0.226 A 
ATOM      6  N   UNL     1      41.838   3.564 106.478  1.00  0.00    -0.217 NA
ATOM      7  C   UNL     1      41.478   4.338 105.412  1.00  0.00     0.152 A 
ATOM      8  C   UNL     1      41.282   3.697 104.191  1.00  0.00     0.127 A 
ATOM      9  N   UNL     1      40.933   4.187 102.996  1.00  0.00    -0.340 N 
ATOM     10  H   UNL     1      40.730   5.177 102.730  1.00  0.00     0.168 HD
ENDROOT
BRANCH   7  11
ATOM     11  N   UNL     1      41.315   5.749 105.565  1.00  0.00    -0.382 N 
ATOM     12  H   UNL     1      42.094   6.353 105.910  1.00  0.00     0.158 HD
ATOM     13  H   UNL     1      40.402   6.197 105.330  1.00  0.00     0.158 HD
ENDBRANCH   7  11
TORSDOF 1
ENDMDL
MODEL 4
REMARK VINA RESULT:    -3.726     14.691     15.456
REMARK INTER + INTRA:          -3.835
REMARK INTER:                  -3.835
REMARK INTRA:                   0.000
REMARK UNBOUND:                 0.000
REMARK SMILES Nc1ncnc2nc[nH]c12
REMARK SMILES IDX 8 1 7 2 6 3 5 4 4 5 3 6 2 7 10 8 9 9 1 11
REMARK H PARENT 9 10 1 12 1 13
REMARK Flexibility Score: inf
ROOT
ATOM      1  C   UNL     1      33.666   5.506  89.549  1.00  0.00     0.199 A 
ATOM      2  N   UNL     1      33.856   4.198  89.875  1.00  0.00    -0.217 NA
ATOM      3  C   UNL     1      35.085   4.214  90.418  1.00  0.00     0.182 A 
ATOM      4  N   UNL     1      35.762   3.152  90.916  1.00  0.00    -0.215 NA
ATOM      5  C   UNL     1      37.010   3.367  91.431  1.00  0.00     0.226 A 
ATOM      6  N   UNL     1      37.552   4.628  91.439  1.00  0.00    -0.217 NA
ATOM      7  C   UNL     1      36.871   5.699  90.937  1.00  0.00     0.152 A 
ATOM      8  C   UNL     1      35.601   5.464  90.416  1.00  0.00     0.127 A 
ATOM      9  N   UNL     1      34.715   6.305  89.866  1.00  0.00    -0.340 N 
ATOM     10  H   UNL     1      34.801   7.334  89.713  1.00  0.00     0.168 HD
ENDROOT
BRANCH   7  11
ATOM     11  N   UNL     1      37.456   7.002  90.955  1.00  0.00    -0.382 N 
ATOM     12  H   UNL     1      37.901   7.386  91.818  1.00  0.00     0.158 HD
ATOM     13  H   UNL     1      37.444   7.592  90.094  1.00  0.00     0.158 HD
ENDBRANCH   7  11
TORSDOF 1
ENDMDL
MODEL 5
REMARK VINA RESULT:    -3.676      1.974      4.066
REMARK INTER + INTRA:          -3.783
REMARK INTER:                  -3.783
REMARK INTRA:                   0.000
REMARK UNBOUND:                 0.000
REMARK SMILES Nc1ncnc2nc[nH]c12
REMARK SMILES IDX 8 1 7 2 6 3 5 4 4 5 3 6 2 7 10 8 9 9 1 11
REMARK H PARENT 9 10 1 12 1 13
REMARK Flexibility Score: inf
ROOT
ATOM      1  C   UNL     1      44.254   5.227 102.182  1.00  0.00     0.199 A 
ATOM      2  N   UNL     1      44.594   4.555 103.316  1.00  0.00    -0.217 NA
ATOM      3  C   UNL     1      43.454   3.913 103.620  1.00  0.00     0.182 A 
ATOM      4  N   UNL     1      43.247   3.090 104.675  1.00  0.00    -0.215 NA
ATOM      5  C   UNL     1      42.011   2.525 104.820  1.00  0.00     0.226 A 
ATOM      6  N   UNL     1      41.014   2.790 103.915  1.00  0.00    -0.217 NA
ATOM      7  C   UNL     1      41.221   3.619 102.850  1.00  0.00     0.152 A 
ATOM      8  C   UNL     1      42.485   4.187 102.716  1.00  0.00     0.127 A 
ATOM      9  N   UNL     1      42.971   5.023 101.791  1.00  0.00    -0.340 N 
ATOM     10  H   UNL     1      42.487   5.429 100.959  1.00  0.00     0.168 HD
ENDROOT
BRANCH   7  11
ATOM     11  N   UNL     1      40.168   3.880 101.921  1.00  0.00    -0.382 N 
ATOM     12  H   UNL     1      40.341   4.409 101.037  1.00  0.00     0.158 HD
ATOM     13  H   UNL     1      39.201   3.541 102.119  1.00  0.00     0.158 HD
ENDBRANCH   7  11
TORSDOF 1
ENDMDL
MODEL 6
REMARK VINA RESULT:    -3.669     14.714     15.874
REMARK INTER + INTRA:          -3.777
REMARK INTER:                  -3.777
REMARK INTRA:                   0.000
REMARK UNBOUND:                 0.000
REMARK SMILES Nc1ncnc2nc[nH]c12
REMARK SMILES IDX 8 1 7 2 6 3 5 4 4 5 3 6 2 7 10 8 9 9 1 11
REMARK H PARENT 9 10 1 12 1 13
REMARK Flexibility Score: inf
ROOT
ATOM      1  C   UNL     1      42.097   1.542  88.223  1.00  0.00     0.199 A 
ATOM      2  N   UNL     1      41.288   0.892  89.105  1.00  0.00    -0.217 NA
ATOM      3  C   UNL     1      40.387   1.839  89.416  1.00  0.00     0.182 A 
ATOM      4  N   UNL     1      39.343   1.711  90.269  1.00  0.00    -0.215 NA
ATOM      5  C   UNL     1      38.529   2.793  90.459  1.00  0.00     0.226 A 
ATOM      6  N   UNL     1      38.772   3.971  89.800  1.00  0.00    -0.217 NA
ATOM      7  C   UNL     1      39.825   4.102  88.940  1.00  0.00     0.152 A 
ATOM      8  C   UNL     1      40.644   2.992  88.757  1.00  0.00     0.127 A 
ATOM      9  N   UNL     1      41.730   2.827  87.990  1.00  0.00    -0.340 N 
ATOM     10  H   UNL     1      42.193   3.517  87.358  1.00  0.00     0.168 HD
ENDROOT
BRANCH   7  11
ATOM     11  N   UNL     1      40.058   5.339  88.265  1.00  0.00    -0.382 N 
ATOM     12  H   UNL     1      40.829   5.981  88.556  1.00  0.00     0.158 HD
ATOM     13  H   UNL     1      39.452   5.619  87.463  1.00  0.00     0.158 HD
ENDBRANCH   7  11
TORSDOF 1
ENDMDL
MODEL 7
REMARK VINA RESULT:    -3.635     13.899     15.188
REMARK INTER + INTRA:          -3.741
REMARK INTER:                  -3.741
REMARK INTRA:                   0.000
REMARK UNBOUND:                 0.000
REMARK SMILES Nc1ncnc2nc[nH]c12
REMARK SMILES IDX 8 1 7 2 6 3 5 4 4 5 3 6 2 7 10 8 9 9 1 11
REMARK H PARENT 9 10 1 12 1 13
REMARK Flexibility Score: inf
ROOT
ATOM      1  C   UNL     1      41.266   2.838  91.922  1.00  0.00     0.199 A 
ATOM      2  N   UNL     1      40.992   1.633  91.349  1.00  0.00    -0.217 NA
ATOM      3  C   UNL     1      40.471   1.993  90.165  1.00  0.00     0.182 A 
ATOM      4  N   UNL     1      40.025   1.162  89.193  1.00  0.00    -0.215 NA
ATOM      5  C   UNL     1      39.524   1.718  88.048  1.00  0.00     0.226 A 
ATOM      6  N   UNL     1      39.478   3.081  87.899  1.00  0.00    -0.217 NA
ATOM      7  C   UNL     1      39.927   3.921  88.879  1.00  0.00     0.152 A 
ATOM      8  C   UNL     1      40.435   3.339  90.038  1.00  0.00     0.127 A 
ATOM      9  N   UNL     1      40.936   3.899  91.145  1.00  0.00    -0.340 N 
ATOM     10  H   UNL     1      41.051   4.913  91.370  1.00  0.00     0.168 HD
ENDROOT
BRANCH   7  11
ATOM     11  N   UNL     1      39.869   5.337  88.701  1.00  0.00    -0.382 N 
ATOM     12  H   UNL     1      38.992   5.873  88.884  1.00  0.00     0.158 HD
ATOM     13  H   UNL     1      40.715   5.858  88.380  1.00  0.00     0.158 HD
ENDBRANCH   7  11
TORSDOF 1
ENDMDL
MODEL 8
REMARK VINA RESULT:    -3.579      1.711      2.297
REMARK INTER + INTRA:          -3.684
REMARK INTER:                  -3.684
REMARK INTRA:                   0.000
REMARK UNBOUND:                 0.000
REMARK SMILES Nc1ncnc2nc[nH]c12
REMARK SMILES IDX 8 1 7 2 6 3 5 4 4 5 3 6 2 7 10 8 9 9 1 11
REMARK H PARENT 9 10 1 12 1 13
REMARK Flexibility Score: inf
ROOT
ATOM      1  C   UNL     1      40.872   2.868 106.210  1.00  0.00     0.199 A 
ATOM      2  N   UNL     1      42.232   2.909 106.194  1.00  0.00    -0.217 NA
ATOM      3  C   UNL     1      42.494   3.224 104.915  1.00  0.00     0.182 A 
ATOM      4  N   UNL     1      43.717   3.391 104.358  1.00  0.00    -0.215 NA
ATOM      5  C   UNL     1      43.783   3.712 103.030  1.00  0.00     0.226 A 
ATOM      6  N   UNL     1      42.636   3.858 102.292  1.00  0.00    -0.217 NA
ATOM      7  C   UNL     1      41.402   3.689 102.852  1.00  0.00     0.152 A 
ATOM      8  C   UNL     1      41.351   3.363 104.204  1.00  0.00     0.127 A 
ATOM      9  N   UNL     1      40.304   3.141 105.009  1.00  0.00    -0.340 N 
ATOM     10  H   UNL     1      39.286   3.169 104.777  1.00  0.00     0.168 HD
ENDROOT
BRANCH   7  11
ATOM     11  N   UNL     1      40.221   3.846 102.063  1.00  0.00    -0.382 N 
ATOM     12  H   UNL     1      39.471   3.120 102.055  1.00  0.00     0.158 HD
ATOM     13  H   UNL     1      40.095   4.701 101.477  1.00  0.00     0.158 HD
ENDBRANCH   7  11
TORSDOF 1
ENDMDL
MODEL 9
REMARK VINA RESULT:    -3.504     14.324     15.155
REMARK INTER + INTRA:          -3.607
REMARK INTER:                  -3.607
REMARK INTRA:                   0.000
REMARK UNBOUND:                 0.000
REMARK SMILES Nc1ncnc2nc[nH]c12
REMARK SMILES IDX 8 1 7 2 6 3 5 4 4 5 3 6 2 7 10 8 9 9 1 11
REMARK H PARENT 9 10 1 12 1 13
REMARK Flexibility Score: inf
ROOT
ATOM      1  C   UNL     1      38.096   3.485  91.527  1.00  0.00     0.199 A 
ATOM      2  N   UNL     1      37.037   2.707  91.169  1.00  0.00    -0.217 NA
ATOM      3  C   UNL     1      36.126   3.620  90.794  1.00  0.00     0.182 A 
ATOM      4  N   UNL     1      34.874   3.373  90.341  1.00  0.00    -0.215 NA
ATOM      5  C   UNL     1      34.087   4.440  90.006  1.00  0.00     0.226 A 
ATOM      6  N   UNL     1      34.562   5.721  90.128  1.00  0.00    -0.217 NA
ATOM      7  C   UNL     1      35.825   5.972  90.585  1.00  0.00     0.152 A 
ATOM      8  C   UNL     1      36.614   4.875  90.922  1.00  0.00     0.127 A 
ATOM      9  N   UNL     1      37.867   4.814  91.388  1.00  0.00    -0.340 N 
ATOM     10  H   UNL     1      38.524   5.599  91.598  1.00  0.00     0.168 HD
ENDROOT
BRANCH   7  11
ATOM     11  N   UNL     1      36.297   7.314  90.704  1.00  0.00    -0.382 N 
ATOM     12  H   UNL     1      37.213   7.530  91.158  1.00  0.00     0.158 HD
ATOM     13  H   UNL     1      35.724   8.105  90.334  1.00  0.00     0.158 HD
ENDBRANCH   7  11
TORSDOF 1
ENDMDL
