MODEL 1
REMARK VINA RESULT:    -3.617      0.000      0.000
REMARK INTER + INTRA:          -7.099
REMARK INTER:                  -5.731
REMARK INTRA:                  -1.368
REMARK UNBOUND:                -1.368
REMARK SMILES C=CCCCCCCCCCCC
REMARK SMILES IDX 7 1 8 2 9 3 10 4 11 5 12 6 13 7 6 8 5 9 4 10 3 11 2 12 1 13
REMARK H PARENT
REMARK Flexibility Score: inf
ROOT
ATOM      1  C   UNL     1     133.861 136.412 133.496  1.00  0.00     0.000 C 
ENDROOT
BRANCH   1   2
ATOM      2  C   UNL     1     133.822 137.891 133.940  1.00  0.00     0.000 C 
BRANCH   2   3
ATOM      3  C   UNL     1     132.603 138.197 134.831  1.00  0.00    -0.000 C 
BRANCH   3   4
ATOM      4  C   UNL     1     132.931 139.223 135.937  1.00  0.00    -0.000 C 
BRANCH   4   5
ATOM      5  C   UNL     1     133.794 140.399 135.451  1.00  0.00    -0.000 C 
BRANCH   5   6
ATOM      6  C   UNL     1     134.919 140.759 136.431  1.00  0.00    -0.003 C 
ATOM      7  C   UNL     1     134.917 139.824 137.638  1.00  0.00     0.004 C 
ENDBRANCH   5   6
ENDBRANCH   4   5
ENDBRANCH   3   4
ENDBRANCH   2   3
ENDBRANCH   1   2
BRANCH   1   8
ATOM      8  C   UNL     1     132.597 135.621 133.870  1.00  0.00     0.000 C 
BRANCH   8   9
ATOM      9  C   UNL     1     132.888 134.140 134.166  1.00  0.00     0.000 C 
BRANCH   9  10
ATOM     10  C   UNL     1     132.531 133.741 135.610  1.00  0.00     0.004 C 
BRANCH  10  11
ATOM     11  C   UNL     1     131.876 134.865 136.433  1.00  0.00     0.027 C 
BRANCH  11  12
ATOM     12  C   UNL     1     132.625 135.166 137.704  1.00  0.00    -0.035 C 
ATOM     13  C   UNL     1     133.597 136.081 137.748  1.00  0.00     0.004 C 
ENDBRANCH  11  12
ENDBRANCH  10  11
ENDBRANCH   9  10
ENDBRANCH   8   9
ENDBRANCH   1   8
TORSDOF 10
ENDMDL
MODEL 2
REMARK VINA RESULT:    -3.617      1.318      5.139
REMARK INTER + INTRA:          -7.099
REMARK INTER:                  -5.989
REMARK INTRA:                  -1.110
REMARK UNBOUND:                -1.368
REMARK SMILES C=CCCCCCCCCCCC
REMARK SMILES IDX 7 1 8 2 9 3 10 4 11 5 12 6 13 7 6 8 5 9 4 10 3 11 2 12 1 13
REMARK H PARENT
REMARK Flexibility Score: inf
ROOT
ATOM      1  C   UNL     1     132.813 139.457 135.702  1.00  0.00     0.000 C 
ENDROOT
BRANCH   1   2
ATOM      2  C   UNL     1     132.670 138.177 134.849  1.00  0.00     0.000 C 
BRANCH   2   3
ATOM      3  C   UNL     1     133.014 136.906 135.647  1.00  0.00    -0.000 C 
BRANCH   3   4
ATOM      4  C   UNL     1     132.056 135.738 135.327  1.00  0.00    -0.000 C 
BRANCH   4   5
ATOM      5  C   UNL     1     131.877 134.750 136.492  1.00  0.00    -0.000 C 
BRANCH   5   6
ATOM      6  C   UNL     1     132.979 133.684 136.544  1.00  0.00    -0.003 C 
ATOM      7  C   UNL     1     133.806 133.811 137.821  1.00  0.00     0.004 C 
ENDBRANCH   5   6
ENDBRANCH   4   5
ENDBRANCH   3   4
ENDBRANCH   2   3
ENDBRANCH   1   2
BRANCH   1   8
ATOM      8  C   UNL     1     133.986 140.355 135.277  1.00  0.00     0.000 C 
BRANCH   8   9
ATOM      9  C   UNL     1     134.872 140.776 136.461  1.00  0.00     0.000 C 
BRANCH   9  10
ATOM     10  C   UNL     1     135.416 139.573 137.254  1.00  0.00     0.004 C 
BRANCH  10  11
ATOM     11  C   UNL     1     135.054 139.586 138.750  1.00  0.00     0.027 C 
BRANCH  11  12
ATOM     12  C   UNL     1     133.857 138.730 139.065  1.00  0.00    -0.035 C 
ATOM     13  C   UNL     1     133.942 137.400 139.139  1.00  0.00     0.004 C 
ENDBRANCH  11  12
ENDBRANCH  10  11
ENDBRANCH   9  10
ENDBRANCH   8   9
ENDBRANCH   1   8
TORSDOF 10
ENDMDL
MODEL 3
REMARK VINA RESULT:    -3.596      1.436      5.594
REMARK INTER + INTRA:          -7.066
REMARK INTER:                  -6.292
REMARK INTRA:                  -0.774
REMARK UNBOUND:                -1.368
REMARK SMILES C=CCCCCCCCCCCC
REMARK SMILES IDX 7 1 8 2 9 3 10 4 11 5 12 6 13 7 6 8 5 9 4 10 3 11 2 12 1 13
REMARK H PARENT
REMARK Flexibility Score: inf
ROOT
ATOM      1  C   UNL     1     133.270 136.678 135.172  1.00  0.00     0.000 C 
ENDROOT
BRANCH   1   2
ATOM      2  C   UNL     1     132.955 135.981 136.513  1.00  0.00     0.000 C 
BRANCH   2   3
ATOM      3  C   UNL     1     131.871 134.897 136.363  1.00  0.00    -0.000 C 
BRANCH   3   4
ATOM      4  C   UNL     1     132.314 133.755 135.422  1.00  0.00    -0.000 C 
BRANCH   4   5
ATOM      5  C   UNL     1     133.488 132.926 135.969  1.00  0.00    -0.000 C 
BRANCH   5   6
ATOM      6  C   UNL     1     134.532 132.591 134.895  1.00  0.00    -0.003 C 
ATOM      7  C   UNL     1     135.941 132.578 135.484  1.00  0.00     0.004 C 
ENDBRANCH   5   6
ENDBRANCH   4   5
ENDBRANCH   3   4
ENDBRANCH   2   3
ENDBRANCH   1   2
BRANCH   1   8
ATOM      8  C   UNL     1     132.458 137.963 134.937  1.00  0.00     0.000 C 
BRANCH   8   9
ATOM      9  C   UNL     1     132.806 139.077 135.939  1.00  0.00     0.000 C 
BRANCH   9  10
ATOM     10  C   UNL     1     133.741 140.144 135.340  1.00  0.00     0.004 C 
BRANCH  10  11
ATOM     11  C   UNL     1     134.723 140.763 136.351  1.00  0.00     0.027 C 
BRANCH  11  12
ATOM     12  C   UNL     1     135.382 139.730 137.226  1.00  0.00    -0.035 C 
ATOM     13  C   UNL     1     135.202 139.708 138.549  1.00  0.00     0.004 C 
ENDBRANCH  11  12
ENDBRANCH  10  11
ENDBRANCH   9  10
ENDBRANCH   8   9
ENDBRANCH   1   8
TORSDOF 10
ENDMDL
MODEL 4
REMARK VINA RESULT:    -3.574      5.451      6.357
REMARK INTER + INTRA:          -7.031
REMARK INTER:                  -6.180
REMARK INTRA:                  -0.852
REMARK UNBOUND:                -1.368
REMARK SMILES C=CCCCCCCCCCCC
REMARK SMILES IDX 7 1 8 2 9 3 10 4 11 5 12 6 13 7 6 8 5 9 4 10 3 11 2 12 1 13
REMARK H PARENT
REMARK Flexibility Score: inf
ROOT
ATOM      1  C   UNL     1     139.005 134.481 136.778  1.00  0.00     0.000 C 
ENDROOT
BRANCH   1   2
ATOM      2  C   UNL     1     138.908 135.680 135.809  1.00  0.00     0.000 C 
BRANCH   2   3
ATOM      3  C   UNL     1     140.295 136.169 135.350  1.00  0.00    -0.000 C 
BRANCH   3   4
ATOM      4  C   UNL     1     140.708 137.485 136.043  1.00  0.00    -0.000 C 
BRANCH   4   5
ATOM      5  C   UNL     1     140.218 138.746 135.312  1.00  0.00    -0.000 C 
BRANCH   5   6
ATOM      6  C   UNL     1     139.446 139.705 136.228  1.00  0.00    -0.003 C 
ATOM      7  C   UNL     1     138.944 138.986 137.478  1.00  0.00     0.004 C 
ENDBRANCH   5   6
ENDBRANCH   4   5
ENDBRANCH   3   4
ENDBRANCH   2   3
ENDBRANCH   1   2
BRANCH   1   8
ATOM      8  C   UNL     1     139.748 133.270 136.191  1.00  0.00     0.000 C 
BRANCH   8   9
ATOM      9  C   UNL     1     138.846 132.386 135.313  1.00  0.00     0.000 C 
BRANCH   9  10
ATOM     10  C   UNL     1     137.586 131.902 136.055  1.00  0.00     0.004 C 
BRANCH  10  11
ATOM     11  C   UNL     1     136.263 132.276 135.363  1.00  0.00     0.027 C 
BRANCH  11  12
ATOM     12  C   UNL     1     136.408 132.416 133.871  1.00  0.00    -0.035 C 
ATOM     13  C   UNL     1     135.660 131.708 133.021  1.00  0.00     0.004 C 
ENDBRANCH  11  12
ENDBRANCH  10  11
ENDBRANCH   9  10
ENDBRANCH   8   9
ENDBRANCH   1   8
TORSDOF 10
ENDMDL
MODEL 5
REMARK VINA RESULT:    -3.571      1.425      2.873
REMARK INTER + INTRA:          -7.026
REMARK INTER:                  -5.889
REMARK INTRA:                  -1.137
REMARK UNBOUND:                -1.368
REMARK SMILES C=CCCCCCCCCCCC
REMARK SMILES IDX 7 1 8 2 9 3 10 4 11 5 12 6 13 7 6 8 5 9 4 10 3 11 2 12 1 13
REMARK H PARENT
REMARK Flexibility Score: inf
ROOT
ATOM      1  C   UNL     1     132.797 139.137 135.620  1.00  0.00     0.000 C 
ENDROOT
BRANCH   1   2
ATOM      2  C   UNL     1     133.649 138.670 136.821  1.00  0.00     0.000 C 
BRANCH   2   3
ATOM      3  C   UNL     1     134.626 139.761 137.298  1.00  0.00    -0.000 C 
BRANCH   3   4
ATOM      4  C   UNL     1     135.151 140.625 136.131  1.00  0.00    -0.000 C 
BRANCH   4   5
ATOM      5  C   UNL     1     136.496 140.142 135.562  1.00  0.00    -0.000 C 
BRANCH   5   6
ATOM      6  C   UNL     1     136.769 140.669 134.147  1.00  0.00    -0.003 C 
ATOM      7  C   UNL     1     135.672 140.239 133.178  1.00  0.00     0.004 C 
ENDBRANCH   5   6
ENDBRANCH   4   5
ENDBRANCH   3   4
ENDBRANCH   2   3
ENDBRANCH   1   2
BRANCH   1   8
ATOM      8  C   UNL     1     132.868 138.193 134.408  1.00  0.00     0.000 C 
BRANCH   8   9
ATOM      9  C   UNL     1     131.886 137.015 134.513  1.00  0.00     0.000 C 
BRANCH   9  10
ATOM     10  C   UNL     1     132.501 135.684 134.040  1.00  0.00     0.004 C 
BRANCH  10  11
ATOM     11  C   UNL     1     132.514 134.578 135.109  1.00  0.00     0.027 C 
BRANCH  11  12
ATOM     12  C   UNL     1     131.931 135.032 136.421  1.00  0.00    -0.035 C 
ATOM     13  C   UNL     1     132.644 135.024 137.549  1.00  0.00     0.004 C 
ENDBRANCH  11  12
ENDBRANCH  10  11
ENDBRANCH   9  10
ENDBRANCH   8   9
ENDBRANCH   1   8
TORSDOF 10
ENDMDL
MODEL 6
REMARK VINA RESULT:    -3.560      1.572      2.648
REMARK INTER + INTRA:          -7.009
REMARK INTER:                  -5.888
REMARK INTRA:                  -1.121
REMARK UNBOUND:                -1.368
REMARK SMILES C=CCCCCCCCCCCC
REMARK SMILES IDX 7 1 8 2 9 3 10 4 11 5 12 6 13 7 6 8 5 9 4 10 3 11 2 12 1 13
REMARK H PARENT
REMARK Flexibility Score: inf
ROOT
ATOM      1  C   UNL     1     132.204 135.737 135.049  1.00  0.00     0.000 C 
ENDROOT
BRANCH   1   2
ATOM      2  C   UNL     1     133.160 136.892 135.419  1.00  0.00     0.000 C 
BRANCH   2   3
ATOM      3  C   UNL     1     132.602 138.264 134.997  1.00  0.00    -0.000 C 
BRANCH   3   4
ATOM      4  C   UNL     1     132.714 139.313 136.125  1.00  0.00    -0.000 C 
BRANCH   4   5
ATOM      5  C   UNL     1     133.641 138.884 137.275  1.00  0.00    -0.000 C 
BRANCH   5   6
ATOM      6  C   UNL     1     134.899 139.756 137.383  1.00  0.00    -0.003 C 
ATOM      7  C   UNL     1     134.835 140.937 136.417  1.00  0.00     0.004 C 
ENDBRANCH   5   6
ENDBRANCH   4   5
ENDBRANCH   3   4
ENDBRANCH   2   3
ENDBRANCH   1   2
BRANCH   1   8
ATOM      8  C   UNL     1     131.721 134.923 136.262  1.00  0.00     0.000 C 
BRANCH   8   9
ATOM      9  C   UNL     1     132.728 134.934 137.424  1.00  0.00     0.000 C 
BRANCH   9  10
ATOM     10  C   UNL     1     133.599 133.664 137.468  1.00  0.00     0.004 C 
BRANCH  10  11
ATOM     11  C   UNL     1     135.011 133.847 136.884  1.00  0.00     0.027 C 
BRANCH  11  12
ATOM     12  C   UNL     1     135.072 133.551 135.409  1.00  0.00    -0.035 C 
ATOM     13  C   UNL     1     134.872 132.321 134.928  1.00  0.00     0.004 C 
ENDBRANCH  11  12
ENDBRANCH  10  11
ENDBRANCH   9  10
ENDBRANCH   8   9
ENDBRANCH   1   8
TORSDOF 10
ENDMDL
MODEL 7
REMARK VINA RESULT:    -3.541      1.242      2.972
REMARK INTER + INTRA:          -6.979
REMARK INTER:                  -5.810
REMARK INTRA:                  -1.168
REMARK UNBOUND:                -1.368
REMARK SMILES C=CCCCCCCCCCCC
REMARK SMILES IDX 7 1 8 2 9 3 10 4 11 5 12 6 13 7 6 8 5 9 4 10 3 11 2 12 1 13
REMARK H PARENT
REMARK Flexibility Score: inf
ROOT
ATOM      1  C   UNL     1     132.887 139.331 135.874  1.00  0.00     0.000 C 
ENDROOT
BRANCH   1   2
ATOM      2  C   UNL     1     133.874 140.367 135.293  1.00  0.00     0.000 C 
BRANCH   2   3
ATOM      3  C   UNL     1     134.937 140.797 136.321  1.00  0.00    -0.000 C 
BRANCH   3   4
ATOM      4  C   UNL     1     134.934 139.896 137.575  1.00  0.00    -0.000 C 
BRANCH   4   5
ATOM      5  C   UNL     1     136.046 138.835 137.575  1.00  0.00    -0.000 C 
BRANCH   5   6
ATOM      6  C   UNL     1     135.565 137.466 138.075  1.00  0.00    -0.003 C 
ATOM      7  C   UNL     1     134.236 137.587 138.816  1.00  0.00     0.004 C 
ENDBRANCH   5   6
ENDBRANCH   4   5
ENDBRANCH   3   4
ENDBRANCH   2   3
ENDBRANCH   1   2
BRANCH   1   8
ATOM      8  C   UNL     1     132.539 138.194 134.899  1.00  0.00     0.000 C 
BRANCH   8   9
ATOM      9  C   UNL     1     133.099 136.834 135.346  1.00  0.00     0.000 C 
BRANCH   9  10
ATOM     10  C   UNL     1     132.063 135.699 135.238  1.00  0.00     0.004 C 
BRANCH  10  11
ATOM     11  C   UNL     1     131.895 134.871 136.524  1.00  0.00     0.027 C 
BRANCH  11  12
ATOM     12  C   UNL     1     132.979 133.840 136.695  1.00  0.00    -0.035 C 
ATOM     13  C   UNL     1     133.289 132.977 135.726  1.00  0.00     0.004 C 
ENDBRANCH  11  12
ENDBRANCH  10  11
ENDBRANCH   9  10
ENDBRANCH   8   9
ENDBRANCH   1   8
TORSDOF 10
ENDMDL
MODEL 8
REMARK VINA RESULT:    -3.539      3.837      5.954
REMARK INTER + INTRA:          -6.976
REMARK INTER:                  -5.105
REMARK INTRA:                  -1.872
REMARK UNBOUND:                -1.368
REMARK SMILES C=CCCCCCCCCCCC
REMARK SMILES IDX 7 1 8 2 9 3 10 4 11 5 12 6 13 7 6 8 5 9 4 10 3 11 2 12 1 13
REMARK H PARENT
REMARK Flexibility Score: inf
ROOT
ATOM      1  C   UNL     1     136.638 138.212 134.174  1.00  0.00     0.000 C 
ENDROOT
BRANCH   1   2
ATOM      2  C   UNL     1     136.801 137.110 135.244  1.00  0.00     0.000 C 
BRANCH   2   3
ATOM      3  C   UNL     1     135.811 137.282 136.410  1.00  0.00    -0.000 C 
BRANCH   3   4
ATOM      4  C   UNL     1     136.452 137.998 137.620  1.00  0.00    -0.000 C 
BRANCH   4   5
ATOM      5  C   UNL     1     135.787 139.340 137.965  1.00  0.00    -0.000 C 
BRANCH   5   6
ATOM      6  C   UNL     1     134.571 139.649 137.082  1.00  0.00    -0.003 C 
ATOM      7  C   UNL     1     134.778 140.939 136.292  1.00  0.00     0.004 C 
ENDBRANCH   5   6
ENDBRANCH   4   5
ENDBRANCH   3   4
ENDBRANCH   2   3
ENDBRANCH   1   2
BRANCH   1   8
ATOM      8  C   UNL     1     137.915 139.033 133.932  1.00  0.00     0.000 C 
BRANCH   8   9
ATOM      9  C   UNL     1     138.129 140.127 134.991  1.00  0.00     0.000 C 
BRANCH   9  10
ATOM     10  C   UNL     1     139.331 139.839 135.910  1.00  0.00     0.004 C 
BRANCH  10  11
ATOM     11  C   UNL     1     140.264 138.727 135.400  1.00  0.00     0.027 C 
BRANCH  11  12
ATOM     12  C   UNL     1     140.791 137.856 136.510  1.00  0.00    -0.035 C 
ATOM     13  C   UNL     1     139.991 137.356 137.454  1.00  0.00     0.004 C 
ENDBRANCH  11  12
ENDBRANCH  10  11
ENDBRANCH   9  10
ENDBRANCH   8   9
ENDBRANCH   1   8
TORSDOF 10
ENDMDL
MODEL 9
REMARK VINA RESULT:    -3.524      3.163      5.192
REMARK INTER + INTRA:          -6.952
REMARK INTER:                  -5.709
REMARK INTRA:                  -1.243
REMARK UNBOUND:                -1.368
REMARK SMILES C=CCCCCCCCCCCC
REMARK SMILES IDX 7 1 8 2 9 3 10 4 11 5 12 6 13 7 6 8 5 9 4 10 3 11 2 12 1 13
REMARK H PARENT
REMARK Flexibility Score: inf
ROOT
ATOM      1  C   UNL     1     135.407 140.180 134.801  1.00  0.00     0.000 C 
ENDROOT
BRANCH   1   2
ATOM      2  C   UNL     1     136.715 139.367 134.919  1.00  0.00     0.000 C 
BRANCH   2   3
ATOM      3  C   UNL     1     137.963 140.242 134.702  1.00  0.00    -0.000 C 
BRANCH   3   4
ATOM      4  C   UNL     1     139.109 139.876 135.671  1.00  0.00    -0.000 C 
BRANCH   4   5
ATOM      5  C   UNL     1     138.643 139.088 136.906  1.00  0.00    -0.000 C 
BRANCH   5   6
ATOM      6  C   UNL     1     139.543 137.885 137.220  1.00  0.00    -0.003 C 
ATOM      7  C   UNL     1     140.841 137.945 136.419  1.00  0.00     0.004 C 
ENDBRANCH   5   6
ENDBRANCH   4   5
ENDBRANCH   3   4
ENDBRANCH   2   3
ENDBRANCH   1   2
BRANCH   1   8
ATOM      8  C   UNL     1     135.008 140.902 136.099  1.00  0.00     0.000 C 
BRANCH   8   9
ATOM      9  C   UNL     1     134.861 139.942 137.291  1.00  0.00     0.000 C 
BRANCH   9  10
ATOM     10  C   UNL     1     133.563 139.114 137.232  1.00  0.00     0.004 C 
BRANCH  10  11
ATOM     11  C   UNL     1     133.784 137.612 136.985  1.00  0.00     0.027 C 
BRANCH  11  12
ATOM     12  C   UNL     1     133.308 137.171 135.626  1.00  0.00    -0.035 C 
ATOM     13  C   UNL     1     132.382 137.853 134.948  1.00  0.00     0.004 C 
ENDBRANCH  11  12
ENDBRANCH  10  11
ENDBRANCH   9  10
ENDBRANCH   8   9
ENDBRANCH   1   8
TORSDOF 10
ENDMDL
