MODEL 1
REMARK VINA RESULT:    -2.880      0.000      0.000
REMARK INTER + INTRA:          -3.929
REMARK INTER:                  -3.553
REMARK INTRA:                  -0.376
REMARK UNBOUND:                -0.376
REMARK SMILES CCCCC(=O)CC
REMARK SMILES IDX 4 1 3 2 2 3 1 4 5 5 6 6 7 7 8 8
REMARK H PARENT
REMARK Flexibility Score: inf
ROOT
ATOM      1  C   UNL     1      11.616  -5.153  -3.615  1.00  0.00     0.075 C 
ENDROOT
BRANCH   1   2
ATOM      2  C   UNL     1      10.347  -4.329  -3.354  1.00  0.00     0.008 C 
BRANCH   2   3
ATOM      3  C   UNL     1      10.090  -4.097  -1.857  1.00  0.00    -0.003 C 
ATOM      4  C   UNL     1       9.986  -5.401  -1.067  1.00  0.00     0.004 C 
ENDBRANCH   2   3
ENDBRANCH   1   2
BRANCH   1   5
ATOM      5  C   UNL     1      12.847  -4.324  -3.359  1.00  0.00     0.132 C 
ATOM      6  O   UNL     1      12.971  -3.246  -3.922  1.00  0.00    -0.300 OA
BRANCH   5   7
ATOM      7  C   UNL     1      13.919  -4.789  -2.408  1.00  0.00     0.072 C 
ATOM      8  C   UNL     1      13.605  -4.348  -0.982  1.00  0.00     0.012 C 
ENDBRANCH   5   7
ENDBRANCH   1   5
TORSDOF 4
ENDMDL
MODEL 2
REMARK VINA RESULT:    -2.828      1.195      2.999
REMARK INTER + INTRA:          -3.865
REMARK INTER:                  -3.591
REMARK INTRA:                  -0.275
REMARK UNBOUND:                -0.376
REMARK SMILES CCCCC(=O)CC
REMARK SMILES IDX 4 1 3 2 2 3 1 4 5 5 6 6 7 7 8 8
REMARK H PARENT
REMARK Flexibility Score: inf
ROOT
ATOM      1  C   UNL     1      13.770  -4.945  -2.785  1.00  0.00     0.075 C 
ENDROOT
BRANCH   1   2
ATOM      2  C   UNL     1      13.140  -6.013  -1.880  1.00  0.00     0.008 C 
BRANCH   2   3
ATOM      3  C   UNL     1      12.864  -5.496  -0.460  1.00  0.00    -0.003 C 
ATOM      4  C   UNL     1      13.753  -4.313  -0.078  1.00  0.00     0.004 C 
ENDBRANCH   2   3
ENDBRANCH   1   2
BRANCH   1   5
ATOM      5  C   UNL     1      12.706  -4.215  -3.563  1.00  0.00     0.132 C 
ATOM      6  O   UNL     1      12.949  -3.106  -4.015  1.00  0.00    -0.300 OA
BRANCH   5   7
ATOM      7  C   UNL     1      11.355  -4.834  -3.811  1.00  0.00     0.072 C 
ATOM      8  C   UNL     1      10.240  -3.899  -3.357  1.00  0.00     0.012 C 
ENDBRANCH   5   7
ENDBRANCH   1   5
TORSDOF 4
ENDMDL
MODEL 3
REMARK VINA RESULT:    -2.807      1.116      1.762
REMARK INTER + INTRA:          -3.839
REMARK INTER:                  -3.669
REMARK INTRA:                  -0.170
REMARK UNBOUND:                -0.376
REMARK SMILES CCCCC(=O)CC
REMARK SMILES IDX 4 1 3 2 2 3 1 4 5 5 6 6 7 7 8 8
REMARK H PARENT
REMARK Flexibility Score: inf
ROOT
ATOM      1  C   UNL     1      12.359  -3.830  -1.546  1.00  0.00     0.075 C 
ENDROOT
BRANCH   1   2
ATOM      2  C   UNL     1      11.693  -5.084  -0.964  1.00  0.00     0.008 C 
BRANCH   2   3
ATOM      3  C   UNL     1      10.159  -5.000  -0.977  1.00  0.00    -0.003 C 
ATOM      4  C   UNL     1       9.628  -4.078  -2.075  1.00  0.00     0.004 C 
ENDBRANCH   2   3
ENDBRANCH   1   2
BRANCH   1   5
ATOM      5  C   UNL     1      13.149  -4.174  -2.782  1.00  0.00     0.132 C 
ATOM      6  O   UNL     1      13.123  -3.415  -3.739  1.00  0.00    -0.300 OA
BRANCH   5   7
ATOM      7  C   UNL     1      13.983  -5.425  -2.853  1.00  0.00     0.072 C 
ATOM      8  C   UNL     1      15.230  -5.294  -1.984  1.00  0.00     0.012 C 
ENDBRANCH   5   7
ENDBRANCH   1   5
TORSDOF 4
ENDMDL
MODEL 4
REMARK VINA RESULT:    -2.763      1.049      1.497
REMARK INTER + INTRA:          -3.784
REMARK INTER:                  -3.664
REMARK INTRA:                  -0.120
REMARK UNBOUND:                -0.376
REMARK SMILES CCCCC(=O)CC
REMARK SMILES IDX 4 1 3 2 2 3 1 4 5 5 6 6 7 7 8 8
REMARK H PARENT
REMARK Flexibility Score: inf
ROOT
ATOM      1  C   UNL     1      11.460  -4.920  -3.631  1.00  0.00     0.075 C 
ENDROOT
BRANCH   1   2
ATOM      2  C   UNL     1      10.301  -4.299  -2.839  1.00  0.00     0.008 C 
BRANCH   2   3
ATOM      3  C   UNL     1       9.386  -3.428  -3.715  1.00  0.00    -0.003 C 
ATOM      4  C   UNL     1       8.115  -2.991  -2.987  1.00  0.00     0.004 C 
ENDBRANCH   2   3
ENDBRANCH   1   2
BRANCH   1   5
ATOM      5  C   UNL     1      12.738  -4.163  -3.380  1.00  0.00     0.132 C 
ATOM      6  O   UNL     1      12.950  -3.126  -3.992  1.00  0.00    -0.300 OA
BRANCH   5   7
ATOM      7  C   UNL     1      13.750  -4.649  -2.376  1.00  0.00     0.072 C 
ATOM      8  C   UNL     1      13.375  -4.199  -0.968  1.00  0.00     0.012 C 
ENDBRANCH   5   7
ENDBRANCH   1   5
TORSDOF 4
ENDMDL
MODEL 5
REMARK VINA RESULT:    -2.748      1.448      3.239
REMARK INTER + INTRA:          -3.767
REMARK INTER:                  -3.517
REMARK INTRA:                  -0.249
REMARK UNBOUND:                -0.376
REMARK SMILES CCCCC(=O)CC
REMARK SMILES IDX 4 1 3 2 2 3 1 4 5 5 6 6 7 7 8 8
REMARK H PARENT
REMARK Flexibility Score: inf
ROOT
ATOM      1  C   UNL     1      11.913  -3.791  -1.637  1.00  0.00     0.075 C 
ENDROOT
BRANCH   1   2
ATOM      2  C   UNL     1      12.371  -4.876  -0.652  1.00  0.00     0.008 C 
BRANCH   2   3
ATOM      3  C   UNL     1      13.680  -4.510   0.065  1.00  0.00    -0.003 C 
ATOM      4  C   UNL     1      14.858  -5.375  -0.379  1.00  0.00     0.004 C 
ENDBRANCH   2   3
ENDBRANCH   1   2
BRANCH   1   5
ATOM      5  C   UNL     1      12.368  -4.119  -3.035  1.00  0.00     0.132 C 
ATOM      6  O   UNL     1      12.999  -3.287  -3.670  1.00  0.00    -0.300 OA
BRANCH   5   7
ATOM      7  C   UNL     1      12.077  -5.460  -3.658  1.00  0.00     0.072 C 
ATOM      8  C   UNL     1      10.592  -5.599  -3.973  1.00  0.00     0.012 C 
ENDBRANCH   5   7
ENDBRANCH   1   5
TORSDOF 4
ENDMDL
MODEL 6
REMARK VINA RESULT:    -2.468     10.744     11.679
REMARK INTER + INTRA:          -3.421
REMARK INTER:                  -3.144
REMARK INTRA:                  -0.277
REMARK UNBOUND:                -0.376
REMARK SMILES CCCCC(=O)CC
REMARK SMILES IDX 4 1 3 2 2 3 1 4 5 5 6 6 7 7 8 8
REMARK H PARENT
REMARK Flexibility Score: inf
ROOT
ATOM      1  C   UNL     1       8.895   5.079  -8.995  1.00  0.00     0.075 C 
ENDROOT
BRANCH   1   2
ATOM      2  C   UNL     1      10.033   5.812  -9.718  1.00  0.00     0.008 C 
BRANCH   2   3
ATOM      3  C   UNL     1      10.378   7.159  -9.064  1.00  0.00    -0.003 C 
ATOM      4  C   UNL     1       9.814   7.291  -7.650  1.00  0.00     0.004 C 
ENDBRANCH   2   3
ENDBRANCH   1   2
BRANCH   1   5
ATOM      5  C   UNL     1       9.073   3.587  -9.103  1.00  0.00     0.132 C 
ATOM      6  O   UNL     1       8.938   3.045 -10.191  1.00  0.00    -0.300 OA
BRANCH   5   7
ATOM      7  C   UNL     1       9.432   2.753  -7.902  1.00  0.00     0.072 C 
ATOM      8  C   UNL     1       9.777   3.640  -6.710  1.00  0.00     0.012 C 
ENDBRANCH   5   7
ENDBRANCH   1   5
TORSDOF 4
ENDMDL
MODEL 7
REMARK VINA RESULT:    -2.456     16.208     17.151
REMARK INTER + INTRA:          -3.406
REMARK INTER:                  -3.265
REMARK INTRA:                  -0.142
REMARK UNBOUND:                -0.376
REMARK SMILES CCCCC(=O)CC
REMARK SMILES IDX 4 1 3 2 2 3 1 4 5 5 6 6 7 7 8 8
REMARK H PARENT
REMARK Flexibility Score: inf
ROOT
ATOM      1  C   UNL     1      17.932  10.478  -0.835  1.00  0.00     0.075 C 
ENDROOT
BRANCH   1   2
ATOM      2  C   UNL     1      19.069  11.450  -0.494  1.00  0.00     0.008 C 
BRANCH   2   3
ATOM      3  C   UNL     1      19.028  11.919   0.969  1.00  0.00    -0.003 C 
ATOM      4  C   UNL     1      17.871  12.878   1.248  1.00  0.00     0.004 C 
ENDBRANCH   2   3
ENDBRANCH   1   2
BRANCH   1   5
ATOM      5  C   UNL     1      17.788  10.334  -2.328  1.00  0.00     0.132 C 
ATOM      6  O   UNL     1      16.924   9.595  -2.777  1.00  0.00    -0.300 OA
BRANCH   5   7
ATOM      7  C   UNL     1      18.674  11.098  -3.276  1.00  0.00     0.072 C 
ATOM      8  C   UNL     1      17.884  11.575  -4.489  1.00  0.00     0.012 C 
ENDBRANCH   5   7
ENDBRANCH   1   5
TORSDOF 4
ENDMDL
MODEL 8
REMARK VINA RESULT:    -2.400      1.891      2.626
REMARK INTER + INTRA:          -3.337
REMARK INTER:                  -2.949
REMARK INTRA:                  -0.388
REMARK UNBOUND:                -0.376
REMARK SMILES CCCCC(=O)CC
REMARK SMILES IDX 4 1 3 2 2 3 1 4 5 5 6 6 7 7 8 8
REMARK H PARENT
REMARK Flexibility Score: inf
ROOT
ATOM      1  C   UNL     1      11.473  -5.643  -1.128  1.00  0.00     0.075 C 
ENDROOT
BRANCH   1   2
ATOM      2  C   UNL     1      10.057  -5.078  -0.950  1.00  0.00     0.008 C 
BRANCH   2   3
ATOM      3  C   UNL     1       9.256  -5.065  -2.262  1.00  0.00    -0.003 C 
ATOM      4  C   UNL     1       9.089  -3.659  -2.837  1.00  0.00     0.004 C 
ENDBRANCH   2   3
ENDBRANCH   1   2
BRANCH   1   5
ATOM      5  C   UNL     1      12.504  -4.568  -0.903  1.00  0.00     0.132 C 
ATOM      6  O   UNL     1      13.094  -4.519   0.167  1.00  0.00    -0.300 OA
BRANCH   5   7
ATOM      7  C   UNL     1      12.836  -3.566  -1.977  1.00  0.00     0.072 C 
ATOM      8  C   UNL     1      12.885  -4.236  -3.346  1.00  0.00     0.012 C 
ENDBRANCH   5   7
ENDBRANCH   1   5
TORSDOF 4
ENDMDL
MODEL 9
REMARK VINA RESULT:    -2.301     10.065     11.364
REMARK INTER + INTRA:          -3.215
REMARK INTER:                  -2.827
REMARK INTRA:                  -0.388
REMARK UNBOUND:                -0.376
REMARK SMILES CCCCC(=O)CC
REMARK SMILES IDX 4 1 3 2 2 3 1 4 5 5 6 6 7 7 8 8
REMARK H PARENT
REMARK Flexibility Score: inf
ROOT
ATOM      1  C   UNL     1       9.488   3.962  -7.381  1.00  0.00     0.075 C 
ENDROOT
BRANCH   1   2
ATOM      2  C   UNL     1       9.097   5.251  -8.118  1.00  0.00     0.008 C 
BRANCH   2   3
ATOM      3  C   UNL     1      10.044   5.575  -9.284  1.00  0.00    -0.003 C 
ATOM      4  C   UNL     1       9.298   5.908 -10.575  1.00  0.00     0.004 C 
ENDBRANCH   2   3
ENDBRANCH   1   2
BRANCH   1   5
ATOM      5  C   UNL     1       8.903   2.758  -8.072  1.00  0.00     0.132 C 
ATOM      6  O   UNL     1       9.533   1.711  -8.087  1.00  0.00    -0.300 OA
BRANCH   5   7
ATOM      7  C   UNL     1       7.549   2.816  -8.729  1.00  0.00     0.072 C 
ATOM      8  C   UNL     1       7.656   2.509 -10.219  1.00  0.00     0.012 C 
ENDBRANCH   5   7
ENDBRANCH   1   5
TORSDOF 4
ENDMDL
