MODEL 1
REMARK VINA RESULT:    -3.439      0.000      0.000
REMARK INTER + INTRA:          -4.159
REMARK INTER:                  -4.042
REMARK INTRA:                  -0.117
REMARK UNBOUND:                -0.117
REMARK SMILES O=C([O-])CCC(=O)[O-]
REMARK SMILES IDX 4 1 2 2 1 3 3 4 5 5 6 6 7 7 8 8
REMARK H PARENT
REMARK Flexibility Score: inf
ROOT
ATOM      1  C   UNL     1      -2.040   8.424  21.248  1.00  0.00     0.059 C 
ENDROOT
BRANCH   1   2
ATOM      2  C   UNL     1      -3.222   9.214  20.782  1.00  0.00     0.042 C 
ATOM      3  O   UNL     1      -4.221   8.628  20.285  1.00  0.00    -0.550 OA
ATOM      4  O   UNL     1      -3.242  10.594  20.939  1.00  0.00    -0.550 OA
ENDBRANCH   1   2
BRANCH   1   5
ATOM      5  C   UNL     1      -2.099   8.218  22.762  1.00  0.00     0.059 C 
BRANCH   5   6
ATOM      6  C   UNL     1      -1.173   9.165  23.456  1.00  0.00     0.042 C 
ATOM      7  O   UNL     1       0.074   9.014  23.364  1.00  0.00    -0.550 OA
ATOM      8  O   UNL     1      -1.685  10.246  24.164  1.00  0.00    -0.550 OA
ENDBRANCH   5   6
ENDBRANCH   1   5
TORSDOF 3
ENDMDL
MODEL 2
REMARK VINA RESULT:    -3.430      0.103      1.148
REMARK INTER + INTRA:          -4.149
REMARK INTER:                  -4.032
REMARK INTRA:                  -0.116
REMARK UNBOUND:                -0.117
REMARK SMILES O=C([O-])CCC(=O)[O-]
REMARK SMILES IDX 4 1 2 2 1 3 3 4 5 5 6 6 7 7 8 8
REMARK H PARENT
REMARK Flexibility Score: inf
ROOT
ATOM      1  C   UNL     1      -1.995   8.422  21.322  1.00  0.00     0.059 C 
ENDROOT
BRANCH   1   2
ATOM      2  C   UNL     1      -3.175   9.215  20.854  1.00  0.00     0.042 C 
ATOM      3  O   UNL     1      -3.142  10.474  20.879  1.00  0.00    -0.550 OA
ATOM      4  O   UNL     1      -4.291   8.566  20.343  1.00  0.00    -0.550 OA
ENDBRANCH   1   2
BRANCH   1   5
ATOM      5  C   UNL     1      -2.055   8.218  22.837  1.00  0.00     0.059 C 
BRANCH   5   6
ATOM      6  C   UNL     1      -1.146   9.181  23.531  1.00  0.00     0.042 C 
ATOM      7  O   UNL     1       0.103   9.030  23.470  1.00  0.00    -0.550 OA
ATOM      8  O   UNL     1      -1.675  10.276  24.204  1.00  0.00    -0.550 OA
ENDBRANCH   5   6
ENDBRANCH   1   5
TORSDOF 3
ENDMDL
MODEL 3
REMARK VINA RESULT:    -3.428      0.145      3.754
REMARK INTER + INTRA:          -4.146
REMARK INTER:                  -4.031
REMARK INTRA:                  -0.116
REMARK UNBOUND:                -0.117
REMARK SMILES O=C([O-])CCC(=O)[O-]
REMARK SMILES IDX 4 1 2 2 1 3 3 4 5 5 6 6 7 7 8 8
REMARK H PARENT
REMARK Flexibility Score: inf
ROOT
ATOM      1  C   UNL     1      -2.069   8.211  22.884  1.00  0.00     0.059 C 
ENDROOT
BRANCH   1   2
ATOM      2  C   UNL     1      -1.191   9.195  23.591  1.00  0.00     0.042 C 
ATOM      3  O   UNL     1       0.062   9.068  23.553  1.00  0.00    -0.550 OA
ATOM      4  O   UNL     1      -1.753  10.281  24.251  1.00  0.00    -0.550 OA
ENDBRANCH   1   2
BRANCH   1   5
ATOM      5  C   UNL     1      -1.988   8.413  21.371  1.00  0.00     0.059 C 
BRANCH   5   6
ATOM      6  C   UNL     1      -3.175   9.180  20.880  1.00  0.00     0.042 C 
ATOM      7  O   UNL     1      -3.171  10.439  20.907  1.00  0.00    -0.550 OA
ATOM      8  O   UNL     1      -4.266   8.506  20.345  1.00  0.00    -0.550 OA
ENDBRANCH   5   6
ENDBRANCH   1   5
TORSDOF 3
ENDMDL
MODEL 4
REMARK VINA RESULT:    -3.322      5.344      7.532
REMARK INTER + INTRA:          -4.022
REMARK INTER:                  -3.974
REMARK INTRA:                  -0.048
REMARK UNBOUND:                -0.117
REMARK SMILES O=C([O-])CCC(=O)[O-]
REMARK SMILES IDX 4 1 2 2 1 3 3 4 5 5 6 6 7 7 8 8
REMARK H PARENT
REMARK Flexibility Score: inf
ROOT
ATOM      1  C   UNL     1       3.455   8.134  25.998  1.00  0.00     0.059 C 
ENDROOT
BRANCH   1   2
ATOM      2  C   UNL     1       3.768   7.374  27.248  1.00  0.00     0.042 C 
ATOM      3  O   UNL     1       2.867   6.716  27.833  1.00  0.00    -0.550 OA
ATOM      4  O   UNL     1       5.067   7.351  27.741  1.00  0.00    -0.550 OA
ENDBRANCH   1   2
BRANCH   1   5
ATOM      5  C   UNL     1       3.025   9.563  26.335  1.00  0.00     0.059 C 
BRANCH   5   6
ATOM      6  C   UNL     1       1.915  10.002  25.434  1.00  0.00     0.042 C 
ATOM      7  O   UNL     1       1.556   9.276  24.470  1.00  0.00    -0.550 OA
ATOM      8  O   UNL     1       1.241  11.190  25.690  1.00  0.00    -0.550 OA
ENDBRANCH   5   6
ENDBRANCH   1   5
TORSDOF 3
ENDMDL
MODEL 5
REMARK VINA RESULT:    -3.235      2.210      2.898
REMARK INTER + INTRA:          -3.919
REMARK INTER:                  -3.818
REMARK INTRA:                  -0.101
REMARK UNBOUND:                -0.117
REMARK SMILES O=C([O-])CCC(=O)[O-]
REMARK SMILES IDX 4 1 2 2 1 3 3 4 5 5 6 6 7 7 8 8
REMARK H PARENT
REMARK Flexibility Score: inf
ROOT
ATOM      1  C   UNL     1      -3.230  10.852  21.312  1.00  0.00     0.059 C 
ENDROOT
BRANCH   1   2
ATOM      2  C   UNL     1      -3.636  11.845  22.355  1.00  0.00     0.042 C 
ATOM      3  O   UNL     1      -4.637  12.587  22.167  1.00  0.00    -0.550 OA
ATOM      4  O   UNL     1      -2.940  11.918  23.554  1.00  0.00    -0.550 OA
ENDBRANCH   1   2
BRANCH   1   5
ATOM      5  C   UNL     1      -3.681   9.445  21.709  1.00  0.00     0.059 C 
BRANCH   5   6
ATOM      6  C   UNL     1      -2.503   8.604  22.086  1.00  0.00     0.042 C 
ATOM      7  O   UNL     1      -1.664   8.260  21.213  1.00  0.00    -0.550 OA
ATOM      8  O   UNL     1      -2.304   8.243  23.413  1.00  0.00    -0.550 OA
ENDBRANCH   5   6
ENDBRANCH   1   5
TORSDOF 3
ENDMDL
MODEL 6
REMARK VINA RESULT:    -3.219      5.095      6.699
REMARK INTER + INTRA:          -3.900
REMARK INTER:                  -3.862
REMARK INTRA:                  -0.038
REMARK UNBOUND:                -0.117
REMARK SMILES O=C([O-])CCC(=O)[O-]
REMARK SMILES IDX 4 1 2 2 1 3 3 4 5 5 6 6 7 7 8 8
REMARK H PARENT
REMARK Flexibility Score: inf
ROOT
ATOM      1  C   UNL     1       2.103   8.898  25.671  1.00  0.00     0.059 C 
ENDROOT
BRANCH   1   2
ATOM      2  C   UNL     1       1.488  10.258  25.566  1.00  0.00     0.042 C 
ATOM      3  O   UNL     1       2.213  11.287  25.612  1.00  0.00    -0.550 OA
ATOM      4  O   UNL     1       0.119  10.389  25.370  1.00  0.00    -0.550 OA
ENDBRANCH   1   2
BRANCH   1   5
ATOM      5  C   UNL     1       3.490   8.987  26.310  1.00  0.00     0.059 C 
BRANCH   5   6
ATOM      6  C   UNL     1       3.905   7.654  26.847  1.00  0.00     0.042 C 
ATOM      7  O   UNL     1       5.058   7.206  26.611  1.00  0.00    -0.550 OA
ATOM      8  O   UNL     1       3.036   6.927  27.652  1.00  0.00    -0.550 OA
ENDBRANCH   5   6
ENDBRANCH   1   5
TORSDOF 3
ENDMDL
MODEL 7
REMARK VINA RESULT:    -3.167      7.601      8.976
REMARK INTER + INTRA:          -3.839
REMARK INTER:                  -3.708
REMARK INTRA:                  -0.131
REMARK UNBOUND:                -0.117
REMARK SMILES O=C([O-])CCC(=O)[O-]
REMARK SMILES IDX 4 1 2 2 1 3 3 4 5 5 6 6 7 7 8 8
REMARK H PARENT
REMARK Flexibility Score: inf
ROOT
ATOM      1  C   UNL     1       2.833  14.954  23.880  1.00  0.00     0.059 C 
ENDROOT
BRANCH   1   2
ATOM      2  C   UNL     1       3.405  13.884  24.756  1.00  0.00     0.042 C 
ATOM      3  O   UNL     1       2.688  12.916  25.124  1.00  0.00    -0.550 OA
ATOM      4  O   UNL     1       4.742  13.930  25.128  1.00  0.00    -0.550 OA
ENDBRANCH   1   2
BRANCH   1   5
ATOM      5  C   UNL     1       1.752  15.736  24.626  1.00  0.00     0.059 C 
BRANCH   5   6
ATOM      6  C   UNL     1       2.366  16.825  25.448  1.00  0.00     0.042 C 
ATOM      7  O   UNL     1       2.216  16.838  26.698  1.00  0.00    -0.550 OA
ATOM      8  O   UNL     1       3.149  17.799  24.838  1.00  0.00    -0.550 OA
ENDBRANCH   5   6
ENDBRANCH   1   5
TORSDOF 3
ENDMDL
MODEL 8
REMARK VINA RESULT:    -3.114      2.076      2.666
REMARK INTER + INTRA:          -3.777
REMARK INTER:                  -3.596
REMARK INTRA:                  -0.181
REMARK UNBOUND:                -0.117
REMARK SMILES O=C([O-])CCC(=O)[O-]
REMARK SMILES IDX 4 1 2 2 1 3 3 4 5 5 6 6 7 7 8 8
REMARK H PARENT
REMARK Flexibility Score: inf
ROOT
ATOM      1  C   UNL     1      -3.273  10.516  21.313  1.00  0.00     0.059 C 
ENDROOT
BRANCH   1   2
ATOM      2  C   UNL     1      -3.163   9.084  20.896  1.00  0.00     0.042 C 
ATOM      3  O   UNL     1      -4.145   8.501  20.364  1.00  0.00    -0.550 OA
ATOM      4  O   UNL     1      -1.961   8.405  21.049  1.00  0.00    -0.550 OA
ENDBRANCH   1   2
BRANCH   1   5
ATOM      5  C   UNL     1      -2.776  10.695  22.748  1.00  0.00     0.059 C 
BRANCH   5   6
ATOM      6  C   UNL     1      -3.694  10.009  23.709  1.00  0.00     0.042 C 
ATOM      7  O   UNL     1      -4.917  10.307  23.742  1.00  0.00    -0.550 OA
ATOM      8  O   UNL     1      -3.209   9.002  24.535  1.00  0.00    -0.550 OA
ENDBRANCH   5   6
ENDBRANCH   1   5
TORSDOF 3
ENDMDL
MODEL 9
REMARK VINA RESULT:    -3.087      2.538      5.193
REMARK INTER + INTRA:          -3.746
REMARK INTER:                  -3.712
REMARK INTRA:                  -0.034
REMARK UNBOUND:                -0.117
REMARK SMILES O=C([O-])CCC(=O)[O-]
REMARK SMILES IDX 4 1 2 2 1 3 3 4 5 5 6 6 7 7 8 8
REMARK H PARENT
REMARK Flexibility Score: inf
ROOT
ATOM      1  C   UNL     1       0.357   9.558  25.076  1.00  0.00     0.059 C 
ENDROOT
BRANCH   1   2
ATOM      2  C   UNL     1       1.734   9.987  25.474  1.00  0.00     0.042 C 
ATOM      3  O   UNL     1       2.018  11.211  25.554  1.00  0.00    -0.550 OA
ATOM      4  O   UNL     1       2.691   9.035  25.804  1.00  0.00    -0.550 OA
ENDBRANCH   1   2
BRANCH   1   5
ATOM      5  C   UNL     1       0.335   9.122  23.610  1.00  0.00     0.059 C 
BRANCH   5   6
ATOM      6  C   UNL     1      -1.066   9.113  23.087  1.00  0.00     0.042 C 
ATOM      7  O   UNL     1      -1.356   8.441  22.063  1.00  0.00    -0.550 OA
ATOM      8  O   UNL     1      -2.064   9.808  23.760  1.00  0.00    -0.550 OA
ENDBRANCH   5   6
ENDBRANCH   1   5
TORSDOF 3
ENDMDL
