MODEL 1
REMARK VINA RESULT:    -3.404      0.000      0.000
REMARK INTER + INTRA:         -11.638
REMARK INTER:                  -7.783
REMARK INTRA:                  -3.856
REMARK UNBOUND:                -3.856
REMARK SMILES CCCCCCCCCCCCCCCCCCCCCCCC(=O)[O-]
REMARK SMILES IDX 13 1 14 2 15 3 16 4 17 5 18 6 19 7 20 8 21 9 22 10 23 11
REMARK SMILES IDX 24 12 25 13 26 14 12 15 11 16 10 17 9 18 8 19 7 20 6 21 5 22
REMARK SMILES IDX 4 23 3 24 2 25 1 26
REMARK H PARENT
REMARK Flexibility Score: inf
ROOT
ATOM      1  C   UNL     1     154.742 153.560 157.033  1.00  0.00     0.000 C 
ENDROOT
BRANCH   1   2
ATOM      2  C   UNL     1     154.885 152.059 157.344  1.00  0.00     0.000 C 
BRANCH   2   3
ATOM      3  C   UNL     1     153.536 151.379 157.636  1.00  0.00     0.000 C 
BRANCH   3   4
ATOM      4  C   UNL     1     153.390 150.960 159.108  1.00  0.00     0.000 C 
BRANCH   4   5
ATOM      5  C   UNL     1     152.932 152.118 160.014  1.00  0.00     0.000 C 
BRANCH   5   6
ATOM      6  C   UNL     1     151.562 152.728 159.652  1.00  0.00     0.000 C 
BRANCH   6   7
ATOM      7  C   UNL     1     151.602 154.179 159.132  1.00  0.00     0.000 C 
BRANCH   7   8
ATOM      8  C   UNL     1     151.196 154.356 157.657  1.00  0.00     0.000 C 
BRANCH   8   9
ATOM      9  C   UNL     1     150.620 155.752 157.362  1.00  0.00     0.000 C 
BRANCH   9  10
ATOM     10  C   UNL     1     149.648 156.235 158.450  1.00  0.00     0.006 C 
BRANCH  10  11
ATOM     11  C   UNL     1     149.862 157.706 158.833  1.00  0.00     0.053 C 
BRANCH  11  12
ATOM     12  C   UNL     1     149.974 157.850 160.319  1.00  0.00     0.041 C 
ATOM     13  O   UNL     1     150.100 156.830 161.048  1.00  0.00    -0.550 OA
ATOM     14  O   UNL     1     149.909 159.111 160.902  1.00  0.00    -0.550 OA
ENDBRANCH  11  12
ENDBRANCH  10  11
ENDBRANCH   9  10
ENDBRANCH   8   9
ENDBRANCH   7   8
ENDBRANCH   6   7
ENDBRANCH   5   6
ENDBRANCH   4   5
ENDBRANCH   3   4
ENDBRANCH   2   3
ENDBRANCH   1   2
BRANCH   1  15
ATOM     15  C   UNL     1     155.217 154.461 158.188  1.00  0.00     0.000 C 
BRANCH  15  16
ATOM     16  C   UNL     1     155.159 155.974 157.907  1.00  0.00     0.000 C 
BRANCH  16  17
ATOM     17  C   UNL     1     154.292 156.739 158.922  1.00  0.00     0.000 C 
BRANCH  17  18
ATOM     18  C   UNL     1     153.533 157.915 158.284  1.00  0.00    -0.000 C 
BRANCH  18  19
ATOM     19  C   UNL     1     153.541 159.178 159.156  1.00  0.00    -0.000 C 
BRANCH  19  20
ATOM     20  C   UNL     1     153.536 158.813 160.649  1.00  0.00    -0.000 C 
BRANCH  20  21
ATOM     21  C   UNL     1     154.679 159.481 161.428  1.00  0.00    -0.000 C 
BRANCH  21  22
ATOM     22  C   UNL     1     156.032 159.378 160.700  1.00  0.00    -0.000 C 
BRANCH  22  23
ATOM     23  C   UNL     1     157.078 158.599 161.513  1.00  0.00    -0.000 C 
BRANCH  23  24
ATOM     24  C   UNL     1     157.468 157.267 160.847  1.00  0.00    -0.000 C 
BRANCH  24  25
ATOM     25  C   UNL     1     158.633 157.421 159.857  1.00  0.00    -0.003 C 
ATOM     26  C   UNL     1     158.659 156.316 158.800  1.00  0.00     0.004 C 
ENDBRANCH  24  25
ENDBRANCH  23  24
ENDBRANCH  22  23
ENDBRANCH  21  22
ENDBRANCH  20  21
ENDBRANCH  19  20
ENDBRANCH  18  19
ENDBRANCH  17  18
ENDBRANCH  16  17
ENDBRANCH  15  16
ENDBRANCH   1  15
TORSDOF 22
ENDMDL
MODEL 2
REMARK VINA RESULT:    -3.387      3.417      6.129
REMARK INTER + INTRA:         -11.598
REMARK INTER:                  -7.310
REMARK INTRA:                  -4.288
REMARK UNBOUND:                -3.856
REMARK SMILES CCCCCCCCCCCCCCCCCCCCCCCC(=O)[O-]
REMARK SMILES IDX 13 1 14 2 15 3 16 4 17 5 18 6 19 7 20 8 21 9 22 10 23 11
REMARK SMILES IDX 24 12 25 13 26 14 12 15 11 16 10 17 9 18 8 19 7 20 6 21 5 22
REMARK SMILES IDX 4 23 3 24 2 25 1 26
REMARK H PARENT
REMARK Flexibility Score: inf
ROOT
ATOM      1  C   UNL     1     151.708 153.020 159.575  1.00  0.00     0.000 C 
ENDROOT
BRANCH   1   2
ATOM      2  C   UNL     1     150.909 152.817 158.275  1.00  0.00     0.000 C 
BRANCH   2   3
ATOM      3  C   UNL     1     150.999 154.023 157.325  1.00  0.00     0.000 C 
BRANCH   3   4
ATOM      4  C   UNL     1     149.617 154.528 156.876  1.00  0.00     0.000 C 
BRANCH   4   5
ATOM      5  C   UNL     1     149.706 155.698 155.879  1.00  0.00     0.000 C 
BRANCH   5   6
ATOM      6  C   UNL     1     150.822 155.572 154.821  1.00  0.00     0.000 C 
BRANCH   6   7
ATOM      7  C   UNL     1     150.795 156.634 153.703  1.00  0.00     0.000 C 
BRANCH   7   8
ATOM      8  C   UNL     1     151.904 156.497 152.643  1.00  0.00     0.000 C 
BRANCH   8   9
ATOM      9  C   UNL     1     153.173 155.824 153.194  1.00  0.00     0.000 C 
BRANCH   9  10
ATOM     10  C   UNL     1     154.396 156.756 153.170  1.00  0.00     0.006 C 
BRANCH  10  11
ATOM     11  C   UNL     1     154.585 157.525 154.485  1.00  0.00     0.053 C 
BRANCH  11  12
ATOM     12  C   UNL     1     156.039 157.622 154.831  1.00  0.00     0.041 C 
ATOM     13  O   UNL     1     156.900 157.038 154.121  1.00  0.00    -0.550 OA
ATOM     14  O   UNL     1     156.440 158.335 155.956  1.00  0.00    -0.550 OA
ENDBRANCH  11  12
ENDBRANCH  10  11
ENDBRANCH   9  10
ENDBRANCH   8   9
ENDBRANCH   7   8
ENDBRANCH   6   7
ENDBRANCH   5   6
ENDBRANCH   4   5
ENDBRANCH   3   4
ENDBRANCH   2   3
ENDBRANCH   1   2
BRANCH   1  15
ATOM     15  C   UNL     1     152.903 152.057 159.702  1.00  0.00     0.000 C 
BRANCH  15  16
ATOM     16  C   UNL     1     153.144 151.146 158.484  1.00  0.00     0.000 C 
BRANCH  16  17
ATOM     17  C   UNL     1     154.570 151.267 157.919  1.00  0.00     0.000 C 
BRANCH  17  18
ATOM     18  C   UNL     1     155.112 152.705 157.985  1.00  0.00    -0.000 C 
BRANCH  18  19
ATOM     19  C   UNL     1     154.653 153.574 156.805  1.00  0.00    -0.000 C 
BRANCH  19  20
ATOM     20  C   UNL     1     154.725 155.067 157.164  1.00  0.00    -0.000 C 
BRANCH  20  21
ATOM     21  C   UNL     1     154.226 155.361 158.586  1.00  0.00    -0.000 C 
BRANCH  21  22
ATOM     22  C   UNL     1     153.767 156.820 158.764  1.00  0.00    -0.000 C 
BRANCH  22  23
ATOM     23  C   UNL     1     152.760 157.255 157.688  1.00  0.00    -0.000 C 
BRANCH  23  24
ATOM     24  C   UNL     1     151.487 157.877 158.289  1.00  0.00    -0.000 C 
BRANCH  24  25
ATOM     25  C   UNL     1     151.288 157.502 159.766  1.00  0.00    -0.003 C 
ATOM     26  C   UNL     1     150.117 156.542 159.978  1.00  0.00     0.004 C 
ENDBRANCH  24  25
ENDBRANCH  23  24
ENDBRANCH  22  23
ENDBRANCH  21  22
ENDBRANCH  20  21
ENDBRANCH  19  20
ENDBRANCH  18  19
ENDBRANCH  17  18
ENDBRANCH  16  17
ENDBRANCH  15  16
ENDBRANCH   1  15
TORSDOF 22
ENDMDL
MODEL 3
REMARK VINA RESULT:    -3.343      2.726      5.852
REMARK INTER + INTRA:         -11.498
REMARK INTER:                  -7.314
REMARK INTRA:                  -4.184
REMARK UNBOUND:                -3.856
REMARK SMILES CCCCCCCCCCCCCCCCCCCCCCCC(=O)[O-]
REMARK SMILES IDX 13 1 14 2 15 3 16 4 17 5 18 6 19 7 20 8 21 9 22 10 23 11
REMARK SMILES IDX 24 12 25 13 26 14 12 15 11 16 10 17 9 18 8 19 7 20 6 21 5 22
REMARK SMILES IDX 4 23 3 24 2 25 1 26
REMARK H PARENT
REMARK Flexibility Score: inf
ROOT
ATOM      1  C   UNL     1     151.187 154.169 158.288  1.00  0.00     0.000 C 
ENDROOT
BRANCH   1   2
ATOM      2  C   UNL     1     151.181 152.763 158.915  1.00  0.00     0.000 C 
BRANCH   2   3
ATOM      3  C   UNL     1     152.321 152.557 159.927  1.00  0.00     0.000 C 
BRANCH   3   4
ATOM      4  C   UNL     1     153.131 151.279 159.655  1.00  0.00     0.000 C 
BRANCH   4   5
ATOM      5  C   UNL     1     153.279 150.976 158.152  1.00  0.00     0.000 C 
BRANCH   5   6
ATOM      6  C   UNL     1     154.593 151.471 157.512  1.00  0.00     0.000 C 
BRANCH   6   7
ATOM      7  C   UNL     1     154.643 152.978 157.189  1.00  0.00     0.000 C 
BRANCH   7   8
ATOM      8  C   UNL     1     155.390 153.843 158.221  1.00  0.00     0.000 C 
BRANCH   8   9
ATOM      9  C   UNL     1     154.669 155.170 158.519  1.00  0.00     0.000 C 
BRANCH   9  10
ATOM     10  C   UNL     1     155.644 156.339 158.735  1.00  0.00     0.006 C 
BRANCH  10  11
ATOM     11  C   UNL     1     156.400 156.729 157.458  1.00  0.00     0.053 C 
BRANCH  11  12
ATOM     12  C   UNL     1     155.851 158.002 156.891  1.00  0.00     0.041 C 
ATOM     13  O   UNL     1     155.507 158.941 157.657  1.00  0.00    -0.550 OA
ATOM     14  O   UNL     1     155.691 158.139 155.516  1.00  0.00    -0.550 OA
ENDBRANCH  11  12
ENDBRANCH  10  11
ENDBRANCH   9  10
ENDBRANCH   8   9
ENDBRANCH   7   8
ENDBRANCH   6   7
ENDBRANCH   5   6
ENDBRANCH   4   5
ENDBRANCH   3   4
ENDBRANCH   2   3
ENDBRANCH   1   2
BRANCH   1  15
ATOM     15  C   UNL     1     149.897 154.482 157.507  1.00  0.00     0.000 C 
BRANCH  15  16
ATOM     16  C   UNL     1     149.730 153.716 156.181  1.00  0.00     0.000 C 
BRANCH  16  17
ATOM     17  C   UNL     1     149.370 154.635 155.000  1.00  0.00     0.000 C 
BRANCH  17  18
ATOM     18  C   UNL     1     150.184 155.940 154.996  1.00  0.00    -0.000 C 
BRANCH  18  19
ATOM     19  C   UNL     1     151.623 155.748 154.500  1.00  0.00    -0.000 C 
BRANCH  19  20
ATOM     20  C   UNL     1     152.634 156.269 155.533  1.00  0.00    -0.000 C 
BRANCH  20  21
ATOM     21  C   UNL     1     152.222 157.619 156.139  1.00  0.00    -0.000 C 
BRANCH  21  22
ATOM     22  C   UNL     1     152.218 157.602 157.678  1.00  0.00    -0.000 C 
BRANCH  22  23
ATOM     23  C   UNL     1     150.860 158.017 158.267  1.00  0.00    -0.000 C 
BRANCH  23  24
ATOM     24  C   UNL     1     150.892 158.125 159.802  1.00  0.00    -0.000 C 
BRANCH  24  25
ATOM     25  C   UNL     1     150.076 157.019 160.489  1.00  0.00    -0.003 C 
ATOM     26  C   UNL     1     148.599 157.046 160.096  1.00  0.00     0.004 C 
ENDBRANCH  24  25
ENDBRANCH  23  24
ENDBRANCH  22  23
ENDBRANCH  21  22
ENDBRANCH  20  21
ENDBRANCH  19  20
ENDBRANCH  18  19
ENDBRANCH  17  18
ENDBRANCH  16  17
ENDBRANCH  15  16
ENDBRANCH   1  15
TORSDOF 22
ENDMDL
MODEL 4
REMARK VINA RESULT:    -3.329      3.329      6.465
REMARK INTER + INTRA:         -11.466
REMARK INTER:                  -7.835
REMARK INTRA:                  -3.631
REMARK UNBOUND:                -3.856
REMARK SMILES CCCCCCCCCCCCCCCCCCCCCCCC(=O)[O-]
REMARK SMILES IDX 13 1 14 2 15 3 16 4 17 5 18 6 19 7 20 8 21 9 22 10 23 11
REMARK SMILES IDX 24 12 25 13 26 14 12 15 11 16 10 17 9 18 8 19 7 20 6 21 5 22
REMARK SMILES IDX 4 23 3 24 2 25 1 26
REMARK H PARENT
REMARK Flexibility Score: inf
ROOT
ATOM      1  C   UNL     1     152.033 152.750 159.815  1.00  0.00     0.000 C 
ENDROOT
BRANCH   1   2
ATOM      2  C   UNL     1     153.156 151.708 159.672  1.00  0.00     0.000 C 
BRANCH   2   3
ATOM      3  C   UNL     1     153.040 150.878 158.383  1.00  0.00     0.000 C 
BRANCH   3   4
ATOM      4  C   UNL     1     154.232 151.084 157.435  1.00  0.00     0.000 C 
BRANCH   4   5
ATOM      5  C   UNL     1     155.163 152.224 157.888  1.00  0.00     0.000 C 
BRANCH   5   6
ATOM      6  C   UNL     1     154.981 153.556 157.132  1.00  0.00     0.000 C 
BRANCH   6   7
ATOM      7  C   UNL     1     154.699 154.785 158.019  1.00  0.00     0.000 C 
BRANCH   7   8
ATOM      8  C   UNL     1     155.943 155.430 158.658  1.00  0.00     0.000 C 
BRANCH   8   9
ATOM      9  C   UNL     1     156.256 156.821 158.078  1.00  0.00     0.000 C 
BRANCH   9  10
ATOM     10  C   UNL     1     157.589 157.390 158.591  1.00  0.00     0.006 C 
BRANCH  10  11
ATOM     11  C   UNL     1     158.811 156.689 157.982  1.00  0.00     0.053 C 
BRANCH  11  12
ATOM     12  C   UNL     1     159.656 156.078 159.057  1.00  0.00     0.041 C 
ATOM     13  O   UNL     1     159.498 156.421 160.259  1.00  0.00    -0.550 OA
ATOM     14  O   UNL     1     160.637 155.150 158.727  1.00  0.00    -0.550 OA
ENDBRANCH  11  12
ENDBRANCH  10  11
ENDBRANCH   9  10
ENDBRANCH   8   9
ENDBRANCH   7   8
ENDBRANCH   6   7
ENDBRANCH   5   6
ENDBRANCH   4   5
ENDBRANCH   3   4
ENDBRANCH   2   3
ENDBRANCH   1   2
BRANCH   1  15
ATOM     15  C   UNL     1     151.114 152.815 158.580  1.00  0.00     0.000 C 
BRANCH  15  16
ATOM     16  C   UNL     1     150.999 154.202 157.920  1.00  0.00     0.000 C 
BRANCH  16  17
ATOM     17  C   UNL     1     151.131 155.357 158.927  1.00  0.00     0.000 C 
BRANCH  17  18
ATOM     18  C   UNL     1     151.249 156.729 158.241  1.00  0.00    -0.000 C 
BRANCH  18  19
ATOM     19  C   UNL     1     152.342 157.614 158.856  1.00  0.00    -0.000 C 
BRANCH  19  20
ATOM     20  C   UNL     1     153.129 158.353 157.762  1.00  0.00    -0.000 C 
BRANCH  20  21
ATOM     21  C   UNL     1     152.452 158.271 156.386  1.00  0.00    -0.000 C 
BRANCH  21  22
ATOM     22  C   UNL     1     153.283 157.476 155.362  1.00  0.00    -0.000 C 
BRANCH  22  23
ATOM     23  C   UNL     1     152.744 156.054 155.146  1.00  0.00    -0.000 C 
BRANCH  23  24
ATOM     24  C   UNL     1     152.150 155.856 153.740  1.00  0.00    -0.000 C 
BRANCH  24  25
ATOM     25  C   UNL     1     150.631 156.086 153.703  1.00  0.00    -0.003 C 
ATOM     26  C   UNL     1     149.854 155.019 154.475  1.00  0.00     0.004 C 
ENDBRANCH  24  25
ENDBRANCH  23  24
ENDBRANCH  22  23
ENDBRANCH  21  22
ENDBRANCH  20  21
ENDBRANCH  19  20
ENDBRANCH  18  19
ENDBRANCH  17  18
ENDBRANCH  16  17
ENDBRANCH  15  16
ENDBRANCH   1  15
TORSDOF 22
ENDMDL
MODEL 5
REMARK VINA RESULT:    -3.283      6.998      9.303
REMARK INTER + INTRA:         -11.361
REMARK INTER:                  -8.876
REMARK INTRA:                  -2.485
REMARK UNBOUND:                -3.856
REMARK SMILES CCCCCCCCCCCCCCCCCCCCCCCC(=O)[O-]
REMARK SMILES IDX 13 1 14 2 15 3 16 4 17 5 18 6 19 7 20 8 21 9 22 10 23 11
REMARK SMILES IDX 24 12 25 13 26 14 12 15 11 16 10 17 9 18 8 19 7 20 6 21 5 22
REMARK SMILES IDX 4 23 3 24 2 25 1 26
REMARK H PARENT
REMARK Flexibility Score: inf
ROOT
ATOM      1  C   UNL     1     153.867 156.395 154.621  1.00  0.00     0.000 C 
ENDROOT
BRANCH   1   2
ATOM      2  C   UNL     1     152.991 155.759 153.526  1.00  0.00     0.000 C 
BRANCH   2   3
ATOM      3  C   UNL     1     151.744 156.597 153.199  1.00  0.00     0.000 C 
BRANCH   3   4
ATOM      4  C   UNL     1     151.345 156.512 151.716  1.00  0.00     0.000 C 
BRANCH   4   5
ATOM      5  C   UNL     1     152.533 156.745 150.765  1.00  0.00     0.000 C 
BRANCH   5   6
ATOM      6  C   UNL     1     152.226 156.526 149.269  1.00  0.00     0.000 C 
BRANCH   6   7
ATOM      7  C   UNL     1     150.765 156.786 148.850  1.00  0.00     0.000 C 
BRANCH   7   8
ATOM      8  C   UNL     1     150.157 155.730 147.908  1.00  0.00     0.000 C 
BRANCH   8   9
ATOM      9  C   UNL     1     148.993 154.957 148.553  1.00  0.00     0.000 C 
BRANCH   9  10
ATOM     10  C   UNL     1     148.526 153.767 147.699  1.00  0.00     0.006 C 
BRANCH  10  11
ATOM     11  C   UNL     1     149.543 153.373 146.618  1.00  0.00     0.053 C 
BRANCH  11  12
ATOM     12  C   UNL     1     150.098 152.010 146.891  1.00  0.00     0.041 C 
ATOM     13  O   UNL     1     150.980 151.850 147.777  1.00  0.00    -0.550 OA
ATOM     14  O   UNL     1     149.661 150.919 146.147  1.00  0.00    -0.550 OA
ENDBRANCH  11  12
ENDBRANCH  10  11
ENDBRANCH   9  10
ENDBRANCH   8   9
ENDBRANCH   7   8
ENDBRANCH   6   7
ENDBRANCH   5   6
ENDBRANCH   4   5
ENDBRANCH   3   4
ENDBRANCH   2   3
ENDBRANCH   1   2
BRANCH   1  15
ATOM     15  C   UNL     1     154.537 155.352 155.534  1.00  0.00     0.000 C 
BRANCH  15  16
ATOM     16  C   UNL     1     154.291 155.545 157.042  1.00  0.00     0.000 C 
BRANCH  16  17
ATOM     17  C   UNL     1     155.347 154.845 157.916  1.00  0.00     0.000 C 
BRANCH  17  18
ATOM     18  C   UNL     1     154.727 153.836 158.898  1.00  0.00    -0.000 C 
BRANCH  18  19
ATOM     19  C   UNL     1     154.048 152.653 158.194  1.00  0.00    -0.000 C 
BRANCH  19  20
ATOM     20  C   UNL     1     153.150 151.877 159.170  1.00  0.00    -0.000 C 
BRANCH  20  21
ATOM     21  C   UNL     1     151.964 152.710 159.677  1.00  0.00    -0.000 C 
BRANCH  21  22
ATOM     22  C   UNL     1     151.182 153.385 158.536  1.00  0.00    -0.000 C 
BRANCH  22  23
ATOM     23  C   UNL     1     150.943 154.881 158.792  1.00  0.00    -0.000 C 
BRANCH  23  24
ATOM     24  C   UNL     1     150.680 155.667 157.495  1.00  0.00    -0.000 C 
BRANCH  24  25
ATOM     25  C   UNL     1     150.707 154.771 156.247  1.00  0.00    -0.003 C 
ATOM     26  C   UNL     1     149.358 154.716 155.530  1.00  0.00     0.004 C 
ENDBRANCH  24  25
ENDBRANCH  23  24
ENDBRANCH  22  23
ENDBRANCH  21  22
ENDBRANCH  20  21
ENDBRANCH  19  20
ENDBRANCH  18  19
ENDBRANCH  17  18
ENDBRANCH  16  17
ENDBRANCH  15  16
ENDBRANCH   1  15
TORSDOF 22
ENDMDL
MODEL 6
REMARK VINA RESULT:    -3.262      5.206      7.873
REMARK INTER + INTRA:         -11.314
REMARK INTER:                  -8.062
REMARK INTRA:                  -3.252
REMARK UNBOUND:                -3.856
REMARK SMILES CCCCCCCCCCCCCCCCCCCCCCCC(=O)[O-]
REMARK SMILES IDX 13 1 14 2 15 3 16 4 17 5 18 6 19 7 20 8 21 9 22 10 23 11
REMARK SMILES IDX 24 12 25 13 26 14 12 15 11 16 10 17 9 18 8 19 7 20 6 21 5 22
REMARK SMILES IDX 4 23 3 24 2 25 1 26
REMARK H PARENT
REMARK Flexibility Score: inf
ROOT
ATOM      1  C   UNL     1     150.789 156.696 157.673  1.00  0.00     0.000 C 
ENDROOT
BRANCH   1   2
ATOM      2  C   UNL     1     151.169 156.403 156.210  1.00  0.00     0.000 C 
BRANCH   2   3
ATOM      3  C   UNL     1     150.438 155.177 155.638  1.00  0.00     0.000 C 
BRANCH   3   4
ATOM      4  C   UNL     1     150.047 155.356 154.161  1.00  0.00     0.000 C 
BRANCH   4   5
ATOM      5  C   UNL     1     150.572 156.674 153.562  1.00  0.00     0.000 C 
BRANCH   5   6
ATOM      6  C   UNL     1     151.701 156.516 152.522  1.00  0.00     0.000 C 
BRANCH   6   7
ATOM      7  C   UNL     1     152.961 155.781 153.023  1.00  0.00     0.000 C 
BRANCH   7   8
ATOM      8  C   UNL     1     154.060 156.690 153.604  1.00  0.00     0.000 C 
BRANCH   8   9
ATOM      9  C   UNL     1     155.368 156.633 152.795  1.00  0.00     0.000 C 
BRANCH   9  10
ATOM     10  C   UNL     1     155.220 157.230 151.386  1.00  0.00     0.006 C 
BRANCH  10  11
ATOM     11  C   UNL     1     156.418 158.098 150.977  1.00  0.00     0.053 C 
BRANCH  11  12
ATOM     12  C   UNL     1     156.812 157.815 149.561  1.00  0.00     0.041 C 
ATOM     13  O   UNL     1     155.930 157.675 148.672  1.00  0.00    -0.550 OA
ATOM     14  O   UNL     1     158.155 157.677 149.227  1.00  0.00    -0.550 OA
ENDBRANCH  11  12
ENDBRANCH  10  11
ENDBRANCH   9  10
ENDBRANCH   8   9
ENDBRANCH   7   8
ENDBRANCH   6   7
ENDBRANCH   5   6
ENDBRANCH   4   5
ENDBRANCH   3   4
ENDBRANCH   2   3
ENDBRANCH   1   2
BRANCH   1  15
ATOM     15  C   UNL     1     150.249 155.456 158.412  1.00  0.00     0.000 C 
BRANCH  15  16
ATOM     16  C   UNL     1     151.254 154.763 159.351  1.00  0.00     0.000 C 
BRANCH  16  17
ATOM     17  C   UNL     1     151.532 153.302 158.957  1.00  0.00     0.000 C 
BRANCH  17  18
ATOM     18  C   UNL     1     151.995 152.446 160.148  1.00  0.00    -0.000 C 
BRANCH  18  19
ATOM     19  C   UNL     1     153.059 151.408 159.763  1.00  0.00    -0.000 C 
BRANCH  19  20
ATOM     20  C   UNL     1     153.280 151.388 158.242  1.00  0.00    -0.000 C 
BRANCH  20  21
ATOM     21  C   UNL     1     154.766 151.331 157.858  1.00  0.00    -0.000 C 
BRANCH  21  22
ATOM     22  C   UNL     1     155.349 152.718 157.535  1.00  0.00    -0.000 C 
BRANCH  22  23
ATOM     23  C   UNL     1     154.357 153.610 156.771  1.00  0.00    -0.000 C 
BRANCH  23  24
ATOM     24  C   UNL     1     154.501 155.098 157.135  1.00  0.00    -0.000 C 
BRANCH  24  25
ATOM     25  C   UNL     1     154.648 155.323 158.648  1.00  0.00    -0.003 C 
ATOM     26  C   UNL     1     154.630 156.804 159.028  1.00  0.00     0.004 C 
ENDBRANCH  24  25
ENDBRANCH  23  24
ENDBRANCH  22  23
ENDBRANCH  21  22
ENDBRANCH  20  21
ENDBRANCH  19  20
ENDBRANCH  18  19
ENDBRANCH  17  18
ENDBRANCH  16  17
ENDBRANCH  15  16
ENDBRANCH   1  15
TORSDOF 22
ENDMDL
MODEL 7
REMARK VINA RESULT:    -3.245      2.664      5.047
REMARK INTER + INTRA:         -11.274
REMARK INTER:                  -7.107
REMARK INTRA:                  -4.166
REMARK UNBOUND:                -3.856
REMARK SMILES CCCCCCCCCCCCCCCCCCCCCCCC(=O)[O-]
REMARK SMILES IDX 13 1 14 2 15 3 16 4 17 5 18 6 19 7 20 8 21 9 22 10 23 11
REMARK SMILES IDX 24 12 25 13 26 14 12 15 11 16 10 17 9 18 8 19 7 20 6 21 5 22
REMARK SMILES IDX 4 23 3 24 2 25 1 26
REMARK H PARENT
REMARK Flexibility Score: inf
ROOT
ATOM      1  C   UNL     1     151.279 152.805 158.109  1.00  0.00     0.000 C 
ENDROOT
BRANCH   1   2
ATOM      2  C   UNL     1     151.818 152.396 159.491  1.00  0.00     0.000 C 
BRANCH   2   3
ATOM      3  C   UNL     1     152.996 151.411 159.404  1.00  0.00     0.000 C 
BRANCH   3   4
ATOM      4  C   UNL     1     153.500 151.214 157.965  1.00  0.00     0.000 C 
BRANCH   4   5
ATOM      5  C   UNL     1     154.989 151.568 157.802  1.00  0.00     0.000 C 
BRANCH   5   6
ATOM      6  C   UNL     1     155.267 152.943 157.159  1.00  0.00     0.000 C 
BRANCH   6   7
ATOM      7  C   UNL     1     154.461 154.121 157.744  1.00  0.00     0.000 C 
BRANCH   7   8
ATOM      8  C   UNL     1     155.305 155.232 158.396  1.00  0.00     0.000 C 
BRANCH   8   9
ATOM      9  C   UNL     1     154.451 156.403 158.911  1.00  0.00     0.000 C 
BRANCH   9  10
ATOM     10  C   UNL     1     155.220 157.734 158.932  1.00  0.00     0.006 C 
BRANCH  10  11
ATOM     11  C   UNL     1     154.748 158.680 160.045  1.00  0.00     0.053 C 
BRANCH  11  12
ATOM     12  C   UNL     1     155.751 158.726 161.155  1.00  0.00     0.041 C 
ATOM     13  O   UNL     1     156.774 157.992 161.116  1.00  0.00    -0.550 OA
ATOM     14  O   UNL     1     155.541 159.560 162.248  1.00  0.00    -0.550 OA
ENDBRANCH  11  12
ENDBRANCH  10  11
ENDBRANCH   9  10
ENDBRANCH   8   9
ENDBRANCH   7   8
ENDBRANCH   6   7
ENDBRANCH   5   6
ENDBRANCH   4   5
ENDBRANCH   3   4
ENDBRANCH   2   3
ENDBRANCH   1   2
BRANCH   1  15
ATOM     15  C   UNL     1     150.667 154.218 158.097  1.00  0.00     0.000 C 
BRANCH  15  16
ATOM     16  C   UNL     1     151.132 155.144 159.237  1.00  0.00     0.000 C 
BRANCH  16  17
ATOM     17  C   UNL     1     150.689 156.604 159.041  1.00  0.00     0.000 C 
BRANCH  17  18
ATOM     18  C   UNL     1     150.636 157.012 157.558  1.00  0.00    -0.000 C 
BRANCH  18  19
ATOM     19  C   UNL     1     151.720 158.029 157.177  1.00  0.00    -0.000 C 
BRANCH  19  20
ATOM     20  C   UNL     1     152.294 157.722 155.784  1.00  0.00    -0.000 C 
BRANCH  20  21
ATOM     21  C   UNL     1     152.527 156.221 155.555  1.00  0.00    -0.000 C 
BRANCH  21  22
ATOM     22  C   UNL     1     152.998 155.905 154.124  1.00  0.00    -0.000 C 
BRANCH  22  23
ATOM     23  C   UNL     1     154.339 156.575 153.785  1.00  0.00    -0.000 C 
BRANCH  23  24
ATOM     24  C   UNL     1     155.486 156.088 154.689  1.00  0.00    -0.000 C 
BRANCH  24  25
ATOM     25  C   UNL     1     156.167 157.237 155.449  1.00  0.00    -0.003 C 
ATOM     26  C   UNL     1     155.855 158.608 154.848  1.00  0.00     0.004 C 
ENDBRANCH  24  25
ENDBRANCH  23  24
ENDBRANCH  22  23
ENDBRANCH  21  22
ENDBRANCH  20  21
ENDBRANCH  19  20
ENDBRANCH  18  19
ENDBRANCH  17  18
ENDBRANCH  16  17
ENDBRANCH  15  16
ENDBRANCH   1  15
TORSDOF 22
ENDMDL
MODEL 8
REMARK VINA RESULT:    -3.238      2.988      6.627
REMARK INTER + INTRA:         -11.258
REMARK INTER:                  -7.229
REMARK INTRA:                  -4.029
REMARK UNBOUND:                -3.856
REMARK SMILES CCCCCCCCCCCCCCCCCCCCCCCC(=O)[O-]
REMARK SMILES IDX 13 1 14 2 15 3 16 4 17 5 18 6 19 7 20 8 21 9 22 10 23 11
REMARK SMILES IDX 24 12 25 13 26 14 12 15 11 16 10 17 9 18 8 19 7 20 6 21 5 22
REMARK SMILES IDX 4 23 3 24 2 25 1 26
REMARK H PARENT
REMARK Flexibility Score: inf
ROOT
ATOM      1  C   UNL     1     151.847 153.979 159.169  1.00  0.00     0.000 C 
ENDROOT
BRANCH   1   2
ATOM      2  C   UNL     1     150.977 154.271 157.933  1.00  0.00     0.000 C 
BRANCH   2   3
ATOM      3  C   UNL     1     150.256 155.626 158.018  1.00  0.00     0.000 C 
BRANCH   3   4
ATOM      4  C   UNL     1     150.550 156.373 159.330  1.00  0.00     0.000 C 
BRANCH   4   5
ATOM      5  C   UNL     1     150.849 157.868 159.110  1.00  0.00     0.000 C 
BRANCH   5   6
ATOM      6  C   UNL     1     151.683 158.538 160.222  1.00  0.00     0.000 C 
BRANCH   6   7
ATOM      7  C   UNL     1     153.044 159.108 159.774  1.00  0.00     0.000 C 
BRANCH   7   8
ATOM      8  C   UNL     1     154.276 158.352 160.304  1.00  0.00     0.000 C 
BRANCH   8   9
ATOM      9  C   UNL     1     155.603 158.958 159.814  1.00  0.00     0.000 C 
BRANCH   9  10
ATOM     10  C   UNL     1     156.778 157.973 159.915  1.00  0.00     0.006 C 
BRANCH  10  11
ATOM     11  C   UNL     1     157.504 157.770 158.578  1.00  0.00     0.053 C 
BRANCH  11  12
ATOM     12  C   UNL     1     158.756 156.972 158.776  1.00  0.00     0.041 C 
ATOM     13  O   UNL     1     158.703 155.715 158.845  1.00  0.00    -0.550 OA
ATOM     14  O   UNL     1     159.979 157.620 158.913  1.00  0.00    -0.550 OA
ENDBRANCH  11  12
ENDBRANCH  10  11
ENDBRANCH   9  10
ENDBRANCH   8   9
ENDBRANCH   7   8
ENDBRANCH   6   7
ENDBRANCH   5   6
ENDBRANCH   4   5
ENDBRANCH   3   4
ENDBRANCH   2   3
ENDBRANCH   1   2
BRANCH   1  15
ATOM     15  C   UNL     1     151.665 152.546 159.706  1.00  0.00     0.000 C 
BRANCH  15  16
ATOM     16  C   UNL     1     152.877 151.615 159.513  1.00  0.00     0.000 C 
BRANCH  16  17
ATOM     17  C   UNL     1     153.097 151.215 158.044  1.00  0.00     0.000 C 
BRANCH  17  18
ATOM     18  C   UNL     1     154.540 151.466 157.573  1.00  0.00    -0.000 C 
BRANCH  18  19
ATOM     19  C   UNL     1     154.789 152.921 157.154  1.00  0.00    -0.000 C 
BRANCH  19  20
ATOM     20  C   UNL     1     155.358 153.738 158.325  1.00  0.00    -0.000 C 
BRANCH  20  21
ATOM     21  C   UNL     1     155.126 155.248 158.164  1.00  0.00    -0.000 C 
BRANCH  21  22
ATOM     22  C   UNL     1     154.409 155.601 156.848  1.00  0.00    -0.000 C 
BRANCH  22  23
ATOM     23  C   UNL     1     153.685 156.955 156.919  1.00  0.00    -0.000 C 
BRANCH  23  24
ATOM     24  C   UNL     1     152.727 157.173 155.734  1.00  0.00    -0.000 C 
BRANCH  24  25
ATOM     25  C   UNL     1     152.504 155.894 154.912  1.00  0.00    -0.003 C 
ATOM     26  C   UNL     1     151.088 155.801 154.341  1.00  0.00     0.004 C 
ENDBRANCH  24  25
ENDBRANCH  23  24
ENDBRANCH  22  23
ENDBRANCH  21  22
ENDBRANCH  20  21
ENDBRANCH  19  20
ENDBRANCH  18  19
ENDBRANCH  17  18
ENDBRANCH  16  17
ENDBRANCH  15  16
ENDBRANCH   1  15
TORSDOF 22
ENDMDL
MODEL 9
REMARK VINA RESULT:    -3.230      2.179      5.245
REMARK INTER + INTRA:         -11.239
REMARK INTER:                  -7.006
REMARK INTRA:                  -4.233
REMARK UNBOUND:                -3.856
REMARK SMILES CCCCCCCCCCCCCCCCCCCCCCCC(=O)[O-]
REMARK SMILES IDX 13 1 14 2 15 3 16 4 17 5 18 6 19 7 20 8 21 9 22 10 23 11
REMARK SMILES IDX 24 12 25 13 26 14 12 15 11 16 10 17 9 18 8 19 7 20 6 21 5 22
REMARK SMILES IDX 4 23 3 24 2 25 1 26
REMARK H PARENT
REMARK Flexibility Score: inf
ROOT
ATOM      1  C   UNL     1     155.102 158.963 158.843  1.00  0.00     0.000 C 
ENDROOT
BRANCH   1   2
ATOM      2  C   UNL     1     154.218 157.921 159.551  1.00  0.00     0.000 C 
BRANCH   2   3
ATOM      3  C   UNL     1     154.420 156.497 159.005  1.00  0.00     0.000 C 
BRANCH   3   4
ATOM      4  C   UNL     1     154.574 156.465 157.476  1.00  0.00     0.000 C 
BRANCH   4   5
ATOM      5  C   UNL     1     154.983 155.078 156.947  1.00  0.00     0.000 C 
BRANCH   5   6
ATOM      6  C   UNL     1     155.233 154.012 158.035  1.00  0.00     0.000 C 
BRANCH   6   7
ATOM      7  C   UNL     1     154.871 152.567 157.638  1.00  0.00     0.000 C 
BRANCH   7   8
ATOM      8  C   UNL     1     153.890 151.854 158.588  1.00  0.00     0.000 C 
BRANCH   8   9
ATOM      9  C   UNL     1     153.420 152.755 159.743  1.00  0.00     0.000 C 
BRANCH   9  10
ATOM     10  C   UNL     1     151.893 152.933 159.773  1.00  0.00     0.006 C 
BRANCH  10  11
ATOM     11  C   UNL     1     151.289 153.143 158.378  1.00  0.00     0.053 C 
BRANCH  11  12
ATOM     12  C   UNL     1     151.263 154.599 158.032  1.00  0.00     0.041 C 
ATOM     13  O   UNL     1     151.062 155.461 158.929  1.00  0.00    -0.550 OA
ATOM     14  O   UNL     1     151.431 155.004 156.712  1.00  0.00    -0.550 OA
ENDBRANCH  11  12
ENDBRANCH  10  11
ENDBRANCH   9  10
ENDBRANCH   8   9
ENDBRANCH   7   8
ENDBRANCH   6   7
ENDBRANCH   5   6
ENDBRANCH   4   5
ENDBRANCH   3   4
ENDBRANCH   2   3
ENDBRANCH   1   2
BRANCH   1  15
ATOM     15  C   UNL     1     156.312 159.399 159.691  1.00  0.00     0.000 C 
BRANCH  15  16
ATOM     16  C   UNL     1     156.225 159.048 161.188  1.00  0.00     0.000 C 
BRANCH  16  17
ATOM     17  C   UNL     1     157.272 158.007 161.621  1.00  0.00     0.000 C 
BRANCH  17  18
ATOM     18  C   UNL     1     158.472 157.942 160.660  1.00  0.00    -0.000 C 
BRANCH  18  19
ATOM     19  C   UNL     1     158.789 156.514 160.194  1.00  0.00    -0.000 C 
BRANCH  19  20
ATOM     20  C   UNL     1     158.121 156.219 158.841  1.00  0.00    -0.000 C 
BRANCH  20  21
ATOM     21  C   UNL     1     158.860 156.865 157.660  1.00  0.00    -0.000 C 
BRANCH  21  22
ATOM     22  C   UNL     1     157.947 157.770 156.813  1.00  0.00    -0.000 C 
BRANCH  22  23
ATOM     23  C   UNL     1     158.163 157.576 155.304  1.00  0.00    -0.000 C 
BRANCH  23  24
ATOM     24  C   UNL     1     156.871 157.171 154.571  1.00  0.00    -0.000 C 
BRANCH  24  25
ATOM     25  C   UNL     1     156.158 158.370 153.927  1.00  0.00    -0.003 C 
ATOM     26  C   UNL     1     154.782 158.636 154.538  1.00  0.00     0.004 C 
ENDBRANCH  24  25
ENDBRANCH  23  24
ENDBRANCH  22  23
ENDBRANCH  21  22
ENDBRANCH  20  21
ENDBRANCH  19  20
ENDBRANCH  18  19
ENDBRANCH  17  18
ENDBRANCH  16  17
ENDBRANCH  15  16
ENDBRANCH   1  15
TORSDOF 22
ENDMDL
