MODEL 1
REMARK VINA RESULT:    -6.647      0.000      0.000
REMARK INTER + INTRA:          -6.842
REMARK INTER:                  -6.842
REMARK INTRA:                   0.000
REMARK UNBOUND:                 0.000
REMARK SMILES CC1(C)CC[C@]2(C)CC[C@@]3(C)C(=CC[C@H]4[C@]5(C)CC[C@@H](O)C(C)(C)[C@H]5CC[C@@]43C)[C@@H]2C1
REMARK SMILES IDX 1 1 2 2 4 3 5 4 6 5 8 6 9 7 10 8 12 9 13 10 14 11 15 12
REMARK SMILES IDX 28 13 27 14 26 15 25 16 16 17 18 18 19 19 20 20 22 21 23 22
REMARK SMILES IDX 24 23 17 24 29 25 30 26 31 27 11 28 7 29 3 30 21 31
REMARK H PARENT 21 32
REMARK Flexibility Score: inf
ROOT
ATOM      1  C   UNL     1      41.889 -40.474  -4.742  1.00  0.00     0.011 C 
ATOM      2  C   UNL     1      42.723 -39.276  -4.235  1.00  0.00    -0.035 C 
ATOM      3  C   UNL     1      43.132 -39.532  -2.758  1.00  0.00     0.007 C 
ATOM      4  C   UNL     1      43.436 -38.220  -2.028  1.00  0.00     0.008 C 
ATOM      5  C   UNL     1      42.152 -37.346  -1.848  1.00  0.00    -0.026 C 
ATOM      6  C   UNL     1      41.460 -37.808  -0.537  1.00  0.00     0.008 C 
ATOM      7  C   UNL     1      40.049 -37.243  -0.378  1.00  0.00     0.012 C 
ATOM      8  C   UNL     1      39.052 -37.685  -1.515  1.00  0.00    -0.006 C 
ATOM      9  C   UNL     1      39.828 -38.138  -2.774  1.00  0.00    -0.064 C 
ATOM     10  C   UNL     1      39.165 -38.844  -3.723  1.00  0.00    -0.027 C 
ATOM     11  C   UNL     1      37.963 -39.709  -3.460  1.00  0.00     0.032 C 
ATOM     12  C   UNL     1      37.128 -39.286  -2.228  1.00  0.00     0.006 C 
ATOM     13  C   UNL     1      38.053 -38.857  -1.018  1.00  0.00    -0.020 C 
ATOM     14  C   UNL     1      37.141 -38.381   0.166  1.00  0.00     0.008 C 
ATOM     15  C   UNL     1      35.992 -39.340   0.509  1.00  0.00     0.005 C 
ATOM     16  C   UNL     1      35.087 -39.578  -0.725  1.00  0.00     0.003 C 
ATOM     17  C   UNL     1      35.896 -40.249  -1.899  1.00  0.00    -0.025 C 
ATOM     18  C   UNL     1      34.957 -40.302  -3.150  1.00  0.00     0.010 C 
ATOM     19  C   UNL     1      33.585 -40.939  -2.882  1.00  0.00     0.033 C 
ATOM     20  C   UNL     1      32.837 -40.241  -1.737  1.00  0.00     0.120 C 
ATOM     21  C   UNL     1      33.662 -40.193  -0.411  1.00  0.00    -0.006 C 
ATOM     22  C   UNL     1      33.726 -41.591   0.256  1.00  0.00     0.014 C 
ATOM     23  C   UNL     1      32.894 -39.257   0.566  1.00  0.00     0.014 C 
ATOM     24  C   UNL     1      36.354 -41.712  -1.569  1.00  0.00     0.012 C 
ATOM     25  C   UNL     1      38.908 -40.059  -0.508  1.00  0.00     0.012 C 
ATOM     26  C   UNL     1      41.174 -37.444  -3.097  1.00  0.00     0.022 C 
ATOM     27  C   UNL     1      41.939 -37.926  -4.374  1.00  0.00     0.015 C 
ATOM     28  C   UNL     1      38.300 -36.382  -1.947  1.00  0.00     0.017 C 
ATOM     29  C   UNL     1      42.619 -35.875  -1.679  1.00  0.00     0.012 C 
ATOM     30  C   UNL     1      43.995 -39.202  -5.119  1.00  0.00     0.011 C 
ENDROOT
BRANCH  20  31
ATOM     31  O   UNL     1      31.606 -40.892  -1.525  1.00  0.00    -0.393 OA
ATOM     32  H   UNL     1      31.530 -41.065  -0.553  1.00  0.00     0.210 HD
ENDBRANCH  20  31
TORSDOF 1
ENDMDL
MODEL 2
REMARK VINA RESULT:    -6.466      8.970     12.284
REMARK INTER + INTRA:          -6.655
REMARK INTER:                  -6.655
REMARK INTRA:                   0.000
REMARK UNBOUND:                 0.000
REMARK SMILES CC1(C)CC[C@]2(C)CC[C@@]3(C)C(=CC[C@H]4[C@]5(C)CC[C@@H](O)C(C)(C)[C@H]5CC[C@@]43C)[C@@H]2C1
REMARK SMILES IDX 1 1 2 2 4 3 5 4 6 5 8 6 9 7 10 8 12 9 13 10 14 11 15 12
REMARK SMILES IDX 28 13 27 14 26 15 25 16 16 17 18 18 19 19 20 20 22 21 23 22
REMARK SMILES IDX 24 23 17 24 29 25 30 26 31 27 11 28 7 29 3 30 21 31
REMARK H PARENT 21 32
REMARK Flexibility Score: inf
ROOT
ATOM      1  C   UNL     1      32.317 -37.341   4.644  1.00  0.00     0.011 C 
ATOM      2  C   UNL     1      33.207 -38.162   3.684  1.00  0.00    -0.035 C 
ATOM      3  C   UNL     1      32.802 -39.659   3.775  1.00  0.00     0.007 C 
ATOM      4  C   UNL     1      33.949 -40.575   3.335  1.00  0.00     0.008 C 
ATOM      5  C   UNL     1      35.151 -40.519   4.332  1.00  0.00    -0.026 C 
ATOM      6  C   UNL     1      34.872 -41.559   5.450  1.00  0.00     0.008 C 
ATOM      7  C   UNL     1      35.817 -41.417   6.643  1.00  0.00     0.012 C 
ATOM      8  C   UNL     1      35.715 -40.028   7.377  1.00  0.00    -0.006 C 
ATOM      9  C   UNL     1      35.093 -38.962   6.444  1.00  0.00    -0.064 C 
ATOM     10  C   UNL     1      34.636 -37.809   6.993  1.00  0.00    -0.027 C 
ATOM     11  C   UNL     1      34.149 -37.671   8.409  1.00  0.00     0.032 C 
ATOM     12  C   UNL     1      34.760 -38.693   9.398  1.00  0.00     0.006 C 
ATOM     13  C   UNL     1      34.869 -40.134   8.753  1.00  0.00    -0.020 C 
ATOM     14  C   UNL     1      35.555 -41.095   9.786  1.00  0.00     0.008 C 
ATOM     15  C   UNL     1      34.959 -41.037  11.200  1.00  0.00     0.005 C 
ATOM     16  C   UNL     1      35.029 -39.598  11.768  1.00  0.00     0.003 C 
ATOM     17  C   UNL     1      34.186 -38.600  10.886  1.00  0.00    -0.025 C 
ATOM     18  C   UNL     1      34.443 -37.156  11.430  1.00  0.00     0.010 C 
ATOM     19  C   UNL     1      34.223 -37.004  12.943  1.00  0.00     0.033 C 
ATOM     20  C   UNL     1      35.075 -37.992  13.754  1.00  0.00     0.120 C 
ATOM     21  C   UNL     1      34.845 -39.479  13.336  1.00  0.00    -0.006 C 
ATOM     22  C   UNL     1      33.469 -39.991  13.837  1.00  0.00     0.014 C 
ATOM     23  C   UNL     1      35.934 -40.325  14.055  1.00  0.00     0.014 C 
ATOM     24  C   UNL     1      32.645 -38.880  10.949  1.00  0.00     0.012 C 
ATOM     25  C   UNL     1      33.457 -40.713   8.427  1.00  0.00     0.012 C 
ATOM     26  C   UNL     1      35.376 -39.061   4.925  1.00  0.00     0.022 C 
ATOM     27  C   UNL     1      34.729 -37.974   4.005  1.00  0.00     0.015 C 
ATOM     28  C   UNL     1      37.192 -39.559   7.602  1.00  0.00     0.017 C 
ATOM     29  C   UNL     1      36.418 -40.951   3.546  1.00  0.00     0.012 C 
ATOM     30  C   UNL     1      32.935 -37.637   2.251  1.00  0.00     0.011 C 
ENDROOT
BRANCH  20  31
ATOM     31  O   UNL     1      34.803 -37.820  15.124  1.00  0.00    -0.393 OA
ATOM     32  H   UNL     1      35.646 -37.988  15.615  1.00  0.00     0.210 HD
ENDBRANCH  20  31
TORSDOF 1
ENDMDL
MODEL 3
REMARK VINA RESULT:    -6.454      4.321      9.424
REMARK INTER + INTRA:          -6.643
REMARK INTER:                  -6.643
REMARK INTRA:                   0.000
REMARK UNBOUND:                 0.000
REMARK SMILES CC1(C)CC[C@]2(C)CC[C@@]3(C)C(=CC[C@H]4[C@]5(C)CC[C@@H](O)C(C)(C)[C@H]5CC[C@@]43C)[C@@H]2C1
REMARK SMILES IDX 1 1 2 2 4 3 5 4 6 5 8 6 9 7 10 8 12 9 13 10 14 11 15 12
REMARK SMILES IDX 28 13 27 14 26 15 25 16 16 17 18 18 19 19 20 20 22 21 23 22
REMARK SMILES IDX 24 23 17 24 29 25 30 26 31 27 11 28 7 29 3 30 21 31
REMARK H PARENT 21 32
REMARK Flexibility Score: inf
ROOT
ATOM      1  C   UNL     1      40.257 -36.186   0.837  1.00  0.00     0.011 C 
ATOM      2  C   UNL     1      39.065 -36.582  -0.062  1.00  0.00    -0.035 C 
ATOM      3  C   UNL     1      38.869 -38.122   0.004  1.00  0.00     0.007 C 
ATOM      4  C   UNL     1      38.138 -38.646  -1.236  1.00  0.00     0.008 C 
ATOM      5  C   UNL     1      39.007 -38.500  -2.527  1.00  0.00    -0.026 C 
ATOM      6  C   UNL     1      39.898 -39.768  -2.629  1.00  0.00     0.008 C 
ATOM      7  C   UNL     1      41.000 -39.637  -3.680  1.00  0.00     0.012 C 
ATOM      8  C   UNL     1      42.021 -38.473  -3.393  1.00  0.00    -0.006 C 
ATOM      9  C   UNL     1      41.400 -37.425  -2.439  1.00  0.00    -0.064 C 
ATOM     10  C   UNL     1      42.223 -36.535  -1.832  1.00  0.00    -0.027 C 
ATOM     11  C   UNL     1      43.676 -36.783  -1.529  1.00  0.00     0.032 C 
ATOM     12  C   UNL     1      44.361 -37.801  -2.471  1.00  0.00     0.006 C 
ATOM     13  C   UNL     1      43.415 -39.029  -2.788  1.00  0.00    -0.020 C 
ATOM     14  C   UNL     1      44.149 -39.981  -3.796  1.00  0.00     0.008 C 
ATOM     15  C   UNL     1      45.592 -40.331  -3.404  1.00  0.00     0.005 C 
ATOM     16  C   UNL     1      46.446 -39.049  -3.250  1.00  0.00     0.003 C 
ATOM     17  C   UNL     1      45.882 -38.126  -2.103  1.00  0.00    -0.025 C 
ATOM     18  C   UNL     1      46.696 -36.791  -2.126  1.00  0.00     0.010 C 
ATOM     19  C   UNL     1      48.220 -36.982  -2.091  1.00  0.00     0.033 C 
ATOM     20  C   UNL     1      48.717 -37.879  -3.235  1.00  0.00     0.120 C 
ATOM     21  C   UNL     1      48.014 -39.273  -3.265  1.00  0.00    -0.006 C 
ATOM     22  C   UNL     1      48.519 -40.176  -2.110  1.00  0.00     0.014 C 
ATOM     23  C   UNL     1      48.430 -39.961  -4.596  1.00  0.00     0.014 C 
ATOM     24  C   UNL     1      46.027 -38.764  -0.678  1.00  0.00     0.012 C 
ATOM     25  C   UNL     1      43.105 -39.850  -1.497  1.00  0.00     0.012 C 
ATOM     26  C   UNL     1      39.875 -37.168  -2.523  1.00  0.00     0.022 C 
ATOM     27  C   UNL     1      39.275 -36.108  -1.541  1.00  0.00     0.015 C 
ATOM     28  C   UNL     1      42.202 -37.724  -4.756  1.00  0.00     0.017 C 
ATOM     29  C   UNL     1      38.032 -38.469  -3.734  1.00  0.00     0.012 C 
ATOM     30  C   UNL     1      37.809 -35.875   0.510  1.00  0.00     0.011 C 
ENDROOT
BRANCH  20  31
ATOM     31  O   UNL     1      50.112 -38.036  -3.126  1.00  0.00    -0.393 OA
ATOM     32  H   UNL     1      50.523 -37.533  -3.873  1.00  0.00     0.210 HD
ENDBRANCH  20  31
TORSDOF 1
ENDMDL
MODEL 4
REMARK VINA RESULT:    -6.397      4.723      7.853
REMARK INTER + INTRA:          -6.584
REMARK INTER:                  -6.584
REMARK INTRA:                   0.000
REMARK UNBOUND:                 0.000
REMARK SMILES CC1(C)CC[C@]2(C)CC[C@@]3(C)C(=CC[C@H]4[C@]5(C)CC[C@@H](O)C(C)(C)[C@H]5CC[C@@]43C)[C@@H]2C1
REMARK SMILES IDX 1 1 2 2 4 3 5 4 6 5 8 6 9 7 10 8 12 9 13 10 14 11 15 12
REMARK SMILES IDX 28 13 27 14 26 15 25 16 16 17 18 18 19 19 20 20 22 21 23 22
REMARK SMILES IDX 24 23 17 24 29 25 30 26 31 27 11 28 7 29 3 30 21 31
REMARK H PARENT 21 32
REMARK Flexibility Score: inf
ROOT
ATOM      1  C   UNL     1      36.238 -39.874  -3.188  1.00  0.00     0.011 C 
ATOM      2  C   UNL     1      35.336 -41.040  -3.653  1.00  0.00    -0.035 C 
ATOM      3  C   UNL     1      33.875 -40.530  -3.782  1.00  0.00     0.007 C 
ATOM      4  C   UNL     1      32.870 -41.680  -3.668  1.00  0.00     0.008 C 
ATOM      5  C   UNL     1      32.856 -42.299  -2.233  1.00  0.00    -0.026 C 
ATOM      6  C   UNL     1      31.860 -41.466  -1.381  1.00  0.00     0.008 C 
ATOM      7  C   UNL     1      31.953 -41.773   0.113  1.00  0.00     0.012 C 
ATOM      8  C   UNL     1      33.360 -41.451   0.744  1.00  0.00    -0.006 C 
ATOM      9  C   UNL     1      34.451 -41.401  -0.351  1.00  0.00    -0.064 C 
ATOM     10  C   UNL     1      35.644 -40.831  -0.051  1.00  0.00    -0.027 C 
ATOM     11  C   UNL     1      35.843 -39.765   0.992  1.00  0.00     0.032 C 
ATOM     12  C   UNL     1      34.798 -39.783   2.132  1.00  0.00     0.006 C 
ATOM     13  C   UNL     1      33.341 -40.067   1.583  1.00  0.00    -0.020 C 
ATOM     14  C   UNL     1      32.351 -40.136   2.798  1.00  0.00     0.008 C 
ATOM     15  C   UNL     1      32.478 -38.969   3.788  1.00  0.00     0.005 C 
ATOM     16  C   UNL     1      33.918 -38.878   4.350  1.00  0.00     0.003 C 
ATOM     17  C   UNL     1      34.959 -38.604   3.199  1.00  0.00    -0.025 C 
ATOM     18  C   UNL     1      36.390 -38.691   3.825  1.00  0.00     0.010 C 
ATOM     19  C   UNL     1      36.585 -37.819   5.075  1.00  0.00     0.033 C 
ATOM     20  C   UNL     1      35.553 -38.134   6.167  1.00  0.00     0.120 C 
ATOM     21  C   UNL     1      34.079 -38.011   5.665  1.00  0.00    -0.006 C 
ATOM     22  C   UNL     1      33.678 -36.525   5.477  1.00  0.00     0.014 C 
ATOM     23  C   UNL     1      33.169 -38.589   6.786  1.00  0.00     0.014 C 
ATOM     24  C   UNL     1      34.794 -37.187   2.550  1.00  0.00     0.012 C 
ATOM     25  C   UNL     1      32.860 -38.919   0.641  1.00  0.00     0.012 C 
ATOM     26  C   UNL     1      34.304 -42.336  -1.577  1.00  0.00     0.022 C 
ATOM     27  C   UNL     1      35.419 -42.260  -2.672  1.00  0.00     0.015 C 
ATOM     28  C   UNL     1      33.723 -42.695   1.624  1.00  0.00     0.017 C 
ATOM     29  C   UNL     1      32.318 -43.749  -2.364  1.00  0.00     0.012 C 
ATOM     30  C   UNL     1      35.854 -41.489  -5.044  1.00  0.00     0.011 C 
ENDROOT
BRANCH  20  31
ATOM     31  O   UNL     1      35.769 -37.282   7.267  1.00  0.00    -0.393 OA
ATOM     32  H   UNL     1      34.886 -36.930   7.543  1.00  0.00     0.210 HD
ENDBRANCH  20  31
TORSDOF 1
ENDMDL
MODEL 5
REMARK VINA RESULT:    -6.352      1.600      2.185
REMARK INTER + INTRA:          -6.538
REMARK INTER:                  -6.538
REMARK INTRA:                   0.000
REMARK UNBOUND:                 0.000
REMARK SMILES CC1(C)CC[C@]2(C)CC[C@@]3(C)C(=CC[C@H]4[C@]5(C)CC[C@@H](O)C(C)(C)[C@H]5CC[C@@]43C)[C@@H]2C1
REMARK SMILES IDX 1 1 2 2 4 3 5 4 6 5 8 6 9 7 10 8 12 9 13 10 14 11 15 12
REMARK SMILES IDX 28 13 27 14 26 15 25 16 16 17 18 18 19 19 20 20 22 21 23 22
REMARK SMILES IDX 24 23 17 24 29 25 30 26 31 27 11 28 7 29 3 30 21 31
REMARK H PARENT 21 32
REMARK Flexibility Score: inf
ROOT
ATOM      1  C   UNL     1      41.420 -41.252  -3.648  1.00  0.00     0.011 C 
ATOM      2  C   UNL     1      42.321 -40.039  -3.970  1.00  0.00    -0.035 C 
ATOM      3  C   UNL     1      43.144 -39.670  -2.706  1.00  0.00     0.007 C 
ATOM      4  C   UNL     1      43.597 -38.206  -2.743  1.00  0.00     0.008 C 
ATOM      5  C   UNL     1      42.389 -37.222  -2.625  1.00  0.00    -0.026 C 
ATOM      6  C   UNL     1      42.117 -37.004  -1.111  1.00  0.00     0.008 C 
ATOM      7  C   UNL     1      40.792 -36.293  -0.842  1.00  0.00     0.012 C 
ATOM      8  C   UNL     1      39.528 -37.085  -1.347  1.00  0.00    -0.006 C 
ATOM      9  C   UNL     1      39.926 -38.110  -2.436  1.00  0.00    -0.064 C 
ATOM     10  C   UNL     1      39.045 -39.090  -2.755  1.00  0.00    -0.027 C 
ATOM     11  C   UNL     1      38.000 -39.637  -1.821  1.00  0.00     0.032 C 
ATOM     12  C   UNL     1      37.539 -38.646  -0.727  1.00  0.00     0.006 C 
ATOM     13  C   UNL     1      38.755 -37.826  -0.133  1.00  0.00    -0.020 C 
ATOM     14  C   UNL     1      38.204 -36.800   0.918  1.00  0.00     0.008 C 
ATOM     15  C   UNL     1      37.237 -37.403   1.947  1.00  0.00     0.005 C 
ATOM     16  C   UNL     1      36.025 -38.062   1.244  1.00  0.00     0.003 C 
ATOM     17  C   UNL     1      36.487 -39.249   0.315  1.00  0.00    -0.025 C 
ATOM     18  C   UNL     1      35.233 -39.747  -0.476  1.00  0.00     0.010 C 
ATOM     19  C   UNL     1      34.019 -40.071   0.408  1.00  0.00     0.033 C 
ATOM     20  C   UNL     1      33.605 -38.879   1.283  1.00  0.00     0.120 C 
ATOM     21  C   UNL     1      34.772 -38.341   2.171  1.00  0.00    -0.006 C 
ATOM     22  C   UNL     1      35.075 -39.313   3.341  1.00  0.00     0.014 C 
ATOM     23  C   UNL     1      34.283 -37.007   2.803  1.00  0.00     0.014 C 
ATOM     24  C   UNL     1      37.073 -40.462   1.118  1.00  0.00     0.012 C 
ATOM     25  C   UNL     1      39.763 -38.765   0.601  1.00  0.00     0.012 C 
ATOM     26  C   UNL     1      41.098 -37.756  -3.384  1.00  0.00     0.022 C 
ATOM     27  C   UNL     1      41.482 -38.814  -4.471  1.00  0.00     0.015 C 
ATOM     28  C   UNL     1      38.637 -36.032  -2.087  1.00  0.00     0.017 C 
ATOM     29  C   UNL     1      42.831 -35.875  -3.257  1.00  0.00     0.012 C 
ATOM     30  C   UNL     1      43.283 -40.477  -5.105  1.00  0.00     0.011 C 
ENDROOT
BRANCH  20  31
ATOM     31  O   UNL     1      32.511 -39.253   2.086  1.00  0.00    -0.393 OA
ATOM     32  H   UNL     1      31.731 -38.723   1.786  1.00  0.00     0.210 HD
ENDBRANCH  20  31
TORSDOF 1
ENDMDL
MODEL 6
REMARK VINA RESULT:    -6.341      1.547      2.174
REMARK INTER + INTRA:          -6.527
REMARK INTER:                  -6.527
REMARK INTRA:                   0.000
REMARK UNBOUND:                 0.000
REMARK SMILES CC1(C)CC[C@]2(C)CC[C@@]3(C)C(=CC[C@H]4[C@]5(C)CC[C@@H](O)C(C)(C)[C@H]5CC[C@@]43C)[C@@H]2C1
REMARK SMILES IDX 1 1 2 2 4 3 5 4 6 5 8 6 9 7 10 8 12 9 13 10 14 11 15 12
REMARK SMILES IDX 28 13 27 14 26 15 25 16 16 17 18 18 19 19 20 20 22 21 23 22
REMARK SMILES IDX 24 23 17 24 29 25 30 26 31 27 11 28 7 29 3 30 21 31
REMARK H PARENT 21 32
REMARK Flexibility Score: inf
ROOT
ATOM      1  C   UNL     1      41.241 -37.686  -4.005  1.00  0.00     0.011 C 
ATOM      2  C   UNL     1      41.854 -37.003  -2.762  1.00  0.00    -0.035 C 
ATOM      3  C   UNL     1      42.421 -38.094  -1.813  1.00  0.00     0.007 C 
ATOM      4  C   UNL     1      42.511 -37.586  -0.370  1.00  0.00     0.008 C 
ATOM      5  C   UNL     1      41.096 -37.342   0.248  1.00  0.00    -0.026 C 
ATOM      6  C   UNL     1      40.616 -38.691   0.850  1.00  0.00     0.008 C 
ATOM      7  C   UNL     1      39.137 -38.678   1.234  1.00  0.00     0.012 C 
ATOM      8  C   UNL     1      38.164 -38.432   0.021  1.00  0.00    -0.006 C 
ATOM      9  C   UNL     1      38.913 -37.754  -1.150  1.00  0.00    -0.064 C 
ATOM     10  C   UNL     1      38.333 -37.755  -2.376  1.00  0.00    -0.027 C 
ATOM     11  C   UNL     1      37.355 -38.791  -2.858  1.00  0.00     0.032 C 
ATOM     12  C   UNL     1      36.552 -39.485  -1.732  1.00  0.00     0.006 C 
ATOM     13  C   UNL     1      37.464 -39.803  -0.478  1.00  0.00    -0.020 C 
ATOM     14  C   UNL     1      36.570 -40.442   0.642  1.00  0.00     0.008 C 
ATOM     15  C   UNL     1      35.670 -41.588   0.161  1.00  0.00     0.005 C 
ATOM     16  C   UNL     1      34.737 -41.113  -0.980  1.00  0.00     0.003 C 
ATOM     17  C   UNL     1      35.569 -40.641  -2.233  1.00  0.00    -0.025 C 
ATOM     18  C   UNL     1      34.565 -40.029  -3.264  1.00  0.00     0.010 C 
ATOM     19  C   UNL     1      33.375 -40.940  -3.602  1.00  0.00     0.033 C 
ATOM     20  C   UNL     1      32.594 -41.361  -2.349  1.00  0.00     0.120 C 
ATOM     21  C   UNL     1      33.494 -42.049  -1.274  1.00  0.00    -0.006 C 
ATOM     22  C   UNL     1      33.891 -43.482  -1.715  1.00  0.00     0.014 C 
ATOM     23  C   UNL     1      32.633 -42.192   0.013  1.00  0.00     0.014 C 
ATOM     24  C   UNL     1      36.337 -41.814  -2.934  1.00  0.00     0.012 C 
ATOM     25  C   UNL     1      38.581 -40.831  -0.840  1.00  0.00     0.012 C 
ATOM     26  C   UNL     1      40.062 -36.771  -0.816  1.00  0.00     0.022 C 
ATOM     27  C   UNL     1      40.806 -36.105  -2.021  1.00  0.00     0.015 C 
ATOM     28  C   UNL     1      37.132 -37.364   0.517  1.00  0.00     0.017 C 
ATOM     29  C   UNL     1      41.268 -36.311   1.396  1.00  0.00     0.012 C 
ATOM     30  C   UNL     1      43.011 -36.101  -3.264  1.00  0.00     0.011 C 
ENDROOT
BRANCH  20  31
ATOM     31  O   UNL     1      31.541 -42.215  -2.727  1.00  0.00    -0.393 OA
ATOM     32  H   UNL     1      31.519 -42.234  -3.716  1.00  0.00     0.210 HD
ENDBRANCH  20  31
TORSDOF 1
ENDMDL
MODEL 7
REMARK VINA RESULT:    -6.302      3.062      4.312
REMARK INTER + INTRA:          -6.486
REMARK INTER:                  -6.486
REMARK INTRA:                   0.000
REMARK UNBOUND:                 0.000
REMARK SMILES CC1(C)CC[C@]2(C)CC[C@@]3(C)C(=CC[C@H]4[C@]5(C)CC[C@@H](O)C(C)(C)[C@H]5CC[C@@]43C)[C@@H]2C1
REMARK SMILES IDX 1 1 2 2 4 3 5 4 6 5 8 6 9 7 10 8 12 9 13 10 14 11 15 12
REMARK SMILES IDX 28 13 27 14 26 15 25 16 16 17 18 18 19 19 20 20 22 21 23 22
REMARK SMILES IDX 24 23 17 24 29 25 30 26 31 27 11 28 7 29 3 30 21 31
REMARK H PARENT 21 32
REMARK Flexibility Score: inf
ROOT
ATOM      1  C   UNL     1      40.464 -38.190  -3.919  1.00  0.00     0.011 C 
ATOM      2  C   UNL     1      41.978 -37.954  -3.717  1.00  0.00    -0.035 C 
ATOM      3  C   UNL     1      42.597 -39.201  -3.029  1.00  0.00     0.007 C 
ATOM      4  C   UNL     1      43.894 -38.848  -2.294  1.00  0.00     0.008 C 
ATOM      5  C   UNL     1      43.629 -37.916  -1.067  1.00  0.00    -0.026 C 
ATOM      6  C   UNL     1      43.301 -38.832   0.144  1.00  0.00     0.008 C 
ATOM      7  C   UNL     1      42.744 -38.059   1.339  1.00  0.00     0.012 C 
ATOM      8  C   UNL     1      41.388 -37.315   1.043  1.00  0.00    -0.006 C 
ATOM      9  C   UNL     1      41.205 -37.100  -0.478  1.00  0.00    -0.064 C 
ATOM     10  C   UNL     1      39.974 -36.772  -0.942  1.00  0.00    -0.027 C 
ATOM     11  C   UNL     1      38.681 -37.136  -0.265  1.00  0.00     0.032 C 
ATOM     12  C   UNL     1      38.794 -37.335   1.265  1.00  0.00     0.006 C 
ATOM     13  C   UNL     1      40.118 -38.110   1.655  1.00  0.00    -0.020 C 
ATOM     14  C   UNL     1      40.195 -38.215   3.218  1.00  0.00     0.008 C 
ATOM     15  C   UNL     1      38.906 -38.714   3.886  1.00  0.00     0.005 C 
ATOM     16  C   UNL     1      37.711 -37.796   3.529  1.00  0.00     0.003 C 
ATOM     17  C   UNL     1      37.440 -37.799   1.976  1.00  0.00    -0.025 C 
ATOM     18  C   UNL     1      36.335 -36.730   1.687  1.00  0.00     0.010 C 
ATOM     19  C   UNL     1      35.072 -36.881   2.549  1.00  0.00     0.033 C 
ATOM     20  C   UNL     1      35.391 -36.861   4.052  1.00  0.00     0.120 C 
ATOM     21  C   UNL     1      36.441 -37.942   4.464  1.00  0.00    -0.006 C 
ATOM     22  C   UNL     1      35.817 -39.361   4.441  1.00  0.00     0.014 C 
ATOM     23  C   UNL     1      36.841 -37.644   5.937  1.00  0.00     0.014 C 
ATOM     24  C   UNL     1      36.932 -39.184   1.445  1.00  0.00     0.012 C 
ATOM     25  C   UNL     1      40.112 -39.560   1.079  1.00  0.00     0.012 C 
ATOM     26  C   UNL     1      42.468 -36.867  -1.344  1.00  0.00     0.022 C 
ATOM     27  C   UNL     1      42.253 -36.658  -2.879  1.00  0.00     0.015 C 
ATOM     28  C   UNL     1      41.555 -35.877   1.640  1.00  0.00     0.017 C 
ATOM     29  C   UNL     1      44.949 -37.152  -0.778  1.00  0.00     0.012 C 
ATOM     30  C   UNL     1      42.602 -37.775  -5.125  1.00  0.00     0.011 C 
ENDROOT
BRANCH  20  31
ATOM     31  O   UNL     1      34.198 -37.034   4.779  1.00  0.00    -0.393 OA
ATOM     32  H   UNL     1      33.744 -36.155   4.810  1.00  0.00     0.210 HD
ENDBRANCH  20  31
TORSDOF 1
ENDMDL
MODEL 8
REMARK VINA RESULT:    -6.164      2.985      7.921
REMARK INTER + INTRA:          -6.344
REMARK INTER:                  -6.344
REMARK INTRA:                   0.000
REMARK UNBOUND:                 0.000
REMARK SMILES CC1(C)CC[C@]2(C)CC[C@@]3(C)C(=CC[C@H]4[C@]5(C)CC[C@@H](O)C(C)(C)[C@H]5CC[C@@]43C)[C@@H]2C1
REMARK SMILES IDX 1 1 2 2 4 3 5 4 6 5 8 6 9 7 10 8 12 9 13 10 14 11 15 12
REMARK SMILES IDX 28 13 27 14 26 15 25 16 16 17 18 18 19 19 20 20 22 21 23 22
REMARK SMILES IDX 24 23 17 24 29 25 30 26 31 27 11 28 7 29 3 30 21 31
REMARK H PARENT 21 32
REMARK Flexibility Score: inf
ROOT
ATOM      1  C   UNL     1      36.221 -45.159  -3.067  1.00  0.00     0.011 C 
ATOM      2  C   UNL     1      34.797 -44.673  -2.719  1.00  0.00    -0.035 C 
ATOM      3  C   UNL     1      34.233 -43.858  -3.915  1.00  0.00     0.007 C 
ATOM      4  C   UNL     1      33.132 -42.893  -3.463  1.00  0.00     0.008 C 
ATOM      5  C   UNL     1      33.696 -41.755  -2.552  1.00  0.00    -0.026 C 
ATOM      6  C   UNL     1      34.184 -40.615  -3.486  1.00  0.00     0.008 C 
ATOM      7  C   UNL     1      35.016 -39.563  -2.754  1.00  0.00     0.012 C 
ATOM      8  C   UNL     1      36.340 -40.127  -2.114  1.00  0.00    -0.006 C 
ATOM      9  C   UNL     1      36.240 -41.658  -1.917  1.00  0.00    -0.064 C 
ATOM     10  C   UNL     1      37.379 -42.356  -1.682  1.00  0.00    -0.027 C 
ATOM     11  C   UNL     1      38.749 -41.935  -2.140  1.00  0.00     0.032 C 
ATOM     12  C   UNL     1      38.919 -40.408  -2.326  1.00  0.00     0.006 C 
ATOM     13  C   UNL     1      37.643 -39.758  -2.999  1.00  0.00    -0.020 C 
ATOM     14  C   UNL     1      37.862 -38.207  -3.095  1.00  0.00     0.008 C 
ATOM     15  C   UNL     1      39.216 -37.792  -3.687  1.00  0.00     0.005 C 
ATOM     16  C   UNL     1      40.384 -38.388  -2.862  1.00  0.00     0.003 C 
ATOM     17  C   UNL     1      40.348 -39.964  -2.888  1.00  0.00    -0.025 C 
ATOM     18  C   UNL     1      41.451 -40.478  -1.906  1.00  0.00     0.010 C 
ATOM     19  C   UNL     1      42.842 -39.873  -2.148  1.00  0.00     0.033 C 
ATOM     20  C   UNL     1      42.822 -38.338  -2.101  1.00  0.00     0.120 C 
ATOM     21  C   UNL     1      41.796 -37.713  -3.099  1.00  0.00    -0.006 C 
ATOM     22  C   UNL     1      42.299 -37.831  -4.561  1.00  0.00     0.014 C 
ATOM     23  C   UNL     1      41.710 -36.195  -2.769  1.00  0.00     0.014 C 
ATOM     24  C   UNL     1      40.641 -40.559  -4.308  1.00  0.00     0.012 C 
ATOM     25  C   UNL     1      37.432 -40.299  -4.448  1.00  0.00     0.012 C 
ATOM     26  C   UNL     1      34.854 -42.268  -1.592  1.00  0.00     0.022 C 
ATOM     27  C   UNL     1      34.783 -43.820  -1.404  1.00  0.00     0.015 C 
ATOM     28  C   UNL     1      36.396 -39.534  -0.666  1.00  0.00     0.017 C 
ATOM     29  C   UNL     1      32.515 -41.231  -1.691  1.00  0.00     0.012 C 
ATOM     30  C   UNL     1      33.927 -45.937  -2.497  1.00  0.00     0.011 C 
ENDROOT
BRANCH  20  31
ATOM     31  O   UNL     1      44.117 -37.851  -2.360  1.00  0.00    -0.393 OA
ATOM     32  H   UNL     1      44.717 -38.229  -1.670  1.00  0.00     0.210 HD
ENDBRANCH  20  31
TORSDOF 1
ENDMDL
MODEL 9
REMARK VINA RESULT:    -6.066      7.307     10.580
REMARK INTER + INTRA:          -6.244
REMARK INTER:                  -6.244
REMARK INTRA:                   0.000
REMARK UNBOUND:                 0.000
REMARK SMILES CC1(C)CC[C@]2(C)CC[C@@]3(C)C(=CC[C@H]4[C@]5(C)CC[C@@H](O)C(C)(C)[C@H]5CC[C@@]43C)[C@@H]2C1
REMARK SMILES IDX 1 1 2 2 4 3 5 4 6 5 8 6 9 7 10 8 12 9 13 10 14 11 15 12
REMARK SMILES IDX 28 13 27 14 26 15 25 16 16 17 18 18 19 19 20 20 22 21 23 22
REMARK SMILES IDX 24 23 17 24 29 25 30 26 31 27 11 28 7 29 3 30 21 31
REMARK H PARENT 21 32
REMARK Flexibility Score: inf
ROOT
ATOM      1  C   UNL     1      32.273 -40.177   2.222  1.00  0.00     0.011 C 
ATOM      2  C   UNL     1      33.274 -39.205   1.559  1.00  0.00    -0.035 C 
ATOM      3  C   UNL     1      34.721 -39.692   1.848  1.00  0.00     0.007 C 
ATOM      4  C   UNL     1      35.728 -38.542   1.744  1.00  0.00     0.008 C 
ATOM      5  C   UNL     1      35.523 -37.488   2.880  1.00  0.00    -0.026 C 
ATOM      6  C   UNL     1      36.340 -37.970   4.110  1.00  0.00     0.008 C 
ATOM      7  C   UNL     1      36.010 -37.194   5.384  1.00  0.00     0.012 C 
ATOM      8  C   UNL     1      34.509 -37.328   5.844  1.00  0.00    -0.006 C 
ATOM      9  C   UNL     1      33.613 -37.761   4.660  1.00  0.00    -0.064 C 
ATOM     10  C   UNL     1      32.370 -38.232   4.928  1.00  0.00    -0.027 C 
ATOM     11  C   UNL     1      31.970 -38.904   6.213  1.00  0.00     0.032 C 
ATOM     12  C   UNL     1      32.812 -38.487   7.441  1.00  0.00     0.006 C 
ATOM     13  C   UNL     1      34.347 -38.361   7.079  1.00  0.00    -0.020 C 
ATOM     14  C   UNL     1      35.125 -37.873   8.352  1.00  0.00     0.008 C 
ATOM     15  C   UNL     1      34.801 -38.655   9.632  1.00  0.00     0.005 C 
ATOM     16  C   UNL     1      33.286 -38.593   9.947  1.00  0.00     0.003 C 
ATOM     17  C   UNL     1      32.441 -39.256   8.792  1.00  0.00    -0.025 C 
ATOM     18  C   UNL     1      30.930 -39.006   9.109  1.00  0.00     0.010 C 
ATOM     19  C   UNL     1      30.505 -39.426  10.524  1.00  0.00     0.033 C 
ATOM     20  C   UNL     1      31.352 -38.744  11.609  1.00  0.00     0.120 C 
ATOM     21  C   UNL     1      32.884 -38.987  11.427  1.00  0.00    -0.006 C 
ATOM     22  C   UNL     1      33.265 -40.442  11.803  1.00  0.00     0.014 C 
ATOM     23  C   UNL     1      33.613 -38.051  12.432  1.00  0.00     0.014 C 
ATOM     24  C   UNL     1      32.668 -40.803   8.679  1.00  0.00     0.012 C 
ATOM     25  C   UNL     1      34.942 -39.741   6.657  1.00  0.00     0.012 C 
ATOM     26  C   UNL     1      33.989 -37.275   3.238  1.00  0.00     0.022 C 
ATOM     27  C   UNL     1      33.068 -37.734   2.059  1.00  0.00     0.015 C 
ATOM     28  C   UNL     1      34.044 -35.875   6.196  1.00  0.00     0.017 C 
ATOM     29  C   UNL     1      36.119 -36.147   2.374  1.00  0.00     0.012 C 
ATOM     30  C   UNL     1      33.007 -39.250   0.032  1.00  0.00     0.011 C 
ENDROOT
BRANCH  20  31
ATOM     31  O   UNL     1      30.931 -39.195  12.875  1.00  0.00    -0.393 OA
ATOM     32  H   UNL     1      30.477 -38.437  13.320  1.00  0.00     0.210 HD
ENDBRANCH  20  31
TORSDOF 1
ENDMDL
