MODEL 1
REMARK VINA RESULT:    -3.987      0.000      0.000
REMARK INTER + INTRA:          -4.580
REMARK INTER:                  -4.336
REMARK INTRA:                  -0.244
REMARK UNBOUND:                -0.244
REMARK SMILES O=C([O-])c1ccccc1O
REMARK SMILES IDX 4 1 9 2 5 3 8 4 6 5 7 6 2 7 1 8 3 9 10 10
REMARK H PARENT 10 11
REMARK Flexibility Score: inf
ROOT
ATOM      1  C   UNL     1      30.444  -6.799 -24.328  1.00  0.00     0.039 A 
ATOM      2  C   UNL     1      30.987  -7.824 -25.141  1.00  0.00     0.124 A 
ATOM      3  C   UNL     1      31.188  -6.342 -23.224  1.00  0.00     0.014 A 
ATOM      4  C   UNL     1      32.247  -8.363 -24.836  1.00  0.00     0.047 A 
ATOM      5  C   UNL     1      32.441  -6.888 -22.933  1.00  0.00     0.001 A 
ATOM      6  C   UNL     1      32.970  -7.896 -23.737  1.00  0.00     0.004 A 
ENDROOT
BRANCH   1   7
ATOM      7  C   UNL     1      29.116  -6.195 -24.608  1.00  0.00     0.075 C 
ATOM      8  O   UNL     1      28.147  -6.904 -24.987  1.00  0.00    -0.545 OA
ATOM      9  O   UNL     1      28.922  -4.827 -24.452  1.00  0.00    -0.545 OA
ENDBRANCH   1   7
BRANCH   2  10
ATOM     10  O   UNL     1      30.285  -8.307 -26.244  1.00  0.00    -0.507 OA
ATOM     11  H   UNL     1      30.755  -8.769 -27.014  1.00  0.00     0.293 HD
ENDBRANCH   2  10
TORSDOF 2
ENDMDL
MODEL 2
REMARK VINA RESULT:    -3.623      1.774      3.472
REMARK INTER + INTRA:          -4.185
REMARK INTER:                  -4.002
REMARK INTRA:                  -0.182
REMARK UNBOUND:                -0.244
REMARK SMILES O=C([O-])c1ccccc1O
REMARK SMILES IDX 4 1 9 2 5 3 8 4 6 5 7 6 2 7 1 8 3 9 10 10
REMARK H PARENT 10 11
REMARK Flexibility Score: inf
ROOT
ATOM      1  C   UNL     1      31.341  -6.999 -24.270  1.00  0.00     0.039 A 
ATOM      2  C   UNL     1      30.296  -7.050 -25.224  1.00  0.00     0.124 A 
ATOM      3  C   UNL     1      31.294  -6.015 -23.263  1.00  0.00     0.014 A 
ATOM      4  C   UNL     1      29.240  -6.127 -25.154  1.00  0.00     0.047 A 
ATOM      5  C   UNL     1      30.237  -5.104 -23.206  1.00  0.00     0.001 A 
ATOM      6  C   UNL     1      29.212  -5.159 -24.148  1.00  0.00     0.004 A 
ENDROOT
BRANCH   1   7
ATOM      7  C   UNL     1      32.480  -7.953 -24.299  1.00  0.00     0.075 C 
ATOM      8  O   UNL     1      33.364  -7.879 -25.192  1.00  0.00    -0.545 OA
ATOM      9  O   UNL     1      32.587  -8.946 -23.333  1.00  0.00    -0.545 OA
ENDBRANCH   1   7
BRANCH   2  10
ATOM     10  O   UNL     1      30.301  -8.007 -26.238  1.00  0.00    -0.507 OA
ATOM     11  H   UNL     1      30.962  -7.967 -27.005  1.00  0.00     0.293 HD
ENDBRANCH   2  10
TORSDOF 2
ENDMDL
MODEL 3
REMARK VINA RESULT:    -3.622      2.784      4.048
REMARK INTER + INTRA:          -4.184
REMARK INTER:                  -3.935
REMARK INTRA:                  -0.249
REMARK UNBOUND:                -0.244
REMARK SMILES O=C([O-])c1ccccc1O
REMARK SMILES IDX 4 1 9 2 5 3 8 4 6 5 7 6 2 7 1 8 3 9 10 10
REMARK H PARENT 10 11
REMARK Flexibility Score: inf
ROOT
ATOM      1  C   UNL     1      32.878  -6.723 -23.855  1.00  0.00     0.039 A 
ATOM      2  C   UNL     1      32.928  -6.172 -22.552  1.00  0.00     0.124 A 
ATOM      3  C   UNL     1      33.352  -5.955 -24.936  1.00  0.00     0.014 A 
ATOM      4  C   UNL     1      33.444  -4.881 -22.358  1.00  0.00     0.047 A 
ATOM      5  C   UNL     1      33.864  -4.671 -24.728  1.00  0.00     0.001 A 
ATOM      6  C   UNL     1      33.910  -4.135 -23.442  1.00  0.00     0.004 A 
ENDROOT
BRANCH   1   7
ATOM      7  C   UNL     1      32.342  -8.085 -24.113  1.00  0.00     0.075 C 
ATOM      8  O   UNL     1      31.635  -8.322 -25.127  1.00  0.00    -0.545 OA
ATOM      9  O   UNL     1      32.619  -9.125 -23.233  1.00  0.00    -0.545 OA
ENDBRANCH   1   7
BRANCH   2  10
ATOM     10  O   UNL     1      32.469  -6.897 -21.453  1.00  0.00    -0.507 OA
ATOM     11  H   UNL     1      31.480  -6.989 -21.250  1.00  0.00     0.293 HD
ENDBRANCH   2  10
TORSDOF 2
ENDMDL
MODEL 4
REMARK VINA RESULT:    -3.611      2.310      3.465
REMARK INTER + INTRA:          -4.172
REMARK INTER:                  -3.925
REMARK INTRA:                  -0.248
REMARK UNBOUND:                -0.244
REMARK SMILES O=C([O-])c1ccccc1O
REMARK SMILES IDX 4 1 9 2 5 3 8 4 6 5 7 6 2 7 1 8 3 9 10 10
REMARK H PARENT 10 11
REMARK Flexibility Score: inf
ROOT
ATOM      1  C   UNL     1      31.366  -6.803 -23.933  1.00  0.00     0.039 A 
ATOM      2  C   UNL     1      31.227  -7.736 -24.989  1.00  0.00     0.124 A 
ATOM      3  C   UNL     1      30.337  -5.865 -23.716  1.00  0.00     0.014 A 
ATOM      4  C   UNL     1      30.078  -7.714 -25.795  1.00  0.00     0.047 A 
ATOM      5  C   UNL     1      29.199  -5.855 -24.526  1.00  0.00     0.001 A 
ATOM      6  C   UNL     1      29.069  -6.777 -25.563  1.00  0.00     0.004 A 
ENDROOT
BRANCH   1   7
ATOM      7  C   UNL     1      32.561  -6.785 -23.051  1.00  0.00     0.075 C 
ATOM      8  O   UNL     1      32.453  -6.568 -21.816  1.00  0.00    -0.545 OA
ATOM      9  O   UNL     1      33.826  -7.010 -23.581  1.00  0.00    -0.545 OA
ENDBRANCH   1   7
BRANCH   2  10
ATOM     10  O   UNL     1      32.221  -8.681 -25.240  1.00  0.00    -0.507 OA
ATOM     11  H   UNL     1      32.853  -8.996 -24.513  1.00  0.00     0.293 HD
ENDBRANCH   2  10
TORSDOF 2
ENDMDL
MODEL 5
REMARK VINA RESULT:    -3.587      2.564      3.581
REMARK INTER + INTRA:          -4.146
REMARK INTER:                  -3.895
REMARK INTRA:                  -0.251
REMARK UNBOUND:                -0.244
REMARK SMILES O=C([O-])c1ccccc1O
REMARK SMILES IDX 4 1 9 2 5 3 8 4 6 5 7 6 2 7 1 8 3 9 10 10
REMARK H PARENT 10 11
REMARK Flexibility Score: inf
ROOT
ATOM      1  C   UNL     1      32.821  -6.682 -23.959  1.00  0.00     0.039 A 
ATOM      2  C   UNL     1      33.429  -5.979 -25.027  1.00  0.00     0.124 A 
ATOM      3  C   UNL     1      32.737  -6.061 -22.698  1.00  0.00     0.014 A 
ATOM      4  C   UNL     1      33.935  -4.687 -24.815  1.00  0.00     0.047 A 
ATOM      5  C   UNL     1      33.245  -4.774 -22.502  1.00  0.00     0.001 A 
ATOM      6  C   UNL     1      33.842  -4.088 -23.558  1.00  0.00     0.004 A 
ENDROOT
BRANCH   1   7
ATOM      7  C   UNL     1      32.269  -8.051 -24.131  1.00  0.00     0.075 C 
ATOM      8  O   UNL     1      31.533  -8.336 -25.111  1.00  0.00    -0.545 OA
ATOM      9  O   UNL     1      32.563  -9.046 -23.205  1.00  0.00    -0.545 OA
ENDBRANCH   1   7
BRANCH   2  10
ATOM     10  O   UNL     1      33.534  -6.556 -26.292  1.00  0.00    -0.507 OA
ATOM     11  H   UNL     1      33.653  -7.555 -26.415  1.00  0.00     0.293 HD
ENDBRANCH   2  10
TORSDOF 2
ENDMDL
MODEL 6
REMARK VINA RESULT:    -3.560      2.923      3.262
REMARK INTER + INTRA:          -4.117
REMARK INTER:                  -3.873
REMARK INTRA:                  -0.244
REMARK UNBOUND:                -0.244
REMARK SMILES O=C([O-])c1ccccc1O
REMARK SMILES IDX 4 1 9 2 5 3 8 4 6 5 7 6 2 7 1 8 3 9 10 10
REMARK H PARENT 10 11
REMARK Flexibility Score: inf
ROOT
ATOM      1  C   UNL     1      32.747  -5.737 -24.245  1.00  0.00     0.039 A 
ATOM      2  C   UNL     1      32.943  -6.818 -25.138  1.00  0.00     0.124 A 
ATOM      3  C   UNL     1      32.243  -6.002 -22.957  1.00  0.00     0.014 A 
ATOM      4  C   UNL     1      32.635  -8.125 -24.731  1.00  0.00     0.047 A 
ATOM      5  C   UNL     1      31.942  -7.310 -22.565  1.00  0.00     0.001 A 
ATOM      6  C   UNL     1      32.137  -8.369 -23.450  1.00  0.00     0.004 A 
ENDROOT
BRANCH   1   7
ATOM      7  C   UNL     1      33.058  -4.335 -24.627  1.00  0.00     0.075 C 
ATOM      8  O   UNL     1      33.549  -3.529 -23.794  1.00  0.00    -0.545 OA
ATOM      9  O   UNL     1      32.810  -3.890 -25.921  1.00  0.00    -0.545 OA
ENDBRANCH   1   7
BRANCH   2  10
ATOM     10  O   UNL     1      33.439  -6.601 -26.423  1.00  0.00    -0.507 OA
ATOM     11  H   UNL     1      33.267  -7.255 -27.178  1.00  0.00     0.293 HD
ENDBRANCH   2  10
TORSDOF 2
ENDMDL
MODEL 7
REMARK VINA RESULT:    -3.557      3.118      3.961
REMARK INTER + INTRA:          -4.113
REMARK INTER:                  -3.859
REMARK INTRA:                  -0.254
REMARK UNBOUND:                -0.244
REMARK SMILES O=C([O-])c1ccccc1O
REMARK SMILES IDX 4 1 9 2 5 3 8 4 6 5 7 6 2 7 1 8 3 9 10 10
REMARK H PARENT 10 11
REMARK Flexibility Score: inf
ROOT
ATOM      1  C   UNL     1      32.352  -5.689 -23.023  1.00  0.00     0.039 A 
ATOM      2  C   UNL     1      32.829  -7.004 -23.245  1.00  0.00     0.124 A 
ATOM      3  C   UNL     1      31.037  -5.370 -23.411  1.00  0.00     0.014 A 
ATOM      4  C   UNL     1      31.993  -7.959 -23.843  1.00  0.00     0.047 A 
ATOM      5  C   UNL     1      30.215  -6.332 -24.005  1.00  0.00     0.001 A 
ATOM      6  C   UNL     1      30.692  -7.624 -24.221  1.00  0.00     0.004 A 
ENDROOT
BRANCH   1   7
ATOM      7  C   UNL     1      33.196  -4.642 -22.393  1.00  0.00     0.075 C 
ATOM      8  O   UNL     1      33.323  -3.506 -22.921  1.00  0.00    -0.545 OA
ATOM      9  O   UNL     1      33.863  -4.902 -21.201  1.00  0.00    -0.545 OA
ENDBRANCH   1   7
BRANCH   2  10
ATOM     10  O   UNL     1      34.125  -7.364 -22.877  1.00  0.00    -0.507 OA
ATOM     11  H   UNL     1      34.665  -6.813 -22.219  1.00  0.00     0.293 HD
ENDBRANCH   2  10
TORSDOF 2
ENDMDL
MODEL 8
REMARK VINA RESULT:    -3.544      3.304      3.769
REMARK INTER + INTRA:          -4.099
REMARK INTER:                  -3.845
REMARK INTRA:                  -0.255
REMARK UNBOUND:                -0.244
REMARK SMILES O=C([O-])c1ccccc1O
REMARK SMILES IDX 4 1 9 2 5 3 8 4 6 5 7 6 2 7 1 8 3 9 10 10
REMARK H PARENT 10 11
REMARK Flexibility Score: inf
ROOT
ATOM      1  C   UNL     1      32.996  -5.769 -23.242  1.00  0.00     0.039 A 
ATOM      2  C   UNL     1      33.381  -6.285 -24.503  1.00  0.00     0.124 A 
ATOM      3  C   UNL     1      32.245  -6.587 -22.374  1.00  0.00     0.014 A 
ATOM      4  C   UNL     1      33.014  -7.590 -24.866  1.00  0.00     0.047 A 
ATOM      5  C   UNL     1      31.887  -7.885 -22.750  1.00  0.00     0.001 A 
ATOM      6  C   UNL     1      32.270  -8.385 -23.993  1.00  0.00     0.004 A 
ENDROOT
BRANCH   1   7
ATOM      7  C   UNL     1      33.360  -4.396 -22.809  1.00  0.00     0.075 C 
ATOM      8  O   UNL     1      33.820  -4.179 -21.657  1.00  0.00    -0.545 OA
ATOM      9  O   UNL     1      33.198  -3.322 -23.677  1.00  0.00    -0.545 OA
ENDBRANCH   1   7
BRANCH   2  10
ATOM     10  O   UNL     1      34.125  -5.511 -25.393  1.00  0.00    -0.507 OA
ATOM     11  H   UNL     1      33.878  -5.442 -26.374  1.00  0.00     0.293 HD
ENDBRANCH   2  10
TORSDOF 2
ENDMDL
MODEL 9
REMARK VINA RESULT:    -3.536      2.000      2.878
REMARK INTER + INTRA:          -4.091
REMARK INTER:                  -3.840
REMARK INTRA:                  -0.251
REMARK UNBOUND:                -0.244
REMARK SMILES O=C([O-])c1ccccc1O
REMARK SMILES IDX 4 1 9 2 5 3 8 4 6 5 7 6 2 7 1 8 3 9 10 10
REMARK H PARENT 10 11
REMARK Flexibility Score: inf
ROOT
ATOM      1  C   UNL     1      29.114  -5.282 -24.663  1.00  0.00     0.039 A 
ATOM      2  C   UNL     1      28.371  -6.486 -24.731  1.00  0.00     0.124 A 
ATOM      3  C   UNL     1      30.521  -5.353 -24.643  1.00  0.00     0.014 A 
ATOM      4  C   UNL     1      29.040  -7.719 -24.775  1.00  0.00     0.047 A 
ATOM      5  C   UNL     1      31.173  -6.588 -24.688  1.00  0.00     0.001 A 
ATOM      6  C   UNL     1      30.435  -7.768 -24.754  1.00  0.00     0.004 A 
ENDROOT
BRANCH   1   7
ATOM      7  C   UNL     1      28.454  -3.952 -24.615  1.00  0.00     0.075 C 
ATOM      8  O   UNL     1      28.885  -3.041 -23.861  1.00  0.00    -0.545 OA
ATOM      9  O   UNL     1      27.344  -3.692 -25.410  1.00  0.00    -0.545 OA
ENDBRANCH   1   7
BRANCH   2  10
ATOM     10  O   UNL     1      26.977  -6.463 -24.753  1.00  0.00    -0.507 OA
ATOM     11  H   UNL     1      26.444  -7.083 -25.352  1.00  0.00     0.293 HD
ENDBRANCH   2  10
TORSDOF 2
ENDMDL
