MODEL 1
REMARK VINA RESULT:    -3.495      0.000      0.000
REMARK INTER + INTRA:          -4.342
REMARK INTER:                  -4.312
REMARK INTRA:                  -0.030
REMARK UNBOUND:                -0.030
REMARK SMILES CCCCCC=O
REMARK SMILES IDX 4 1 3 2 2 3 1 4 5 5 6 6 7 7
REMARK H PARENT
REMARK Flexibility Score: inf
ROOT
ATOM      1  C   UNL     1      25.647  56.528  -8.558  1.00  0.00     0.008 C 
ENDROOT
BRANCH   1   2
ATOM      2  C   UNL     1      25.575  57.976  -9.075  1.00  0.00     0.000 C 
BRANCH   2   3
ATOM      3  C   UNL     1      26.782  58.349  -9.949  1.00  0.00    -0.003 C 
ATOM      4  C   UNL     1      27.064  59.852  -9.960  1.00  0.00     0.004 C 
ENDBRANCH   2   3
ENDBRANCH   1   2
BRANCH   1   5
ATOM      5  C   UNL     1      24.336  55.766  -8.797  1.00  0.00     0.072 C 
BRANCH   5   6
ATOM      6  C   UNL     1      23.626  55.432  -7.516  1.00  0.00     0.224 C 
ATOM      7  O   UNL     1      22.658  54.689  -7.533  1.00  0.00    -0.303 OA
ENDBRANCH   5   6
ENDBRANCH   1   5
TORSDOF 4
ENDMDL
MODEL 2
REMARK VINA RESULT:    -3.485      0.947      1.060
REMARK INTER + INTRA:          -4.330
REMARK INTER:                  -4.301
REMARK INTRA:                  -0.029
REMARK UNBOUND:                -0.030
REMARK SMILES CCCCCC=O
REMARK SMILES IDX 4 1 3 2 2 3 1 4 5 5 6 6 7 7
REMARK H PARENT
REMARK Flexibility Score: inf
ROOT
ATOM      1  C   UNL     1      24.466  56.769  -8.417  1.00  0.00     0.008 C 
ENDROOT
BRANCH   1   2
ATOM      2  C   UNL     1      25.834  57.016  -9.078  1.00  0.00     0.000 C 
BRANCH   2   3
ATOM      3  C   UNL     1      26.056  58.493  -9.439  1.00  0.00    -0.003 C 
ATOM      4  C   UNL     1      27.264  58.704 -10.353  1.00  0.00     0.004 C 
ENDBRANCH   2   3
ENDBRANCH   1   2
BRANCH   1   5
ATOM      5  C   UNL     1      24.269  55.296  -8.034  1.00  0.00     0.072 C 
BRANCH   5   6
ATOM      6  C   UNL     1      22.903  55.028  -7.472  1.00  0.00     0.224 C 
ATOM      7  O   UNL     1      22.770  54.782  -6.284  1.00  0.00    -0.303 OA
ENDBRANCH   5   6
ENDBRANCH   1   5
TORSDOF 4
ENDMDL
MODEL 3
REMARK VINA RESULT:    -3.433      2.660      4.717
REMARK INTER + INTRA:          -4.266
REMARK INTER:                  -4.218
REMARK INTRA:                  -0.048
REMARK UNBOUND:                -0.030
REMARK SMILES CCCCCC=O
REMARK SMILES IDX 4 1 3 2 2 3 1 4 5 5 6 6 7 7
REMARK H PARENT
REMARK Flexibility Score: inf
ROOT
ATOM      1  C   UNL     1      25.827  56.827  -9.033  1.00  0.00     0.008 C 
ENDROOT
BRANCH   1   2
ATOM      2  C   UNL     1      25.059  56.121  -7.901  1.00  0.00     0.000 C 
BRANCH   2   3
ATOM      3  C   UNL     1      23.823  55.366  -8.411  1.00  0.00    -0.003 C 
ATOM      4  C   UNL     1      22.868  54.965  -7.286  1.00  0.00     0.004 C 
ENDBRANCH   2   3
ENDBRANCH   1   2
BRANCH   1   5
ATOM      5  C   UNL     1      25.522  58.331  -9.084  1.00  0.00     0.072 C 
BRANCH   5   6
ATOM      6  C   UNL     1      26.592  59.108  -9.796  1.00  0.00     0.224 C 
ATOM      7  O   UNL     1      27.276  58.564 -10.647  1.00  0.00    -0.303 OA
ENDBRANCH   5   6
ENDBRANCH   1   5
TORSDOF 4
ENDMDL
MODEL 4
REMARK VINA RESULT:    -3.360     16.484     17.679
REMARK INTER + INTRA:          -4.175
REMARK INTER:                  -4.020
REMARK INTRA:                  -0.155
REMARK UNBOUND:                -0.030
REMARK SMILES CCCCCC=O
REMARK SMILES IDX 4 1 3 2 2 3 1 4 5 5 6 6 7 7
REMARK H PARENT
REMARK Flexibility Score: inf
ROOT
ATOM      1  C   UNL     1      19.472  44.832   0.180  1.00  0.00     0.008 C 
ENDROOT
BRANCH   1   2
ATOM      2  C   UNL     1      17.937  44.776   0.078  1.00  0.00     0.000 C 
BRANCH   2   3
ATOM      3  C   UNL     1      17.290  44.111   1.301  1.00  0.00    -0.003 C 
ATOM      4  C   UNL     1      15.943  44.735   1.671  1.00  0.00     0.004 C 
ENDBRANCH   2   3
ENDBRANCH   1   2
BRANCH   1   5
ATOM      5  C   UNL     1      19.990  44.134   1.446  1.00  0.00     0.072 C 
BRANCH   5   6
ATOM      6  C   UNL     1      20.926  43.002   1.135  1.00  0.00     0.224 C 
ATOM      7  O   UNL     1      20.705  42.273   0.182  1.00  0.00    -0.303 OA
ENDBRANCH   5   6
ENDBRANCH   1   5
TORSDOF 4
ENDMDL
MODEL 5
REMARK VINA RESULT:    -3.239     16.073     17.124
REMARK INTER + INTRA:          -4.027
REMARK INTER:                  -3.897
REMARK INTRA:                  -0.130
REMARK UNBOUND:                -0.030
REMARK SMILES CCCCCC=O
REMARK SMILES IDX 4 1 3 2 2 3 1 4 5 5 6 6 7 7
REMARK H PARENT
REMARK Flexibility Score: inf
ROOT
ATOM      1  C   UNL     1      19.546  44.986  -0.006  1.00  0.00     0.008 C 
ENDROOT
BRANCH   1   2
ATOM      2  C   UNL     1      19.519  44.447   1.435  1.00  0.00     0.000 C 
BRANCH   2   3
ATOM      3  C   UNL     1      20.010  42.994   1.529  1.00  0.00    -0.003 C 
ATOM      4  C   UNL     1      20.975  42.621   0.403  1.00  0.00     0.004 C 
ENDBRANCH   2   3
ENDBRANCH   1   2
BRANCH   1   5
ATOM      5  C   UNL     1      18.208  45.622  -0.408  1.00  0.00     0.072 C 
BRANCH   5   6
ATOM      6  C   UNL     1      17.031  44.773  -0.025  1.00  0.00     0.224 C 
ATOM      7  O   UNL     1      16.186  45.211   0.739  1.00  0.00    -0.303 OA
ENDBRANCH   5   6
ENDBRANCH   1   5
TORSDOF 4
ENDMDL
MODEL 6
REMARK VINA RESULT:    -3.065     15.221     16.471
REMARK INTER + INTRA:          -3.812
REMARK INTER:                  -3.703
REMARK INTRA:                  -0.109
REMARK UNBOUND:                -0.030
REMARK SMILES CCCCCC=O
REMARK SMILES IDX 4 1 3 2 2 3 1 4 5 5 6 6 7 7
REMARK H PARENT
REMARK Flexibility Score: inf
ROOT
ATOM      1  C   UNL     1      31.114  44.456   1.132  1.00  0.00     0.008 C 
ENDROOT
BRANCH   1   2
ATOM      2  C   UNL     1      32.336  44.803   2.001  1.00  0.00     0.000 C 
BRANCH   2   3
ATOM      3  C   UNL     1      32.524  46.318   2.174  1.00  0.00    -0.003 C 
ATOM      4  C   UNL     1      32.725  46.727   3.634  1.00  0.00     0.004 C 
ENDBRANCH   2   3
ENDBRANCH   1   2
BRANCH   1   5
ATOM      5  C   UNL     1      30.087  45.597   1.102  1.00  0.00     0.072 C 
BRANCH   5   6
ATOM      6  C   UNL     1      29.200  45.538  -0.108  1.00  0.00     0.224 C 
ATOM      7  O   UNL     1      28.250  46.296  -0.205  1.00  0.00    -0.303 OA
ENDBRANCH   5   6
ENDBRANCH   1   5
TORSDOF 4
ENDMDL
MODEL 7
REMARK VINA RESULT:    -3.030     15.142     16.527
REMARK INTER + INTRA:          -3.768
REMARK INTER:                  -3.708
REMARK INTRA:                  -0.061
REMARK UNBOUND:                -0.030
REMARK SMILES CCCCCC=O
REMARK SMILES IDX 4 1 3 2 2 3 1 4 5 5 6 6 7 7
REMARK H PARENT
REMARK Flexibility Score: inf
ROOT
ATOM      1  C   UNL     1      31.437  44.977   0.636  1.00  0.00     0.008 C 
ENDROOT
BRANCH   1   2
ATOM      2  C   UNL     1      30.020  45.526   0.879  1.00  0.00     0.000 C 
BRANCH   2   3
ATOM      3  C   UNL     1      29.027  45.091  -0.209  1.00  0.00    -0.003 C 
ATOM      4  C   UNL     1      28.156  46.245  -0.710  1.00  0.00     0.004 C 
ENDBRANCH   2   3
ENDBRANCH   1   2
BRANCH   1   5
ATOM      5  C   UNL     1      32.248  44.880   1.936  1.00  0.00     0.072 C 
BRANCH   5   6
ATOM      6  C   UNL     1      32.854  46.195   2.333  1.00  0.00     0.224 C 
ATOM      7  O   UNL     1      32.428  46.793   3.307  1.00  0.00    -0.303 OA
ENDBRANCH   5   6
ENDBRANCH   1   5
TORSDOF 4
ENDMDL
MODEL 8
REMARK VINA RESULT:    -3.003      5.650      7.196
REMARK INTER + INTRA:          -3.735
REMARK INTER:                  -3.629
REMARK INTRA:                  -0.106
REMARK UNBOUND:                -0.030
REMARK SMILES CCCCCC=O
REMARK SMILES IDX 4 1 3 2 2 3 1 4 5 5 6 6 7 7
REMARK H PARENT
REMARK Flexibility Score: inf
ROOT
ATOM      1  C   UNL     1      30.444  58.782 -13.024  1.00  0.00     0.008 C 
ENDROOT
BRANCH   1   2
ATOM      2  C   UNL     1      30.635  57.265 -13.195  1.00  0.00     0.000 C 
BRANCH   2   3
ATOM      3  C   UNL     1      31.935  56.915 -13.935  1.00  0.00    -0.003 C 
ATOM      4  C   UNL     1      32.847  58.126 -14.135  1.00  0.00     0.004 C 
ENDBRANCH   2   3
ENDBRANCH   1   2
BRANCH   1   5
ATOM      5  C   UNL     1      30.300  59.182 -11.549  1.00  0.00     0.072 C 
BRANCH   5   6
ATOM      6  C   UNL     1      28.928  59.700 -11.227  1.00  0.00     0.224 C 
ATOM      7  O   UNL     1      28.125  58.982 -10.654  1.00  0.00    -0.303 OA
ENDBRANCH   5   6
ENDBRANCH   1   5
TORSDOF 4
ENDMDL
MODEL 9
REMARK VINA RESULT:    -3.000      6.732      8.123
REMARK INTER + INTRA:          -3.732
REMARK INTER:                  -3.594
REMARK INTRA:                  -0.138
REMARK UNBOUND:                -0.030
REMARK SMILES CCCCCC=O
REMARK SMILES IDX 4 1 3 2 2 3 1 4 5 5 6 6 7 7
REMARK H PARENT
REMARK Flexibility Score: inf
ROOT
ATOM      1  C   UNL     1      30.363  57.241 -13.151  1.00  0.00     0.008 C 
ENDROOT
BRANCH   1   2
ATOM      2  C   UNL     1      31.571  56.664 -13.910  1.00  0.00     0.000 C 
BRANCH   2   3
ATOM      3  C   UNL     1      32.791  57.598 -13.871  1.00  0.00    -0.003 C 
ATOM      4  C   UNL     1      34.084  56.868 -13.504  1.00  0.00     0.004 C 
ENDBRANCH   2   3
ENDBRANCH   1   2
BRANCH   1   5
ATOM      5  C   UNL     1      30.401  58.775 -13.089  1.00  0.00     0.072 C 
BRANCH   5   6
ATOM      6  C   UNL     1      30.064  59.301 -11.724  1.00  0.00     0.224 C 
ATOM      7  O   UNL     1      30.796  59.057 -10.779  1.00  0.00    -0.303 OA
ENDBRANCH   5   6
ENDBRANCH   1   5
TORSDOF 4
ENDMDL
