MODEL 1
REMARK VINA RESULT:    -5.352      0.000      0.000
REMARK INTER + INTRA:          -5.761
REMARK INTER:                  -5.665
REMARK INTRA:                  -0.096
REMARK UNBOUND:                -0.096
REMARK SMILES C=C(C)[C@@H]1CC=C(C)C(=O)C1
REMARK SMILES IDX 8 1 7 2 6 3 5 4 4 5 11 6 9 7 10 8 2 9 1 10 3 11
REMARK H PARENT
REMARK Flexibility Score: inf
ROOT
ATOM      1  C   UNL     1       4.477  -1.994  44.467  1.00  0.00     0.048 C 
ATOM      2  C   UNL     1       5.266  -2.067  45.745  1.00  0.00    -0.012 C 
ATOM      3  C   UNL     1       5.878  -0.968  46.218  1.00  0.00    -0.019 C 
ATOM      4  C   UNL     1       6.665  -0.981  47.501  1.00  0.00     0.036 C 
ATOM      5  C   UNL     1       7.335  -2.349  47.725  1.00  0.00     0.025 C 
ATOM      6  C   UNL     1       6.287  -3.475  47.673  1.00  0.00     0.089 C 
ATOM      7  C   UNL     1       5.468  -3.377  46.414  1.00  0.00     0.158 C 
ATOM      8  O   UNL     1       4.924  -4.415  45.954  1.00  0.00    -0.295 OA
ENDROOT
BRANCH   5   9
ATOM      9  C   UNL     1       8.118  -2.378  49.031  1.00  0.00    -0.077 C 
ATOM     10  C   UNL     1       7.498  -2.125  50.195  1.00  0.00     0.008 C 
ATOM     11  C   UNL     1       9.596  -2.684  49.055  1.00  0.00     0.039 C 
ENDBRANCH   5   9
TORSDOF 1
ENDMDL
MODEL 2
REMARK VINA RESULT:    -5.101      2.071      2.816
REMARK INTER + INTRA:          -5.495
REMARK INTER:                  -5.399
REMARK INTRA:                  -0.096
REMARK UNBOUND:                -0.096
REMARK SMILES C=C(C)[C@@H]1CC=C(C)C(=O)C1
REMARK SMILES IDX 8 1 7 2 6 3 5 4 4 5 11 6 9 7 10 8 2 9 1 10 3 11
REMARK H PARENT
REMARK Flexibility Score: inf
ROOT
ATOM      1  C   UNL     1       5.008  -2.044  44.927  1.00  0.00     0.048 C 
ATOM      2  C   UNL     1       5.407  -2.276  46.359  1.00  0.00    -0.012 C 
ATOM      3  C   UNL     1       5.126  -3.450  46.950  1.00  0.00    -0.019 C 
ATOM      4  C   UNL     1       5.519  -3.742  48.374  1.00  0.00     0.036 C 
ATOM      5  C   UNL     1       5.486  -2.462  49.230  1.00  0.00     0.025 C 
ATOM      6  C   UNL     1       6.365  -1.370  48.595  1.00  0.00     0.089 C 
ATOM      7  C   UNL     1       5.996  -1.168  47.151  1.00  0.00     0.158 C 
ATOM      8  O   UNL     1       6.228  -0.055  46.608  1.00  0.00    -0.295 OA
ENDROOT
BRANCH   5   9
ATOM      9  C   UNL     1       5.899  -2.744  50.668  1.00  0.00    -0.077 C 
ATOM     10  C   UNL     1       5.645  -3.941  51.221  1.00  0.00     0.008 C 
ATOM     11  C   UNL     1       6.595  -1.698  51.505  1.00  0.00     0.039 C 
ENDBRANCH   5   9
TORSDOF 1
ENDMDL
MODEL 3
REMARK VINA RESULT:    -5.004      2.101      3.043
REMARK INTER + INTRA:          -5.393
REMARK INTER:                  -5.302
REMARK INTRA:                  -0.091
REMARK UNBOUND:                -0.096
REMARK SMILES C=C(C)[C@@H]1CC=C(C)C(=O)C1
REMARK SMILES IDX 8 1 7 2 6 3 5 4 4 5 11 6 9 7 10 8 2 9 1 10 3 11
REMARK H PARENT
REMARK Flexibility Score: inf
ROOT
ATOM      1  C   UNL     1       6.927  -0.107  46.793  1.00  0.00     0.048 C 
ATOM      2  C   UNL     1       6.996  -1.318  47.682  1.00  0.00    -0.012 C 
ATOM      3  C   UNL     1       8.140  -1.613  48.322  1.00  0.00    -0.019 C 
ATOM      4  C   UNL     1       8.259  -2.803  49.238  1.00  0.00     0.036 C 
ATOM      5  C   UNL     1       7.366  -3.962  48.758  1.00  0.00     0.025 C 
ATOM      6  C   UNL     1       5.910  -3.488  48.605  1.00  0.00     0.089 C 
ATOM      7  C   UNL     1       5.843  -2.250  47.752  1.00  0.00     0.158 C 
ATOM      8  O   UNL     1       4.782  -1.994  47.124  1.00  0.00    -0.295 OA
ENDROOT
BRANCH   5   9
ATOM      9  C   UNL     1       7.465  -5.163  49.688  1.00  0.00    -0.077 C 
ATOM     10  C   UNL     1       8.578  -5.915  49.702  1.00  0.00     0.008 C 
ATOM     11  C   UNL     1       6.330  -5.542  50.607  1.00  0.00     0.039 C 
ENDBRANCH   5   9
TORSDOF 1
ENDMDL
MODEL 4
REMARK VINA RESULT:    -4.968      2.258      3.324
REMARK INTER + INTRA:          -5.354
REMARK INTER:                  -5.266
REMARK INTRA:                  -0.088
REMARK UNBOUND:                -0.096
REMARK SMILES C=C(C)[C@@H]1CC=C(C)C(=O)C1
REMARK SMILES IDX 8 1 7 2 6 3 5 4 4 5 11 6 9 7 10 8 2 9 1 10 3 11
REMARK H PARENT
REMARK Flexibility Score: inf
ROOT
ATOM      1  C   UNL     1       6.604  -0.198  46.796  1.00  0.00     0.048 C 
ATOM      2  C   UNL     1       6.047  -1.304  47.650  1.00  0.00    -0.012 C 
ATOM      3  C   UNL     1       6.227  -1.277  48.981  1.00  0.00    -0.019 C 
ATOM      4  C   UNL     1       5.675  -2.348  49.884  1.00  0.00     0.036 C 
ATOM      5  C   UNL     1       5.652  -3.714  49.172  1.00  0.00     0.025 C 
ATOM      6  C   UNL     1       4.879  -3.614  47.846  1.00  0.00     0.089 C 
ATOM      7  C   UNL     1       5.407  -2.480  47.009  1.00  0.00     0.158 C 
ATOM      8  O   UNL     1       5.268  -2.524  45.758  1.00  0.00    -0.295 OA
ENDROOT
BRANCH   5   9
ATOM      9  C   UNL     1       5.077  -4.800  50.071  1.00  0.00    -0.077 C 
ATOM     10  C   UNL     1       5.878  -5.470  50.916  1.00  0.00     0.008 C 
ATOM     11  C   UNL     1       3.611  -5.154  50.037  1.00  0.00     0.039 C 
ENDBRANCH   5   9
TORSDOF 1
ENDMDL
MODEL 5
REMARK VINA RESULT:    -4.928      2.335      4.537
REMARK INTER + INTRA:          -5.312
REMARK INTER:                  -5.220
REMARK INTRA:                  -0.092
REMARK UNBOUND:                -0.096
REMARK SMILES C=C(C)[C@@H]1CC=C(C)C(=O)C1
REMARK SMILES IDX 8 1 7 2 6 3 5 4 4 5 11 6 9 7 10 8 2 9 1 10 3 11
REMARK H PARENT
REMARK Flexibility Score: inf
ROOT
ATOM      1  C   UNL     1       8.594  -5.781  49.753  1.00  0.00     0.048 C 
ATOM      2  C   UNL     1       7.963  -4.592  49.082  1.00  0.00    -0.012 C 
ATOM      3  C   UNL     1       6.675  -4.643  48.703  1.00  0.00    -0.019 C 
ATOM      4  C   UNL     1       5.989  -3.476  48.045  1.00  0.00     0.036 C 
ATOM      5  C   UNL     1       6.977  -2.668  47.183  1.00  0.00     0.025 C 
ATOM      6  C   UNL     1       8.189  -2.232  48.024  1.00  0.00     0.089 C 
ATOM      7  C   UNL     1       8.795  -3.415  48.731  1.00  0.00     0.158 C 
ATOM      8  O   UNL     1      10.012  -3.379  49.054  1.00  0.00    -0.295 OA
ENDROOT
BRANCH   5   9
ATOM      9  C   UNL     1       6.296  -1.473  46.528  1.00  0.00    -0.077 C 
ATOM     10  C   UNL     1       5.316  -1.665  45.629  1.00  0.00     0.008 C 
ATOM     11  C   UNL     1       6.700  -0.058  46.861  1.00  0.00     0.039 C 
ENDBRANCH   5   9
TORSDOF 1
ENDMDL
MODEL 6
REMARK VINA RESULT:    -4.927      2.656      3.667
REMARK INTER + INTRA:          -5.311
REMARK INTER:                  -5.213
REMARK INTRA:                  -0.098
REMARK UNBOUND:                -0.096
REMARK SMILES C=C(C)[C@@H]1CC=C(C)C(=O)C1
REMARK SMILES IDX 8 1 7 2 6 3 5 4 4 5 11 6 9 7 10 8 2 9 1 10 3 11
REMARK H PARENT
REMARK Flexibility Score: inf
ROOT
ATOM      1  C   UNL     1       6.909  -0.125  46.769  1.00  0.00     0.048 C 
ATOM      2  C   UNL     1       6.491  -1.365  47.511  1.00  0.00    -0.012 C 
ATOM      3  C   UNL     1       5.219  -1.792  47.437  1.00  0.00    -0.019 C 
ATOM      4  C   UNL     1       4.752  -3.036  48.144  1.00  0.00     0.036 C 
ATOM      5  C   UNL     1       5.522  -3.246  49.461  1.00  0.00     0.025 C 
ATOM      6  C   UNL     1       7.039  -3.260  49.198  1.00  0.00     0.089 C 
ATOM      7  C   UNL     1       7.451  -2.042  48.418  1.00  0.00     0.158 C 
ATOM      8  O   UNL     1       8.635  -1.623  48.515  1.00  0.00    -0.295 OA
ENDROOT
BRANCH   5   9
ATOM      9  C   UNL     1       5.070  -4.513  50.175  1.00  0.00    -0.077 C 
ATOM     10  C   UNL     1       5.931  -5.197  50.946  1.00  0.00     0.008 C 
ATOM     11  C   UNL     1       3.660  -5.033  50.035  1.00  0.00     0.039 C 
ENDBRANCH   5   9
TORSDOF 1
ENDMDL
MODEL 7
REMARK VINA RESULT:    -4.860      1.346      4.315
REMARK INTER + INTRA:          -5.240
REMARK INTER:                  -5.145
REMARK INTRA:                  -0.095
REMARK UNBOUND:                -0.096
REMARK SMILES C=C(C)[C@@H]1CC=C(C)C(=O)C1
REMARK SMILES IDX 8 1 7 2 6 3 5 4 4 5 11 6 9 7 10 8 2 9 1 10 3 11
REMARK H PARENT
REMARK Flexibility Score: inf
ROOT
ATOM      1  C   UNL     1       7.355  -2.009  49.989  1.00  0.00     0.048 C 
ATOM      2  C   UNL     1       6.835  -2.078  48.580  1.00  0.00    -0.012 C 
ATOM      3  C   UNL     1       6.797  -0.967  47.825  1.00  0.00    -0.019 C 
ATOM      4  C   UNL     1       6.304  -0.983  46.403  1.00  0.00     0.036 C 
ATOM      5  C   UNL     1       5.198  -2.037  46.213  1.00  0.00     0.025 C 
ATOM      6  C   UNL     1       5.691  -3.420  46.674  1.00  0.00     0.089 C 
ATOM      7  C   UNL     1       6.252  -3.344  48.069  1.00  0.00     0.158 C 
ATOM      8  O   UNL     1       6.254  -4.379  48.787  1.00  0.00    -0.295 OA
ENDROOT
BRANCH   5   9
ATOM      9  C   UNL     1       4.705  -2.074  44.773  1.00  0.00    -0.077 C 
ATOM     10  C   UNL     1       4.473  -0.929  44.110  1.00  0.00     0.008 C 
ATOM     11  C   UNL     1       4.462  -3.381  44.058  1.00  0.00     0.039 C 
ENDBRANCH   5   9
TORSDOF 1
ENDMDL
MODEL 8
REMARK VINA RESULT:    -4.833      1.892      4.162
REMARK INTER + INTRA:          -5.212
REMARK INTER:                  -5.121
REMARK INTRA:                  -0.091
REMARK UNBOUND:                -0.096
REMARK SMILES C=C(C)[C@@H]1CC=C(C)C(=O)C1
REMARK SMILES IDX 8 1 7 2 6 3 5 4 4 5 11 6 9 7 10 8 2 9 1 10 3 11
REMARK H PARENT
REMARK Flexibility Score: inf
ROOT
ATOM      1  C   UNL     1       8.814  -5.948  49.719  1.00  0.00     0.048 C 
ATOM      2  C   UNL     1       8.264  -4.864  48.834  1.00  0.00    -0.012 C 
ATOM      3  C   UNL     1       9.079  -3.902  48.369  1.00  0.00    -0.019 C 
ATOM      4  C   UNL     1       8.585  -2.804  47.466  1.00  0.00     0.036 C 
ATOM      5  C   UNL     1       7.124  -2.437  47.789  1.00  0.00     0.025 C 
ATOM      6  C   UNL     1       6.231  -3.689  47.727  1.00  0.00     0.089 C 
ATOM      7  C   UNL     1       6.804  -4.789  48.579  1.00  0.00     0.158 C 
ATOM      8  O   UNL     1       6.033  -5.671  49.042  1.00  0.00    -0.295 OA
ENDROOT
BRANCH   5   9
ATOM      9  C   UNL     1       6.609  -1.340  46.867  1.00  0.00    -0.077 C 
ATOM     10  C   UNL     1       7.110  -0.096  46.954  1.00  0.00     0.008 C 
ATOM     11  C   UNL     1       5.532  -1.612  45.846  1.00  0.00     0.039 C 
ENDBRANCH   5   9
TORSDOF 1
ENDMDL
MODEL 9
REMARK VINA RESULT:    -4.823      2.035      3.513
REMARK INTER + INTRA:          -5.202
REMARK INTER:                  -5.105
REMARK INTRA:                  -0.097
REMARK UNBOUND:                -0.096
REMARK SMILES C=C(C)[C@@H]1CC=C(C)C(=O)C1
REMARK SMILES IDX 8 1 7 2 6 3 5 4 4 5 11 6 9 7 10 8 2 9 1 10 3 11
REMARK H PARENT
REMARK Flexibility Score: inf
ROOT
ATOM      1  C   UNL     1       3.538  -5.347  50.120  1.00  0.00     0.048 C 
ATOM      2  C   UNL     1       4.572  -4.426  49.533  1.00  0.00    -0.012 C 
ATOM      3  C   UNL     1       5.129  -3.472  50.298  1.00  0.00    -0.019 C 
ATOM      4  C   UNL     1       6.181  -2.535  49.766  1.00  0.00     0.036 C 
ATOM      5  C   UNL     1       5.954  -2.239  48.272  1.00  0.00     0.025 C 
ATOM      6  C   UNL     1       5.884  -3.551  47.471  1.00  0.00     0.089 C 
ATOM      7  C   UNL     1       4.881  -4.492  48.083  1.00  0.00     0.158 C 
ATOM      8  O   UNL     1       4.334  -5.363  47.357  1.00  0.00    -0.295 OA
ENDROOT
BRANCH   5   9
ATOM      9  C   UNL     1       7.024  -1.307  47.720  1.00  0.00    -0.077 C 
ATOM     10  C   UNL     1       8.322  -1.554  47.959  1.00  0.00     0.008 C 
ATOM     11  C   UNL     1       6.662  -0.091  46.903  1.00  0.00     0.039 C 
ENDBRANCH   5   9
TORSDOF 1
ENDMDL
