MODEL 1
REMARK VINA RESULT:    -3.820      0.000      0.000
REMARK INTER + INTRA:          -3.820
REMARK INTER:                  -3.820
REMARK INTRA:                   0.000
REMARK UNBOUND:                 0.000
REMARK SMILES CC1=CC[C@H]2C[C@@H]1C2(C)C
REMARK SMILES IDX 1 1 2 2 3 3 4 4 5 5 6 6 7 7 8 8 9 9 10 10
REMARK H PARENT
REMARK Flexibility Score: inf
ROOT
ATOM      1  C   UNL     1      42.320  21.018  -4.177  1.00  0.00     0.039 C 
ATOM      2  C   UNL     1      42.041  20.236  -2.929  1.00  0.00    -0.074 C 
ATOM      3  C   UNL     1      42.318  18.901  -2.849  1.00  0.00    -0.027 C 
ATOM      4  C   UNL     1      41.979  18.149  -1.547  1.00  0.00     0.031 C 
ATOM      5  C   UNL     1      41.383  19.145  -0.491  1.00  0.00    -0.000 C 
ATOM      6  C   UNL     1      42.312  20.376  -0.508  1.00  0.00     0.013 C 
ATOM      7  C   UNL     1      41.449  20.894  -1.676  1.00  0.00     0.021 C 
ATOM      8  C   UNL     1      40.280  20.025  -1.141  1.00  0.00    -0.026 C 
ATOM      9  C   UNL     1      39.427  20.772  -0.084  1.00  0.00     0.012 C 
ATOM     10  C   UNL     1      39.316  19.371  -2.171  1.00  0.00     0.012 C 
ENDROOT
TORSDOF 0
ENDMDL
MODEL 2
REMARK VINA RESULT:    -3.806      1.255      2.964
REMARK INTER + INTRA:          -3.806
REMARK INTER:                  -3.806
REMARK INTRA:                   0.000
REMARK UNBOUND:                 0.000
REMARK SMILES CC1=CC[C@H]2C[C@@H]1C2(C)C
REMARK SMILES IDX 1 1 2 2 3 3 4 4 5 5 6 6 7 7 8 8 9 9 10 10
REMARK H PARENT
REMARK Flexibility Score: inf
ROOT
ATOM      1  C   UNL     1      43.616  17.068  -2.723  1.00  0.00     0.039 C 
ATOM      2  C   UNL     1      42.983  18.412  -2.921  1.00  0.00    -0.074 C 
ATOM      3  C   UNL     1      43.461  19.295  -3.845  1.00  0.00    -0.027 C 
ATOM      4  C   UNL     1      42.782  20.673  -3.978  1.00  0.00     0.031 C 
ATOM      5  C   UNL     1      41.571  20.772  -2.986  1.00  0.00    -0.000 C 
ATOM      6  C   UNL     1      40.787  19.454  -3.149  1.00  0.00     0.013 C 
ATOM      7  C   UNL     1      41.757  18.858  -2.110  1.00  0.00     0.021 C 
ATOM      8  C   UNL     1      41.993  20.293  -1.569  1.00  0.00    -0.026 C 
ATOM      9  C   UNL     1      40.958  20.689  -0.485  1.00  0.00     0.012 C 
ATOM     10  C   UNL     1      43.410  20.662  -1.049  1.00  0.00     0.012 C 
ENDROOT
TORSDOF 0
ENDMDL
MODEL 3
REMARK VINA RESULT:    -3.626      1.115      3.160
REMARK INTER + INTRA:          -3.626
REMARK INTER:                  -3.626
REMARK INTRA:                   0.000
REMARK UNBOUND:                 0.000
REMARK SMILES CC1=CC[C@H]2C[C@@H]1C2(C)C
REMARK SMILES IDX 1 1 2 2 3 3 4 4 5 5 6 6 7 7 8 8 9 9 10 10
REMARK H PARENT
REMARK Flexibility Score: inf
ROOT
ATOM      1  C   UNL     1      39.375  20.621  -0.180  1.00  0.00     0.039 C 
ATOM      2  C   UNL     1      40.575  20.099  -0.911  1.00  0.00    -0.074 C 
ATOM      3  C   UNL     1      41.796  20.697  -0.792  1.00  0.00    -0.027 C 
ATOM      4  C   UNL     1      42.984  20.127  -1.594  1.00  0.00     0.031 C 
ATOM      5  C   UNL     1      42.527  18.865  -2.405  1.00  0.00    -0.000 C 
ATOM      6  C   UNL     1      41.718  18.002  -1.415  1.00  0.00     0.013 C 
ATOM      7  C   UNL     1      40.499  18.858  -1.811  1.00  0.00     0.021 C 
ATOM      8  C   UNL     1      41.202  19.159  -3.162  1.00  0.00    -0.026 C 
ATOM      9  C   UNL     1      40.892  18.087  -4.238  1.00  0.00     0.012 C 
ATOM     10  C   UNL     1      41.004  20.562  -3.800  1.00  0.00     0.012 C 
ENDROOT
TORSDOF 0
ENDMDL
MODEL 4
REMARK VINA RESULT:    -3.539      1.402      3.489
REMARK INTER + INTRA:          -3.539
REMARK INTER:                  -3.539
REMARK INTRA:                   0.000
REMARK UNBOUND:                 0.000
REMARK SMILES CC1=CC[C@H]2C[C@@H]1C2(C)C
REMARK SMILES IDX 1 1 2 2 3 3 4 4 5 5 6 6 7 7 8 8 9 9 10 10
REMARK H PARENT
REMARK Flexibility Score: inf
ROOT
ATOM      1  C   UNL     1      41.171  20.695  -0.475  1.00  0.00     0.039 C 
ATOM      2  C   UNL     1      41.344  19.903  -1.736  1.00  0.00    -0.074 C 
ATOM      3  C   UNL     1      40.282  19.606  -2.541  1.00  0.00    -0.027 C 
ATOM      4  C   UNL     1      40.524  18.762  -3.809  1.00  0.00     0.031 C 
ATOM      5  C   UNL     1      42.050  18.428  -3.947  1.00  0.00    -0.000 C 
ATOM      6  C   UNL     1      42.794  19.755  -3.694  1.00  0.00     0.013 C 
ATOM      7  C   UNL     1      42.720  19.401  -2.195  1.00  0.00     0.021 C 
ATOM      8  C   UNL     1      42.614  17.906  -2.597  1.00  0.00    -0.026 C 
ATOM      9  C   UNL     1      44.005  17.241  -2.761  1.00  0.00     0.012 C 
ATOM     10  C   UNL     1      41.725  16.970  -1.731  1.00  0.00     0.012 C 
ENDROOT
TORSDOF 0
ENDMDL
MODEL 5
REMARK VINA RESULT:    -3.443      1.651      3.122
REMARK INTER + INTRA:          -3.443
REMARK INTER:                  -3.443
REMARK INTRA:                   0.000
REMARK UNBOUND:                 0.000
REMARK SMILES CC1=CC[C@H]2C[C@@H]1C2(C)C
REMARK SMILES IDX 1 1 2 2 3 3 4 4 5 5 6 6 7 7 8 8 9 9 10 10
REMARK H PARENT
REMARK Flexibility Score: inf
ROOT
ATOM      1  C   UNL     1      43.776  20.981  -5.049  1.00  0.00     0.039 C 
ATOM      2  C   UNL     1      42.988  20.393  -3.917  1.00  0.00    -0.074 C 
ATOM      3  C   UNL     1      43.185  20.797  -2.628  1.00  0.00    -0.027 C 
ATOM      4  C   UNL     1      42.362  20.130  -1.508  1.00  0.00     0.031 C 
ATOM      5  C   UNL     1      41.369  19.083  -2.121  1.00  0.00    -0.000 C 
ATOM      6  C   UNL     1      40.700  19.792  -3.317  1.00  0.00     0.013 C 
ATOM      7  C   UNL     1      41.911  19.325  -4.150  1.00  0.00     0.021 C 
ATOM      8  C   UNL     1      42.108  18.167  -3.136  1.00  0.00    -0.026 C 
ATOM      9  C   UNL     1      41.276  16.913  -3.506  1.00  0.00     0.012 C 
ATOM     10  C   UNL     1      43.558  17.711  -2.809  1.00  0.00     0.012 C 
ENDROOT
TORSDOF 0
ENDMDL
MODEL 6
REMARK VINA RESULT:    -3.421      1.131      3.247
REMARK INTER + INTRA:          -3.421
REMARK INTER:                  -3.421
REMARK INTRA:                   0.000
REMARK UNBOUND:                 0.000
REMARK SMILES CC1=CC[C@H]2C[C@@H]1C2(C)C
REMARK SMILES IDX 1 1 2 2 3 3 4 4 5 5 6 6 7 7 8 8 9 9 10 10
REMARK H PARENT
REMARK Flexibility Score: inf
ROOT
ATOM      1  C   UNL     1      41.846  16.853  -1.743  1.00  0.00     0.039 C 
ATOM      2  C   UNL     1      41.806  18.350  -1.813  1.00  0.00    -0.074 C 
ATOM      3  C   UNL     1      40.805  19.063  -1.220  1.00  0.00    -0.027 C 
ATOM      4  C   UNL     1      40.808  20.600  -1.354  1.00  0.00     0.031 C 
ATOM      5  C   UNL     1      42.067  21.065  -2.165  1.00  0.00    -0.000 C 
ATOM      6  C   UNL     1      43.260  20.294  -1.563  1.00  0.00     0.013 C 
ATOM      7  C   UNL     1      42.894  19.156  -2.536  1.00  0.00     0.021 C 
ATOM      8  C   UNL     1      42.225  20.214  -3.454  1.00  0.00    -0.026 C 
ATOM      9  C   UNL     1      43.229  20.844  -4.453  1.00  0.00     0.012 C 
ATOM     10  C   UNL     1      40.947  19.806  -4.239  1.00  0.00     0.012 C 
ENDROOT
TORSDOF 0
ENDMDL
MODEL 7
REMARK VINA RESULT:    -3.205      1.512      3.567
REMARK INTER + INTRA:          -3.205
REMARK INTER:                  -3.205
REMARK INTRA:                   0.000
REMARK UNBOUND:                 0.000
REMARK SMILES CC1=CC[C@H]2C[C@@H]1C2(C)C
REMARK SMILES IDX 1 1 2 2 3 3 4 4 5 5 6 6 7 7 8 8 9 9 10 10
REMARK H PARENT
REMARK Flexibility Score: inf
ROOT
ATOM      1  C   UNL     1      39.329  19.125  -2.097  1.00  0.00     0.039 C 
ATOM      2  C   UNL     1      40.719  18.768  -2.530  1.00  0.00    -0.074 C 
ATOM      3  C   UNL     1      41.434  17.796  -1.892  1.00  0.00    -0.027 C 
ATOM      4  C   UNL     1      42.870  17.497  -2.369  1.00  0.00     0.031 C 
ATOM      5  C   UNL     1      43.226  18.403  -3.599  1.00  0.00    -0.000 C 
ATOM      6  C   UNL     1      42.014  18.314  -4.548  1.00  0.00     0.013 C 
ATOM      7  C   UNL     1      41.400  19.460  -3.719  1.00  0.00     0.021 C 
ATOM      8  C   UNL     1      42.838  19.880  -3.314  1.00  0.00    -0.026 C 
ATOM      9  C   UNL     1      43.473  20.860  -4.333  1.00  0.00     0.012 C 
ATOM     10  C   UNL     1      43.066  20.447  -1.885  1.00  0.00     0.012 C 
ENDROOT
TORSDOF 0
ENDMDL
MODEL 8
REMARK VINA RESULT:    -3.203      8.302     10.148
REMARK INTER + INTRA:          -3.203
REMARK INTER:                  -3.203
REMARK INTRA:                   0.000
REMARK UNBOUND:                 0.000
REMARK SMILES CC1=CC[C@H]2C[C@@H]1C2(C)C
REMARK SMILES IDX 1 1 2 2 3 3 4 4 5 5 6 6 7 7 8 8 9 9 10 10
REMARK H PARENT
REMARK Flexibility Score: inf
ROOT
ATOM      1  C   UNL     1      46.697  10.955   0.333  1.00  0.00     0.039 C 
ATOM      2  C   UNL     1      46.518  11.635  -0.991  1.00  0.00    -0.074 C 
ATOM      3  C   UNL     1      45.445  11.363  -1.790  1.00  0.00    -0.027 C 
ATOM      4  C   UNL     1      45.336  12.076  -3.153  1.00  0.00     0.031 C 
ATOM      5  C   UNL     1      46.538  13.066  -3.340  1.00  0.00    -0.000 C 
ATOM      6  C   UNL     1      46.645  13.847  -2.014  1.00  0.00     0.013 C 
ATOM      7  C   UNL     1      47.516  12.681  -1.506  1.00  0.00     0.021 C 
ATOM      8  C   UNL     1      47.877  12.364  -2.982  1.00  0.00    -0.026 C 
ATOM      9  C   UNL     1      49.109  13.167  -3.472  1.00  0.00     0.012 C 
ATOM     10  C   UNL     1      48.071  10.876  -3.391  1.00  0.00     0.012 C 
ENDROOT
TORSDOF 0
ENDMDL
MODEL 9
REMARK VINA RESULT:    -3.162      1.485      2.493
REMARK INTER + INTRA:          -3.162
REMARK INTER:                  -3.162
REMARK INTRA:                   0.000
REMARK UNBOUND:                 0.000
REMARK SMILES CC1=CC[C@H]2C[C@@H]1C2(C)C
REMARK SMILES IDX 1 1 2 2 3 3 4 4 5 5 6 6 7 7 8 8 9 9 10 10
REMARK H PARENT
REMARK Flexibility Score: inf
ROOT
ATOM      1  C   UNL     1      39.481  19.046  -4.852  1.00  0.00     0.039 C 
ATOM      2  C   UNL     1      40.802  19.280  -4.183  1.00  0.00    -0.074 C 
ATOM      3  C   UNL     1      41.943  18.684  -4.635  1.00  0.00    -0.027 C 
ATOM      4  C   UNL     1      43.264  18.943  -3.884  1.00  0.00     0.031 C 
ATOM      5  C   UNL     1      43.020  19.939  -2.697  1.00  0.00    -0.000 C 
ATOM      6  C   UNL     1      42.172  21.087  -3.281  1.00  0.00     0.013 C 
ATOM      7  C   UNL     1      40.942  20.211  -2.971  1.00  0.00     0.021 C 
ATOM      8  C   UNL     1      41.778  19.502  -1.872  1.00  0.00    -0.026 C 
ATOM      9  C   UNL     1      41.695  20.232  -0.507  1.00  0.00     0.012 C 
ATOM     10  C   UNL     1      41.541  17.985  -1.629  1.00  0.00     0.012 C 
ENDROOT
TORSDOF 0
ENDMDL
