MODEL 1
REMARK VINA RESULT:    -5.834      0.000      0.000
REMARK INTER + INTRA:         -10.421
REMARK INTER:                  -9.927
REMARK INTRA:                  -0.494
REMARK UNBOUND:                -0.494
REMARK SMILES CCCCCCCCCCCCCC(=O)[O-]
REMARK SMILES IDX 8 1 9 2 10 3 11 4 12 5 13 6 14 7 15 8 16 9 7 10 6 11 5 12
REMARK SMILES IDX 4 13 3 14 2 15 1 16
REMARK H PARENT
REMARK Flexibility Score: inf
ROOT
ATOM      1  C   UNL     1     -11.921  -0.595 -10.375  1.00  0.00     0.000 C 
ENDROOT
BRANCH   1   2
ATOM      2  C   UNL     1     -13.340  -1.191 -10.361  1.00  0.00     0.000 C 
BRANCH   2   3
ATOM      3  C   UNL     1     -14.475  -0.190 -10.662  1.00  0.00     0.000 C 
BRANCH   3   4
ATOM      4  C   UNL     1     -15.029   0.560  -9.435  1.00  0.00     0.000 C 
BRANCH   4   5
ATOM      5  C   UNL     1     -14.677   2.061  -9.376  1.00  0.00     0.006 C 
BRANCH   5   6
ATOM      6  C   UNL     1     -13.169   2.359  -9.366  1.00  0.00     0.053 C 
BRANCH   6   7
ATOM      7  C   UNL     1     -12.857   3.636  -8.648  1.00  0.00     0.041 C 
ATOM      8  O   UNL     1     -11.710   3.828  -8.165  1.00  0.00    -0.550 OA
ATOM      9  O   UNL     1     -13.844   4.600  -8.483  1.00  0.00    -0.550 OA
ENDBRANCH   6   7
ENDBRANCH   5   6
ENDBRANCH   4   5
ENDBRANCH   3   4
ENDBRANCH   2   3
ENDBRANCH   1   2
BRANCH   1  10
ATOM     10  C   UNL     1     -10.878  -1.521  -9.728  1.00  0.00     0.000 C 
BRANCH  10  11
ATOM     11  C   UNL     1     -11.381  -2.967  -9.565  1.00  0.00    -0.000 C 
BRANCH  11  12
ATOM     12  C   UNL     1     -10.283  -4.050  -9.580  1.00  0.00    -0.000 C 
BRANCH  12  13
ATOM     13  C   UNL     1      -9.648  -4.359  -8.209  1.00  0.00    -0.000 C 
BRANCH  13  14
ATOM     14  C   UNL     1     -10.195  -5.617  -7.510  1.00  0.00    -0.000 C 
BRANCH  14  15
ATOM     15  C   UNL     1     -11.474  -5.342  -6.707  1.00  0.00    -0.003 C 
ATOM     16  C   UNL     1     -11.396  -5.970  -5.318  1.00  0.00     0.004 C 
ENDBRANCH  14  15
ENDBRANCH  13  14
ENDBRANCH  12  13
ENDBRANCH  11  12
ENDBRANCH  10  11
ENDBRANCH   1  10
TORSDOF 12
ENDMDL
MODEL 2
REMARK VINA RESULT:    -5.832      3.862      7.792
REMARK INTER + INTRA:         -10.418
REMARK INTER:                  -9.722
REMARK INTRA:                  -0.696
REMARK UNBOUND:                -0.494
REMARK SMILES CCCCCCCCCCCCCC(=O)[O-]
REMARK SMILES IDX 8 1 9 2 10 3 11 4 12 5 13 6 14 7 15 8 16 9 7 10 6 11 5 12
REMARK SMILES IDX 4 13 3 14 2 15 1 16
REMARK H PARENT
REMARK Flexibility Score: inf
ROOT
ATOM      1  C   UNL     1     -11.042  -1.001  -9.211  1.00  0.00     0.000 C 
ENDROOT
BRANCH   1   2
ATOM      2  C   UNL     1     -10.434  -2.349  -9.642  1.00  0.00     0.000 C 
BRANCH   2   3
ATOM      3  C   UNL     1     -11.334  -3.579  -9.408  1.00  0.00     0.000 C 
BRANCH   3   4
ATOM      4  C   UNL     1     -10.585  -4.907  -9.189  1.00  0.00     0.000 C 
BRANCH   4   5
ATOM      5  C   UNL     1      -9.858  -5.029  -7.834  1.00  0.00     0.006 C 
BRANCH   5   6
ATOM      6  C   UNL     1     -10.736  -4.717  -6.612  1.00  0.00     0.053 C 
BRANCH   6   7
ATOM      7  C   UNL     1     -11.203  -5.964  -5.926  1.00  0.00     0.041 C 
ATOM      8  O   UNL     1     -10.644  -7.067  -6.165  1.00  0.00    -0.550 OA
ATOM      9  O   UNL     1     -12.276  -5.912  -5.046  1.00  0.00    -0.550 OA
ENDBRANCH   6   7
ENDBRANCH   5   6
ENDBRANCH   4   5
ENDBRANCH   3   4
ENDBRANCH   2   3
ENDBRANCH   1   2
BRANCH   1  10
ATOM     10  C   UNL     1     -11.799  -0.296 -10.348  1.00  0.00     0.000 C 
BRANCH  10  11
ATOM     11  C   UNL     1     -13.301  -0.629 -10.363  1.00  0.00    -0.000 C 
BRANCH  11  12
ATOM     12  C   UNL     1     -14.233   0.517  -9.919  1.00  0.00    -0.000 C 
BRANCH  12  13
ATOM     13  C   UNL     1     -13.524   1.842  -9.575  1.00  0.00    -0.000 C 
BRANCH  13  14
ATOM     14  C   UNL     1     -14.403   2.879  -8.852  1.00  0.00    -0.000 C 
BRANCH  14  15
ATOM     15  C   UNL     1     -13.581   3.953  -8.125  1.00  0.00    -0.003 C 
ATOM     16  C   UNL     1     -12.102   3.849  -8.486  1.00  0.00     0.004 C 
ENDBRANCH  14  15
ENDBRANCH  13  14
ENDBRANCH  12  13
ENDBRANCH  11  12
ENDBRANCH  10  11
ENDBRANCH   1  10
TORSDOF 12
ENDMDL
MODEL 3
REMARK VINA RESULT:    -5.806      0.953      1.301
REMARK INTER + INTRA:         -10.374
REMARK INTER:                  -9.582
REMARK INTRA:                  -0.791
REMARK UNBOUND:                -0.494
REMARK SMILES CCCCCCCCCCCCCC(=O)[O-]
REMARK SMILES IDX 8 1 9 2 10 3 11 4 12 5 13 6 14 7 15 8 16 9 7 10 6 11 5 12
REMARK SMILES IDX 4 13 3 14 2 15 1 16
REMARK H PARENT
REMARK Flexibility Score: inf
ROOT
ATOM      1  C   UNL     1     -13.380  -1.623 -10.202  1.00  0.00     0.000 C 
ENDROOT
BRANCH   1   2
ATOM      2  C   UNL     1     -14.786  -1.017 -10.369  1.00  0.00     0.000 C 
BRANCH   2   3
ATOM      3  C   UNL     1     -14.826   0.517 -10.518  1.00  0.00     0.000 C 
BRANCH   3   4
ATOM      4  C   UNL     1     -15.052   1.297  -9.208  1.00  0.00     0.000 C 
BRANCH   4   5
ATOM      5  C   UNL     1     -14.435   2.711  -9.177  1.00  0.00     0.006 C 
BRANCH   5   6
ATOM      6  C   UNL     1     -12.900   2.735  -9.252  1.00  0.00     0.053 C 
BRANCH   6   7
ATOM      7  C   UNL     1     -12.305   3.646  -8.222  1.00  0.00     0.041 C 
ATOM      8  O   UNL     1     -11.066   3.873  -8.216  1.00  0.00    -0.550 OA
ATOM      9  O   UNL     1     -13.115   4.219  -7.250  1.00  0.00    -0.550 OA
ENDBRANCH   6   7
ENDBRANCH   5   6
ENDBRANCH   4   5
ENDBRANCH   3   4
ENDBRANCH   2   3
ENDBRANCH   1   2
BRANCH   1  10
ATOM     10  C   UNL     1     -12.257  -0.612 -10.489  1.00  0.00     0.000 C 
BRANCH  10  11
ATOM     11  C   UNL     1     -10.940  -0.964  -9.773  1.00  0.00    -0.000 C 
BRANCH  11  12
ATOM     12  C   UNL     1     -10.668  -2.472  -9.600  1.00  0.00    -0.000 C 
BRANCH  12  13
ATOM     13  C   UNL     1     -10.530  -2.951  -8.141  1.00  0.00    -0.000 C 
BRANCH  13  14
ATOM     14  C   UNL     1     -10.915  -4.422  -7.902  1.00  0.00    -0.000 C 
BRANCH  14  15
ATOM     15  C   UNL     1     -10.818  -4.830  -6.425  1.00  0.00    -0.003 C 
ATOM     16  C   UNL     1     -11.890  -5.856  -6.067  1.00  0.00     0.004 C 
ENDBRANCH  14  15
ENDBRANCH  13  14
ENDBRANCH  12  13
ENDBRANCH  11  12
ENDBRANCH  10  11
ENDBRANCH   1  10
TORSDOF 12
ENDMDL
MODEL 4
REMARK VINA RESULT:    -5.388      0.975      1.779
REMARK INTER + INTRA:          -9.662
REMARK INTER:                  -9.023
REMARK INTRA:                  -0.639
REMARK UNBOUND:                -0.494
REMARK SMILES CCCCCCCCCCCCCC(=O)[O-]
REMARK SMILES IDX 8 1 9 2 10 3 11 4 12 5 13 6 14 7 15 8 16 9 7 10 6 11 5 12
REMARK SMILES IDX 4 13 3 14 2 15 1 16
REMARK H PARENT
REMARK Flexibility Score: inf
ROOT
ATOM      1  C   UNL     1     -10.652  -2.022  -9.334  1.00  0.00     0.000 C 
ENDROOT
BRANCH   1   2
ATOM      2  C   UNL     1     -11.185  -0.580  -9.261  1.00  0.00     0.000 C 
BRANCH   2   3
ATOM      3  C   UNL     1     -12.161  -0.183 -10.387  1.00  0.00     0.000 C 
BRANCH   3   4
ATOM      4  C   UNL     1     -13.608   0.092  -9.935  1.00  0.00     0.000 C 
BRANCH   4   5
ATOM      5  C   UNL     1     -13.839   1.476  -9.295  1.00  0.00     0.006 C 
BRANCH   5   6
ATOM      6  C   UNL     1     -12.760   2.518  -9.632  1.00  0.00     0.053 C 
BRANCH   6   7
ATOM      7  C   UNL     1     -12.623   3.548  -8.553  1.00  0.00     0.041 C 
ATOM      8  O   UNL     1     -13.637   4.164  -8.131  1.00  0.00    -0.550 OA
ATOM      9  O   UNL     1     -11.369   3.850  -8.036  1.00  0.00    -0.550 OA
ENDBRANCH   6   7
ENDBRANCH   5   6
ENDBRANCH   4   5
ENDBRANCH   3   4
ENDBRANCH   2   3
ENDBRANCH   1   2
BRANCH   1  10
ATOM     10  C   UNL     1     -10.283  -2.594  -7.955  1.00  0.00     0.000 C 
BRANCH  10  11
ATOM     11  C   UNL     1      -9.629  -3.985  -8.040  1.00  0.00    -0.000 C 
BRANCH  11  12
ATOM     12  C   UNL     1     -10.032  -4.826  -9.269  1.00  0.00    -0.000 C 
BRANCH  12  13
ATOM     13  C   UNL     1     -10.893  -6.067  -8.960  1.00  0.00    -0.000 C 
BRANCH  13  14
ATOM     14  C   UNL     1     -10.795  -6.581  -7.513  1.00  0.00    -0.000 C 
BRANCH  14  15
ATOM     15  C   UNL     1     -12.077  -6.334  -6.706  1.00  0.00    -0.003 C 
ATOM     16  C   UNL     1     -11.753  -5.944  -5.266  1.00  0.00     0.004 C 
ENDBRANCH  14  15
ENDBRANCH  13  14
ENDBRANCH  12  13
ENDBRANCH  11  12
ENDBRANCH  10  11
ENDBRANCH   1  10
TORSDOF 12
ENDMDL
MODEL 5
REMARK VINA RESULT:    -5.285      4.665      8.172
REMARK INTER + INTRA:          -9.487
REMARK INTER:                  -8.670
REMARK INTRA:                  -0.818
REMARK UNBOUND:                -0.494
REMARK SMILES CCCCCCCCCCCCCC(=O)[O-]
REMARK SMILES IDX 8 1 9 2 10 3 11 4 12 5 13 6 14 7 15 8 16 9 7 10 6 11 5 12
REMARK SMILES IDX 4 13 3 14 2 15 1 16
REMARK H PARENT
REMARK Flexibility Score: inf
ROOT
ATOM      1  C   UNL     1     -11.191  -3.501  -9.257  1.00  0.00     0.000 C 
ENDROOT
BRANCH   1   2
ATOM      2  C   UNL     1     -10.750  -3.928  -7.846  1.00  0.00     0.000 C 
BRANCH   2   3
ATOM      3  C   UNL     1     -10.148  -5.345  -7.748  1.00  0.00     0.000 C 
BRANCH   3   4
ATOM      4  C   UNL     1     -10.592  -6.324  -8.852  1.00  0.00     0.000 C 
BRANCH   4   5
ATOM      5  C   UNL     1     -11.046  -7.710  -8.351  1.00  0.00     0.006 C 
BRANCH   5   6
ATOM      6  C   UNL     1     -12.389  -7.705  -7.603  1.00  0.00     0.053 C 
BRANCH   6   7
ATOM      7  C   UNL     1     -12.212  -7.947  -6.135  1.00  0.00     0.041 C 
ATOM      8  O   UNL     1     -11.061  -8.125  -5.656  1.00  0.00    -0.550 OA
ATOM      9  O   UNL     1     -13.322  -8.008  -5.302  1.00  0.00    -0.550 OA
ENDBRANCH   6   7
ENDBRANCH   5   6
ENDBRANCH   4   5
ENDBRANCH   3   4
ENDBRANCH   2   3
ENDBRANCH   1   2
BRANCH   1  10
ATOM     10  C   UNL     1     -10.124  -2.672  -9.992  1.00  0.00     0.000 C 
BRANCH  10  11
ATOM     11  C   UNL     1     -10.646  -1.299 -10.452  1.00  0.00    -0.000 C 
BRANCH  11  12
ATOM     12  C   UNL     1     -11.191  -0.393  -9.329  1.00  0.00    -0.000 C 
BRANCH  12  13
ATOM     13  C   UNL     1     -12.460   0.405  -9.687  1.00  0.00    -0.000 C 
BRANCH  13  14
ATOM     14  C   UNL     1     -13.562  -0.409 -10.388  1.00  0.00    -0.000 C 
BRANCH  14  15
ATOM     15  C   UNL     1     -14.972   0.125 -10.098  1.00  0.00    -0.003 C 
ATOM     16  C   UNL     1     -14.928   1.590  -9.673  1.00  0.00     0.004 C 
ENDBRANCH  14  15
ENDBRANCH  13  14
ENDBRANCH  12  13
ENDBRANCH  11  12
ENDBRANCH  10  11
ENDBRANCH   1  10
TORSDOF 12
ENDMDL
MODEL 6
REMARK VINA RESULT:    -5.043      1.852      3.924
REMARK INTER + INTRA:          -9.075
REMARK INTER:                  -8.030
REMARK INTRA:                  -1.045
REMARK UNBOUND:                -0.494
REMARK SMILES CCCCCCCCCCCCCC(=O)[O-]
REMARK SMILES IDX 8 1 9 2 10 3 11 4 12 5 13 6 14 7 15 8 16 9 7 10 6 11 5 12
REMARK SMILES IDX 4 13 3 14 2 15 1 16
REMARK H PARENT
REMARK Flexibility Score: inf
ROOT
ATOM      1  C   UNL     1     -10.013  -4.658  -7.994  1.00  0.00     0.000 C 
ENDROOT
BRANCH   1   2
ATOM      2  C   UNL     1     -10.181  -3.966  -9.359  1.00  0.00     0.000 C 
BRANCH   2   3
ATOM      3  C   UNL     1     -11.357  -2.972  -9.449  1.00  0.00     0.000 C 
BRANCH   3   4
ATOM      4  C   UNL     1     -10.966  -1.484  -9.362  1.00  0.00     0.000 C 
BRANCH   4   5
ATOM      5  C   UNL     1     -11.592  -0.581 -10.445  1.00  0.00     0.006 C 
BRANCH   5   6
ATOM      6  C   UNL     1     -13.125  -0.489 -10.386  1.00  0.00     0.053 C 
BRANCH   6   7
ATOM      7  C   UNL     1     -13.584   0.803  -9.783  1.00  0.00     0.041 C 
ATOM      8  O   UNL     1     -14.813   1.069  -9.712  1.00  0.00    -0.550 OA
ATOM      9  O   UNL     1     -12.652   1.728  -9.329  1.00  0.00    -0.550 OA
ENDBRANCH   6   7
ENDBRANCH   5   6
ENDBRANCH   4   5
ENDBRANCH   3   4
ENDBRANCH   2   3
ENDBRANCH   1   2
BRANCH   1  10
ATOM     10  C   UNL     1     -10.174  -6.186  -8.075  1.00  0.00     0.000 C 
BRANCH  10  11
ATOM     11  C   UNL     1     -11.238  -6.621  -9.099  1.00  0.00    -0.000 C 
BRANCH  11  12
ATOM     12  C   UNL     1     -12.502  -7.270  -8.497  1.00  0.00    -0.000 C 
BRANCH  12  13
ATOM     13  C   UNL     1     -13.449  -6.302  -7.760  1.00  0.00    -0.000 C 
BRANCH  13  14
ATOM     14  C   UNL     1     -13.809  -6.716  -6.322  1.00  0.00    -0.000 C 
BRANCH  14  15
ATOM     15  C   UNL     1     -12.592  -7.193  -5.518  1.00  0.00    -0.003 C 
ATOM     16  C   UNL     1     -11.828  -6.012  -4.925  1.00  0.00     0.004 C 
ENDBRANCH  14  15
ENDBRANCH  13  14
ENDBRANCH  12  13
ENDBRANCH  11  12
ENDBRANCH  10  11
ENDBRANCH   1  10
TORSDOF 12
ENDMDL
MODEL 7
REMARK VINA RESULT:    -4.979      4.142      8.316
REMARK INTER + INTRA:          -8.966
REMARK INTER:                  -8.523
REMARK INTRA:                  -0.443
REMARK UNBOUND:                -0.494
REMARK SMILES CCCCCCCCCCCCCC(=O)[O-]
REMARK SMILES IDX 8 1 9 2 10 3 11 4 12 5 13 6 14 7 15 8 16 9 7 10 6 11 5 12
REMARK SMILES IDX 4 13 3 14 2 15 1 16
REMARK H PARENT
REMARK Flexibility Score: inf
ROOT
ATOM      1  C   UNL     1     -10.633  -2.613  -8.636  1.00  0.00     0.000 C 
ENDROOT
BRANCH   1   2
ATOM      2  C   UNL     1      -9.663  -3.682  -9.172  1.00  0.00     0.000 C 
BRANCH   2   3
ATOM      3  C   UNL     1      -9.405  -4.869  -8.222  1.00  0.00     0.000 C 
BRANCH   3   4
ATOM      4  C   UNL     1     -10.668  -5.514  -7.620  1.00  0.00     0.000 C 
BRANCH   4   5
ATOM      5  C   UNL     1     -10.436  -6.867  -6.915  1.00  0.00     0.006 C 
BRANCH   5   6
ATOM      6  C   UNL     1     -11.436  -7.175  -5.790  1.00  0.00     0.053 C 
BRANCH   6   7
ATOM      7  C   UNL     1     -12.851  -7.172  -6.283  1.00  0.00     0.041 C 
ATOM      8  O   UNL     1     -13.676  -6.331  -5.840  1.00  0.00    -0.550 OA
ATOM      9  O   UNL     1     -13.265  -8.121  -7.210  1.00  0.00    -0.550 OA
ENDBRANCH   6   7
ENDBRANCH   5   6
ENDBRANCH   4   5
ENDBRANCH   3   4
ENDBRANCH   2   3
ENDBRANCH   1   2
BRANCH   1  10
ATOM     10  C   UNL     1     -10.707  -1.368  -9.535  1.00  0.00     0.000 C 
BRANCH  10  11
ATOM     11  C   UNL     1     -12.140  -1.048  -9.997  1.00  0.00    -0.000 C 
BRANCH  11  12
ATOM     12  C   UNL     1     -12.528   0.444  -9.949  1.00  0.00    -0.000 C 
BRANCH  12  13
ATOM     13  C   UNL     1     -14.041   0.727  -9.857  1.00  0.00    -0.000 C 
BRANCH  13  14
ATOM     14  C   UNL     1     -14.409   2.117  -9.309  1.00  0.00    -0.000 C 
BRANCH  14  15
ATOM     15  C   UNL     1     -13.178   2.984  -9.010  1.00  0.00    -0.003 C 
ATOM     16  C   UNL     1     -13.574   4.273  -8.296  1.00  0.00     0.004 C 
ENDBRANCH  14  15
ENDBRANCH  13  14
ENDBRANCH  12  13
ENDBRANCH  11  12
ENDBRANCH  10  11
ENDBRANCH   1  10
TORSDOF 12
ENDMDL
MODEL 8
REMARK VINA RESULT:    -4.976      2.561      5.478
REMARK INTER + INTRA:          -8.961
REMARK INTER:                  -7.424
REMARK INTRA:                  -1.537
REMARK UNBOUND:                -0.494
REMARK SMILES CCCCCCCCCCCCCC(=O)[O-]
REMARK SMILES IDX 8 1 9 2 10 3 11 4 12 5 13 6 14 7 15 8 16 9 7 10 6 11 5 12
REMARK SMILES IDX 4 13 3 14 2 15 1 16
REMARK H PARENT
REMARK Flexibility Score: inf
ROOT
ATOM      1  C   UNL     1     -11.093  -5.465  -6.010  1.00  0.00     0.000 C 
ENDROOT
BRANCH   1   2
ATOM      2  C   UNL     1     -10.797  -4.382  -7.065  1.00  0.00     0.000 C 
BRANCH   2   3
ATOM      3  C   UNL     1     -10.010  -4.867  -8.299  1.00  0.00     0.000 C 
BRANCH   3   4
ATOM      4  C   UNL     1     -10.327  -4.126  -9.612  1.00  0.00     0.000 C 
BRANCH   4   5
ATOM      5  C   UNL     1     -11.342  -2.972  -9.480  1.00  0.00     0.006 C 
BRANCH   5   6
ATOM      6  C   UNL     1     -10.746  -1.574  -9.711  1.00  0.00     0.053 C 
BRANCH   6   7
ATOM      7  C   UNL     1     -11.811  -0.535  -9.886  1.00  0.00     0.041 C 
ATOM      8  O   UNL     1     -11.721   0.573  -9.294  1.00  0.00    -0.550 OA
ATOM      9  O   UNL     1     -12.920  -0.803 -10.679  1.00  0.00    -0.550 OA
ENDBRANCH   6   7
ENDBRANCH   5   6
ENDBRANCH   4   5
ENDBRANCH   3   4
ENDBRANCH   2   3
ENDBRANCH   1   2
BRANCH   1  10
ATOM     10  C   UNL     1     -10.423  -6.811  -6.332  1.00  0.00     0.000 C 
BRANCH  10  11
ATOM     11  C   UNL     1     -11.274  -8.019  -5.900  1.00  0.00    -0.000 C 
BRANCH  11  12
ATOM     12  C   UNL     1     -12.736  -7.696  -5.532  1.00  0.00    -0.000 C 
BRANCH  12  13
ATOM     13  C   UNL     1     -13.751  -7.842  -6.684  1.00  0.00    -0.000 C 
BRANCH  13  14
ATOM     14  C   UNL     1     -14.129  -6.526  -7.386  1.00  0.00    -0.000 C 
BRANCH  14  15
ATOM     15  C   UNL     1     -13.851  -6.555  -8.896  1.00  0.00    -0.003 C 
ATOM     16  C   UNL     1     -12.671  -7.467  -9.219  1.00  0.00     0.004 C 
ENDBRANCH  14  15
ENDBRANCH  13  14
ENDBRANCH  12  13
ENDBRANCH  11  12
ENDBRANCH  10  11
ENDBRANCH   1  10
TORSDOF 12
ENDMDL
MODEL 9
REMARK VINA RESULT:    -4.945      2.217      3.899
REMARK INTER + INTRA:          -8.908
REMARK INTER:                  -7.958
REMARK INTRA:                  -0.950
REMARK UNBOUND:                -0.494
REMARK SMILES CCCCCCCCCCCCCC(=O)[O-]
REMARK SMILES IDX 8 1 9 2 10 3 11 4 12 5 13 6 14 7 15 8 16 9 7 10 6 11 5 12
REMARK SMILES IDX 4 13 3 14 2 15 1 16
REMARK H PARENT
REMARK Flexibility Score: inf
ROOT
ATOM      1  C   UNL     1     -10.563  -4.134  -7.992  1.00  0.00     0.000 C 
ENDROOT
BRANCH   1   2
ATOM      2  C   UNL     1     -10.431  -2.652  -8.386  1.00  0.00     0.000 C 
BRANCH   2   3
ATOM      3  C   UNL     1     -10.432  -2.374  -9.903  1.00  0.00     0.000 C 
BRANCH   3   4
ATOM      4  C   UNL     1     -10.812  -0.935 -10.305  1.00  0.00     0.000 C 
BRANCH   4   5
ATOM      5  C   UNL     1     -12.314  -0.604 -10.199  1.00  0.00     0.006 C 
BRANCH   5   6
ATOM      6  C   UNL     1     -12.618   0.778  -9.599  1.00  0.00     0.053 C 
BRANCH   6   7
ATOM      7  C   UNL     1     -14.067   1.137  -9.728  1.00  0.00     0.041 C 
ATOM      8  O   UNL     1     -14.852   0.387 -10.366  1.00  0.00    -0.550 OA
ATOM      9  O   UNL     1     -14.542   2.317  -9.170  1.00  0.00    -0.550 OA
ENDBRANCH   6   7
ENDBRANCH   5   6
ENDBRANCH   4   5
ENDBRANCH   3   4
ENDBRANCH   2   3
ENDBRANCH   1   2
BRANCH   1  10
ATOM     10  C   UNL     1     -11.014  -4.327  -6.535  1.00  0.00     0.000 C 
BRANCH  10  11
ATOM     11  C   UNL     1     -11.189  -5.809  -6.155  1.00  0.00    -0.000 C 
BRANCH  11  12
ATOM     12  C   UNL     1     -10.406  -6.809  -7.030  1.00  0.00    -0.000 C 
BRANCH  12  13
ATOM     13  C   UNL     1     -11.274  -7.780  -7.854  1.00  0.00    -0.000 C 
BRANCH  13  14
ATOM     14  C   UNL     1     -12.775  -7.754  -7.516  1.00  0.00    -0.000 C 
BRANCH  14  15
ATOM     15  C   UNL     1     -13.649  -7.355  -8.713  1.00  0.00    -0.003 C 
ATOM     16  C   UNL     1     -13.912  -5.851  -8.724  1.00  0.00     0.004 C 
ENDBRANCH  14  15
ENDBRANCH  13  14
ENDBRANCH  12  13
ENDBRANCH  11  12
ENDBRANCH  10  11
ENDBRANCH   1  10
TORSDOF 12
ENDMDL
