MODEL 1
REMARK VINA RESULT:    14.521      0.000      0.000
REMARK INTER + INTRA:          19.488
REMARK INTER:                  20.040
REMARK INTRA:                  -0.551
REMARK UNBOUND:                -0.551
REMARK SMILES CCCCc1cccc(O)c1CCCC
REMARK SMILES IDX 5 1 11 2 9 3 8 4 7 5 6 6 4 7 3 8 2 9 1 10 12 11 13 12 14 13
REMARK SMILES IDX 15 14 10 15
REMARK H PARENT 10 16
REMARK Flexibility Score: inf
ROOT
ATOM      1  C   UNL     1       5.947  43.749  23.508  1.00  0.00    -0.041 A 
ATOM      2  C   UNL     1       6.928  42.883  24.087  1.00  0.00    -0.003 A 
ATOM      3  C   UNL     1       6.488  41.806  24.907  1.00  0.00     0.119 A 
ATOM      4  C   UNL     1       5.129  41.639  25.179  1.00  0.00     0.046 A 
ATOM      5  C   UNL     1       4.186  42.509  24.644  1.00  0.00     0.004 A 
ATOM      6  C   UNL     1       4.589  43.548  23.814  1.00  0.00     0.004 A 
ENDROOT
BRANCH   1   7
ATOM      7  C   UNL     1       6.282  44.879  22.547  1.00  0.00     0.036 C 
BRANCH   7   8
ATOM      8  C   UNL     1       5.756  46.250  22.999  1.00  0.00     0.004 C 
BRANCH   8   9
ATOM      9  C   UNL     1       6.770  47.021  23.855  1.00  0.00    -0.003 C 
ATOM     10  C   UNL     1       6.077  47.758  24.997  1.00  0.00     0.004 C 
ENDBRANCH   8   9
ENDBRANCH   7   8
ENDBRANCH   1   7
BRANCH   2  11
ATOM     11  C   UNL     1       8.417  43.123  23.893  1.00  0.00     0.040 C 
BRANCH  11  12
ATOM     12  C   UNL     1       8.998  42.160  22.840  1.00  0.00     0.005 C 
BRANCH  12  13
ATOM     13  C   UNL     1       9.835  41.035  23.468  1.00  0.00    -0.003 C 
ATOM     14  C   UNL     1      11.320  41.140  23.121  1.00  0.00     0.004 C 
ENDBRANCH  12  13
ENDBRANCH  11  12
ENDBRANCH   2  11
BRANCH   3  15
ATOM     15  O   UNL     1       7.367  40.875  25.469  1.00  0.00    -0.508 OA
ATOM     16  H   UNL     1       7.578  40.815  26.455  1.00  0.00     0.293 HD
ENDBRANCH   3  15
TORSDOF 7
ENDMDL
MODEL 2
REMARK VINA RESULT:    16.148      1.581      4.968
REMARK INTER + INTRA:          21.733
REMARK INTER:                  21.753
REMARK INTRA:                  -0.020
REMARK UNBOUND:                -0.551
REMARK SMILES CCCCc1cccc(O)c1CCCC
REMARK SMILES IDX 5 1 11 2 9 3 8 4 7 5 6 6 4 7 3 8 2 9 1 10 12 11 13 12 14 13
REMARK SMILES IDX 15 14 10 15
REMARK H PARENT 10 16
REMARK Flexibility Score: inf
ROOT
ATOM      1  C   UNL     1       7.730  41.569  24.711  1.00  0.00    -0.041 A 
ATOM      2  C   UNL     1       7.842  42.330  23.505  1.00  0.00    -0.003 A 
ATOM      3  C   UNL     1       9.078  42.308  22.798  1.00  0.00     0.119 A 
ATOM      4  C   UNL     1      10.167  41.600  23.308  1.00  0.00     0.046 A 
ATOM      5  C   UNL     1      10.060  40.896  24.502  1.00  0.00     0.004 A 
ATOM      6  C   UNL     1       8.854  40.875  25.192  1.00  0.00     0.004 A 
ENDROOT
BRANCH   1   7
ATOM      7  C   UNL     1       6.442  41.441  25.509  1.00  0.00     0.036 C 
BRANCH   7   8
ATOM      8  C   UNL     1       5.229  41.025  24.663  1.00  0.00     0.004 C 
BRANCH   8   9
ATOM      9  C   UNL     1       4.012  41.934  24.884  1.00  0.00    -0.003 C 
ATOM     10  C   UNL     1       3.419  42.391  23.555  1.00  0.00     0.004 C 
ENDBRANCH   8   9
ENDBRANCH   7   8
ENDBRANCH   1   7
BRANCH   2  11
ATOM     11  C   UNL     1       6.701  43.197  22.999  1.00  0.00     0.040 C 
BRANCH  11  12
ATOM     12  C   UNL     1       6.419  44.359  23.971  1.00  0.00     0.005 C 
BRANCH  12  13
ATOM     13  C   UNL     1       6.242  45.703  23.248  1.00  0.00    -0.003 C 
ATOM     14  C   UNL     1       6.559  46.901  24.142  1.00  0.00     0.004 C 
ENDBRANCH  12  13
ENDBRANCH  11  12
ENDBRANCH   2  11
BRANCH   3  15
ATOM     15  O   UNL     1       9.265  42.973  21.582  1.00  0.00    -0.508 OA
ATOM     16  H   UNL     1       8.577  43.015  20.844  1.00  0.00     0.293 HD
ENDBRANCH   3  15
TORSDOF 7
ENDMDL
MODEL 3
REMARK VINA RESULT:    16.588      2.191      3.476
REMARK INTER + INTRA:          22.341
REMARK INTER:                  22.476
REMARK INTRA:                  -0.136
REMARK UNBOUND:                -0.551
REMARK SMILES CCCCc1cccc(O)c1CCCC
REMARK SMILES IDX 5 1 11 2 9 3 8 4 7 5 6 6 4 7 3 8 2 9 1 10 12 11 13 12 14 13
REMARK SMILES IDX 15 14 10 15
REMARK H PARENT 10 16
REMARK Flexibility Score: inf
ROOT
ATOM      1  C   UNL     1       6.296  41.725  24.876  1.00  0.00    -0.041 A 
ATOM      2  C   UNL     1       6.758  42.670  23.907  1.00  0.00    -0.003 A 
ATOM      3  C   UNL     1       5.800  43.470  23.223  1.00  0.00     0.119 A 
ATOM      4  C   UNL     1       4.435  43.290  23.462  1.00  0.00     0.046 A 
ATOM      5  C   UNL     1       3.994  42.341  24.376  1.00  0.00     0.004 A 
ATOM      6  C   UNL     1       4.912  41.572  25.080  1.00  0.00     0.004 A 
ENDROOT
BRANCH   1   7
ATOM      7  C   UNL     1       7.221  40.875  25.733  1.00  0.00     0.036 C 
BRANCH   7   8
ATOM      8  C   UNL     1       8.322  41.681  26.439  1.00  0.00     0.004 C 
BRANCH   8   9
ATOM      9  C   UNL     1       7.777  42.915  27.171  1.00  0.00    -0.003 C 
ATOM     10  C   UNL     1       8.759  43.402  28.232  1.00  0.00     0.004 C 
ENDBRANCH   8   9
ENDBRANCH   7   8
ENDBRANCH   1   7
BRANCH   2  11
ATOM     11  C   UNL     1       8.232  42.795  23.555  1.00  0.00     0.040 C 
BRANCH  11  12
ATOM     12  C   UNL     1       8.724  41.550  22.792  1.00  0.00     0.005 C 
BRANCH  12  13
ATOM     13  C   UNL     1       9.937  40.888  23.465  1.00  0.00    -0.003 C 
ATOM     14  C   UNL     1      11.267  41.475  22.993  1.00  0.00     0.004 C 
ENDBRANCH  12  13
ENDBRANCH  11  12
ENDBRANCH   2  11
BRANCH   3  15
ATOM     15  O   UNL     1       6.158  44.459  22.302  1.00  0.00    -0.508 OA
ATOM     16  H   UNL     1       5.661  45.329  22.179  1.00  0.00     0.293 HD
ENDBRANCH   3  15
TORSDOF 7
ENDMDL
MODEL 4
REMARK VINA RESULT:    16.605     10.471     13.247
REMARK INTER + INTRA:          22.363
REMARK INTER:                  23.249
REMARK INTRA:                  -0.886
REMARK UNBOUND:                -0.551
REMARK SMILES CCCCc1cccc(O)c1CCCC
REMARK SMILES IDX 5 1 11 2 9 3 8 4 7 5 6 6 4 7 3 8 2 9 1 10 12 11 13 12 14 13
REMARK SMILES IDX 15 14 10 15
REMARK H PARENT 10 16
REMARK Flexibility Score: inf
ROOT
ATOM      1  C   UNL     1      14.505  42.196  13.536  1.00  0.00    -0.041 A 
ATOM      2  C   UNL     1      15.138  43.475  13.440  1.00  0.00    -0.003 A 
ATOM      3  C   UNL     1      16.394  43.566  12.777  1.00  0.00     0.119 A 
ATOM      4  C   UNL     1      17.013  42.416  12.281  1.00  0.00     0.046 A 
ATOM      5  C   UNL     1      16.408  41.172  12.415  1.00  0.00     0.004 A 
ATOM      6  C   UNL     1      15.166  41.063  13.028  1.00  0.00     0.004 A 
ENDROOT
BRANCH   1   7
ATOM      7  C   UNL     1      13.126  41.981  14.141  1.00  0.00     0.036 C 
BRANCH   7   8
ATOM      8  C   UNL     1      13.147  41.758  15.661  1.00  0.00     0.004 C 
BRANCH   8   9
ATOM      9  C   UNL     1      11.878  42.272  16.353  1.00  0.00    -0.003 C 
ATOM     10  C   UNL     1      12.131  43.609  17.042  1.00  0.00     0.004 C 
ENDBRANCH   8   9
ENDBRANCH   7   8
ENDBRANCH   1   7
BRANCH   2  11
ATOM     11  C   UNL     1      14.531  44.716  14.076  1.00  0.00     0.040 C 
BRANCH  11  12
ATOM     12  C   UNL     1      15.222  45.044  15.413  1.00  0.00     0.005 C 
BRANCH  12  13
ATOM     13  C   UNL     1      14.821  46.422  15.960  1.00  0.00    -0.003 C 
ATOM     14  C   UNL     1      15.541  46.773  17.262  1.00  0.00     0.004 C 
ENDBRANCH  12  13
ENDBRANCH  11  12
ENDBRANCH   2  11
BRANCH   3  15
ATOM     15  O   UNL     1      17.062  44.779  12.584  1.00  0.00    -0.508 OA
ATOM     16  H   UNL     1      16.742  45.668  12.941  1.00  0.00     0.293 HD
ENDBRANCH   3  15
TORSDOF 7
ENDMDL
