MODEL 1
REMARK VINA RESULT:    -3.780      0.000      0.000
REMARK INTER + INTRA:          -5.115
REMARK INTER:                  -4.885
REMARK INTRA:                  -0.230
REMARK UNBOUND:                -0.230
REMARK SMILES CCCCCCC(=O)[O-]
REMARK SMILES IDX 5 1 6 2 7 3 8 4 9 5 4 6 3 7 2 8 1 9
REMARK H PARENT
REMARK Flexibility Score: inf
ROOT
ATOM      1  C   UNL     1     -10.790   0.011 -41.469  1.00  0.00     0.006 C 
ENDROOT
BRANCH   1   2
ATOM      2  C   UNL     1      -9.562  -0.306 -40.606  1.00  0.00     0.053 C 
BRANCH   2   3
ATOM      3  C   UNL     1      -8.558  -1.132 -41.350  1.00  0.00     0.041 C 
ATOM      4  O   UNL     1      -7.326  -0.930 -41.190  1.00  0.00    -0.550 OA
ATOM      5  O   UNL     1      -8.986  -2.104 -42.246  1.00  0.00    -0.550 OA
ENDBRANCH   2   3
ENDBRANCH   1   2
BRANCH   1   6
ATOM      6  C   UNL     1     -12.108  -0.235 -40.717  1.00  0.00     0.000 C 
BRANCH   6   7
ATOM      7  C   UNL     1     -12.044  -1.534 -39.908  1.00  0.00    -0.000 C 
BRANCH   7   8
ATOM      8  C   UNL     1     -13.449  -2.085 -39.640  1.00  0.00    -0.003 C 
ATOM      9  C   UNL     1     -14.514  -1.239 -40.334  1.00  0.00     0.004 C 
ENDBRANCH   7   8
ENDBRANCH   6   7
ENDBRANCH   1   6
TORSDOF 5
ENDMDL
MODEL 2
REMARK VINA RESULT:    -3.500      8.311      9.575
REMARK INTER + INTRA:          -4.754
REMARK INTER:                  -4.380
REMARK INTRA:                  -0.374
REMARK UNBOUND:                -0.230
REMARK SMILES CCCCCCC(=O)[O-]
REMARK SMILES IDX 5 1 6 2 7 3 8 4 9 5 4 6 3 7 2 8 1 9
REMARK H PARENT
REMARK Flexibility Score: inf
ROOT
ATOM      1  C   UNL     1     -17.173   5.751 -40.374  1.00  0.00     0.006 C 
ENDROOT
BRANCH   1   2
ATOM      2  C   UNL     1     -16.593   4.356 -40.643  1.00  0.00     0.053 C 
BRANCH   2   3
ATOM      3  C   UNL     1     -17.671   3.327 -40.793  1.00  0.00     0.041 C 
ATOM      4  O   UNL     1     -18.653   3.543 -41.550  1.00  0.00    -0.550 OA
ATOM      5  O   UNL     1     -17.605   2.142 -40.071  1.00  0.00    -0.550 OA
ENDBRANCH   2   3
ENDBRANCH   1   2
BRANCH   1   6
ATOM      6  C   UNL     1     -16.716   6.782 -41.418  1.00  0.00     0.000 C 
BRANCH   6   7
ATOM      7  C   UNL     1     -17.471   6.597 -42.739  1.00  0.00    -0.000 C 
BRANCH   7   8
ATOM      8  C   UNL     1     -16.497   6.362 -43.899  1.00  0.00    -0.003 C 
ATOM      9  C   UNL     1     -16.457   4.888 -44.295  1.00  0.00     0.004 C 
ENDBRANCH   7   8
ENDBRANCH   6   7
ENDBRANCH   1   6
TORSDOF 5
ENDMDL
MODEL 3
REMARK VINA RESULT:    -3.467      7.959      9.160
REMARK INTER + INTRA:          -4.710
REMARK INTER:                  -4.283
REMARK INTRA:                  -0.428
REMARK UNBOUND:                -0.230
REMARK SMILES CCCCCCC(=O)[O-]
REMARK SMILES IDX 5 1 6 2 7 3 8 4 9 5 4 6 3 7 2 8 1 9
REMARK H PARENT
REMARK Flexibility Score: inf
ROOT
ATOM      1  C   UNL     1     -15.506   4.801 -40.782  1.00  0.00     0.006 C 
ENDROOT
BRANCH   1   2
ATOM      2  C   UNL     1     -17.001   4.794 -40.435  1.00  0.00     0.053 C 
BRANCH   2   3
ATOM      3  C   UNL     1     -17.658   3.509 -40.837  1.00  0.00     0.041 C 
ATOM      4  O   UNL     1     -18.509   3.495 -41.765  1.00  0.00    -0.550 OA
ATOM      5  O   UNL     1     -17.355   2.333 -40.163  1.00  0.00    -0.550 OA
ENDBRANCH   2   3
ENDBRANCH   1   2
BRANCH   1   6
ATOM      6  C   UNL     1     -15.243   5.307 -42.209  1.00  0.00     0.000 C 
BRANCH   6   7
ATOM      7  C   UNL     1     -16.247   6.398 -42.598  1.00  0.00    -0.000 C 
BRANCH   7   8
ATOM      8  C   UNL     1     -16.886   6.096 -43.958  1.00  0.00    -0.003 C 
ATOM      9  C   UNL     1     -16.463   4.723 -44.474  1.00  0.00     0.004 C 
ENDBRANCH   7   8
ENDBRANCH   6   7
ENDBRANCH   1   6
TORSDOF 5
ENDMDL
MODEL 4
REMARK VINA RESULT:    -3.444      9.322     10.259
REMARK INTER + INTRA:          -4.681
REMARK INTER:                  -4.428
REMARK INTRA:                  -0.252
REMARK UNBOUND:                -0.230
REMARK SMILES CCCCCCC(=O)[O-]
REMARK SMILES IDX 5 1 6 2 7 3 8 4 9 5 4 6 3 7 2 8 1 9
REMARK H PARENT
REMARK Flexibility Score: inf
ROOT
ATOM      1  C   UNL     1     -16.826   6.687 -42.998  1.00  0.00     0.006 C 
ENDROOT
BRANCH   1   2
ATOM      2  C   UNL     1     -17.960   7.327 -42.186  1.00  0.00     0.053 C 
BRANCH   2   3
ATOM      3  C   UNL     1     -17.455   7.948 -40.920  1.00  0.00     0.041 C 
ATOM      4  O   UNL     1     -17.878   7.548 -39.803  1.00  0.00    -0.550 OA
ATOM      5  O   UNL     1     -16.540   8.992 -40.975  1.00  0.00    -0.550 OA
ENDBRANCH   2   3
ENDBRANCH   1   2
BRANCH   1   6
ATOM      6  C   UNL     1     -16.751   5.166 -42.795  1.00  0.00     0.000 C 
BRANCH   6   7
ATOM      7  C   UNL     1     -16.177   4.825 -41.415  1.00  0.00    -0.000 C 
BRANCH   7   8
ATOM      8  C   UNL     1     -17.107   3.874 -40.653  1.00  0.00    -0.003 C 
ATOM      9  C   UNL     1     -18.356   3.553 -41.469  1.00  0.00     0.004 C 
ENDBRANCH   7   8
ENDBRANCH   6   7
ENDBRANCH   1   6
TORSDOF 5
ENDMDL
MODEL 5
REMARK VINA RESULT:    -3.429      8.877     10.112
REMARK INTER + INTRA:          -4.661
REMARK INTER:                  -4.483
REMARK INTRA:                  -0.178
REMARK UNBOUND:                -0.230
REMARK SMILES CCCCCCC(=O)[O-]
REMARK SMILES IDX 5 1 6 2 7 3 8 4 9 5 4 6 3 7 2 8 1 9
REMARK H PARENT
REMARK Flexibility Score: inf
ROOT
ATOM      1  C   UNL     1     -17.053   5.844 -40.310  1.00  0.00     0.006 C 
ENDROOT
BRANCH   1   2
ATOM      2  C   UNL     1     -16.440   4.463 -40.579  1.00  0.00     0.053 C 
BRANCH   2   3
ATOM      3  C   UNL     1     -17.493   3.408 -40.727  1.00  0.00     0.041 C 
ATOM      4  O   UNL     1     -17.389   2.317 -40.106  1.00  0.00    -0.550 OA
ATOM      5  O   UNL     1     -18.572   3.617 -41.577  1.00  0.00    -0.550 OA
ENDBRANCH   2   3
ENDBRANCH   1   2
BRANCH   1   6
ATOM      6  C   UNL     1     -16.646   6.877 -41.372  1.00  0.00     0.000 C 
BRANCH   6   7
ATOM      7  C   UNL     1     -17.147   8.276 -40.997  1.00  0.00    -0.000 C 
BRANCH   7   8
ATOM      8  C   UNL     1     -16.083   9.339 -41.291  1.00  0.00    -0.003 C 
ATOM      9  C   UNL     1     -14.824   8.709 -41.883  1.00  0.00     0.004 C 
ENDBRANCH   7   8
ENDBRANCH   6   7
ENDBRANCH   1   6
TORSDOF 5
ENDMDL
MODEL 6
REMARK VINA RESULT:    -3.406      2.998      4.694
REMARK INTER + INTRA:          -4.632
REMARK INTER:                  -4.324
REMARK INTRA:                  -0.308
REMARK UNBOUND:                -0.230
REMARK SMILES CCCCCCC(=O)[O-]
REMARK SMILES IDX 5 1 6 2 7 3 8 4 9 5 4 6 3 7 2 8 1 9
REMARK H PARENT
REMARK Flexibility Score: inf
ROOT
ATOM      1  C   UNL     1     -11.306  -0.271 -40.202  1.00  0.00     0.006 C 
ENDROOT
BRANCH   1   2
ATOM      2  C   UNL     1     -11.620  -1.583 -39.471  1.00  0.00     0.053 C 
BRANCH   2   3
ATOM      3  C   UNL     1     -13.051  -1.988 -39.645  1.00  0.00     0.041 C 
ATOM      4  O   UNL     1     -13.451  -3.105 -39.223  1.00  0.00    -0.550 OA
ATOM      5  O   UNL     1     -13.936  -1.144 -40.305  1.00  0.00    -0.550 OA
ENDBRANCH   2   3
ENDBRANCH   1   2
BRANCH   1   6
ATOM      6  C   UNL     1     -10.627  -0.510 -41.560  1.00  0.00     0.000 C 
BRANCH   6   7
ATOM      7  C   UNL     1      -9.661  -1.698 -41.488  1.00  0.00    -0.000 C 
BRANCH   7   8
ATOM      8  C   UNL     1      -8.212  -1.220 -41.343  1.00  0.00    -0.003 C 
ATOM      9  C   UNL     1      -7.622  -1.647 -40.001  1.00  0.00     0.004 C 
ENDBRANCH   7   8
ENDBRANCH   6   7
ENDBRANCH   1   6
TORSDOF 5
ENDMDL
MODEL 7
REMARK VINA RESULT:    -3.369      1.462      1.897
REMARK INTER + INTRA:          -4.584
REMARK INTER:                  -4.316
REMARK INTRA:                  -0.269
REMARK UNBOUND:                -0.230
REMARK SMILES CCCCCCC(=O)[O-]
REMARK SMILES IDX 5 1 6 2 7 3 8 4 9 5 4 6 3 7 2 8 1 9
REMARK H PARENT
REMARK Flexibility Score: inf
ROOT
ATOM      1  C   UNL     1      -9.977  -1.661 -41.512  1.00  0.00     0.006 C 
ENDROOT
BRANCH   1   2
ATOM      2  C   UNL     1      -8.458  -1.481 -41.634  1.00  0.00     0.053 C 
BRANCH   2   3
ATOM      3  C   UNL     1      -7.946  -0.429 -40.699  1.00  0.00     0.041 C 
ATOM      4  O   UNL     1      -7.378   0.600 -41.152  1.00  0.00    -0.550 OA
ATOM      5  O   UNL     1      -8.066  -0.601 -39.326  1.00  0.00    -0.550 OA
ENDBRANCH   2   3
ENDBRANCH   1   2
BRANCH   1   6
ATOM      6  C   UNL     1     -10.721  -0.317 -41.489  1.00  0.00     0.000 C 
BRANCH   6   7
ATOM      7  C   UNL     1     -11.967  -0.395 -40.599  1.00  0.00    -0.000 C 
BRANCH   7   8
ATOM      8  C   UNL     1     -11.915  -1.626 -39.688  1.00  0.00    -0.003 C 
ATOM      9  C   UNL     1     -13.312  -2.198 -39.454  1.00  0.00     0.004 C 
ENDBRANCH   7   8
ENDBRANCH   6   7
ENDBRANCH   1   6
TORSDOF 5
ENDMDL
MODEL 8
REMARK VINA RESULT:    -3.327      3.741      4.839
REMARK INTER + INTRA:          -4.530
REMARK INTER:                  -4.369
REMARK INTRA:                  -0.162
REMARK UNBOUND:                -0.230
REMARK SMILES CCCCCCC(=O)[O-]
REMARK SMILES IDX 5 1 6 2 7 3 8 4 9 5 4 6 3 7 2 8 1 9
REMARK H PARENT
REMARK Flexibility Score: inf
ROOT
ATOM      1  C   UNL     1     -11.049  -1.504 -39.434  1.00  0.00     0.006 C 
ENDROOT
BRANCH   1   2
ATOM      2  C   UNL     1     -12.229  -1.025 -40.290  1.00  0.00     0.053 C 
BRANCH   2   3
ATOM      3  C   UNL     1     -13.504  -1.717 -39.916  1.00  0.00     0.041 C 
ATOM      4  O   UNL     1     -14.612  -1.251 -40.291  1.00  0.00    -0.550 OA
ATOM      5  O   UNL     1     -13.468  -2.858 -39.125  1.00  0.00    -0.550 OA
ENDBRANCH   2   3
ENDBRANCH   1   2
BRANCH   1   6
ATOM      6  C   UNL     1     -10.588  -0.437 -38.429  1.00  0.00     0.000 C 
BRANCH   6   7
ATOM      7  C   UNL     1      -9.572  -1.017 -37.439  1.00  0.00    -0.000 C 
BRANCH   7   8
ATOM      8  C   UNL     1      -9.636  -0.286 -36.094  1.00  0.00    -0.003 C 
ATOM      9  C   UNL     1     -11.079   0.019 -35.700  1.00  0.00     0.004 C 
ENDBRANCH   7   8
ENDBRANCH   6   7
ENDBRANCH   1   6
TORSDOF 5
ENDMDL
MODEL 9
REMARK VINA RESULT:    -3.300      2.188      2.685
REMARK INTER + INTRA:          -4.495
REMARK INTER:                  -4.156
REMARK INTRA:                  -0.339
REMARK UNBOUND:                -0.230
REMARK SMILES CCCCCCC(=O)[O-]
REMARK SMILES IDX 5 1 6 2 7 3 8 4 9 5 4 6 3 7 2 8 1 9
REMARK H PARENT
REMARK Flexibility Score: inf
ROOT
ATOM      1  C   UNL     1     -10.097  -0.428 -38.976  1.00  0.00     0.006 C 
ENDROOT
BRANCH   1   2
ATOM      2  C   UNL     1     -10.385   0.951 -39.586  1.00  0.00     0.053 C 
BRANCH   2   3
ATOM      3  C   UNL     1     -11.087   0.840 -40.904  1.00  0.00     0.041 C 
ATOM      4  O   UNL     1     -12.122   1.521 -41.131  1.00  0.00    -0.550 OA
ATOM      5  O   UNL     1     -10.617  -0.041 -41.870  1.00  0.00    -0.550 OA
ENDBRANCH   2   3
ENDBRANCH   1   2
BRANCH   1   6
ATOM      6  C   UNL     1     -11.372  -1.113 -38.460  1.00  0.00     0.000 C 
BRANCH   6   7
ATOM      7  C   UNL     1     -11.742  -2.314 -39.337  1.00  0.00    -0.000 C 
BRANCH   7   8
ATOM      8  C   UNL     1     -13.257  -2.551 -39.332  1.00  0.00    -0.003 C 
ATOM      9  C   UNL     1     -13.992  -1.440 -40.078  1.00  0.00     0.004 C 
ENDBRANCH   7   8
ENDBRANCH   6   7
ENDBRANCH   1   6
TORSDOF 5
ENDMDL
