MODEL 1
REMARK VINA RESULT:    -7.244      0.000      0.000
REMARK INTER + INTRA:          -9.096
REMARK INTER:                  -8.726
REMARK INTRA:                  -0.370
REMARK UNBOUND:                -0.370
REMARK SMILES O=c1c(O)c(-c2ccc(O)cc2O)oc2cc(O)cc(O)c12
REMARK SMILES IDX 5 1 3 2 2 3 1 4 22 5 20 6 19 7 17 8 16 9 15 10 14 11 6 12
REMARK SMILES IDX 8 13 7 14 9 15 11 16 12 17 10 18 13 20 4 22 21 24 18 26
REMARK H PARENT 10 19 13 21 4 23 21 25 18 27
REMARK Flexibility Score: inf
ROOT
ATOM      1  C   UNL     1     173.225 144.935 155.276  1.00  0.00     0.184 A 
ATOM      2  C   UNL     1     174.413 145.677 155.370  1.00  0.00     0.208 A 
ATOM      3  C   UNL     1     174.502 146.700 156.327  1.00  0.00     0.238 A 
ATOM      4  O   UNL     1     175.588 147.326 156.442  1.00  0.00    -0.285 OA
ATOM      5  C   UNL     1     173.395 146.979 157.164  1.00  0.00     0.111 A 
ATOM      6  C   UNL     1     173.359 148.019 158.141  1.00  0.00     0.134 A 
ATOM      7  C   UNL     1     172.260 148.120 159.003  1.00  0.00     0.093 A 
ATOM      8  C   UNL     1     171.166 147.258 158.880  1.00  0.00     0.123 A 
ATOM      9  C   UNL     1     171.166 146.278 157.890  1.00  0.00     0.094 A 
ATOM     10  C   UNL     1     172.264 146.129 157.040  1.00  0.00     0.146 A 
ATOM     11  O   UNL     1     172.228 145.174 156.118  1.00  0.00    -0.451 OA
ENDROOT
BRANCH   1  12
ATOM     12  C   UNL     1     173.060 143.856 154.280  1.00  0.00     0.063 A 
ATOM     13  C   UNL     1     172.257 143.151 152.095  1.00  0.00     0.047 A 
ATOM     14  C   UNL     1     172.425 144.146 153.061  1.00  0.00     0.020 A 
ATOM     15  C   UNL     1     172.734 141.858 152.327  1.00  0.00     0.119 A 
ATOM     16  C   UNL     1     173.390 141.564 153.529  1.00  0.00     0.093 A 
ATOM     17  C   UNL     1     173.567 142.559 154.503  1.00  0.00     0.130 A 
BRANCH  15  18
ATOM     18  O   UNL     1     172.555 140.875 151.356  1.00  0.00    -0.508 OA
ATOM     19  H   UNL     1     173.157 140.061 151.310  1.00  0.00     0.293 HD
ENDBRANCH  15  18
BRANCH  17  20
ATOM     20  O   UNL     1     174.265 142.267 155.675  1.00  0.00    -0.507 OA
ATOM     21  H   UNL     1     174.668 142.996 156.249  1.00  0.00     0.293 HD
ENDBRANCH  17  20
ENDBRANCH   1  12
BRANCH   2  22
ATOM     22  O   UNL     1     175.497 145.369 154.542  1.00  0.00    -0.502 OA
ATOM     23  H   UNL     1     175.380 145.108 153.572  1.00  0.00     0.293 HD
ENDBRANCH   2  22
BRANCH   6  24
ATOM     24  O   UNL     1     174.357 148.987 158.287  1.00  0.00    -0.507 OA
ATOM     25  H   UNL     1     174.407 149.843 157.756  1.00  0.00     0.293 HD
ENDBRANCH   6  24
BRANCH   8  26
ATOM     26  O   UNL     1     170.070 147.375 159.731  1.00  0.00    -0.508 OA
ATOM     27  H   UNL     1     169.264 147.938 159.483  1.00  0.00     0.293 HD
ENDBRANCH   8  26
TORSDOF 6
ENDMDL
MODEL 2
REMARK VINA RESULT:    -7.229      9.991     11.991
REMARK INTER + INTRA:          -9.079
REMARK INTER:                  -8.670
REMARK INTRA:                  -0.409
REMARK UNBOUND:                -0.370
REMARK SMILES O=c1c(O)c(-c2ccc(O)cc2O)oc2cc(O)cc(O)c12
REMARK SMILES IDX 5 1 3 2 2 3 1 4 22 5 20 6 19 7 17 8 16 9 15 10 14 11 6 12
REMARK SMILES IDX 8 13 7 14 9 15 11 16 12 17 10 18 13 20 4 22 21 24 18 26
REMARK H PARENT 10 19 13 21 4 23 21 25 18 27
REMARK Flexibility Score: inf
ROOT
ATOM      1  C   UNL     1     166.561 148.756 148.426  1.00  0.00     0.184 A 
ATOM      2  C   UNL     1     166.686 148.158 147.162  1.00  0.00     0.208 A 
ATOM      3  C   UNL     1     166.377 146.796 147.021  1.00  0.00     0.238 A 
ATOM      4  O   UNL     1     166.440 146.279 145.875  1.00  0.00    -0.285 OA
ATOM      5  C   UNL     1     165.964 146.047 148.149  1.00  0.00     0.111 A 
ATOM      6  C   UNL     1     165.664 144.652 148.130  1.00  0.00     0.134 A 
ATOM      7  C   UNL     1     165.140 144.042 149.276  1.00  0.00     0.093 A 
ATOM      8  C   UNL     1     164.965 144.763 150.460  1.00  0.00     0.123 A 
ATOM      9  C   UNL     1     165.311 146.112 150.506  1.00  0.00     0.094 A 
ATOM     10  C   UNL     1     165.802 146.757 149.368  1.00  0.00     0.146 A 
ATOM     11  O   UNL     1     166.108 148.046 149.452  1.00  0.00    -0.451 OA
ENDROOT
BRANCH   1  12
ATOM     12  C   UNL     1     166.886 150.181 148.648  1.00  0.00     0.063 A 
ATOM     13  C   UNL     1     168.566 151.936 148.753  1.00  0.00     0.047 A 
ATOM     14  C   UNL     1     168.225 150.595 148.555  1.00  0.00     0.020 A 
ATOM     15  C   UNL     1     167.575 152.881 149.032  1.00  0.00     0.119 A 
ATOM     16  C   UNL     1     166.234 152.482 149.102  1.00  0.00     0.093 A 
ATOM     17  C   UNL     1     165.882 151.138 148.899  1.00  0.00     0.130 A 
BRANCH  15  18
ATOM     18  O   UNL     1     167.932 154.212 149.230  1.00  0.00    -0.508 OA
ATOM     19  H   UNL     1     167.243 154.914 149.474  1.00  0.00     0.293 HD
ENDBRANCH  15  18
BRANCH  17  20
ATOM     20  O   UNL     1     164.539 150.762 148.924  1.00  0.00    -0.507 OA
ATOM     21  H   UNL     1     164.174 150.141 149.636  1.00  0.00     0.293 HD
ENDBRANCH  17  20
ENDBRANCH   1  12
BRANCH   2  22
ATOM     22  O   UNL     1     167.079 148.926 146.062  1.00  0.00    -0.502 OA
ATOM     23  H   UNL     1     167.847 148.657 145.460  1.00  0.00     0.293 HD
ENDBRANCH   2  22
BRANCH   6  24
ATOM     24  O   UNL     1     165.888 143.821 147.028  1.00  0.00    -0.507 OA
ATOM     25  H   UNL     1     166.753 143.774 146.510  1.00  0.00     0.293 HD
ENDBRANCH   6  24
BRANCH   8  26
ATOM     26  O   UNL     1     164.457 144.145 151.600  1.00  0.00    -0.508 OA
ATOM     27  H   UNL     1     165.054 143.617 152.227  1.00  0.00     0.293 HD
ENDBRANCH   8  26
TORSDOF 6
ENDMDL
MODEL 3
REMARK VINA RESULT:    -7.142      9.531     11.114
REMARK INTER + INTRA:          -8.973
REMARK INTER:                  -8.603
REMARK INTRA:                  -0.370
REMARK UNBOUND:                -0.370
REMARK SMILES O=c1c(O)c(-c2ccc(O)cc2O)oc2cc(O)cc(O)c12
REMARK SMILES IDX 5 1 3 2 2 3 1 4 22 5 20 6 19 7 17 8 16 9 15 10 14 11 6 12
REMARK SMILES IDX 8 13 7 14 9 15 11 16 12 17 10 18 13 20 4 22 21 24 18 26
REMARK H PARENT 10 19 13 21 4 23 21 25 18 27
REMARK Flexibility Score: inf
ROOT
ATOM      1  C   UNL     1     166.353 146.276 149.192  1.00  0.00     0.184 A 
ATOM      2  C   UNL     1     166.804 145.281 148.310  1.00  0.00     0.208 A 
ATOM      3  C   UNL     1     166.413 143.951 148.529  1.00  0.00     0.238 A 
ATOM      4  O   UNL     1     166.777 143.072 147.705  1.00  0.00    -0.285 OA
ATOM      5  C   UNL     1     165.589 143.633 149.635  1.00  0.00     0.111 A 
ATOM      6  C   UNL     1     165.164 142.313 149.976  1.00  0.00     0.134 A 
ATOM      7  C   UNL     1     164.244 142.130 151.015  1.00  0.00     0.093 A 
ATOM      8  C   UNL     1     163.784 143.214 151.770  1.00  0.00     0.123 A 
ATOM      9  C   UNL     1     164.239 144.499 151.483  1.00  0.00     0.094 A 
ATOM     10  C   UNL     1     165.128 144.717 150.427  1.00  0.00     0.146 A 
ATOM     11  O   UNL     1     165.528 145.959 150.181  1.00  0.00    -0.451 OA
ENDROOT
BRANCH   1  12
ATOM     12  C   UNL     1     166.741 147.693 149.028  1.00  0.00     0.063 A 
ATOM     13  C   UNL     1     168.499 149.373 148.987  1.00  0.00     0.047 A 
ATOM     14  C   UNL     1     168.096 148.044 149.141  1.00  0.00     0.020 A 
ATOM     15  C   UNL     1     167.556 150.366 148.705  1.00  0.00     0.119 A 
ATOM     16  C   UNL     1     166.206 150.022 148.567  1.00  0.00     0.093 A 
ATOM     17  C   UNL     1     165.793 148.689 148.715  1.00  0.00     0.130 A 
BRANCH  15  18
ATOM     18  O   UNL     1     167.973 151.687 148.558  1.00  0.00    -0.508 OA
ATOM     19  H   UNL     1     168.947 151.921 148.405  1.00  0.00     0.293 HD
ENDBRANCH  15  18
BRANCH  17  20
ATOM     20  O   UNL     1     164.453 148.353 148.527  1.00  0.00    -0.507 OA
ATOM     21  H   UNL     1     164.140 147.859 147.700  1.00  0.00     0.293 HD
ENDBRANCH  17  20
ENDBRANCH   1  12
BRANCH   2  22
ATOM     22  O   UNL     1     167.602 145.627 147.216  1.00  0.00    -0.502 OA
ATOM     23  H   UNL     1     168.611 145.686 147.277  1.00  0.00     0.293 HD
ENDBRANCH   2  22
BRANCH   6  24
ATOM     24  O   UNL     1     165.632 141.155 149.347  1.00  0.00    -0.507 OA
ATOM     25  H   UNL     1     165.584 140.982 148.354  1.00  0.00     0.293 HD
ENDBRANCH   6  24
BRANCH   8  26
ATOM     26  O   UNL     1     162.881 143.022 152.812  1.00  0.00    -0.508 OA
ATOM     27  H   UNL     1     162.952 142.224 153.434  1.00  0.00     0.293 HD
ENDBRANCH   8  26
TORSDOF 6
ENDMDL
MODEL 4
REMARK VINA RESULT:    -7.112      9.065     11.124
REMARK INTER + INTRA:          -8.938
REMARK INTER:                  -8.533
REMARK INTRA:                  -0.405
REMARK UNBOUND:                -0.370
REMARK SMILES O=c1c(O)c(-c2ccc(O)cc2O)oc2cc(O)cc(O)c12
REMARK SMILES IDX 5 1 3 2 2 3 1 4 22 5 20 6 19 7 17 8 16 9 15 10 14 11 6 12
REMARK SMILES IDX 8 13 7 14 9 15 11 16 12 17 10 18 13 20 4 22 21 24 18 26
REMARK H PARENT 10 19 13 21 4 23 21 25 18 27
REMARK Flexibility Score: inf
ROOT
ATOM      1  C   UNL     1     168.449 149.154 148.589  1.00  0.00     0.184 A 
ATOM      2  C   UNL     1     169.292 148.584 147.622  1.00  0.00     0.208 A 
ATOM      3  C   UNL     1     169.269 147.193 147.437  1.00  0.00     0.238 A 
ATOM      4  O   UNL     1     169.987 146.693 146.532  1.00  0.00    -0.285 OA
ATOM      5  C   UNL     1     168.417 146.390 148.233  1.00  0.00     0.111 A 
ATOM      6  C   UNL     1     168.341 144.967 148.159  1.00  0.00     0.134 A 
ATOM      7  C   UNL     1     167.369 144.286 148.902  1.00  0.00     0.093 A 
ATOM      8  C   UNL     1     166.512 144.973 149.767  1.00  0.00     0.123 A 
ATOM      9  C   UNL     1     166.618 146.356 149.891  1.00  0.00     0.094 A 
ATOM     10  C   UNL     1     167.553 147.067 149.134  1.00  0.00     0.146 A 
ATOM     11  O   UNL     1     167.613 148.386 149.275  1.00  0.00    -0.451 OA
ENDROOT
BRANCH   1  12
ATOM     12  C   UNL     1     168.436 150.610 148.846  1.00  0.00     0.063 A 
ATOM     13  C   UNL     1     169.585 152.582 149.687  1.00  0.00     0.047 A 
ATOM     14  C   UNL     1     169.562 151.207 149.436  1.00  0.00     0.020 A 
ATOM     15  C   UNL     1     168.490 153.378 149.341  1.00  0.00     0.119 A 
ATOM     16  C   UNL     1     167.372 152.797 148.731  1.00  0.00     0.093 A 
ATOM     17  C   UNL     1     167.343 151.418 148.470  1.00  0.00     0.130 A 
BRANCH  15  18
ATOM     18  O   UNL     1     168.527 154.746 149.602  1.00  0.00    -0.508 OA
ATOM     19  H   UNL     1     168.604 155.426 148.855  1.00  0.00     0.293 HD
ENDBRANCH  15  18
BRANCH  17  20
ATOM     20  O   UNL     1     166.244 150.859 147.818  1.00  0.00    -0.507 OA
ATOM     21  H   UNL     1     165.312 151.242 147.923  1.00  0.00     0.293 HD
ENDBRANCH  17  20
ENDBRANCH   1  12
BRANCH   2  22
ATOM     22  O   UNL     1     170.110 149.402 146.838  1.00  0.00    -0.502 OA
ATOM     23  H   UNL     1     171.112 149.271 146.781  1.00  0.00     0.293 HD
ENDBRANCH   2  22
BRANCH   6  24
ATOM     24  O   UNL     1     169.209 144.178 147.397  1.00  0.00    -0.507 OA
ATOM     25  H   UNL     1     169.421 144.334 146.424  1.00  0.00     0.293 HD
ENDBRANCH   6  24
BRANCH   8  26
ATOM     26  O   UNL     1     165.558 144.287 150.515  1.00  0.00    -0.508 OA
ATOM     27  H   UNL     1     165.307 143.329 150.301  1.00  0.00     0.293 HD
ENDBRANCH   8  26
TORSDOF 6
ENDMDL
MODEL 5
REMARK VINA RESULT:    -6.912      9.780     10.961
REMARK INTER + INTRA:          -8.697
REMARK INTER:                  -8.270
REMARK INTRA:                  -0.427
REMARK UNBOUND:                -0.370
REMARK SMILES O=c1c(O)c(-c2ccc(O)cc2O)oc2cc(O)cc(O)c12
REMARK SMILES IDX 5 1 3 2 2 3 1 4 22 5 20 6 19 7 17 8 16 9 15 10 14 11 6 12
REMARK SMILES IDX 8 13 7 14 9 15 11 16 12 17 10 18 13 20 4 22 21 24 18 26
REMARK H PARENT 10 19 13 21 4 23 21 25 18 27
REMARK Flexibility Score: inf
ROOT
ATOM      1  C   UNL     1     166.946 148.565 148.539  1.00  0.00     0.184 A 
ATOM      2  C   UNL     1     166.151 149.718 148.647  1.00  0.00     0.208 A 
ATOM      3  C   UNL     1     166.755 150.976 148.497  1.00  0.00     0.238 A 
ATOM      4  O   UNL     1     166.029 152.003 148.541  1.00  0.00    -0.285 OA
ATOM      5  C   UNL     1     168.148 151.064 148.259  1.00  0.00     0.111 A 
ATOM      6  C   UNL     1     168.873 152.288 148.131  1.00  0.00     0.134 A 
ATOM      7  C   UNL     1     170.224 152.256 147.767  1.00  0.00     0.093 A 
ATOM      8  C   UNL     1     170.894 151.042 147.590  1.00  0.00     0.123 A 
ATOM      9  C   UNL     1     170.210 149.842 147.770  1.00  0.00     0.094 A 
ATOM     10  C   UNL     1     168.852 149.842 148.098  1.00  0.00     0.146 A 
ATOM     11  O   UNL     1     168.236 148.675 148.250  1.00  0.00    -0.451 OA
ENDROOT
BRANCH   1  12
ATOM     12  C   UNL     1     166.376 147.211 148.703  1.00  0.00     0.063 A 
ATOM     13  C   UNL     1     165.555 145.469 150.187  1.00  0.00     0.047 A 
ATOM     14  C   UNL     1     166.099 146.742 149.997  1.00  0.00     0.020 A 
ATOM     15  C   UNL     1     165.269 144.655 149.088  1.00  0.00     0.119 A 
ATOM     16  C   UNL     1     165.520 145.122 147.792  1.00  0.00     0.093 A 
ATOM     17  C   UNL     1     166.061 146.402 147.591  1.00  0.00     0.130 A 
BRANCH  15  18
ATOM     18  O   UNL     1     164.731 143.386 149.294  1.00  0.00    -0.508 OA
ATOM     19  H   UNL     1     165.269 142.647 149.730  1.00  0.00     0.293 HD
ENDBRANCH  15  18
BRANCH  17  20
ATOM     20  O   UNL     1     166.261 146.875 146.295  1.00  0.00    -0.507 OA
ATOM     21  H   UNL     1     166.923 147.615 146.095  1.00  0.00     0.293 HD
ENDBRANCH  17  20
ENDBRANCH   1  12
BRANCH   2  22
ATOM     22  O   UNL     1     164.776 149.600 148.864  1.00  0.00    -0.502 OA
ATOM     23  H   UNL     1     164.095 150.108 148.314  1.00  0.00     0.293 HD
ENDBRANCH   2  22
BRANCH   6  24
ATOM     24  O   UNL     1     168.322 153.550 148.376  1.00  0.00    -0.507 OA
ATOM     25  H   UNL     1     168.797 154.425 148.211  1.00  0.00     0.293 HD
ENDBRANCH   6  24
BRANCH   8  26
ATOM     26  O   UNL     1     172.243 151.019 147.242  1.00  0.00    -0.508 OA
ATOM     27  H   UNL     1     172.758 150.148 147.179  1.00  0.00     0.293 HD
ENDBRANCH   8  26
TORSDOF 6
ENDMDL
MODEL 6
REMARK VINA RESULT:    -6.734      1.794      6.711
REMARK INTER + INTRA:          -8.482
REMARK INTER:                  -8.144
REMARK INTRA:                  -0.338
REMARK UNBOUND:                -0.370
REMARK SMILES O=c1c(O)c(-c2ccc(O)cc2O)oc2cc(O)cc(O)c12
REMARK SMILES IDX 5 1 3 2 2 3 1 4 22 5 20 6 19 7 17 8 16 9 15 10 14 11 6 12
REMARK SMILES IDX 8 13 7 14 9 15 11 16 12 17 10 18 13 20 4 22 21 24 18 26
REMARK H PARENT 10 19 13 21 4 23 21 25 18 27
REMARK Flexibility Score: inf
ROOT
ATOM      1  C   UNL     1     173.364 144.077 155.302  1.00  0.00     0.184 A 
ATOM      2  C   UNL     1     174.765 143.993 155.340  1.00  0.00     0.208 A 
ATOM      3  C   UNL     1     175.426 143.226 154.367  1.00  0.00     0.238 A 
ATOM      4  O   UNL     1     176.684 143.197 154.374  1.00  0.00    -0.285 OA
ATOM      5  C   UNL     1     174.676 142.541 153.381  1.00  0.00     0.111 A 
ATOM      6  C   UNL     1     175.238 141.703 152.371  1.00  0.00     0.134 A 
ATOM      7  C   UNL     1     174.413 141.180 151.369  1.00  0.00     0.093 A 
ATOM      8  C   UNL     1     173.034 141.412 151.377  1.00  0.00     0.123 A 
ATOM      9  C   UNL     1     172.468 142.179 152.391  1.00  0.00     0.094 A 
ATOM     10  C   UNL     1     173.271 142.745 153.385  1.00  0.00     0.146 A 
ATOM     11  O   UNL     1     172.691 143.480 154.327  1.00  0.00    -0.451 OA
ENDROOT
BRANCH   1  12
ATOM     12  C   UNL     1     172.606 144.854 156.305  1.00  0.00     0.063 A 
ATOM     13  C   UNL     1     171.165 144.869 158.264  1.00  0.00     0.047 A 
ATOM     14  C   UNL     1     171.888 144.166 157.297  1.00  0.00     0.020 A 
ATOM     15  C   UNL     1     171.161 146.267 158.261  1.00  0.00     0.119 A 
ATOM     16  C   UNL     1     171.893 146.962 157.291  1.00  0.00     0.093 A 
ATOM     17  C   UNL     1     172.626 146.264 156.319  1.00  0.00     0.130 A 
BRANCH  15  18
ATOM     18  O   UNL     1     170.432 146.953 159.230  1.00  0.00    -0.508 OA
ATOM     19  H   UNL     1     169.419 146.991 159.202  1.00  0.00     0.293 HD
ENDBRANCH  15  18
BRANCH  17  20
ATOM     20  O   UNL     1     173.390 146.968 155.389  1.00  0.00    -0.507 OA
ATOM     21  H   UNL     1     174.257 147.424 155.648  1.00  0.00     0.293 HD
ENDBRANCH  17  20
ENDBRANCH   1  12
BRANCH   2  22
ATOM     22  O   UNL     1     175.482 144.693 156.314  1.00  0.00    -0.502 OA
ATOM     23  H   UNL     1     175.904 144.235 157.111  1.00  0.00     0.293 HD
ENDBRANCH   2  22
BRANCH   6  24
ATOM     24  O   UNL     1     176.586 141.334 152.325  1.00  0.00    -0.507 OA
ATOM     25  H   UNL     1     177.188 141.259 153.131  1.00  0.00     0.293 HD
ENDBRANCH   6  24
BRANCH   8  26
ATOM     26  O   UNL     1     172.218 140.875 150.384  1.00  0.00    -0.508 OA
ATOM     27  H   UNL     1     171.771 141.464 149.691  1.00  0.00     0.293 HD
ENDBRANCH   8  26
TORSDOF 6
ENDMDL
MODEL 7
REMARK VINA RESULT:    -6.688      9.302     10.387
REMARK INTER + INTRA:          -8.427
REMARK INTER:                  -8.009
REMARK INTRA:                  -0.418
REMARK UNBOUND:                -0.370
REMARK SMILES O=c1c(O)c(-c2ccc(O)cc2O)oc2cc(O)cc(O)c12
REMARK SMILES IDX 5 1 3 2 2 3 1 4 22 5 20 6 19 7 17 8 16 9 15 10 14 11 6 12
REMARK SMILES IDX 8 13 7 14 9 15 11 16 12 17 10 18 13 20 4 22 21 24 18 26
REMARK H PARENT 10 19 13 21 4 23 21 25 18 27
REMARK Flexibility Score: inf
ROOT
ATOM      1  C   UNL     1     167.606 148.326 148.555  1.00  0.00     0.184 A 
ATOM      2  C   UNL     1     168.986 148.312 148.300  1.00  0.00     0.208 A 
ATOM      3  C   UNL     1     169.667 149.533 148.176  1.00  0.00     0.238 A 
ATOM      4  O   UNL     1     170.913 149.515 148.000  1.00  0.00    -0.285 OA
ATOM      5  C   UNL     1     168.954 150.751 148.292  1.00  0.00     0.111 A 
ATOM      6  C   UNL     1     169.534 152.047 148.144  1.00  0.00     0.134 A 
ATOM      7  C   UNL     1     168.762 153.184 148.409  1.00  0.00     0.093 A 
ATOM      8  C   UNL     1     167.411 153.074 148.753  1.00  0.00     0.123 A 
ATOM      9  C   UNL     1     166.821 151.816 148.841  1.00  0.00     0.094 A 
ATOM     10  C   UNL     1     167.575 150.661 148.619  1.00  0.00     0.146 A 
ATOM     11  O   UNL     1     166.976 149.481 148.725  1.00  0.00    -0.451 OA
ENDROOT
BRANCH   1  12
ATOM     12  C   UNL     1     166.827 147.076 148.680  1.00  0.00     0.063 A 
ATOM     13  C   UNL     1     165.893 145.344 150.109  1.00  0.00     0.047 A 
ATOM     14  C   UNL     1     166.629 146.522 149.955  1.00  0.00     0.020 A 
ATOM     15  C   UNL     1     165.334 144.713 148.995  1.00  0.00     0.119 A 
ATOM     16  C   UNL     1     165.505 145.270 147.721  1.00  0.00     0.093 A 
ATOM     17  C   UNL     1     166.238 146.456 147.558  1.00  0.00     0.130 A 
BRANCH  15  18
ATOM     18  O   UNL     1     164.606 143.538 149.164  1.00  0.00    -0.508 OA
ATOM     19  H   UNL     1     163.597 143.521 149.068  1.00  0.00     0.293 HD
ENDBRANCH  15  18
BRANCH  17  20
ATOM     20  O   UNL     1     166.360 147.027 146.291  1.00  0.00    -0.507 OA
ATOM     21  H   UNL     1     165.590 147.518 145.853  1.00  0.00     0.293 HD
ENDBRANCH  17  20
ENDBRANCH   1  12
BRANCH   2  22
ATOM     22  O   UNL     1     169.668 147.095 148.207  1.00  0.00    -0.502 OA
ATOM     23  H   UNL     1     169.187 146.205 148.184  1.00  0.00     0.293 HD
ENDBRANCH   2  22
BRANCH   6  24
ATOM     24  O   UNL     1     170.847 152.271 147.717  1.00  0.00    -0.507 OA
ATOM     25  H   UNL     1     171.643 152.356 148.330  1.00  0.00     0.293 HD
ENDBRANCH   6  24
BRANCH   8  26
ATOM     26  O   UNL     1     166.645 154.211 148.999  1.00  0.00    -0.508 OA
ATOM     27  H   UNL     1     166.974 154.948 149.613  1.00  0.00     0.293 HD
ENDBRANCH   8  26
TORSDOF 6
ENDMDL
MODEL 8
REMARK VINA RESULT:    -6.602      8.541     10.016
REMARK INTER + INTRA:          -8.323
REMARK INTER:                  -8.253
REMARK INTRA:                  -0.070
REMARK UNBOUND:                -0.370
REMARK SMILES O=c1c(O)c(-c2ccc(O)cc2O)oc2cc(O)cc(O)c12
REMARK SMILES IDX 5 1 3 2 2 3 1 4 22 5 20 6 19 7 17 8 16 9 15 10 14 11 6 12
REMARK SMILES IDX 8 13 7 14 9 15 11 16 12 17 10 18 13 20 4 22 21 24 18 26
REMARK H PARENT 10 19 13 21 4 23 21 25 18 27
REMARK Flexibility Score: inf
ROOT
ATOM      1  C   UNL     1     166.310 145.077 149.839  1.00  0.00     0.184 A 
ATOM      2  C   UNL     1     167.688 144.870 149.668  1.00  0.00     0.208 A 
ATOM      3  C   UNL     1     168.469 145.904 149.128  1.00  0.00     0.238 A 
ATOM      4  O   UNL     1     169.712 145.732 149.027  1.00  0.00    -0.285 OA
ATOM      5  C   UNL     1     167.858 147.124 148.749  1.00  0.00     0.111 A 
ATOM      6  C   UNL     1     168.545 148.224 148.153  1.00  0.00     0.134 A 
ATOM      7  C   UNL     1     167.866 149.429 147.940  1.00  0.00     0.093 A 
ATOM      8  C   UNL     1     166.506 149.552 148.240  1.00  0.00     0.123 A 
ATOM      9  C   UNL     1     165.813 148.465 148.766  1.00  0.00     0.094 A 
ATOM     10  C   UNL     1     166.472 147.261 149.025  1.00  0.00     0.146 A 
ATOM     11  O   UNL     1     165.776 146.253 149.537  1.00  0.00    -0.451 OA
ENDROOT
BRANCH   1  12
ATOM     12  C   UNL     1     165.429 144.025 150.387  1.00  0.00     0.063 A 
ATOM     13  C   UNL     1     164.797 141.678 150.467  1.00  0.00     0.047 A 
ATOM     14  C   UNL     1     165.609 142.698 149.964  1.00  0.00     0.020 A 
ATOM     15  C   UNL     1     163.804 141.968 151.407  1.00  0.00     0.119 A 
ATOM     16  C   UNL     1     163.632 143.284 151.853  1.00  0.00     0.093 A 
ATOM     17  C   UNL     1     164.447 144.314 151.358  1.00  0.00     0.130 A 
BRANCH  15  18
ATOM     18  O   UNL     1     163.000 140.940 151.895  1.00  0.00    -0.508 OA
ATOM     19  H   UNL     1     162.770 140.870 152.879  1.00  0.00     0.293 HD
ENDBRANCH  15  18
BRANCH  17  20
ATOM     20  O   UNL     1     164.298 145.612 151.846  1.00  0.00    -0.507 OA
ATOM     21  H   UNL     1     164.867 146.377 151.504  1.00  0.00     0.293 HD
ENDBRANCH  17  20
ENDBRANCH   1  12
BRANCH   2  22
ATOM     22  O   UNL     1     168.268 143.663 150.068  1.00  0.00    -0.502 OA
ATOM     23  H   UNL     1     168.689 143.539 150.980  1.00  0.00     0.293 HD
ENDBRANCH   2  22
BRANCH   6  24
ATOM     24  O   UNL     1     169.878 148.176 147.732  1.00  0.00    -0.507 OA
ATOM     25  H   UNL     1     170.656 147.913 148.318  1.00  0.00     0.293 HD
ENDBRANCH   6  24
BRANCH   8  26
ATOM     26  O   UNL     1     165.834 150.750 148.010  1.00  0.00    -0.508 OA
ATOM     27  H   UNL     1     165.023 151.016 148.557  1.00  0.00     0.293 HD
ENDBRANCH   8  26
TORSDOF 6
ENDMDL
MODEL 9
REMARK VINA RESULT:    -6.598      8.547     11.430
REMARK INTER + INTRA:          -8.318
REMARK INTER:                  -8.308
REMARK INTRA:                  -0.009
REMARK UNBOUND:                -0.370
REMARK SMILES O=c1c(O)c(-c2ccc(O)cc2O)oc2cc(O)cc(O)c12
REMARK SMILES IDX 5 1 3 2 2 3 1 4 22 5 20 6 19 7 17 8 16 9 15 10 14 11 6 12
REMARK SMILES IDX 8 13 7 14 9 15 11 16 12 17 10 18 13 20 4 22 21 24 18 26
REMARK H PARENT 10 19 13 21 4 23 21 25 18 27
REMARK Flexibility Score: inf
ROOT
ATOM      1  C   UNL     1     168.212 149.213 148.222  1.00  0.00     0.184 A 
ATOM      2  C   UNL     1     167.391 148.760 147.178  1.00  0.00     0.208 A 
ATOM      3  C   UNL     1     167.390 147.393 146.859  1.00  0.00     0.238 A 
ATOM      4  O   UNL     1     166.612 146.984 145.958  1.00  0.00    -0.285 OA
ATOM      5  C   UNL     1     168.224 146.502 147.576  1.00  0.00     0.111 A 
ATOM      6  C   UNL     1     168.334 145.103 147.311  1.00  0.00     0.134 A 
ATOM      7  C   UNL     1     169.091 144.296 148.168  1.00  0.00     0.093 A 
ATOM      8  C   UNL     1     169.796 144.846 149.243  1.00  0.00     0.123 A 
ATOM      9  C   UNL     1     169.742 146.218 149.474  1.00  0.00     0.094 A 
ATOM     10  C   UNL     1     168.965 147.045 148.659  1.00  0.00     0.146 A 
ATOM     11  O   UNL     1     168.933 148.347 148.922  1.00  0.00    -0.451 OA
ENDROOT
BRANCH   1  12
ATOM     12  C   UNL     1     168.272 150.642 148.599  1.00  0.00     0.063 A 
ATOM     13  C   UNL     1     167.103 152.738 148.987  1.00  0.00     0.047 A 
ATOM     14  C   UNL     1     167.083 151.387 148.630  1.00  0.00     0.020 A 
ATOM     15  C   UNL     1     168.308 153.357 149.330  1.00  0.00     0.119 A 
ATOM     16  C   UNL     1     169.497 152.616 149.325  1.00  0.00     0.093 A 
ATOM     17  C   UNL     1     169.484 151.258 148.973  1.00  0.00     0.130 A 
BRANCH  15  18
ATOM     18  O   UNL     1     168.313 154.706 149.679  1.00  0.00    -0.508 OA
ATOM     19  H   UNL     1     167.994 155.018 150.588  1.00  0.00     0.293 HD
ENDBRANCH  15  18
BRANCH  17  20
ATOM     20  O   UNL     1     170.667 150.519 149.018  1.00  0.00    -0.507 OA
ATOM     21  H   UNL     1     170.862 149.786 148.347  1.00  0.00     0.293 HD
ENDBRANCH  17  20
ENDBRANCH   1  12
BRANCH   2  22
ATOM     22  O   UNL     1     166.564 149.659 146.498  1.00  0.00    -0.502 OA
ATOM     23  H   UNL     1     165.625 149.418 146.207  1.00  0.00     0.293 HD
ENDBRANCH   2  22
BRANCH   6  24
ATOM     24  O   UNL     1     167.747 144.469 146.213  1.00  0.00    -0.507 OA
ATOM     25  H   UNL     1     167.602 143.474 146.135  1.00  0.00     0.293 HD
ENDBRANCH   6  24
BRANCH   8  26
ATOM     26  O   UNL     1     170.559 144.037 150.081  1.00  0.00    -0.508 OA
ATOM     27  H   UNL     1     171.474 144.326 150.407  1.00  0.00     0.293 HD
ENDBRANCH   8  26
TORSDOF 6
ENDMDL
