MODEL 1
REMARK VINA RESULT:    -4.995      0.000      0.000
REMARK INTER + INTRA:          -5.463
REMARK INTER:                  -5.287
REMARK INTRA:                  -0.175
REMARK UNBOUND:                -0.175
REMARK SMILES CC(C)[C@@H]1CC[C@H](C)CC1=O
REMARK SMILES IDX 8 1 7 2 6 3 5 4 4 5 10 6 11 7 9 8 2 9 1 10 3 11
REMARK H PARENT
REMARK Flexibility Score: inf
ROOT
ATOM      1  C   UNL     1     117.638 116.930 118.841  1.00  0.00     0.008 C 
ATOM      2  C   UNL     1     117.906 117.881 117.665  1.00  0.00    -0.007 C 
ATOM      3  C   UNL     1     117.380 119.308 117.947  1.00  0.00     0.004 C 
ATOM      4  C   UNL     1     118.223 120.070 118.991  1.00  0.00     0.012 C 
ATOM      5  C   UNL     1     119.719 120.125 118.598  1.00  0.00     0.058 C 
ATOM      6  C   UNL     1     120.168 118.703 118.309  1.00  0.00     0.136 C 
ATOM      7  O   UNL     1     121.069 118.167 118.940  1.00  0.00    -0.299 OA
ATOM      8  C   UNL     1     119.400 117.911 117.291  1.00  0.00     0.079 C 
ENDROOT
BRANCH   5   9
ATOM      9  C   UNL     1     120.612 120.841 119.665  1.00  0.00    -0.007 C 
ATOM     10  C   UNL     1     119.891 121.032 121.011  1.00  0.00     0.008 C 
ATOM     11  C   UNL     1     121.073 122.220 119.157  1.00  0.00     0.008 C 
ENDBRANCH   5   9
TORSDOF 1
ENDMDL
MODEL 2
REMARK VINA RESULT:    -4.953      1.928      3.879
REMARK INTER + INTRA:          -5.418
REMARK INTER:                  -5.239
REMARK INTRA:                  -0.178
REMARK UNBOUND:                -0.175
REMARK SMILES CC(C)[C@@H]1CC[C@H](C)CC1=O
REMARK SMILES IDX 8 1 7 2 6 3 5 4 4 5 10 6 11 7 9 8 2 9 1 10 3 11
REMARK H PARENT
REMARK Flexibility Score: inf
ROOT
ATOM      1  C   UNL     1     118.207 120.055 121.805  1.00  0.00     0.008 C 
ATOM      2  C   UNL     1     117.612 120.904 120.670  1.00  0.00    -0.007 C 
ATOM      3  C   UNL     1     118.702 121.403 119.693  1.00  0.00     0.004 C 
ATOM      4  C   UNL     1     119.275 120.283 118.801  1.00  0.00     0.012 C 
ATOM      5  C   UNL     1     118.163 119.540 118.020  1.00  0.00     0.058 C 
ATOM      6  C   UNL     1     117.115 119.099 119.026  1.00  0.00     0.136 C 
ATOM      7  O   UNL     1     116.827 117.921 119.187  1.00  0.00    -0.299 OA
ATOM      8  C   UNL     1     116.506 120.143 119.917  1.00  0.00     0.079 C 
ENDROOT
BRANCH   5   9
ATOM      9  C   UNL     1     118.705 118.359 117.148  1.00  0.00    -0.007 C 
ATOM     10  C   UNL     1     120.063 117.829 117.643  1.00  0.00     0.008 C 
ATOM     11  C   UNL     1     118.856 118.788 115.677  1.00  0.00     0.008 C 
ENDBRANCH   5   9
TORSDOF 1
ENDMDL
MODEL 3
REMARK VINA RESULT:    -4.939      2.064      4.263
REMARK INTER + INTRA:          -5.402
REMARK INTER:                  -5.239
REMARK INTRA:                  -0.163
REMARK UNBOUND:                -0.175
REMARK SMILES CC(C)[C@@H]1CC[C@H](C)CC1=O
REMARK SMILES IDX 8 1 7 2 6 3 5 4 4 5 10 6 11 7 9 8 2 9 1 10 3 11
REMARK H PARENT
REMARK Flexibility Score: inf
ROOT
ATOM      1  C   UNL     1     119.975 120.632 118.407  1.00  0.00     0.008 C 
ATOM      2  C   UNL     1     119.454 119.495 117.513  1.00  0.00    -0.007 C 
ATOM      3  C   UNL     1     119.935 118.110 118.005  1.00  0.00     0.004 C 
ATOM      4  C   UNL     1     119.238 117.653 119.303  1.00  0.00     0.012 C 
ATOM      5  C   UNL     1     117.696 117.661 119.165  1.00  0.00     0.058 C 
ATOM      6  C   UNL     1     117.290 119.033 118.656  1.00  0.00     0.136 C 
ATOM      7  O   UNL     1     116.543 119.764 119.291  1.00  0.00    -0.299 OA
ATOM      8  C   UNL     1     117.920 119.532 117.388  1.00  0.00     0.079 C 
ENDROOT
BRANCH   5   9
ATOM      9  C   UNL     1     116.956 117.257 120.484  1.00  0.00    -0.007 C 
ATOM     10  C   UNL     1     117.922 116.793 121.589  1.00  0.00     0.008 C 
ATOM     11  C   UNL     1     115.940 116.131 120.219  1.00  0.00     0.008 C 
ENDBRANCH   5   9
TORSDOF 1
ENDMDL
MODEL 4
REMARK VINA RESULT:    -4.937      1.823      3.168
REMARK INTER + INTRA:          -5.401
REMARK INTER:                  -5.224
REMARK INTRA:                  -0.176
REMARK UNBOUND:                -0.175
REMARK SMILES CC(C)[C@@H]1CC[C@H](C)CC1=O
REMARK SMILES IDX 8 1 7 2 6 3 5 4 4 5 10 6 11 7 9 8 2 9 1 10 3 11
REMARK H PARENT
REMARK Flexibility Score: inf
ROOT
ATOM      1  C   UNL     1     117.616 118.239 121.872  1.00  0.00     0.008 C 
ATOM      2  C   UNL     1     116.777 117.593 120.758  1.00  0.00    -0.007 C 
ATOM      3  C   UNL     1     116.239 118.645 119.759  1.00  0.00     0.004 C 
ATOM      4  C   UNL     1     117.336 119.228 118.844  1.00  0.00     0.012 C 
ATOM      5  C   UNL     1     118.104 118.119 118.084  1.00  0.00     0.058 C 
ATOM      6  C   UNL     1     118.583 117.109 119.112  1.00  0.00     0.136 C 
ATOM      7  O   UNL     1     119.770 116.858 119.270  1.00  0.00    -0.299 OA
ATOM      8  C   UNL     1     117.563 116.491 120.025  1.00  0.00     0.079 C 
ENDROOT
BRANCH   5   9
ATOM      9  C   UNL     1     119.263 118.674 117.190  1.00  0.00    -0.007 C 
ATOM     10  C   UNL     1     119.800 120.028 117.686  1.00  0.00     0.008 C 
ATOM     11  C   UNL     1     118.798 118.837 115.731  1.00  0.00     0.008 C 
ENDBRANCH   5   9
TORSDOF 1
ENDMDL
MODEL 5
REMARK VINA RESULT:    -4.921      1.751      4.068
REMARK INTER + INTRA:          -5.384
REMARK INTER:                  -5.209
REMARK INTRA:                  -0.175
REMARK UNBOUND:                -0.175
REMARK SMILES CC(C)[C@@H]1CC[C@H](C)CC1=O
REMARK SMILES IDX 8 1 7 2 6 3 5 4 4 5 10 6 11 7 9 8 2 9 1 10 3 11
REMARK H PARENT
REMARK Flexibility Score: inf
ROOT
ATOM      1  C   UNL     1     120.045 119.371 121.826  1.00  0.00     0.008 C 
ATOM      2  C   UNL     1     120.860 120.041 120.709  1.00  0.00    -0.007 C 
ATOM      3  C   UNL     1     121.403 119.008 119.692  1.00  0.00     0.004 C 
ATOM      4  C   UNL     1     120.304 118.416 118.785  1.00  0.00     0.012 C 
ATOM      5  C   UNL     1     119.507 119.519 118.046  1.00  0.00     0.058 C 
ATOM      6  C   UNL     1     119.026 120.511 119.090  1.00  0.00     0.136 C 
ATOM      7  O   UNL     1     117.837 120.741 119.265  1.00  0.00    -0.299 OA
ATOM      8  C   UNL     1     120.047 121.137 119.996  1.00  0.00     0.079 C 
ENDROOT
BRANCH   5   9
ATOM      9  C   UNL     1     118.347 118.955 117.161  1.00  0.00    -0.007 C 
ATOM     10  C   UNL     1     117.829 117.593 117.658  1.00  0.00     0.008 C 
ATOM     11  C   UNL     1     118.800 118.799 115.698  1.00  0.00     0.008 C 
ENDBRANCH   5   9
TORSDOF 1
ENDMDL
MODEL 6
REMARK VINA RESULT:    -4.905      1.961      3.190
REMARK INTER + INTRA:          -5.366
REMARK INTER:                  -5.192
REMARK INTRA:                  -0.175
REMARK UNBOUND:                -0.175
REMARK SMILES CC(C)[C@@H]1CC[C@H](C)CC1=O
REMARK SMILES IDX 8 1 7 2 6 3 5 4 4 5 10 6 11 7 9 8 2 9 1 10 3 11
REMARK H PARENT
REMARK Flexibility Score: inf
ROOT
ATOM      1  C   UNL     1     120.734 117.754 119.120  1.00  0.00     0.008 C 
ATOM      2  C   UNL     1     119.839 117.876 117.877  1.00  0.00    -0.007 C 
ATOM      3  C   UNL     1     118.430 117.286 118.121  1.00  0.00     0.004 C 
ATOM      4  C   UNL     1     117.563 118.156 119.055  1.00  0.00     0.012 C 
ATOM      5  C   UNL     1     117.446 119.613 118.544  1.00  0.00     0.058 C 
ATOM      6  C   UNL     1     118.854 120.125 118.299  1.00  0.00     0.136 C 
ATOM      7  O   UNL     1     119.300 121.101 118.886  1.00  0.00    -0.299 OA
ATOM      8  C   UNL     1     119.747 119.333 117.387  1.00  0.00     0.079 C 
ENDROOT
BRANCH   5   9
ATOM      9  C   UNL     1     116.619 120.537 119.499  1.00  0.00    -0.007 C 
ATOM     10  C   UNL     1     116.382 119.903 120.881  1.00  0.00     0.008 C 
ATOM     11  C   UNL     1     115.252 120.882 118.879  1.00  0.00     0.008 C 
ENDBRANCH   5   9
TORSDOF 1
ENDMDL
MODEL 7
REMARK VINA RESULT:    -4.899      2.152      3.266
REMARK INTER + INTRA:          -5.361
REMARK INTER:                  -5.191
REMARK INTRA:                  -0.170
REMARK UNBOUND:                -0.175
REMARK SMILES CC(C)[C@@H]1CC[C@H](C)CC1=O
REMARK SMILES IDX 8 1 7 2 6 3 5 4 4 5 10 6 11 7 9 8 2 9 1 10 3 11
REMARK H PARENT
REMARK Flexibility Score: inf
ROOT
ATOM      1  C   UNL     1     117.132 120.068 118.425  1.00  0.00     0.008 C 
ATOM      2  C   UNL     1     118.114 119.386 117.459  1.00  0.00    -0.007 C 
ATOM      3  C   UNL     1     119.582 119.760 117.771  1.00  0.00     0.004 C 
ATOM      4  C   UNL     1     120.114 119.105 119.062  1.00  0.00     0.012 C 
ATOM      5  C   UNL     1     119.953 117.565 119.038  1.00  0.00     0.058 C 
ATOM      6  C   UNL     1     118.503 117.262 118.703  1.00  0.00     0.136 C 
ATOM      7  O   UNL     1     117.781 116.630 119.462  1.00  0.00    -0.299 OA
ATOM      8  C   UNL     1     117.927 117.857 117.450  1.00  0.00     0.079 C 
ENDROOT
BRANCH   5   9
ATOM      9  C   UNL     1     120.430 116.873 120.358  1.00  0.00    -0.007 C 
ATOM     10  C   UNL     1     120.822 117.885 121.451  1.00  0.00     0.008 C 
ATOM     11  C   UNL     1     121.635 115.953 120.090  1.00  0.00     0.008 C 
ENDBRANCH   5   9
TORSDOF 1
ENDMDL
MODEL 8
REMARK VINA RESULT:    -4.897      1.948      3.389
REMARK INTER + INTRA:          -5.359
REMARK INTER:                  -5.182
REMARK INTRA:                  -0.177
REMARK UNBOUND:                -0.175
REMARK SMILES CC(C)[C@@H]1CC[C@H](C)CC1=O
REMARK SMILES IDX 8 1 7 2 6 3 5 4 4 5 10 6 11 7 9 8 2 9 1 10 3 11
REMARK H PARENT
REMARK Flexibility Score: inf
ROOT
ATOM      1  C   UNL     1     119.499 117.536 121.839  1.00  0.00     0.008 C 
ATOM      2  C   UNL     1     120.104 116.725 120.682  1.00  0.00    -0.007 C 
ATOM      3  C   UNL     1     119.018 116.210 119.709  1.00  0.00     0.004 C 
ATOM      4  C   UNL     1     118.402 117.329 118.843  1.00  0.00     0.012 C 
ATOM      5  C   UNL     1     119.483 118.117 118.063  1.00  0.00     0.058 C 
ATOM      6  C   UNL     1     120.529 118.571 119.065  1.00  0.00     0.136 C 
ATOM      7  O   UNL     1     120.786 119.754 119.243  1.00  0.00    -0.299 OA
ATOM      8  C   UNL     1     121.179 117.530 119.930  1.00  0.00     0.079 C 
ENDROOT
BRANCH   5   9
ATOM      9  C   UNL     1     118.897 119.297 117.218  1.00  0.00    -0.007 C 
ATOM     10  C   UNL     1     117.552 119.809 117.765  1.00  0.00     0.008 C 
ATOM     11  C   UNL     1     118.697 118.874 115.751  1.00  0.00     0.008 C 
ENDBRANCH   5   9
TORSDOF 1
ENDMDL
MODEL 9
REMARK VINA RESULT:    -4.632      1.013      4.036
REMARK INTER + INTRA:          -5.078
REMARK INTER:                  -4.901
REMARK INTRA:                  -0.178
REMARK UNBOUND:                -0.175
REMARK SMILES CC(C)[C@@H]1CC[C@H](C)CC1=O
REMARK SMILES IDX 8 1 7 2 6 3 5 4 4 5 10 6 11 7 9 8 2 9 1 10 3 11
REMARK H PARENT
REMARK Flexibility Score: inf
ROOT
ATOM      1  C   UNL     1     120.863 121.878 118.877  1.00  0.00     0.008 C 
ATOM      2  C   UNL     1     120.170 121.307 120.124  1.00  0.00    -0.007 C 
ATOM      3  C   UNL     1     118.648 121.137 119.910  1.00  0.00     0.004 C 
ATOM      4  C   UNL     1     118.296 119.974 118.959  1.00  0.00     0.012 C 
ATOM      5  C   UNL     1     118.918 118.635 119.427  1.00  0.00     0.058 C 
ATOM      6  C   UNL     1     120.402 118.873 119.644  1.00  0.00     0.136 C 
ATOM      7  O   UNL     1     121.255 118.253 119.024  1.00  0.00    -0.299 OA
ATOM      8  C   UNL     1     120.813 119.981 120.571  1.00  0.00     0.079 C 
ENDROOT
BRANCH   5   9
ATOM      9  C   UNL     1     118.628 117.446 118.453  1.00  0.00    -0.007 C 
ATOM     10  C   UNL     1     118.220 117.916 117.046  1.00  0.00     0.008 C 
ATOM     11  C   UNL     1     117.511 116.543 119.009  1.00  0.00     0.008 C 
ENDBRANCH   5   9
TORSDOF 1
ENDMDL
