MODEL 1
REMARK VINA RESULT:    -6.745      0.000      0.000
REMARK INTER + INTRA:         -10.690
REMARK INTER:                  -9.702
REMARK INTRA:                  -0.988
REMARK UNBOUND:                -0.988
REMARK SMILES O=c1cc(-c2ccc(O)c(O)c2)oc2cc(O[C@@H]3O[C@@H](CO)[C@H](O)[C@@H](O)[C@@H]3O)cc(O)c12
REMARK SMILES IDX 17 1 16 2 4 3 3 4 13 5 2 6 14 7 1 8 32 9 15 10 30 11 29 12
REMARK SMILES IDX 5 13 6 14 7 15 8 16 12 17 10 18 9 19 11 21 31 23 18 25 27 26
REMARK SMILES IDX 19 27 25 28 20 29 23 30 28 31 26 33 21 35 22 36 24 38
REMARK H PARENT 9 20 11 22 31 24 28 32 26 34 22 37 24 39
REMARK Flexibility Score: inf
ROOT
ATOM      1  O   UNL     1      21.834   3.055  42.976  1.00  0.00    -0.462 OA
ENDROOT
BRANCH   1   2
ATOM      2  C   UNL     1      21.056   2.006  43.502  1.00  0.00     0.130 A 
ATOM      3  C   UNL     1      20.721  -2.357  45.427  1.00  0.00     0.138 A 
ATOM      4  C   UNL     1      19.335  -2.419  45.178  1.00  0.00     0.100 A 
ATOM      5  O   UNL     1      21.389  -1.240  45.115  1.00  0.00    -0.456 OA
ATOM      6  C   UNL     1      18.692  -1.309  44.633  1.00  0.00     0.197 A 
ATOM      7  C   UNL     1      20.818  -0.174  44.561  1.00  0.00     0.146 A 
ATOM      8  O   UNL     1      17.453  -1.376  44.424  1.00  0.00    -0.289 OA
ATOM      9  C   UNL     1      19.433  -0.160  44.296  1.00  0.00     0.107 A 
ATOM     10  C   UNL     1      21.609   0.933  44.226  1.00  0.00     0.094 A 
ATOM     11  C   UNL     1      18.856   0.993  43.706  1.00  0.00     0.134 A 
ATOM     12  C   UNL     1      19.684   2.028  43.258  1.00  0.00     0.093 A 
BRANCH   3  13
ATOM     13  C   UNL     1      21.483  -3.494  46.032  1.00  0.00     0.021 A 
ATOM     14  C   UNL     1      22.504  -3.304  46.989  1.00  0.00     0.016 A 
ATOM     15  C   UNL     1      23.210  -4.392  47.518  1.00  0.00     0.051 A 
ATOM     16  C   UNL     1      22.912  -5.696  47.108  1.00  0.00     0.157 A 
ATOM     17  C   UNL     1      21.178  -4.818  45.656  1.00  0.00     0.062 A 
ATOM     18  C   UNL     1      21.885  -5.906  46.181  1.00  0.00     0.158 A 
BRANCH  16  19
ATOM     19  O   UNL     1      23.625  -6.773  47.625  1.00  0.00    -0.504 OA
ATOM     20  H   UNL     1      23.151  -7.600  47.966  1.00  0.00     0.293 HD
ENDBRANCH  16  19
BRANCH  18  21
ATOM     21  O   UNL     1      21.556  -7.196  45.756  1.00  0.00    -0.504 OA
ATOM     22  H   UNL     1      21.813  -8.018  46.283  1.00  0.00     0.293 HD
ENDBRANCH  18  21
ENDBRANCH   3  13
BRANCH  11  23
ATOM     23  O   UNL     1      17.474   1.111  43.571  1.00  0.00    -0.507 OA
ATOM     24  H   UNL     1      17.048   1.759  42.930  1.00  0.00     0.293 HD
ENDBRANCH  11  23
ENDBRANCH   1   2
BRANCH   1  25
ATOM     25  C   UNL     1      22.939   2.908  42.078  1.00  0.00     0.339 C 
ATOM     26  C   UNL     1      22.435   2.497  40.662  1.00  0.00     0.214 C 
ATOM     27  O   UNL     1      23.651   4.140  42.063  1.00  0.00    -0.332 OA
ATOM     28  C   UNL     1      23.650   2.258  39.737  1.00  0.00     0.180 C 
ATOM     29  C   UNL     1      24.393   4.409  40.874  1.00  0.00     0.179 C 
ATOM     30  C   UNL     1      24.880   3.125  40.149  1.00  0.00     0.177 C 
BRANCH  26  31
ATOM     31  O   UNL     1      21.615   3.500  40.125  1.00  0.00    -0.384 OA
ATOM     32  H   UNL     1      21.796   4.325  40.643  1.00  0.00     0.211 HD
ENDBRANCH  26  31
BRANCH  28  33
ATOM     33  O   UNL     1      24.000   0.894  39.705  1.00  0.00    -0.387 OA
ATOM     34  H   UNL     1      24.993   0.836  39.748  1.00  0.00     0.211 HD
ENDBRANCH  28  33
BRANCH  29  35
ATOM     35  C   UNL     1      25.562   5.374  41.199  1.00  0.00     0.191 C 
BRANCH  35  36
ATOM     36  O   UNL     1      26.772   4.661  41.361  1.00  0.00    -0.394 OA
ATOM     37  H   UNL     1      27.349   4.850  40.575  1.00  0.00     0.210 HD
ENDBRANCH  35  36
ENDBRANCH  29  35
BRANCH  30  38
ATOM     38  O   UNL     1      25.647   3.459  39.019  1.00  0.00    -0.387 OA
ATOM     39  H   UNL     1      25.013   3.879  38.376  1.00  0.00     0.211 HD
ENDBRANCH  30  38
ENDBRANCH   1  25
TORSDOF 11
ENDMDL
MODEL 2
REMARK VINA RESULT:    -6.704      0.938      2.065
REMARK INTER + INTRA:         -10.632
REMARK INTER:                  -9.884
REMARK INTRA:                  -0.748
REMARK UNBOUND:                -0.988
REMARK SMILES O=c1cc(-c2ccc(O)c(O)c2)oc2cc(O[C@@H]3O[C@@H](CO)[C@H](O)[C@@H](O)[C@@H]3O)cc(O)c12
REMARK SMILES IDX 17 1 16 2 4 3 3 4 13 5 2 6 14 7 1 8 32 9 15 10 30 11 29 12
REMARK SMILES IDX 5 13 6 14 7 15 8 16 12 17 10 18 9 19 11 21 31 23 18 25 27 26
REMARK SMILES IDX 19 27 25 28 20 29 23 30 28 31 26 33 21 35 22 36 24 38
REMARK H PARENT 9 20 11 22 31 24 28 32 26 34 22 37 24 39
REMARK Flexibility Score: inf
ROOT
ATOM      1  O   UNL     1      21.388   3.435  43.114  1.00  0.00    -0.462 OA
ENDROOT
BRANCH   1   2
ATOM      2  C   UNL     1      20.702   2.309  43.610  1.00  0.00     0.130 A 
ATOM      3  C   UNL     1      20.744  -2.103  45.449  1.00  0.00     0.138 A 
ATOM      4  C   UNL     1      19.373  -2.286  45.181  1.00  0.00     0.100 A 
ATOM      5  O   UNL     1      21.311  -0.925  45.167  1.00  0.00    -0.456 OA
ATOM      6  C   UNL     1      18.638  -1.229  44.649  1.00  0.00     0.197 A 
ATOM      7  C   UNL     1      20.652   0.096  44.625  1.00  0.00     0.146 A 
ATOM      8  O   UNL     1      17.412  -1.403  44.423  1.00  0.00    -0.289 OA
ATOM      9  C   UNL     1      19.275  -0.011  44.342  1.00  0.00     0.107 A 
ATOM     10  C   UNL     1      21.343   1.277  44.321  1.00  0.00     0.094 A 
ATOM     11  C   UNL     1      18.602   1.096  43.767  1.00  0.00     0.134 A 
ATOM     12  C   UNL     1      19.337   2.212  43.349  1.00  0.00     0.093 A 
BRANCH   3  13
ATOM     13  C   UNL     1      21.600  -3.178  46.043  1.00  0.00     0.021 A 
ATOM     14  C   UNL     1      22.689  -2.900  46.898  1.00  0.00     0.016 A 
ATOM     15  C   UNL     1      23.480  -3.932  47.418  1.00  0.00     0.051 A 
ATOM     16  C   UNL     1      23.202  -5.267  47.101  1.00  0.00     0.157 A 
ATOM     17  C   UNL     1      21.319  -4.530  45.760  1.00  0.00     0.062 A 
ATOM     18  C   UNL     1      22.111  -5.562  46.277  1.00  0.00     0.158 A 
BRANCH  16  19
ATOM     19  O   UNL     1      23.999  -6.288  47.608  1.00  0.00    -0.504 OA
ATOM     20  H   UNL     1      24.237  -7.096  47.046  1.00  0.00     0.293 HD
ENDBRANCH  16  19
BRANCH  18  21
ATOM     21  O   UNL     1      21.800  -6.885  45.946  1.00  0.00    -0.504 OA
ATOM     22  H   UNL     1      21.725  -7.610  46.645  1.00  0.00     0.293 HD
ENDBRANCH  18  21
ENDBRANCH   3  13
BRANCH  11  23
ATOM     23  O   UNL     1      17.217   1.091  43.616  1.00  0.00    -0.507 OA
ATOM     24  H   UNL     1      16.651   1.904  43.797  1.00  0.00     0.293 HD
ENDBRANCH  11  23
ENDBRANCH   1   2
BRANCH   1  25
ATOM     25  C   UNL     1      22.259   3.450  41.978  1.00  0.00     0.339 C 
ATOM     26  C   UNL     1      23.615   4.124  42.344  1.00  0.00     0.214 C 
ATOM     27  O   UNL     1      22.422   2.105  41.541  1.00  0.00    -0.332 OA
ATOM     28  C   UNL     1      24.501   4.207  41.080  1.00  0.00     0.180 C 
ATOM     29  C   UNL     1      23.633   1.828  40.839  1.00  0.00     0.179 C 
ATOM     30  C   UNL     1      24.194   3.056  40.072  1.00  0.00     0.177 C 
BRANCH  26  31
ATOM     31  O   UNL     1      24.272   3.388  43.341  1.00  0.00    -0.384 OA
ATOM     32  H   UNL     1      24.928   4.000  43.762  1.00  0.00     0.211 HD
ENDBRANCH  26  31
BRANCH  28  33
ATOM     33  O   UNL     1      24.366   5.460  40.449  1.00  0.00    -0.387 OA
ATOM     34  H   UNL     1      25.230   5.944  40.551  1.00  0.00     0.211 HD
ENDBRANCH  28  33
BRANCH  29  35
ATOM     35  C   UNL     1      23.424   0.605  39.909  1.00  0.00     0.191 C 
BRANCH  35  36
ATOM     36  O   UNL     1      23.816  -0.590  40.554  1.00  0.00    -0.394 OA
ATOM     37  H   UNL     1      23.527  -0.539  41.502  1.00  0.00     0.210 HD
ENDBRANCH  35  36
ENDBRANCH  29  35
BRANCH  30  38
ATOM     38  O   UNL     1      25.355   2.703  39.361  1.00  0.00    -0.387 OA
ATOM     39  H   UNL     1      25.461   1.721  39.484  1.00  0.00     0.211 HD
ENDBRANCH  30  38
ENDBRANCH   1  25
TORSDOF 11
ENDMDL
MODEL 3
REMARK VINA RESULT:    -6.688      5.060     11.474
REMARK INTER + INTRA:         -10.608
REMARK INTER:                  -9.722
REMARK INTRA:                  -0.886
REMARK UNBOUND:                -0.988
REMARK SMILES O=c1cc(-c2ccc(O)c(O)c2)oc2cc(O[C@@H]3O[C@@H](CO)[C@H](O)[C@@H](O)[C@@H]3O)cc(O)c12
REMARK SMILES IDX 17 1 16 2 4 3 3 4 13 5 2 6 14 7 1 8 32 9 15 10 30 11 29 12
REMARK SMILES IDX 5 13 6 14 7 15 8 16 12 17 10 18 9 19 11 21 31 23 18 25 27 26
REMARK SMILES IDX 19 27 25 28 20 29 23 30 28 31 26 33 21 35 22 36 24 38
REMARK H PARENT 9 20 11 22 31 24 28 32 26 34 22 37 24 39
REMARK Flexibility Score: inf
ROOT
ATOM      1  O   UNL     1      25.347   4.506  41.119  1.00  0.00    -0.462 OA
ENDROOT
BRANCH   1   2
ATOM      2  C   UNL     1      26.752   4.545  41.028  1.00  0.00     0.130 A 
ATOM      3  C   UNL     1      30.980   6.062  42.662  1.00  0.00     0.138 A 
ATOM      4  C   UNL     1      31.635   5.692  41.470  1.00  0.00     0.100 A 
ATOM      5  O   UNL     1      29.675   5.799  42.798  1.00  0.00    -0.456 OA
ATOM      6  C   UNL     1      30.912   5.042  40.472  1.00  0.00     0.197 A 
ATOM      7  C   UNL     1      28.943   5.213  41.854  1.00  0.00     0.146 A 
ATOM      8  O   UNL     1      31.510   4.709  39.417  1.00  0.00    -0.289 OA
ATOM      9  C   UNL     1      29.534   4.803  40.641  1.00  0.00     0.107 A 
ATOM     10  C   UNL     1      27.572   5.021  42.069  1.00  0.00     0.094 A 
ATOM     11  C   UNL     1      28.725   4.180  39.657  1.00  0.00     0.134 A 
ATOM     12  C   UNL     1      27.339   4.121  39.837  1.00  0.00     0.093 A 
BRANCH   3  13
ATOM     13  C   UNL     1      31.687   6.741  43.793  1.00  0.00     0.021 A 
ATOM     14  C   UNL     1      31.119   6.874  45.079  1.00  0.00     0.016 A 
ATOM     15  C   UNL     1      31.804   7.533  46.106  1.00  0.00     0.051 A 
ATOM     16  C   UNL     1      33.074   8.074  45.878  1.00  0.00     0.157 A 
ATOM     17  C   UNL     1      32.981   7.266  43.593  1.00  0.00     0.062 A 
ATOM     18  C   UNL     1      33.665   7.928  44.619  1.00  0.00     0.158 A 
BRANCH  16  19
ATOM     19  O   UNL     1      33.745   8.741  46.898  1.00  0.00    -0.504 OA
ATOM     20  H   UNL     1      34.756   8.735  46.952  1.00  0.00     0.293 HD
ENDBRANCH  16  19
BRANCH  18  21
ATOM     21  O   UNL     1      34.936   8.449  44.359  1.00  0.00    -0.504 OA
ATOM     22  H   UNL     1      35.762   8.112  44.832  1.00  0.00     0.293 HD
ENDBRANCH  18  21
ENDBRANCH   3  13
BRANCH  11  23
ATOM     23  O   UNL     1      29.294   3.621  38.514  1.00  0.00    -0.507 OA
ATOM     24  H   UNL     1      30.279   3.428  38.441  1.00  0.00     0.293 HD
ENDBRANCH  11  23
ENDBRANCH   1   2
BRANCH   1  25
ATOM     25  C   UNL     1      24.572   3.414  41.623  1.00  0.00     0.339 C 
ATOM     26  C   UNL     1      23.221   3.930  42.202  1.00  0.00     0.214 C 
ATOM     27  O   UNL     1      24.387   2.487  40.559  1.00  0.00    -0.332 OA
ATOM     28  C   UNL     1      22.444   2.745  42.820  1.00  0.00     0.180 C 
ATOM     29  C   UNL     1      23.226   1.663  40.654  1.00  0.00     0.179 C 
ATOM     30  C   UNL     1      22.782   1.393  42.117  1.00  0.00     0.177 C 
BRANCH  26  31
ATOM     31  O   UNL     1      22.454   4.530  41.192  1.00  0.00    -0.384 OA
ATOM     32  H   UNL     1      21.518   4.545  41.515  1.00  0.00     0.211 HD
ENDBRANCH  26  31
BRANCH  28  33
ATOM     33  O   UNL     1      22.683   2.650  44.205  1.00  0.00    -0.387 OA
ATOM     34  H   UNL     1      22.031   3.245  44.665  1.00  0.00     0.211 HD
ENDBRANCH  28  33
BRANCH  29  35
ATOM     35  C   UNL     1      23.457   0.350  39.863  1.00  0.00     0.191 C 
BRANCH  35  36
ATOM     36  O   UNL     1      23.833  -0.701  40.731  1.00  0.00    -0.394 OA
ATOM     37  H   UNL     1      24.192  -0.299  41.564  1.00  0.00     0.210 HD
ENDBRANCH  35  36
ENDBRANCH  29  35
BRANCH  30  38
ATOM     38  O   UNL     1      21.669   0.535  42.142  1.00  0.00    -0.387 OA
ATOM     39  H   UNL     1      20.942   1.045  42.592  1.00  0.00     0.211 HD
ENDBRANCH  30  38
ENDBRANCH   1  25
TORSDOF 11
ENDMDL
MODEL 4
REMARK VINA RESULT:    -6.561      6.271     10.966
REMARK INTER + INTRA:         -10.425
REMARK INTER:                  -9.712
REMARK INTRA:                  -0.713
REMARK UNBOUND:                -0.988
REMARK SMILES O=c1cc(-c2ccc(O)c(O)c2)oc2cc(O[C@@H]3O[C@@H](CO)[C@H](O)[C@@H](O)[C@@H]3O)cc(O)c12
REMARK SMILES IDX 17 1 16 2 4 3 3 4 13 5 2 6 14 7 1 8 32 9 15 10 30 11 29 12
REMARK SMILES IDX 5 13 6 14 7 15 8 16 12 17 10 18 9 19 11 21 31 23 18 25 27 26
REMARK SMILES IDX 19 27 25 28 20 29 23 30 28 31 26 33 21 35 22 36 24 38
REMARK H PARENT 9 20 11 22 31 24 28 32 26 34 22 37 24 39
REMARK Flexibility Score: inf
ROOT
ATOM      1  O   UNL     1      32.806   5.736  42.913  1.00  0.00    -0.462 OA
ENDROOT
BRANCH   1   2
ATOM      2  C   UNL     1      31.557   5.350  43.439  1.00  0.00     0.130 A 
ATOM      3  C   UNL     1      26.959   4.205  42.809  1.00  0.00     0.138 A 
ATOM      4  C   UNL     1      26.675   4.364  44.180  1.00  0.00     0.100 A 
ATOM      5  O   UNL     1      28.217   4.361  42.381  1.00  0.00    -0.456 OA
ATOM      6  C   UNL     1      27.716   4.658  45.059  1.00  0.00     0.197 A 
ATOM      7  C   UNL     1      29.231   4.677  43.183  1.00  0.00     0.146 A 
ATOM      8  O   UNL     1      27.450   4.790  46.282  1.00  0.00    -0.289 OA
ATOM      9  C   UNL     1      29.024   4.839  44.568  1.00  0.00     0.107 A 
ATOM     10  C   UNL     1      30.507   4.866  42.636  1.00  0.00     0.094 A 
ATOM     11  C   UNL     1      30.125   5.175  45.395  1.00  0.00     0.134 A 
ATOM     12  C   UNL     1      31.358   5.490  44.811  1.00  0.00     0.093 A 
BRANCH   3  13
ATOM     13  C   UNL     1      25.905   3.865  41.802  1.00  0.00     0.021 A 
ATOM     14  C   UNL     1      26.144   3.887  40.410  1.00  0.00     0.016 A 
ATOM     15  C   UNL     1      25.127   3.581  39.498  1.00  0.00     0.051 A 
ATOM     16  C   UNL     1      23.848   3.241  39.951  1.00  0.00     0.157 A 
ATOM     17  C   UNL     1      24.618   3.490  42.238  1.00  0.00     0.062 A 
ATOM     18  C   UNL     1      23.600   3.187  41.326  1.00  0.00     0.158 A 
BRANCH  16  19
ATOM     19  O   UNL     1      22.836   2.952  39.041  1.00  0.00    -0.504 OA
ATOM     20  H   UNL     1      21.942   2.590  39.348  1.00  0.00     0.293 HD
ENDBRANCH  16  19
BRANCH  18  21
ATOM     21  O   UNL     1      22.335   2.843  41.814  1.00  0.00    -0.504 OA
ATOM     22  H   UNL     1      21.896   1.961  41.594  1.00  0.00     0.293 HD
ENDBRANCH  18  21
ENDBRANCH   3  13
BRANCH  11  23
ATOM     23  O   UNL     1      29.999   5.191  46.783  1.00  0.00    -0.507 OA
ATOM     24  H   UNL     1      30.782   5.044  47.398  1.00  0.00     0.293 HD
ENDBRANCH  11  23
ENDBRANCH   1   2
BRANCH   1  25
ATOM     25  C   UNL     1      33.082   6.019  41.538  1.00  0.00     0.339 C 
ATOM     26  C   UNL     1      33.345   7.541  41.341  1.00  0.00     0.214 C 
ATOM     27  O   UNL     1      34.195   5.221  41.148  1.00  0.00    -0.332 OA
ATOM     28  C   UNL     1      33.552   7.833  39.837  1.00  0.00     0.180 C 
ATOM     29  C   UNL     1      34.971   5.734  40.066  1.00  0.00     0.179 C 
ATOM     30  C   UNL     1      34.150   6.607  39.079  1.00  0.00     0.177 C 
BRANCH  26  31
ATOM     31  O   UNL     1      34.478   7.940  42.065  1.00  0.00    -0.384 OA
ATOM     32  H   UNL     1      35.150   8.239  41.403  1.00  0.00     0.211 HD
ENDBRANCH  26  31
BRANCH  28  33
ATOM     33  O   UNL     1      32.349   8.245  39.231  1.00  0.00    -0.387 OA
ATOM     34  H   UNL     1      31.811   8.719  39.921  1.00  0.00     0.211 HD
ENDBRANCH  28  33
BRANCH  29  35
ATOM     35  C   UNL     1      35.695   4.566  39.348  1.00  0.00     0.191 C 
BRANCH  35  36
ATOM     36  O   UNL     1      36.038   3.547  40.266  1.00  0.00    -0.394 OA
ATOM     37  H   UNL     1      35.755   3.838  41.171  1.00  0.00     0.210 HD
ENDBRANCH  35  36
ENDBRANCH  29  35
BRANCH  30  38
ATOM     38  O   UNL     1      34.959   7.036  38.012  1.00  0.00    -0.387 OA
ATOM     39  H   UNL     1      34.682   7.973  37.821  1.00  0.00     0.211 HD
ENDBRANCH  30  38
ENDBRANCH   1  25
TORSDOF 11
ENDMDL
MODEL 5
REMARK VINA RESULT:    -6.471      5.851     12.236
REMARK INTER + INTRA:         -10.296
REMARK INTER:                  -9.520
REMARK INTRA:                  -0.776
REMARK UNBOUND:                -0.988
REMARK SMILES O=c1cc(-c2ccc(O)c(O)c2)oc2cc(O[C@@H]3O[C@@H](CO)[C@H](O)[C@@H](O)[C@@H]3O)cc(O)c12
REMARK SMILES IDX 17 1 16 2 4 3 3 4 13 5 2 6 14 7 1 8 32 9 15 10 30 11 29 12
REMARK SMILES IDX 5 13 6 14 7 15 8 16 12 17 10 18 9 19 11 21 31 23 18 25 27 26
REMARK SMILES IDX 19 27 25 28 20 29 23 30 28 31 26 33 21 35 22 36 24 38
REMARK H PARENT 9 20 11 22 31 24 28 32 26 34 22 37 24 39
REMARK Flexibility Score: inf
ROOT
ATOM      1  O   UNL     1      26.616   4.482  40.759  1.00  0.00    -0.462 OA
ENDROOT
BRANCH   1   2
ATOM      2  C   UNL     1      27.818   4.826  41.410  1.00  0.00     0.130 A 
ATOM      3  C   UNL     1      32.542   5.546  41.300  1.00  0.00     0.138 A 
ATOM      4  C   UNL     1      32.634   5.514  42.706  1.00  0.00     0.100 A 
ATOM      5  O   UNL     1      31.339   5.442  40.723  1.00  0.00    -0.456 OA
ATOM      6  C   UNL     1      31.469   5.394  43.460  1.00  0.00     0.197 A 
ATOM      7  C   UNL     1      30.208   5.290  41.407  1.00  0.00     0.146 A 
ATOM      8  O   UNL     1      31.565   5.374  44.715  1.00  0.00    -0.289 OA
ATOM      9  C   UNL     1      30.223   5.261  42.817  1.00  0.00     0.107 A 
ATOM     10  C   UNL     1      29.000   5.141  40.713  1.00  0.00     0.094 A 
ATOM     11  C   UNL     1      29.000   5.100  43.516  1.00  0.00     0.134 A 
ATOM     12  C   UNL     1      27.829   4.818  42.803  1.00  0.00     0.093 A 
BRANCH   3  13
ATOM     13  C   UNL     1      33.741   5.697  40.416  1.00  0.00     0.021 A 
ATOM     14  C   UNL     1      34.119   6.933  39.848  1.00  0.00     0.016 A 
ATOM     15  C   UNL     1      35.236   7.031  39.009  1.00  0.00     0.051 A 
ATOM     16  C   UNL     1      36.006   5.899  38.720  1.00  0.00     0.157 A 
ATOM     17  C   UNL     1      34.548   4.575  40.137  1.00  0.00     0.062 A 
ATOM     18  C   UNL     1      35.663   4.671  39.296  1.00  0.00     0.158 A 
BRANCH  16  19
ATOM     19  O   UNL     1      37.107   5.997  37.875  1.00  0.00    -0.504 OA
ATOM     20  H   UNL     1      37.626   5.175  37.593  1.00  0.00     0.293 HD
ENDBRANCH  16  19
BRANCH  18  21
ATOM     21  O   UNL     1      36.415   3.522  39.036  1.00  0.00    -0.504 OA
ATOM     22  H   UNL     1      36.911   3.028  39.763  1.00  0.00     0.293 HD
ENDBRANCH  18  21
ENDBRANCH   3  13
BRANCH  11  23
ATOM     23  O   UNL     1      28.947   5.222  44.902  1.00  0.00    -0.507 OA
ATOM     24  H   UNL     1      28.083   5.178  45.416  1.00  0.00     0.293 HD
ENDBRANCH  11  23
ENDBRANCH   1   2
BRANCH   1  25
ATOM     25  C   UNL     1      25.506   3.806  41.358  1.00  0.00     0.339 C 
ATOM     26  C   UNL     1      24.476   4.836  41.907  1.00  0.00     0.214 C 
ATOM     27  O   UNL     1      24.943   2.946  40.373  1.00  0.00    -0.332 OA
ATOM     28  C   UNL     1      23.333   4.082  42.625  1.00  0.00     0.180 C 
ATOM     29  C   UNL     1      23.561   2.634  40.545  1.00  0.00     0.179 C 
ATOM     30  C   UNL     1      23.105   2.658  42.030  1.00  0.00     0.177 C 
BRANCH  26  31
ATOM     31  O   UNL     1      23.954   5.610  40.860  1.00  0.00    -0.384 OA
ATOM     32  H   UNL     1      24.562   6.382  40.745  1.00  0.00     0.211 HD
ENDBRANCH  26  31
BRANCH  28  33
ATOM     33  O   UNL     1      23.573   4.001  44.011  1.00  0.00    -0.387 OA
ATOM     34  H   UNL     1      22.702   4.126  44.476  1.00  0.00     0.211 HD
ENDBRANCH  28  33
BRANCH  29  35
ATOM     35  C   UNL     1      23.245   1.280  39.860  1.00  0.00     0.191 C 
BRANCH  35  36
ATOM     36  O   UNL     1      23.481   0.202  40.744  1.00  0.00    -0.394 OA
ATOM     37  H   UNL     1      22.836   0.273  41.495  1.00  0.00     0.210 HD
ENDBRANCH  35  36
ENDBRANCH  29  35
BRANCH  30  38
ATOM     38  O   UNL     1      21.752   2.292  42.135  1.00  0.00    -0.387 OA
ATOM     39  H   UNL     1      21.423   2.707  42.978  1.00  0.00     0.211 HD
ENDBRANCH  30  38
ENDBRANCH   1  25
TORSDOF 11
ENDMDL
MODEL 6
REMARK VINA RESULT:    -6.374      5.622     10.268
REMARK INTER + INTRA:         -10.156
REMARK INTER:                  -9.303
REMARK INTRA:                  -0.853
REMARK UNBOUND:                -0.988
REMARK SMILES O=c1cc(-c2ccc(O)c(O)c2)oc2cc(O[C@@H]3O[C@@H](CO)[C@H](O)[C@@H](O)[C@@H]3O)cc(O)c12
REMARK SMILES IDX 17 1 16 2 4 3 3 4 13 5 2 6 14 7 1 8 32 9 15 10 30 11 29 12
REMARK SMILES IDX 5 13 6 14 7 15 8 16 12 17 10 18 9 19 11 21 31 23 18 25 27 26
REMARK SMILES IDX 19 27 25 28 20 29 23 30 28 31 26 33 21 35 22 36 24 38
REMARK H PARENT 9 20 11 22 31 24 28 32 26 34 22 37 24 39
REMARK Flexibility Score: inf
ROOT
ATOM      1  O   UNL     1      24.158   4.824  44.199  1.00  0.00    -0.462 OA
ENDROOT
BRANCH   1   2
ATOM      2  C   UNL     1      25.158   4.946  45.184  1.00  0.00     0.130 A 
ATOM      3  C   UNL     1      29.673   5.910  46.424  1.00  0.00     0.138 A 
ATOM      4  C   UNL     1      29.505   5.325  47.695  1.00  0.00     0.100 A 
ATOM      5  O   UNL     1      28.625   5.977  45.595  1.00  0.00    -0.456 OA
ATOM      6  C   UNL     1      28.248   4.851  48.065  1.00  0.00     0.197 A 
ATOM      7  C   UNL     1      27.418   5.504  45.897  1.00  0.00     0.146 A 
ATOM      8  O   UNL     1      28.111   4.339  49.206  1.00  0.00    -0.289 OA
ATOM      9  C   UNL     1      27.175   4.917  47.156  1.00  0.00     0.107 A 
ATOM     10  C   UNL     1      26.393   5.577  44.944  1.00  0.00     0.094 A 
ATOM     11  C   UNL     1      25.877   4.423  47.446  1.00  0.00     0.134 A 
ATOM     12  C   UNL     1      24.910   4.385  46.436  1.00  0.00     0.093 A 
BRANCH   3  13
ATOM     13  C   UNL     1      30.982   6.466  45.958  1.00  0.00     0.021 A 
ATOM     14  C   UNL     1      31.605   7.571  46.577  1.00  0.00     0.016 A 
ATOM     15  C   UNL     1      32.821   8.075  46.099  1.00  0.00     0.051 A 
ATOM     16  C   UNL     1      33.447   7.487  44.994  1.00  0.00     0.157 A 
ATOM     17  C   UNL     1      31.644   5.869  44.865  1.00  0.00     0.062 A 
ATOM     18  C   UNL     1      32.858   6.375  44.385  1.00  0.00     0.158 A 
BRANCH  16  19
ATOM     19  O   UNL     1      34.647   8.001  44.514  1.00  0.00    -0.504 OA
ATOM     20  H   UNL     1      35.161   8.703  45.031  1.00  0.00     0.293 HD
ENDBRANCH  16  19
BRANCH  18  21
ATOM     21  O   UNL     1      33.460   5.758  43.284  1.00  0.00    -0.504 OA
ATOM     22  H   UNL     1      33.727   6.274  42.459  1.00  0.00     0.293 HD
ENDBRANCH  18  21
ENDBRANCH   3  13
BRANCH  11  23
ATOM     23  O   UNL     1      25.551   3.981  48.726  1.00  0.00    -0.507 OA
ATOM     24  H   UNL     1      25.656   4.562  49.541  1.00  0.00     0.293 HD
ENDBRANCH  11  23
ENDBRANCH   1   2
BRANCH   1  25
ATOM     25  C   UNL     1      24.023   3.739  43.275  1.00  0.00     0.339 C 
ATOM     26  C   UNL     1      22.525   3.341  43.122  1.00  0.00     0.214 C 
ATOM     27  O   UNL     1      24.605   4.147  42.042  1.00  0.00    -0.332 OA
ATOM     28  C   UNL     1      22.416   2.112  42.190  1.00  0.00     0.180 C 
ATOM     29  C   UNL     1      24.097   3.500  40.876  1.00  0.00     0.179 C 
ATOM     30  C   UNL     1      23.578   2.061  41.149  1.00  0.00     0.177 C 
BRANCH  26  31
ATOM     31  O   UNL     1      21.787   4.410  42.593  1.00  0.00    -0.384 OA
ATOM     32  H   UNL     1      22.397   4.909  41.993  1.00  0.00     0.211 HD
ENDBRANCH  26  31
BRANCH  28  33
ATOM     33  O   UNL     1      22.371   0.916  42.933  1.00  0.00    -0.387 OA
ATOM     34  H   UNL     1      22.659   1.128  43.862  1.00  0.00     0.211 HD
ENDBRANCH  28  33
BRANCH  29  35
ATOM     35  C   UNL     1      25.168   3.530  39.757  1.00  0.00     0.191 C 
BRANCH  35  36
ATOM     36  O   UNL     1      24.591   3.891  38.518  1.00  0.00    -0.394 OA
ATOM     37  H   UNL     1      23.962   3.172  38.249  1.00  0.00     0.210 HD
ENDBRANCH  35  36
ENDBRANCH  29  35
BRANCH  30  38
ATOM     38  O   UNL     1      23.141   1.462  39.955  1.00  0.00    -0.387 OA
ATOM     39  H   UNL     1      22.842   2.209  39.369  1.00  0.00     0.211 HD
ENDBRANCH  30  38
ENDBRANCH   1  25
TORSDOF 11
ENDMDL
MODEL 7
REMARK VINA RESULT:    -6.326      2.141      9.669
REMARK INTER + INTRA:         -10.087
REMARK INTER:                  -9.190
REMARK INTRA:                  -0.897
REMARK UNBOUND:                -0.988
REMARK SMILES O=c1cc(-c2ccc(O)c(O)c2)oc2cc(O[C@@H]3O[C@@H](CO)[C@H](O)[C@@H](O)[C@@H]3O)cc(O)c12
REMARK SMILES IDX 17 1 16 2 4 3 3 4 13 5 2 6 14 7 1 8 32 9 15 10 30 11 29 12
REMARK SMILES IDX 5 13 6 14 7 15 8 16 12 17 10 18 9 19 11 21 31 23 18 25 27 26
REMARK SMILES IDX 19 27 25 28 20 29 23 30 28 31 26 33 21 35 22 36 24 38
REMARK H PARENT 9 20 11 22 31 24 28 32 26 34 22 37 24 39
REMARK Flexibility Score: inf
ROOT
ATOM      1  O   UNL     1      20.781  -4.354  45.861  1.00  0.00    -0.462 OA
ENDROOT
BRANCH   1   2
ATOM      2  C   UNL     1      20.194  -3.167  45.379  1.00  0.00     0.130 A 
ATOM      3  C   UNL     1      20.605   1.158  43.384  1.00  0.00     0.138 A 
ATOM      4  C   UNL     1      19.291   1.511  43.751  1.00  0.00     0.100 A 
ATOM      5  O   UNL     1      21.050  -0.073  43.664  1.00  0.00    -0.456 OA
ATOM      6  C   UNL     1      18.482   0.564  44.376  1.00  0.00     0.197 A 
ATOM      7  C   UNL     1      20.322  -0.992  44.291  1.00  0.00     0.146 A 
ATOM      8  O   UNL     1      17.308   0.891  44.691  1.00  0.00    -0.289 OA
ATOM      9  C   UNL     1      18.995  -0.713  44.676  1.00  0.00     0.107 A 
ATOM     10  C   UNL     1      20.892  -2.239  44.583  1.00  0.00     0.094 A 
ATOM     11  C   UNL     1      18.245  -1.716  45.342  1.00  0.00     0.134 A 
ATOM     12  C   UNL     1      18.875  -2.900  45.742  1.00  0.00     0.093 A 
BRANCH   3  13
ATOM     13  C   UNL     1      21.530   2.105  42.687  1.00  0.00     0.021 A 
ATOM     14  C   UNL     1      21.441   3.507  42.835  1.00  0.00     0.016 A 
ATOM     15  C   UNL     1      22.313   4.362  42.151  1.00  0.00     0.051 A 
ATOM     16  C   UNL     1      23.298   3.841  41.305  1.00  0.00     0.157 A 
ATOM     17  C   UNL     1      22.549   1.600  41.854  1.00  0.00     0.062 A 
ATOM     18  C   UNL     1      23.419   2.454  41.167  1.00  0.00     0.158 A 
BRANCH  16  19
ATOM     19  O   UNL     1      24.153   4.695  40.615  1.00  0.00    -0.504 OA
ATOM     20  H   UNL     1      24.812   5.286  41.107  1.00  0.00     0.293 HD
ENDBRANCH  16  19
BRANCH  18  21
ATOM     21  O   UNL     1      24.397   1.899  40.336  1.00  0.00    -0.504 OA
ATOM     22  H   UNL     1      24.262   1.018  39.862  1.00  0.00     0.293 HD
ENDBRANCH  18  21
ENDBRANCH   3  13
BRANCH  11  23
ATOM     23  O   UNL     1      16.887  -1.540  45.599  1.00  0.00    -0.507 OA
ATOM     24  H   UNL     1      16.171  -1.899  44.989  1.00  0.00     0.293 HD
ENDBRANCH  11  23
ENDBRANCH   1   2
BRANCH   1  25
ATOM     25  C   UNL     1      20.220  -5.221  46.852  1.00  0.00     0.339 C 
ATOM     26  C   UNL     1      20.155  -6.683  46.319  1.00  0.00     0.214 C 
ATOM     27  O   UNL     1      21.016  -5.106  48.026  1.00  0.00    -0.332 OA
ATOM     28  C   UNL     1      19.465  -7.580  47.373  1.00  0.00     0.180 C 
ATOM     29  C   UNL     1      21.005  -6.240  48.892  1.00  0.00     0.179 C 
ATOM     30  C   UNL     1      19.682  -7.052  48.825  1.00  0.00     0.177 C 
BRANCH  26  31
ATOM     31  O   UNL     1      21.445  -7.164  46.053  1.00  0.00    -0.384 OA
ATOM     32  H   UNL     1      21.369  -7.766  45.271  1.00  0.00     0.211 HD
ENDBRANCH  26  31
BRANCH  28  33
ATOM     33  O   UNL     1      18.089  -7.713  47.100  1.00  0.00    -0.387 OA
ATOM     34  H   UNL     1      17.596  -7.157  47.762  1.00  0.00     0.211 HD
ENDBRANCH  28  33
BRANCH  29  35
ATOM     35  C   UNL     1      21.342  -5.793  50.337  1.00  0.00     0.191 C 
BRANCH  35  36
ATOM     36  O   UNL     1      21.740  -6.897  51.126  1.00  0.00    -0.394 OA
ATOM     37  H   UNL     1      21.510  -7.727  50.633  1.00  0.00     0.210 HD
ENDBRANCH  35  36
ENDBRANCH  29  35
BRANCH  30  38
ATOM     38  O   UNL     1      19.715  -8.121  49.737  1.00  0.00    -0.387 OA
ATOM     39  H   UNL     1      20.542  -7.993  50.277  1.00  0.00     0.211 HD
ENDBRANCH  30  38
ENDBRANCH   1  25
TORSDOF 11
ENDMDL
MODEL 8
REMARK VINA RESULT:    -6.317      1.643      8.919
REMARK INTER + INTRA:         -10.075
REMARK INTER:                  -9.309
REMARK INTRA:                  -0.766
REMARK UNBOUND:                -0.988
REMARK SMILES O=c1cc(-c2ccc(O)c(O)c2)oc2cc(O[C@@H]3O[C@@H](CO)[C@H](O)[C@@H](O)[C@@H]3O)cc(O)c12
REMARK SMILES IDX 17 1 16 2 4 3 3 4 13 5 2 6 14 7 1 8 32 9 15 10 30 11 29 12
REMARK SMILES IDX 5 13 6 14 7 15 8 16 12 17 10 18 9 19 11 21 31 23 18 25 27 26
REMARK SMILES IDX 19 27 25 28 20 29 23 30 28 31 26 33 21 35 22 36 24 38
REMARK H PARENT 9 20 11 22 31 24 28 32 26 34 22 37 24 39
REMARK Flexibility Score: inf
ROOT
ATOM      1  O   UNL     1      20.014  -3.347  45.368  1.00  0.00    -0.462 OA
ENDROOT
BRANCH   1   2
ATOM      2  C   UNL     1      19.978  -1.988  44.999  1.00  0.00     0.130 A 
ATOM      3  C   UNL     1      21.885   1.746  42.702  1.00  0.00     0.138 A 
ATOM      4  C   UNL     1      21.075   2.660  43.404  1.00  0.00     0.100 A 
ATOM      5  O   UNL     1      21.726   0.435  42.920  1.00  0.00    -0.456 OA
ATOM      6  C   UNL     1      20.117   2.176  44.293  1.00  0.00     0.197 A 
ATOM      7  C   UNL     1      20.848  -0.065  43.785  1.00  0.00     0.146 A 
ATOM      8  O   UNL     1      19.395   3.004  44.907  1.00  0.00    -0.289 OA
ATOM      9  C   UNL     1      19.996   0.790  44.514  1.00  0.00     0.107 A 
ATOM     10  C   UNL     1      20.788  -1.451  43.981  1.00  0.00     0.094 A 
ATOM     11  C   UNL     1      19.071   0.226  45.428  1.00  0.00     0.134 A 
ATOM     12  C   UNL     1      19.121  -1.145  45.705  1.00  0.00     0.093 A 
BRANCH   3  13
ATOM     13  C   UNL     1      22.920   2.179  41.712  1.00  0.00     0.021 A 
ATOM     14  C   UNL     1      23.114   1.527  40.475  1.00  0.00     0.016 A 
ATOM     15  C   UNL     1      24.107   1.950  39.583  1.00  0.00     0.051 A 
ATOM     16  C   UNL     1      24.929   3.037  39.902  1.00  0.00     0.157 A 
ATOM     17  C   UNL     1      23.738   3.291  42.000  1.00  0.00     0.062 A 
ATOM     18  C   UNL     1      24.733   3.713  41.110  1.00  0.00     0.158 A 
BRANCH  16  19
ATOM     19  O   UNL     1      25.924   3.445  39.019  1.00  0.00    -0.504 OA
ATOM     20  H   UNL     1      26.289   2.817  38.314  1.00  0.00     0.293 HD
ENDBRANCH  16  19
BRANCH  18  21
ATOM     21  O   UNL     1      25.531   4.808  41.457  1.00  0.00    -0.504 OA
ATOM     22  H   UNL     1      25.434   5.283  42.342  1.00  0.00     0.293 HD
ENDBRANCH  18  21
ENDBRANCH   3  13
BRANCH  11  23
ATOM     23  O   UNL     1      18.107   1.017  46.050  1.00  0.00    -0.507 OA
ATOM     24  H   UNL     1      17.296   0.626  46.500  1.00  0.00     0.293 HD
ENDBRANCH  11  23
ENDBRANCH   1   2
BRANCH   1  25
ATOM     25  C   UNL     1      21.188  -4.089  45.712  1.00  0.00     0.339 C 
ATOM     26  C   UNL     1      21.514  -3.916  47.225  1.00  0.00     0.214 C 
ATOM     27  O   UNL     1      20.960  -5.448  45.359  1.00  0.00    -0.332 OA
ATOM     28  C   UNL     1      22.834  -4.652  47.552  1.00  0.00     0.180 C 
ATOM     29  C   UNL     1      21.707  -6.412  46.100  1.00  0.00     0.179 C 
ATOM     30  C   UNL     1      23.071  -5.873  46.609  1.00  0.00     0.177 C 
BRANCH  26  31
ATOM     31  O   UNL     1      20.472  -4.430  48.012  1.00  0.00    -0.384 OA
ATOM     32  H   UNL     1      20.169  -5.265  47.574  1.00  0.00     0.211 HD
ENDBRANCH  26  31
BRANCH  28  33
ATOM     33  O   UNL     1      23.931  -3.771  47.498  1.00  0.00    -0.387 OA
ATOM     34  H   UNL     1      23.725  -2.997  48.090  1.00  0.00     0.211 HD
ENDBRANCH  28  33
BRANCH  29  35
ATOM     35  C   UNL     1      21.867  -7.703  45.258  1.00  0.00     0.191 C 
BRANCH  35  36
ATOM     36  O   UNL     1      22.163  -7.391  43.911  1.00  0.00    -0.394 OA
ATOM     37  H   UNL     1      22.303  -8.242  43.420  1.00  0.00     0.210 HD
ENDBRANCH  35  36
ENDBRANCH  29  35
BRANCH  30  38
ATOM     38  O   UNL     1      23.778  -6.884  47.283  1.00  0.00    -0.387 OA
ATOM     39  H   UNL     1      23.131  -7.630  47.412  1.00  0.00     0.211 HD
ENDBRANCH  30  38
ENDBRANCH   1  25
TORSDOF 11
ENDMDL
MODEL 9
REMARK VINA RESULT:    -6.277      6.451     12.153
REMARK INTER + INTRA:         -10.016
REMARK INTER:                  -8.968
REMARK INTRA:                  -1.048
REMARK UNBOUND:                -0.988
REMARK SMILES O=c1cc(-c2ccc(O)c(O)c2)oc2cc(O[C@@H]3O[C@@H](CO)[C@H](O)[C@@H](O)[C@@H]3O)cc(O)c12
REMARK SMILES IDX 17 1 16 2 4 3 3 4 13 5 2 6 14 7 1 8 32 9 15 10 30 11 29 12
REMARK SMILES IDX 5 13 6 14 7 15 8 16 12 17 10 18 9 19 11 21 31 23 18 25 27 26
REMARK SMILES IDX 19 27 25 28 20 29 23 30 28 31 26 33 21 35 22 36 24 38
REMARK H PARENT 9 20 11 22 31 24 28 32 26 34 22 37 24 39
REMARK Flexibility Score: inf
ROOT
ATOM      1  O   UNL     1      23.681  -4.647  53.874  1.00  0.00    -0.462 OA
ENDROOT
BRANCH   1   2
ATOM      2  C   UNL     1      23.610  -4.379  52.493  1.00  0.00     0.130 A 
ATOM      3  C   UNL     1      23.769  -1.291  48.847  1.00  0.00     0.138 A 
ATOM      4  C   UNL     1      23.192  -2.223  47.962  1.00  0.00     0.100 A 
ATOM      5  O   UNL     1      24.032  -1.664  50.105  1.00  0.00    -0.456 OA
ATOM      6  C   UNL     1      22.929  -3.515  48.413  1.00  0.00     0.197 A 
ATOM      7  C   UNL     1      23.762  -2.875  50.583  1.00  0.00     0.146 A 
ATOM      8  O   UNL     1      22.421  -4.339  47.609  1.00  0.00    -0.289 OA
ATOM      9  C   UNL     1      23.196  -3.863  49.751  1.00  0.00     0.107 A 
ATOM     10  C   UNL     1      24.029  -3.158  51.929  1.00  0.00     0.094 A 
ATOM     11  C   UNL     1      22.922  -5.145  50.291  1.00  0.00     0.134 A 
ATOM     12  C   UNL     1      23.070  -5.362  51.666  1.00  0.00     0.093 A 
BRANCH   3  13
ATOM     13  C   UNL     1      24.107   0.108  48.437  1.00  0.00     0.021 A 
ATOM     14  C   UNL     1      23.942   0.578  47.116  1.00  0.00     0.016 A 
ATOM     15  C   UNL     1      24.288   1.888  46.767  1.00  0.00     0.051 A 
ATOM     16  C   UNL     1      24.804   2.765  47.727  1.00  0.00     0.157 A 
ATOM     17  C   UNL     1      24.600   1.017  49.397  1.00  0.00     0.062 A 
ATOM     18  C   UNL     1      24.950   2.327  49.047  1.00  0.00     0.158 A 
BRANCH  16  19
ATOM     19  O   UNL     1      25.161   4.062  47.373  1.00  0.00    -0.504 OA
ATOM     20  H   UNL     1      25.047   4.833  48.020  1.00  0.00     0.293 HD
ENDBRANCH  16  19
BRANCH  18  21
ATOM     21  O   UNL     1      25.455   3.178  50.035  1.00  0.00    -0.504 OA
ATOM     22  H   UNL     1      25.521   4.176  49.900  1.00  0.00     0.293 HD
ENDBRANCH  18  21
ENDBRANCH   3  13
BRANCH  11  23
ATOM     23  O   UNL     1      22.511  -6.194  49.471  1.00  0.00    -0.507 OA
ATOM     24  H   UNL     1      22.433  -6.099  48.472  1.00  0.00     0.293 HD
ENDBRANCH  11  23
ENDBRANCH   1   2
BRANCH   1  25
ATOM     25  C   UNL     1      22.731  -4.225  54.857  1.00  0.00     0.339 C 
ATOM     26  C   UNL     1      23.436  -3.393  55.970  1.00  0.00     0.214 C 
ATOM     27  O   UNL     1      21.716  -3.486  54.188  1.00  0.00    -0.332 OA
ATOM     28  C   UNL     1      22.406  -3.026  57.063  1.00  0.00     0.180 C 
ATOM     29  C   UNL     1      21.024  -2.527  54.986  1.00  0.00     0.179 C 
ATOM     30  C   UNL     1      20.959  -2.910  56.490  1.00  0.00     0.177 C 
BRANCH  26  31
ATOM     31  O   UNL     1      23.994  -2.226  55.427  1.00  0.00    -0.384 OA
ATOM     32  H   UNL     1      23.776  -1.489  56.051  1.00  0.00     0.211 HD
ENDBRANCH  26  31
BRANCH  28  33
ATOM     33  O   UNL     1      22.441  -3.955  58.122  1.00  0.00    -0.387 OA
ATOM     34  H   UNL     1      21.731  -4.632  57.952  1.00  0.00     0.211 HD
ENDBRANCH  28  33
BRANCH  29  35
ATOM     35  C   UNL     1      19.616  -2.274  54.388  1.00  0.00     0.191 C 
BRANCH  35  36
ATOM     36  O   UNL     1      19.279  -0.902  54.457  1.00  0.00    -0.394 OA
ATOM     37  H   UNL     1      18.889  -0.725  55.353  1.00  0.00     0.210 HD
ENDBRANCH  35  36
ENDBRANCH  29  35
BRANCH  30  38
ATOM     38  O   UNL     1      20.221  -1.954  57.209  1.00  0.00    -0.387 OA
ATOM     39  H   UNL     1      19.637  -1.503  56.541  1.00  0.00     0.211 HD
ENDBRANCH  30  38
ENDBRANCH   1  25
TORSDOF 11
ENDMDL
