MODEL 1
REMARK VINA RESULT:    -2.224      0.000      0.000
REMARK INTER + INTRA:          -3.615
REMARK INTER:                  -3.395
REMARK INTRA:                  -0.220
REMARK UNBOUND:                -0.220
REMARK SMILES CC1=CCC[C@@H](C)C(=O)C[C@H](C(C)C)C(=O)C1
REMARK SMILES IDX 8 1 9 2 6 3 7 4 5 5 4 6 3 7 2 8 1 9 10 11 11 12 15 13 16 14
REMARK SMILES IDX 17 15 12 17 13 18 14 19
REMARK H PARENT
REMARK Flexibility Score: 70.00
ROOT
ATOM      1  C   UNL     1      79.721   2.837  64.883  1.00  0.00     0.136 C 
ATOM      2  O   UNL     1      80.145   1.752  64.511  1.00  0.00    -0.299 OA
ENDROOT
BRANCH   1   3
ATOM      3  C   UNL     1      79.276   3.017  66.321  1.00  0.00     0.053 C 
ATOM      4  C   UNL     1      80.397   2.530  67.246  1.00  0.00     0.016 C 
BRANCH   3   5
ATOM      5  C   UNL     1      77.960   2.267  66.637  1.00  0.00     0.015 C 
BRANCH   5   6
ATOM      6  C   UNL     1      76.692   3.125  66.494  1.00  0.00     0.028 C 
BRANCH   6   7
ATOM      7  C   UNL     1      75.935   2.837  65.220  1.00  0.00    -0.028 C 
ATOM      8  C   UNL     1      75.932   3.608  64.107  1.00  0.00    -0.070 CG0
ATOM      9  C   UNL     1      74.990   3.224  62.992  1.00  0.00     0.039 C 
ATOM     10  G   UNL     1      76.748   4.882  63.972  1.00  0.00     0.000 G0
ENDBRANCH   6   7
ENDBRANCH   5   6
ENDBRANCH   3   5
ENDBRANCH   1   3
BRANCH   1  11
ATOM     11  C   UNL     1      79.788   4.015  63.938  1.00  0.00     0.087 C 
BRANCH  11  12
ATOM     12  C   UNL     1      78.860   3.855  62.701  1.00  0.00     0.066 C 
BRANCH  12  13
ATOM     13  C   UNL     1      77.682   4.830  62.761  1.00  0.00     0.140 C 
ATOM     14  O   UNL     1      77.456   5.586  61.825  1.00  0.00    -0.299 OA
BRANCH  13  15
ATOM     15  C   UNL     1      76.768   4.895  63.959  1.00  0.00     0.106 CG0
ATOM     16  G   UNL     1      75.931   3.637  64.116  1.00  0.00     0.000 G0
ENDBRANCH  13  15
ENDBRANCH  12  13
BRANCH  12  17
ATOM     17  C   UNL     1      79.639   3.952  61.347  1.00  0.00    -0.006 C 
ATOM     18  C   UNL     1      80.029   2.566  60.805  1.00  0.00     0.008 C 
ATOM     19  C   UNL     1      80.879   4.862  61.420  1.00  0.00     0.008 C 
ENDBRANCH  12  17
ENDBRANCH  11  12
ENDBRANCH   1  11
TORSDOF 1
ENDMDL
MODEL 2
REMARK VINA RESULT:    -2.046      1.673      4.052
REMARK INTER + INTRA:          -3.343
REMARK INTER:                  -3.033
REMARK INTRA:                  -0.310
REMARK UNBOUND:                -0.220
REMARK SMILES CC1=CCC[C@@H](C)C(=O)C[C@H](C(C)C)C(=O)C1
REMARK SMILES IDX 8 1 9 2 6 3 7 4 5 5 4 6 3 7 2 8 1 9 10 11 11 12 15 13 16 14
REMARK SMILES IDX 17 15 12 17 13 18 14 19
REMARK H PARENT
REMARK Flexibility Score: 70.00
ROOT
ATOM      1  C   UNL     1      79.542   1.415  63.285  1.00  0.00     0.136 C 
ATOM      2  O   UNL     1      80.458   0.625  63.463  1.00  0.00    -0.299 OA
ENDROOT
BRANCH   1   3
ATOM      3  C   UNL     1      79.381   2.086  61.935  1.00  0.00     0.053 C 
ATOM      4  C   UNL     1      79.894   1.134  60.850  1.00  0.00     0.016 C 
BRANCH   3   5
ATOM      5  C   UNL     1      80.123   3.442  61.850  1.00  0.00     0.015 C 
BRANCH   5   6
ATOM      6  C   UNL     1      79.204   4.672  61.923  1.00  0.00     0.028 C 
BRANCH   6   7
ATOM      7  C   UNL     1      77.741   4.314  61.806  1.00  0.00    -0.028 C 
ATOM      8  C   UNL     1      76.825   4.382  62.801  1.00  0.00    -0.070 CG0
ATOM      9  C   UNL     1      75.446   3.836  62.521  1.00  0.00     0.039 C 
ATOM     10  G   UNL     1      77.148   4.882  64.199  1.00  0.00     0.000 G0
ENDBRANCH   6   7
ENDBRANCH   5   6
ENDBRANCH   3   5
ENDBRANCH   1   3
BRANCH   1  11
ATOM     11  C   UNL     1      78.504   1.594  64.369  1.00  0.00     0.087 C 
BRANCH  11  12
ATOM     12  C   UNL     1      78.680   2.917  65.166  1.00  0.00     0.066 C 
BRANCH  12  13
ATOM     13  C   UNL     1      77.383   3.730  65.185  1.00  0.00     0.140 C 
ATOM     14  O   UNL     1      76.501   3.469  65.992  1.00  0.00    -0.299 OA
BRANCH  13  15
ATOM     15  C   UNL     1      77.147   4.868  64.222  1.00  0.00     0.106 CG0
ATOM     16  G   UNL     1      76.798   4.379  62.826  1.00  0.00     0.000 G0
ENDBRANCH  13  15
ENDBRANCH  12  13
BRANCH  12  17
ATOM     17  C   UNL     1      79.250   2.683  66.605  1.00  0.00    -0.006 C 
ATOM     18  C   UNL     1      80.753   3.001  66.688  1.00  0.00     0.008 C 
ATOM     19  C   UNL     1      78.975   1.267  67.147  1.00  0.00     0.008 C 
ENDBRANCH  12  17
ENDBRANCH  11  12
ENDBRANCH   1  11
TORSDOF 1
ENDMDL
MODEL 3
REMARK VINA RESULT:    -1.919      2.078      2.919
REMARK INTER + INTRA:          -3.149
REMARK INTER:                  -3.316
REMARK INTRA:                   0.167
REMARK UNBOUND:                -0.220
REMARK SMILES CC1=CCC[C@@H](C)C(=O)C[C@H](C(C)C)C(=O)C1
REMARK SMILES IDX 8 1 9 2 6 3 7 4 5 5 4 6 3 7 2 8 1 9 10 11 11 12 15 13 16 14
REMARK SMILES IDX 17 15 12 17 13 18 14 19
REMARK H PARENT
REMARK Flexibility Score: 70.00
ROOT
ATOM      1  C   UNL     1      79.776   3.601  62.792  1.00  0.00     0.136 C 
ATOM      2  O   UNL     1      79.715   2.428  62.452  1.00  0.00    -0.299 OA
ENDROOT
BRANCH   1   3
ATOM      3  C   UNL     1      79.466   3.985  64.225  1.00  0.00     0.053 C 
ATOM      4  C   UNL     1      79.971   2.874  65.151  1.00  0.00     0.016 C 
BRANCH   3   5
ATOM      5  C   UNL     1      77.957   4.234  64.464  1.00  0.00     0.015 C 
BRANCH   5   6
ATOM      6  C   UNL     1      77.411   5.503  63.791  1.00  0.00     0.028 C 
BRANCH   6   7
ATOM      7  C   UNL     1      76.405   5.201  62.706  1.00  0.00    -0.028 C 
ATOM      8  C   UNL     1      76.593   5.380  61.376  1.00  0.00    -0.070 CG0
ATOM      9  C   UNL     1      75.410   5.158  60.466  1.00  0.00     0.039 C 
ATOM     10  G   UNL     1      77.895   5.885  60.779  1.00  0.00     0.000 G0
ENDBRANCH   6   7
ENDBRANCH   5   6
ENDBRANCH   3   5
ENDBRANCH   1   3
BRANCH   1  11
ATOM     11  C   UNL     1      80.303   4.624  61.811  1.00  0.00     0.087 C 
BRANCH  11  12
ATOM     12  C   UNL     1      79.965   4.277  60.333  1.00  0.00     0.066 C 
BRANCH  12  13
ATOM     13  C   UNL     1      78.599   4.839  59.930  1.00  0.00     0.140 C 
ATOM     14  O   UNL     1      78.044   4.446  58.913  1.00  0.00    -0.299 OA
BRANCH  13  15
ATOM     15  C   UNL     1      77.895   5.883  60.762  1.00  0.00     0.106 CG0
ATOM     16  G   UNL     1      76.609   5.360  61.378  1.00  0.00     0.000 G0
ENDBRANCH  13  15
ENDBRANCH  12  13
BRANCH  12  17
ATOM     17  C   UNL     1      81.096   4.707  59.340  1.00  0.00    -0.006 C 
ATOM     18  C   UNL     1      81.745   3.496  58.648  1.00  0.00     0.008 C 
ATOM     19  C   UNL     1      82.177   5.590  59.991  1.00  0.00     0.008 C 
ENDBRANCH  12  17
ENDBRANCH  11  12
ENDBRANCH   1  11
TORSDOF 1
ENDMDL
MODEL 4
REMARK VINA RESULT:    -1.873      2.869      5.438
REMARK INTER + INTRA:          -3.079
REMARK INTER:                  -3.322
REMARK INTRA:                   0.244
REMARK UNBOUND:                -0.220
REMARK SMILES CC1=CCC[C@@H](C)C(=O)C[C@H](C(C)C)C(=O)C1
REMARK SMILES IDX 8 1 9 2 6 3 7 4 5 5 4 6 3 7 2 8 1 9 10 11 11 12 15 13 16 14
REMARK SMILES IDX 17 15 12 17 13 18 14 19
REMARK H PARENT
REMARK Flexibility Score: 70.00
ROOT
ATOM      1  C   UNL     1      79.355   3.688  64.222  1.00  0.00     0.136 C 
ATOM      2  O   UNL     1      78.655   4.659  64.475  1.00  0.00    -0.299 OA
ENDROOT
BRANCH   1   3
ATOM      3  C   UNL     1      79.506   3.224  62.787  1.00  0.00     0.053 C 
ATOM      4  C   UNL     1      78.331   3.770  61.969  1.00  0.00     0.016 C 
BRANCH   3   5
ATOM      5  C   UNL     1      79.572   1.682  62.662  1.00  0.00     0.015 C 
BRANCH   5   6
ATOM      6  C   UNL     1      78.260   0.963  63.013  1.00  0.00     0.028 C 
BRANCH   6   7
ATOM      7  C   UNL     1      78.473  -0.479  63.408  1.00  0.00    -0.028 C 
ATOM      8  C   UNL     1      78.515  -0.959  64.673  1.00  0.00    -0.070 CG0
ATOM      9  C   UNL     1      78.889  -2.409  64.861  1.00  0.00     0.039 C 
ATOM     10  G   UNL     1      78.306  -0.089  65.901  1.00  0.00     0.000 G0
ENDBRANCH   6   7
ENDBRANCH   5   6
ENDBRANCH   3   5
ENDBRANCH   1   3
BRANCH   1  11
ATOM     11  C   UNL     1      80.172   3.064  65.330  1.00  0.00     0.087 C 
BRANCH  11  12
ATOM     12  C   UNL     1      79.303   2.298  66.368  1.00  0.00     0.066 C 
BRANCH  12  13
ATOM     13  C   UNL     1      79.468   0.783  66.219  1.00  0.00     0.140 C 
ATOM     14  O   UNL     1      80.569   0.266  66.346  1.00  0.00    -0.299 OA
BRANCH  13  15
ATOM     15  C   UNL     1      78.294  -0.115  65.914  1.00  0.00     0.106 CG0
ATOM     16  G   UNL     1      78.516  -0.951  64.666  1.00  0.00     0.000 G0
ENDBRANCH  13  15
ENDBRANCH  12  13
BRANCH  12  17
ATOM     17  C   UNL     1      79.555   2.778  67.836  1.00  0.00    -0.006 C 
ATOM     18  C   UNL     1      81.053   2.821  68.180  1.00  0.00     0.008 C 
ATOM     19  C   UNL     1      78.792   1.950  68.888  1.00  0.00     0.008 C 
ENDBRANCH  12  17
ENDBRANCH  11  12
ENDBRANCH   1  11
TORSDOF 1
ENDMDL
MODEL 5
REMARK VINA RESULT:    -1.857      2.783      3.654
REMARK INTER + INTRA:          -3.054
REMARK INTER:                  -2.983
REMARK INTRA:                  -0.072
REMARK UNBOUND:                -0.220
REMARK SMILES CC1=CCC[C@@H](C)C(=O)C[C@H](C(C)C)C(=O)C1
REMARK SMILES IDX 8 1 9 2 6 3 7 4 5 5 4 6 3 7 2 8 1 9 10 11 11 12 15 13 16 14
REMARK SMILES IDX 17 15 12 17 13 18 14 19
REMARK H PARENT
REMARK Flexibility Score: 70.00
ROOT
ATOM      1  C   UNL     1      78.724   2.370  66.544  1.00  0.00     0.136 C 
ATOM      2  O   UNL     1      79.232   2.887  67.529  1.00  0.00    -0.299 OA
ENDROOT
BRANCH   1   3
ATOM      3  C   UNL     1      78.510   0.869  66.509  1.00  0.00     0.053 C 
ATOM      4  C   UNL     1      77.766   0.451  67.782  1.00  0.00     0.016 C 
BRANCH   3   5
ATOM      5  C   UNL     1      79.835   0.080  66.381  1.00  0.00     0.015 C 
BRANCH   5   6
ATOM      6  C   UNL     1      80.291  -0.161  64.933  1.00  0.00     0.028 C 
BRANCH   6   7
ATOM      7  C   UNL     1      79.187  -0.703  64.057  1.00  0.00    -0.028 C 
ATOM      8  C   UNL     1      78.668  -0.094  62.965  1.00  0.00    -0.070 CG0
ATOM      9  C   UNL     1      77.465  -0.732  62.313  1.00  0.00     0.039 C 
ATOM     10  G   UNL     1      79.172   1.237  62.434  1.00  0.00     0.000 G0
ENDBRANCH   6   7
ENDBRANCH   5   6
ENDBRANCH   3   5
ENDBRANCH   1   3
BRANCH   1  11
ATOM     11  C   UNL     1      78.187   3.256  65.444  1.00  0.00     0.087 C 
BRANCH  11  12
ATOM     12  C   UNL     1      79.081   3.254  64.172  1.00  0.00     0.066 C 
BRANCH  12  13
ATOM     13  C   UNL     1      78.453   2.420  63.053  1.00  0.00     0.140 C 
ATOM     14  O   UNL     1      77.337   2.693  62.631  1.00  0.00    -0.299 OA
BRANCH  13  15
ATOM     15  C   UNL     1      79.175   1.246  62.439  1.00  0.00     0.106 CG0
ATOM     16  G   UNL     1      78.669  -0.084  62.968  1.00  0.00     0.000 G0
ENDBRANCH  13  15
ENDBRANCH  12  13
BRANCH  12  17
ATOM     17  C   UNL     1      79.453   4.698  63.694  1.00  0.00    -0.006 C 
ATOM     18  C   UNL     1      78.249   5.653  63.756  1.00  0.00     0.008 C 
ATOM     19  C   UNL     1      80.087   4.732  62.290  1.00  0.00     0.008 C 
ENDBRANCH  12  17
ENDBRANCH  11  12
ENDBRANCH   1  11
TORSDOF 1
ENDMDL
MODEL 6
REMARK VINA RESULT:    -1.803      2.470      4.862
REMARK INTER + INTRA:          -2.972
REMARK INTER:                  -2.885
REMARK INTRA:                  -0.087
REMARK UNBOUND:                -0.220
REMARK SMILES CC1=CCC[C@@H](C)C(=O)C[C@H](C(C)C)C(=O)C1
REMARK SMILES IDX 8 1 9 2 6 3 7 4 5 5 4 6 3 7 2 8 1 9 10 11 11 12 15 13 16 14
REMARK SMILES IDX 17 15 12 17 13 18 14 19
REMARK H PARENT
REMARK Flexibility Score: 70.00
ROOT
ATOM      1  C   UNL     1      79.313   3.992  63.614  1.00  0.00     0.136 C 
ATOM      2  O   UNL     1      79.183   5.177  63.889  1.00  0.00    -0.299 OA
ENDROOT
BRANCH   1   3
ATOM      3  C   UNL     1      78.751   3.457  62.312  1.00  0.00     0.053 C 
ATOM      4  C   UNL     1      79.326   4.281  61.154  1.00  0.00     0.016 C 
BRANCH   3   5
ATOM      5  C   UNL     1      77.204   3.488  62.272  1.00  0.00     0.015 C 
BRANCH   5   6
ATOM      6  C   UNL     1      76.535   2.161  62.663  1.00  0.00     0.028 C 
BRANCH   6   7
ATOM      7  C   UNL     1      77.185   0.965  62.009  1.00  0.00    -0.028 C 
ATOM      8  C   UNL     1      77.903   0.007  62.641  1.00  0.00    -0.070 CG0
ATOM      9  C   UNL     1      78.598  -1.026  61.787  1.00  0.00     0.039 C 
ATOM     10  G   UNL     1      78.121  -0.017  64.145  1.00  0.00     0.000 G0
ENDBRANCH   6   7
ENDBRANCH   5   6
ENDBRANCH   3   5
ENDBRANCH   1   3
BRANCH   1  11
ATOM     11  C   UNL     1      80.160   3.119  64.511  1.00  0.00     0.087 C 
BRANCH  11  12
ATOM     12  C   UNL     1      79.331   2.045  65.272  1.00  0.00     0.066 C 
BRANCH  12  13
ATOM     13  C   UNL     1      79.385   0.693  64.557  1.00  0.00     0.140 C 
ATOM     14  O   UNL     1      80.462   0.170  64.303  1.00  0.00    -0.299 OA
BRANCH  13  15
ATOM     15  C   UNL     1      78.130  -0.035  64.143  1.00  0.00     0.106 CG0
ATOM     16  G   UNL     1      77.910   0.002  62.640  1.00  0.00     0.000 G0
ENDBRANCH  13  15
ENDBRANCH  12  13
BRANCH  12  17
ATOM     17  C   UNL     1      79.732   1.932  66.780  1.00  0.00    -0.006 C 
ATOM     18  C   UNL     1      78.513   2.047  67.711  1.00  0.00     0.008 C 
ATOM     19  C   UNL     1      80.818   2.940  67.200  1.00  0.00     0.008 C 
ENDBRANCH  12  17
ENDBRANCH  11  12
ENDBRANCH   1  11
TORSDOF 1
ENDMDL
MODEL 7
REMARK VINA RESULT:    -1.761      3.407      4.880
REMARK INTER + INTRA:          -2.908
REMARK INTER:                  -3.078
REMARK INTRA:                   0.170
REMARK UNBOUND:                -0.220
REMARK SMILES CC1=CCC[C@@H](C)C(=O)C[C@H](C(C)C)C(=O)C1
REMARK SMILES IDX 8 1 9 2 6 3 7 4 5 5 4 6 3 7 2 8 1 9 10 11 11 12 15 13 16 14
REMARK SMILES IDX 17 15 12 17 13 18 14 19
REMARK H PARENT
REMARK Flexibility Score: 70.00
ROOT
ATOM      1  C   UNL     1      79.671   2.865  65.030  1.00  0.00     0.136 C 
ATOM      2  O   UNL     1      80.090   3.835  64.417  1.00  0.00    -0.299 OA
ENDROOT
BRANCH   1   3
ATOM      3  C   UNL     1      79.670   2.877  66.546  1.00  0.00     0.053 C 
ATOM      4  C   UNL     1      81.120   2.801  67.038  1.00  0.00     0.016 C 
BRANCH   3   5
ATOM      5  C   UNL     1      78.840   1.720  67.153  1.00  0.00     0.015 C 
BRANCH   5   6
ATOM      6  C   UNL     1      79.666   0.703  67.957  1.00  0.00     0.028 C 
BRANCH   6   7
ATOM      7  C   UNL     1      79.307  -0.727  67.632  1.00  0.00    -0.028 C 
ATOM      8  C   UNL     1      79.736  -1.428  66.556  1.00  0.00    -0.070 CG0
ATOM      9  C   UNL     1      79.142  -2.798  66.331  1.00  0.00     0.039 C 
ATOM     10  G   UNL     1      80.698  -0.866  65.524  1.00  0.00     0.000 G0
ENDBRANCH   6   7
ENDBRANCH   5   6
ENDBRANCH   3   5
ENDBRANCH   1   3
BRANCH   1  11
ATOM     11  C   UNL     1      79.026   1.733  64.263  1.00  0.00     0.087 C 
BRANCH  11  12
ATOM     12  C   UNL     1      80.062   0.801  63.571  1.00  0.00     0.066 C 
BRANCH  12  13
ATOM     13  C   UNL     1      80.055  -0.596  64.196  1.00  0.00     0.140 C 
ATOM     14  O   UNL     1      79.511  -1.528  63.621  1.00  0.00    -0.299 OA
BRANCH  13  15
ATOM     15  C   UNL     1      80.712  -0.871  65.527  1.00  0.00     0.106 CG0
ATOM     16  G   UNL     1      79.737  -1.440  66.544  1.00  0.00     0.000 G0
ENDBRANCH  13  15
ENDBRANCH  12  13
BRANCH  12  17
ATOM     17  C   UNL     1      79.884   0.754  62.017  1.00  0.00    -0.006 C 
ATOM     18  C   UNL     1      81.208   0.449  61.295  1.00  0.00     0.008 C 
ATOM     19  C   UNL     1      79.244   2.029  61.436  1.00  0.00     0.008 C 
ENDBRANCH  12  17
ENDBRANCH  11  12
ENDBRANCH   1  11
TORSDOF 1
ENDMDL
MODEL 8
REMARK VINA RESULT:    -1.758     16.360     17.766
REMARK INTER + INTRA:          -2.904
REMARK INTER:                  -2.640
REMARK INTRA:                  -0.264
REMARK UNBOUND:                -0.220
REMARK SMILES CC1=CCC[C@@H](C)C(=O)C[C@H](C(C)C)C(=O)C1
REMARK SMILES IDX 8 1 9 2 6 3 7 4 5 5 4 6 3 7 2 8 1 9 10 11 11 12 15 13 16 14
REMARK SMILES IDX 17 15 12 17 13 18 14 19
REMARK H PARENT
REMARK Flexibility Score: 70.00
ROOT
ATOM      1  C   UNL     1      67.830  -7.952  55.651  1.00  0.00     0.136 C 
ATOM      2  O   UNL     1      67.713  -8.708  56.605  1.00  0.00    -0.299 OA
ENDROOT
BRANCH   1   3
ATOM      3  C   UNL     1      66.597  -7.502  54.894  1.00  0.00     0.053 C 
ATOM      4  C   UNL     1      66.337  -8.489  53.750  1.00  0.00     0.016 C 
BRANCH   3   5
ATOM      5  C   UNL     1      66.728  -6.063  54.338  1.00  0.00     0.015 C 
BRANCH   5   6
ATOM      6  C   UNL     1      67.005  -5.992  52.828  1.00  0.00     0.028 C 
BRANCH   6   7
ATOM      7  C   UNL     1      67.976  -4.894  52.465  1.00  0.00    -0.028 C 
ATOM      8  C   UNL     1      69.268  -5.066  52.096  1.00  0.00    -0.070 CG0
ATOM      9  C   UNL     1      70.116  -3.830  51.919  1.00  0.00     0.039 C 
ATOM     10  G   UNL     1      69.920  -6.431  51.955  1.00  0.00     0.000 G0
ENDBRANCH   6   7
ENDBRANCH   5   6
ENDBRANCH   3   5
ENDBRANCH   1   3
BRANCH   1  11
ATOM     11  C   UNL     1      69.189  -7.366  55.340  1.00  0.00     0.087 C 
BRANCH  11  12
ATOM     12  C   UNL     1      69.852  -8.004  54.087  1.00  0.00     0.066 C 
BRANCH  12  13
ATOM     13  C   UNL     1      70.534  -6.944  53.220  1.00  0.00     0.140 C 
ATOM     14  O   UNL     1      71.613  -6.472  53.553  1.00  0.00    -0.299 OA
BRANCH  13  15
ATOM     15  C   UNL     1      69.909  -6.446  51.939  1.00  0.00     0.106 CG0
ATOM     16  G   UNL     1      69.276  -5.075  52.101  1.00  0.00     0.000 G0
ENDBRANCH  13  15
ENDBRANCH  12  13
BRANCH  12  17
ATOM     17  C   UNL     1      70.819  -9.180  54.451  1.00  0.00    -0.006 C 
ATOM     18  C   UNL     1      70.147 -10.553  54.282  1.00  0.00     0.008 C 
ATOM     19  C   UNL     1      71.428  -9.056  55.861  1.00  0.00     0.008 C 
ENDBRANCH  12  17
ENDBRANCH  11  12
ENDBRANCH   1  11
TORSDOF 1
ENDMDL
MODEL 9
REMARK VINA RESULT:    -1.758      1.539      4.126
REMARK INTER + INTRA:          -2.903
REMARK INTER:                  -2.860
REMARK INTRA:                  -0.043
REMARK UNBOUND:                -0.220
REMARK SMILES CC1=CCC[C@@H](C)C(=O)C[C@H](C(C)C)C(=O)C1
REMARK SMILES IDX 8 1 9 2 6 3 7 4 5 5 4 6 3 7 2 8 1 9 10 11 11 12 15 13 16 14
REMARK SMILES IDX 17 15 12 17 13 18 14 19
REMARK H PARENT
REMARK Flexibility Score: 70.00
ROOT
ATOM      1  C   UNL     1      79.742   3.771  62.890  1.00  0.00     0.136 C 
ATOM      2  O   UNL     1      80.325   4.786  63.247  1.00  0.00    -0.299 OA
ENDROOT
BRANCH   1   3
ATOM      3  C   UNL     1      79.123   3.708  61.508  1.00  0.00     0.053 C 
ATOM      4  C   UNL     1      80.215   3.981  60.468  1.00  0.00     0.016 C 
BRANCH   3   5
ATOM      5  C   UNL     1      77.955   4.709  61.331  1.00  0.00     0.015 C 
BRANCH   5   6
ATOM      6  C   UNL     1      76.961   4.735  62.502  1.00  0.00     0.028 C 
BRANCH   6   7
ATOM      7  C   UNL     1      75.845   3.731  62.341  1.00  0.00    -0.028 C 
ATOM      8  C   UNL     1      75.475   2.801  63.253  1.00  0.00    -0.070 CG0
ATOM      9  C   UNL     1      74.432   1.791  62.841  1.00  0.00     0.039 C 
ATOM     10  G   UNL     1      76.127   2.667  64.619  1.00  0.00     0.000 G0
ENDBRANCH   6   7
ENDBRANCH   5   6
ENDBRANCH   3   5
ENDBRANCH   1   3
BRANCH   1  11
ATOM     11  C   UNL     1      79.781   2.550  63.781  1.00  0.00     0.087 C 
BRANCH  11  12
ATOM     12  C   UNL     1      78.760   2.621  64.952  1.00  0.00     0.066 C 
BRANCH  12  13
ATOM     13  C   UNL     1      77.444   1.932  64.583  1.00  0.00     0.140 C 
ATOM     14  O   UNL     1      77.435   0.757  64.244  1.00  0.00    -0.299 OA
BRANCH  13  15
ATOM     15  C   UNL     1      76.127   2.667  64.624  1.00  0.00     0.106 CG0
ATOM     16  G   UNL     1      75.495   2.795  63.248  1.00  0.00     0.000 G0
ENDBRANCH  13  15
ENDBRANCH  12  13
BRANCH  12  17
ATOM     17  C   UNL     1      79.350   2.084  66.298  1.00  0.00    -0.006 C 
ATOM     18  C   UNL     1      78.384   2.294  67.476  1.00  0.00     0.008 C 
ATOM     19  C   UNL     1      80.734   2.672  66.635  1.00  0.00     0.008 C 
ENDBRANCH  12  17
ENDBRANCH  11  12
ENDBRANCH   1  11
TORSDOF 1
ENDMDL
