MODEL 1
REMARK VINA RESULT:    -7.050      0.000      0.000
REMARK INTER + INTRA:          -8.605
REMARK INTER:                  -8.287
REMARK INTRA:                  -0.318
REMARK UNBOUND:                -0.318
REMARK SMILES O=c1cc(-c2ccc(O)c(O)c2)oc2cc(O)cc(O)c12
REMARK SMILES IDX 4 1 3 2 2 3 1 4 21 5 19 6 18 7 16 8 15 9 14 10 13 11 5 12
REMARK SMILES IDX 6 13 7 14 8 15 12 16 10 17 9 18 11 20 20 22 17 24
REMARK H PARENT 9 19 11 21 20 23 17 25
REMARK Flexibility Score: inf
ROOT
ATOM      1  C   UNL     1     180.113 171.842 172.526  1.00  0.00     0.138 A 
ATOM      2  C   UNL     1     179.111 171.864 171.547  1.00  0.00     0.100 A 
ATOM      3  C   UNL     1     178.109 172.834 171.605  1.00  0.00     0.197 A 
ATOM      4  O   UNL     1     177.190 172.790 170.748  1.00  0.00    -0.289 OA
ATOM      5  C   UNL     1     178.131 173.806 172.634  1.00  0.00     0.107 A 
ATOM      6  C   UNL     1     177.186 174.866 172.770  1.00  0.00     0.134 A 
ATOM      7  C   UNL     1     177.240 175.698 173.894  1.00  0.00     0.093 A 
ATOM      8  C   UNL     1     178.242 175.547 174.856  1.00  0.00     0.123 A 
ATOM      9  C   UNL     1     179.201 174.549 174.705  1.00  0.00     0.094 A 
ATOM     10  C   UNL     1     179.153 173.680 173.612  1.00  0.00     0.146 A 
ATOM     11  O   UNL     1     180.080 172.732 173.512  1.00  0.00    -0.456 OA
ENDROOT
BRANCH   1  12
ATOM     12  C   UNL     1     181.203 170.833 172.510  1.00  0.00     0.021 A 
ATOM     13  C   UNL     1     181.261 169.821 171.532  1.00  0.00     0.016 A 
ATOM     14  C   UNL     1     182.304 168.892 171.536  1.00  0.00     0.051 A 
ATOM     15  C   UNL     1     183.308 168.960 172.508  1.00  0.00     0.157 A 
ATOM     16  C   UNL     1     182.224 170.903 173.476  1.00  0.00     0.062 A 
ATOM     17  C   UNL     1     183.270 169.968 173.478  1.00  0.00     0.158 A 
BRANCH  15  18
ATOM     18  O   UNL     1     184.349 168.033 172.515  1.00  0.00    -0.504 OA
ATOM     19  H   UNL     1     184.473 167.369 171.760  1.00  0.00     0.293 HD
ENDBRANCH  15  18
BRANCH  17  20
ATOM     20  O   UNL     1     184.274 170.036 174.443  1.00  0.00    -0.504 OA
ATOM     21  H   UNL     1     185.255 170.040 174.188  1.00  0.00     0.293 HD
ENDBRANCH  17  20
ENDBRANCH   1  12
BRANCH   6  22
ATOM     22  O   UNL     1     176.197 175.157 171.824  1.00  0.00    -0.507 OA
ATOM     23  H   UNL     1     175.205 175.115 171.995  1.00  0.00     0.293 HD
ENDBRANCH   6  22
BRANCH   8  24
ATOM     24  O   UNL     1     178.297 176.390 175.964  1.00  0.00    -0.508 OA
ATOM     25  H   UNL     1     177.456 176.783 176.373  1.00  0.00     0.293 HD
ENDBRANCH   8  24
TORSDOF 5
ENDMDL
MODEL 2
REMARK VINA RESULT:    -6.965      8.556     13.431
REMARK INTER + INTRA:          -8.504
REMARK INTER:                  -8.186
REMARK INTRA:                  -0.318
REMARK UNBOUND:                -0.318
REMARK SMILES O=c1cc(-c2ccc(O)c(O)c2)oc2cc(O)cc(O)c12
REMARK SMILES IDX 4 1 3 2 2 3 1 4 21 5 19 6 18 7 16 8 15 9 14 10 13 11 5 12
REMARK SMILES IDX 6 13 7 14 8 15 12 16 10 17 9 18 11 20 20 22 17 24
REMARK H PARENT 9 19 11 21 20 23 17 25
REMARK Flexibility Score: inf
ROOT
ATOM      1  C   UNL     1     169.397 177.504 172.464  1.00  0.00     0.138 A 
ATOM      2  C   UNL     1     170.371 177.416 171.460  1.00  0.00     0.100 A 
ATOM      3  C   UNL     1     171.350 176.424 171.532  1.00  0.00     0.197 A 
ATOM      4  O   UNL     1     172.247 176.409 170.650  1.00  0.00    -0.289 OA
ATOM      5  C   UNL     1     171.331 175.495 172.600  1.00  0.00     0.107 A 
ATOM      6  C   UNL     1     172.254 174.417 172.755  1.00  0.00     0.134 A 
ATOM      7  C   UNL     1     172.209 173.632 173.913  1.00  0.00     0.093 A 
ATOM      8  C   UNL     1     171.238 173.848 174.894  1.00  0.00     0.123 A 
ATOM      9  C   UNL     1     170.300 174.864 174.727  1.00  0.00     0.094 A 
ATOM     10  C   UNL     1     170.340 175.687 173.599  1.00  0.00     0.146 A 
ATOM     11  O   UNL     1     169.435 176.653 173.484  1.00  0.00    -0.456 OA
ENDROOT
BRANCH   1  12
ATOM     12  C   UNL     1     168.333 178.539 172.435  1.00  0.00     0.021 A 
ATOM     13  C   UNL     1     168.289 179.528 171.432  1.00  0.00     0.016 A 
ATOM     14  C   UNL     1     167.269 180.483 171.425  1.00  0.00     0.051 A 
ATOM     15  C   UNL     1     166.275 180.465 172.410  1.00  0.00     0.157 A 
ATOM     16  C   UNL     1     167.322 178.520 173.413  1.00  0.00     0.062 A 
ATOM     17  C   UNL     1     166.300 179.481 173.404  1.00  0.00     0.158 A 
BRANCH  15  18
ATOM     18  O   UNL     1     165.259 181.417 172.405  1.00  0.00    -0.504 OA
ATOM     19  H   UNL     1     164.646 181.536 171.606  1.00  0.00     0.293 HD
ENDBRANCH  15  18
BRANCH  17  20
ATOM     20  O   UNL     1     165.306 179.461 174.381  1.00  0.00    -0.504 OA
ATOM     21  H   UNL     1     164.383 179.087 174.193  1.00  0.00     0.293 HD
ENDBRANCH  17  20
ENDBRANCH   1  12
BRANCH   6  22
ATOM     22  O   UNL     1     173.208 174.062 171.797  1.00  0.00    -0.507 OA
ATOM     23  H   UNL     1     173.002 173.632 170.908  1.00  0.00     0.293 HD
ENDBRANCH   6  22
BRANCH   8  24
ATOM     24  O   UNL     1     171.192 173.052 176.037  1.00  0.00    -0.508 OA
ATOM     25  H   UNL     1     171.275 173.453 176.965  1.00  0.00     0.293 HD
ENDBRANCH   8  24
TORSDOF 5
ENDMDL
MODEL 3
REMARK VINA RESULT:    -6.337      4.036      8.129
REMARK INTER + INTRA:          -7.767
REMARK INTER:                  -7.470
REMARK INTRA:                  -0.297
REMARK UNBOUND:                -0.318
REMARK SMILES O=c1cc(-c2ccc(O)c(O)c2)oc2cc(O)cc(O)c12
REMARK SMILES IDX 4 1 3 2 2 3 1 4 21 5 19 6 18 7 16 8 15 9 14 10 13 11 5 12
REMARK SMILES IDX 6 13 7 14 8 15 12 16 10 17 9 18 11 20 20 22 17 24
REMARK H PARENT 9 19 11 21 20 23 17 25
REMARK Flexibility Score: inf
ROOT
ATOM      1  C   UNL     1     174.728 174.592 172.926  1.00  0.00     0.138 A 
ATOM      2  C   UNL     1     175.034 174.559 171.560  1.00  0.00     0.100 A 
ATOM      3  C   UNL     1     176.368 174.558 171.150  1.00  0.00     0.197 A 
ATOM      4  O   UNL     1     176.610 174.591 169.916  1.00  0.00    -0.289 OA
ATOM      5  C   UNL     1     177.401 174.558 172.118  1.00  0.00     0.107 A 
ATOM      6  C   UNL     1     178.795 174.518 171.818  1.00  0.00     0.134 A 
ATOM      7  C   UNL     1     179.727 174.639 172.856  1.00  0.00     0.093 A 
ATOM      8  C   UNL     1     179.316 174.739 174.187  1.00  0.00     0.123 A 
ATOM      9  C   UNL     1     177.958 174.727 174.494  1.00  0.00     0.094 A 
ATOM     10  C   UNL     1     177.002 174.642 173.479  1.00  0.00     0.146 A 
ATOM     11  O   UNL     1     175.716 174.646 173.814  1.00  0.00    -0.456 OA
ENDROOT
BRANCH   1  12
ATOM     12  C   UNL     1     173.326 174.592 173.416  1.00  0.00     0.021 A 
ATOM     13  C   UNL     1     172.316 175.328 172.767  1.00  0.00     0.016 A 
ATOM     14  C   UNL     1     171.003 175.301 173.245  1.00  0.00     0.051 A 
ATOM     15  C   UNL     1     170.675 174.536 174.371  1.00  0.00     0.157 A 
ATOM     16  C   UNL     1     172.985 173.815 174.539  1.00  0.00     0.062 A 
ATOM     17  C   UNL     1     171.667 173.791 175.018  1.00  0.00     0.158 A 
BRANCH  15  18
ATOM     18  O   UNL     1     169.367 174.509 174.850  1.00  0.00    -0.504 OA
ATOM     19  H   UNL     1     168.756 175.314 174.770  1.00  0.00     0.293 HD
ENDBRANCH  15  18
BRANCH  17  20
ATOM     20  O   UNL     1     171.337 173.026 176.136  1.00  0.00    -0.504 OA
ATOM     21  H   UNL     1     172.029 172.459 176.614  1.00  0.00     0.293 HD
ENDBRANCH  17  20
ENDBRANCH   1  12
BRANCH   6  22
ATOM     22  O   UNL     1     179.313 174.335 170.532  1.00  0.00    -0.507 OA
ATOM     23  H   UNL     1     178.923 174.733 169.692  1.00  0.00     0.293 HD
ENDBRANCH   6  22
BRANCH   8  24
ATOM     24  O   UNL     1     180.251 174.846 175.214  1.00  0.00    -0.508 OA
ATOM     25  H   UNL     1     180.012 174.621 176.174  1.00  0.00     0.293 HD
ENDBRANCH   8  24
TORSDOF 5
ENDMDL
MODEL 4
REMARK VINA RESULT:    -6.296      4.522      7.339
REMARK INTER + INTRA:          -7.718
REMARK INTER:                  -7.420
REMARK INTRA:                  -0.297
REMARK UNBOUND:                -0.318
REMARK SMILES O=c1cc(-c2ccc(O)c(O)c2)oc2cc(O)cc(O)c12
REMARK SMILES IDX 4 1 3 2 2 3 1 4 21 5 19 6 18 7 16 8 15 9 14 10 13 11 5 12
REMARK SMILES IDX 6 13 7 14 8 15 12 16 10 17 9 18 11 20 20 22 17 24
REMARK H PARENT 9 19 11 21 20 23 17 25
REMARK Flexibility Score: inf
ROOT
ATOM      1  C   UNL     1     174.533 175.032 172.984  1.00  0.00     0.138 A 
ATOM      2  C   UNL     1     174.226 175.051 171.617  1.00  0.00     0.100 A 
ATOM      3  C   UNL     1     172.891 175.056 171.209  1.00  0.00     0.197 A 
ATOM      4  O   UNL     1     172.647 175.011 169.975  1.00  0.00    -0.289 OA
ATOM      5  C   UNL     1     171.860 175.075 172.178  1.00  0.00     0.107 A 
ATOM      6  C   UNL     1     170.465 175.122 171.880  1.00  0.00     0.134 A 
ATOM      7  C   UNL     1     169.533 175.019 172.919  1.00  0.00     0.093 A 
ATOM      8  C   UNL     1     169.945 174.931 174.251  1.00  0.00     0.123 A 
ATOM      9  C   UNL     1     171.304 174.938 174.557  1.00  0.00     0.094 A 
ATOM     10  C   UNL     1     172.259 175.004 173.539  1.00  0.00     0.146 A 
ATOM     11  O   UNL     1     173.546 174.994 173.873  1.00  0.00    -0.456 OA
ENDROOT
BRANCH   1  12
ATOM     12  C   UNL     1     175.935 175.027 173.472  1.00  0.00     0.021 A 
ATOM     13  C   UNL     1     176.941 174.283 172.826  1.00  0.00     0.016 A 
ATOM     14  C   UNL     1     178.255 174.306 173.302  1.00  0.00     0.051 A 
ATOM     15  C   UNL     1     178.588 175.074 174.423  1.00  0.00     0.157 A 
ATOM     16  C   UNL     1     176.281 175.808 174.590  1.00  0.00     0.062 A 
ATOM     17  C   UNL     1     177.600 175.828 175.068  1.00  0.00     0.158 A 
BRANCH  15  18
ATOM     18  O   UNL     1     179.897 175.098 174.901  1.00  0.00    -0.504 OA
ATOM     19  H   UNL     1     180.181 175.731 175.638  1.00  0.00     0.293 HD
ENDBRANCH  15  18
BRANCH  17  20
ATOM     20  O   UNL     1     177.935 176.597 176.181  1.00  0.00    -0.504 OA
ATOM     21  H   UNL     1     178.390 176.189 176.990  1.00  0.00     0.293 HD
ENDBRANCH  17  20
ENDBRANCH   1  12
BRANCH   6  22
ATOM     22  O   UNL     1     169.948 175.293 170.592  1.00  0.00    -0.507 OA
ATOM     23  H   UNL     1     169.700 176.181 170.183  1.00  0.00     0.293 HD
ENDBRANCH   6  22
BRANCH   8  24
ATOM     24  O   UNL     1     169.011 174.843 175.281  1.00  0.00    -0.508 OA
ATOM     25  H   UNL     1     169.232 175.143 176.224  1.00  0.00     0.293 HD
ENDBRANCH   8  24
TORSDOF 5
ENDMDL
MODEL 5
REMARK VINA RESULT:    -6.285      1.248      2.842
REMARK INTER + INTRA:          -7.705
REMARK INTER:                  -7.411
REMARK INTRA:                  -0.294
REMARK UNBOUND:                -0.318
REMARK SMILES O=c1cc(-c2ccc(O)c(O)c2)oc2cc(O)cc(O)c12
REMARK SMILES IDX 4 1 3 2 2 3 1 4 21 5 19 6 18 7 16 8 15 9 14 10 13 11 5 12
REMARK SMILES IDX 6 13 7 14 8 15 12 16 10 17 9 18 11 20 20 22 17 24
REMARK H PARENT 9 19 11 21 20 23 17 25
REMARK Flexibility Score: inf
ROOT
ATOM      1  C   UNL     1     180.156 171.895 172.558  1.00  0.00     0.138 A 
ATOM      2  C   UNL     1     180.186 172.979 173.444  1.00  0.00     0.100 A 
ATOM      3  C   UNL     1     179.149 173.913 173.429  1.00  0.00     0.197 A 
ATOM      4  O   UNL     1     179.235 174.909 174.193  1.00  0.00    -0.289 OA
ATOM      5  C   UNL     1     178.061 173.740 172.541  1.00  0.00     0.107 A 
ATOM      6  C   UNL     1     176.929 174.606 172.465  1.00  0.00     0.134 A 
ATOM      7  C   UNL     1     175.969 174.400 171.467  1.00  0.00     0.093 A 
ATOM      8  C   UNL     1     176.069 173.325 170.581  1.00  0.00     0.123 A 
ATOM      9  C   UNL     1     177.142 172.444 170.681  1.00  0.00     0.094 A 
ATOM     10  C   UNL     1     178.135 172.642 171.643  1.00  0.00     0.146 A 
ATOM     11  O   UNL     1     179.150 171.785 171.697  1.00  0.00    -0.456 OA
ENDROOT
BRANCH   1  12
ATOM     12  C   UNL     1     181.232 170.872 172.534  1.00  0.00     0.021 A 
ATOM     13  C   UNL     1     181.279 169.871 171.544  1.00  0.00     0.016 A 
ATOM     14  C   UNL     1     182.310 168.928 171.540  1.00  0.00     0.051 A 
ATOM     15  C   UNL     1     183.313 168.970 172.516  1.00  0.00     0.157 A 
ATOM     16  C   UNL     1     182.251 170.917 173.503  1.00  0.00     0.062 A 
ATOM     17  C   UNL     1     183.284 169.968 173.498  1.00  0.00     0.158 A 
BRANCH  15  18
ATOM     18  O   UNL     1     184.340 168.030 172.516  1.00  0.00    -0.504 OA
ATOM     19  H   UNL     1     185.224 168.210 172.978  1.00  0.00     0.293 HD
ENDBRANCH  15  18
BRANCH  17  20
ATOM     20  O   UNL     1     184.286 170.012 174.466  1.00  0.00    -0.504 OA
ATOM     21  H   UNL     1     185.118 169.437 174.396  1.00  0.00     0.293 HD
ENDBRANCH  17  20
ENDBRANCH   1  12
BRANCH   6  22
ATOM     22  O   UNL     1     176.689 175.658 173.355  1.00  0.00    -0.507 OA
ATOM     23  H   UNL     1     175.796 175.869 173.772  1.00  0.00     0.293 HD
ENDBRANCH   6  22
BRANCH   8  24
ATOM     24  O   UNL     1     175.101 173.120 169.600  1.00  0.00    -0.508 OA
ATOM     25  H   UNL     1     174.878 172.190 169.262  1.00  0.00     0.293 HD
ENDBRANCH   8  24
TORSDOF 5
ENDMDL
MODEL 6
REMARK VINA RESULT:    -6.230      8.324     13.436
REMARK INTER + INTRA:          -7.640
REMARK INTER:                  -7.346
REMARK INTRA:                  -0.294
REMARK UNBOUND:                -0.318
REMARK SMILES O=c1cc(-c2ccc(O)c(O)c2)oc2cc(O)cc(O)c12
REMARK SMILES IDX 4 1 3 2 2 3 1 4 21 5 19 6 18 7 16 8 15 9 14 10 13 11 5 12
REMARK SMILES IDX 6 13 7 14 8 15 12 16 10 17 9 18 11 20 20 22 17 24
REMARK H PARENT 9 19 11 21 20 23 17 25
REMARK Flexibility Score: inf
ROOT
ATOM      1  C   UNL     1     169.369 177.495 172.500  1.00  0.00     0.138 A 
ATOM      2  C   UNL     1     169.289 176.389 173.356  1.00  0.00     0.100 A 
ATOM      3  C   UNL     1     170.305 175.433 173.348  1.00  0.00     0.197 A 
ATOM      4  O   UNL     1     170.175 174.420 174.083  1.00  0.00    -0.289 OA
ATOM      5  C   UNL     1     171.424 175.605 172.498  1.00  0.00     0.107 A 
ATOM      6  C   UNL     1     172.539 174.717 172.434  1.00  0.00     0.134 A 
ATOM      7  C   UNL     1     173.534 174.927 171.472  1.00  0.00     0.093 A 
ATOM      8  C   UNL     1     173.485 176.026 170.611  1.00  0.00     0.123 A 
ATOM      9  C   UNL     1     172.428 176.928 170.702  1.00  0.00     0.094 A 
ATOM     10  C   UNL     1     171.401 176.727 171.628  1.00  0.00     0.146 A 
ATOM     11  O   UNL     1     170.404 177.604 171.673  1.00  0.00    -0.456 OA
ENDROOT
BRANCH   1  12
ATOM     12  C   UNL     1     168.316 178.541 172.470  1.00  0.00     0.021 A 
ATOM     13  C   UNL     1     168.299 179.547 171.484  1.00  0.00     0.016 A 
ATOM     14  C   UNL     1     167.290 180.512 171.475  1.00  0.00     0.051 A 
ATOM     15  C   UNL     1     166.278 180.488 172.442  1.00  0.00     0.157 A 
ATOM     16  C   UNL     1     167.288 178.516 173.431  1.00  0.00     0.062 A 
ATOM     17  C   UNL     1     166.276 179.488 173.420  1.00  0.00     0.158 A 
BRANCH  15  18
ATOM     18  O   UNL     1     165.272 181.451 172.435  1.00  0.00    -0.504 OA
ATOM     19  H   UNL     1     164.293 181.196 172.498  1.00  0.00     0.293 HD
ENDBRANCH  15  18
BRANCH  17  20
ATOM     20  O   UNL     1     165.265 179.463 174.380  1.00  0.00    -0.504 OA
ATOM     21  H   UNL     1     164.532 178.762 174.360  1.00  0.00     0.293 HD
ENDBRANCH  17  20
ENDBRANCH   1  12
BRANCH   6  22
ATOM     22  O   UNL     1     172.729 173.637 173.302  1.00  0.00    -0.507 OA
ATOM     23  H   UNL     1     173.295 172.827 173.101  1.00  0.00     0.293 HD
ENDBRANCH   6  22
BRANCH   8  24
ATOM     24  O   UNL     1     174.487 176.236 169.666  1.00  0.00    -0.508 OA
ATOM     25  H   UNL     1     174.583 177.122 169.184  1.00  0.00     0.293 HD
ENDBRANCH   8  24
TORSDOF 5
ENDMDL
MODEL 7
REMARK VINA RESULT:    -6.140      1.772      6.719
REMARK INTER + INTRA:          -7.534
REMARK INTER:                  -7.245
REMARK INTRA:                  -0.289
REMARK UNBOUND:                -0.318
REMARK SMILES O=c1cc(-c2ccc(O)c(O)c2)oc2cc(O)cc(O)c12
REMARK SMILES IDX 4 1 3 2 2 3 1 4 21 5 19 6 18 7 16 8 15 9 14 10 13 11 5 12
REMARK SMILES IDX 6 13 7 14 8 15 12 16 10 17 9 18 11 20 20 22 17 24
REMARK H PARENT 9 19 11 21 20 23 17 25
REMARK Flexibility Score: inf
ROOT
ATOM      1  C   UNL     1     179.178 173.082 172.404  1.00  0.00     0.138 A 
ATOM      2  C   UNL     1     179.248 173.135 171.006  1.00  0.00     0.100 A 
ATOM      3  C   UNL     1     180.196 172.363 170.333  1.00  0.00     0.197 A 
ATOM      4  O   UNL     1     180.277 172.479 169.083  1.00  0.00    -0.289 OA
ATOM      5  C   UNL     1     181.057 171.510 171.065  1.00  0.00     0.107 A 
ATOM      6  C   UNL     1     182.034 170.648 170.483  1.00  0.00     0.134 A 
ATOM      7  C   UNL     1     182.907 169.936 171.313  1.00  0.00     0.093 A 
ATOM      8  C   UNL     1     182.800 170.008 172.704  1.00  0.00     0.123 A 
ATOM      9  C   UNL     1     181.815 170.805 173.281  1.00  0.00     0.094 A 
ATOM     10  C   UNL     1     180.950 171.555 172.480  1.00  0.00     0.146 A 
ATOM     11  O   UNL     1     180.033 172.314 173.071  1.00  0.00    -0.456 OA
ENDROOT
BRANCH   1  12
ATOM     12  C   UNL     1     178.187 173.880 173.170  1.00  0.00     0.021 A 
ATOM     13  C   UNL     1     176.817 173.871 172.843  1.00  0.00     0.016 A 
ATOM     14  C   UNL     1     175.907 174.625 173.588  1.00  0.00     0.051 A 
ATOM     15  C   UNL     1     176.344 175.393 174.673  1.00  0.00     0.157 A 
ATOM     16  C   UNL     1     178.617 174.644 174.271  1.00  0.00     0.062 A 
ATOM     17  C   UNL     1     177.701 175.401 175.017  1.00  0.00     0.158 A 
BRANCH  15  18
ATOM     18  O   UNL     1     175.438 176.146 175.417  1.00  0.00    -0.504 OA
ATOM     19  H   UNL     1     174.472 175.859 175.525  1.00  0.00     0.293 HD
ENDBRANCH  15  18
BRANCH  17  20
ATOM     20  O   UNL     1     178.134 176.163 176.100  1.00  0.00    -0.504 OA
ATOM     21  H   UNL     1     179.102 176.450 176.195  1.00  0.00     0.293 HD
ENDBRANCH  17  20
ENDBRANCH   1  12
BRANCH   6  22
ATOM     22  O   UNL     1     182.170 170.438 169.107  1.00  0.00    -0.507 OA
ATOM     23  H   UNL     1     182.744 170.994 168.493  1.00  0.00     0.293 HD
ENDBRANCH   6  22
BRANCH   8  24
ATOM     24  O   UNL     1     183.664 169.284 173.523  1.00  0.00    -0.508 OA
ATOM     25  H   UNL     1     184.473 169.718 173.955  1.00  0.00     0.293 HD
ENDBRANCH   8  24
TORSDOF 5
ENDMDL
MODEL 8
REMARK VINA RESULT:    -6.009      4.148      6.709
REMARK INTER + INTRA:          -7.381
REMARK INTER:                  -7.090
REMARK INTRA:                  -0.291
REMARK UNBOUND:                -0.318
REMARK SMILES O=c1cc(-c2ccc(O)c(O)c2)oc2cc(O)cc(O)c12
REMARK SMILES IDX 4 1 3 2 2 3 1 4 21 5 19 6 18 7 16 8 15 9 14 10 13 11 5 12
REMARK SMILES IDX 6 13 7 14 8 15 12 16 10 17 9 18 11 20 20 22 17 24
REMARK H PARENT 9 19 11 21 20 23 17 25
REMARK Flexibility Score: inf
ROOT
ATOM      1  C   UNL     1     175.318 174.446 173.574  1.00  0.00     0.138 A 
ATOM      2  C   UNL     1     174.868 174.216 174.880  1.00  0.00     0.100 A 
ATOM      3  C   UNL     1     173.498 174.184 175.144  1.00  0.00     0.197 A 
ATOM      4  O   UNL     1     173.126 174.037 176.337  1.00  0.00    -0.289 OA
ATOM      5  C   UNL     1     172.575 174.354 174.085  1.00  0.00     0.107 A 
ATOM      6  C   UNL     1     171.156 174.301 174.229  1.00  0.00     0.134 A 
ATOM      7  C   UNL     1     170.340 174.598 173.130  1.00  0.00     0.093 A 
ATOM      8  C   UNL     1     170.891 174.888 171.880  1.00  0.00     0.123 A 
ATOM      9  C   UNL     1     172.274 174.890 171.717  1.00  0.00     0.094 A 
ATOM     10  C   UNL     1     173.116 174.631 172.802  1.00  0.00     0.146 A 
ATOM     11  O   UNL     1     174.430 174.656 172.607  1.00  0.00    -0.456 OA
ENDROOT
BRANCH   1  12
ATOM     12  C   UNL     1     176.764 174.488 173.238  1.00  0.00     0.021 A 
ATOM     13  C   UNL     1     177.221 174.346 171.913  1.00  0.00     0.016 A 
ATOM     14  C   UNL     1     178.587 174.401 171.626  1.00  0.00     0.051 A 
ATOM     15  C   UNL     1     179.518 174.603 172.651  1.00  0.00     0.157 A 
ATOM     16  C   UNL     1     177.705 174.706 174.261  1.00  0.00     0.062 A 
ATOM     17  C   UNL     1     179.077 174.758 173.970  1.00  0.00     0.158 A 
BRANCH  15  18
ATOM     18  O   UNL     1     180.881 174.656 172.367  1.00  0.00    -0.504 OA
ATOM     19  H   UNL     1     181.562 174.902 173.076  1.00  0.00     0.293 HD
ENDBRANCH  15  18
BRANCH  17  20
ATOM     20  O   UNL     1     180.006 174.965 174.989  1.00  0.00    -0.504 OA
ATOM     21  H   UNL     1     179.844 174.628 175.931  1.00  0.00     0.293 HD
ENDBRANCH  17  20
ENDBRANCH   1  12
BRANCH   6  22
ATOM     22  O   UNL     1     170.503 173.939 175.412  1.00  0.00    -0.507 OA
ATOM     23  H   UNL     1     169.510 173.791 175.500  1.00  0.00     0.293 HD
ENDBRANCH   6  22
BRANCH   8  24
ATOM     24  O   UNL     1     170.071 175.169 170.789  1.00  0.00    -0.508 OA
ATOM     25  H   UNL     1     169.774 176.115 170.580  1.00  0.00     0.293 HD
ENDBRANCH   8  24
TORSDOF 5
ENDMDL
MODEL 9
REMARK VINA RESULT:    -5.992      4.264      9.015
REMARK INTER + INTRA:          -7.361
REMARK INTER:                  -7.071
REMARK INTRA:                  -0.290
REMARK UNBOUND:                -0.318
REMARK SMILES O=c1cc(-c2ccc(O)c(O)c2)oc2cc(O)cc(O)c12
REMARK SMILES IDX 4 1 3 2 2 3 1 4 21 5 19 6 18 7 16 8 15 9 14 10 13 11 5 12
REMARK SMILES IDX 6 13 7 14 8 15 12 16 10 17 9 18 11 20 20 22 17 24
REMARK H PARENT 9 19 11 21 20 23 17 25
REMARK Flexibility Score: inf
ROOT
ATOM      1  C   UNL     1     174.172 175.013 173.553  1.00  0.00     0.138 A 
ATOM      2  C   UNL     1     174.631 175.253 174.855  1.00  0.00     0.100 A 
ATOM      3  C   UNL     1     176.003 175.276 175.111  1.00  0.00     0.197 A 
ATOM      4  O   UNL     1     176.382 175.432 176.300  1.00  0.00    -0.289 OA
ATOM      5  C   UNL     1     176.919 175.090 174.048  1.00  0.00     0.107 A 
ATOM      6  C   UNL     1     178.339 175.134 174.183  1.00  0.00     0.134 A 
ATOM      7  C   UNL     1     179.146 174.820 173.083  1.00  0.00     0.093 A 
ATOM      8  C   UNL     1     178.586 174.523 171.839  1.00  0.00     0.123 A 
ATOM      9  C   UNL     1     177.202 174.530 171.683  1.00  0.00     0.094 A 
ATOM     10  C   UNL     1     176.368 174.805 172.770  1.00  0.00     0.146 A 
ATOM     11  O   UNL     1     175.053 174.788 172.583  1.00  0.00    -0.456 OA
ENDROOT
BRANCH   1  12
ATOM     12  C   UNL     1     172.724 174.979 173.226  1.00  0.00     0.021 A 
ATOM     13  C   UNL     1     172.260 175.127 171.904  1.00  0.00     0.016 A 
ATOM     14  C   UNL     1     170.892 175.080 171.625  1.00  0.00     0.051 A 
ATOM     15  C   UNL     1     169.966 174.878 172.655  1.00  0.00     0.157 A 
ATOM     16  C   UNL     1     171.788 174.762 174.253  1.00  0.00     0.062 A 
ATOM     17  C   UNL     1     170.414 174.717 173.971  1.00  0.00     0.158 A 
BRANCH  15  18
ATOM     18  O   UNL     1     168.601 174.833 172.379  1.00  0.00    -0.504 OA
ATOM     19  H   UNL     1     168.013 175.653 172.474  1.00  0.00     0.293 HD
ENDBRANCH  15  18
BRANCH  17  20
ATOM     20  O   UNL     1     169.491 174.511 174.995  1.00  0.00    -0.504 OA
ATOM     21  H   UNL     1     169.760 174.084 175.874  1.00  0.00     0.293 HD
ENDBRANCH  17  20
ENDBRANCH   1  12
BRANCH   6  22
ATOM     22  O   UNL     1     179.001 175.502 175.359  1.00  0.00    -0.507 OA
ATOM     23  H   UNL     1     178.603 175.455 176.284  1.00  0.00     0.293 HD
ENDBRANCH   6  22
BRANCH   8  24
ATOM     24  O   UNL     1     179.398 174.226 170.746  1.00  0.00    -0.508 OA
ATOM     25  H   UNL     1     179.172 174.554 169.813  1.00  0.00     0.293 HD
ENDBRANCH   8  24
TORSDOF 5
ENDMDL
