MODEL 1
REMARK VINA RESULT:    -7.529      0.000      0.000
REMARK INTER + INTRA:         -11.320
REMARK INTER:                 -10.390
REMARK INTRA:                  -0.930
REMARK UNBOUND:                -0.930
REMARK SMILES O=C([O-])[C@H]1O[C@H](Oc2cc3oc(-c4ccccc4)cc(=O)c3c(O)c2O)[C@@H](O)[C@@H](O)[C@H]1O
REMARK SMILES IDX 7 1 6 2 4 3 31 4 5 5 29 6 27 7 2 8 1 9 3 10 32 11 30 13
REMARK SMILES IDX 28 15 8 17 25 18 9 19 23 20 10 21 22 22 11 23 20 24 12 25
REMARK SMILES IDX 19 26 21 27 26 28 24 30 13 32 14 33 18 34 15 35 17 36 16 37
REMARK H PARENT 32 12 30 14 28 16 26 29 24 31
REMARK Flexibility Score: inf
ROOT
ATOM      1  O   UNL     1      46.806 -23.802  -7.305  1.00  0.00    -0.458 OA
ENDROOT
BRANCH   1   2
ATOM      2  C   UNL     1      47.404 -22.639  -6.709  1.00  0.00     0.339 C 
ATOM      3  C   UNL     1      45.402 -21.427  -6.905  1.00  0.00     0.199 C 
ATOM      4  C   UNL     1      45.166 -21.362  -5.377  1.00  0.00     0.180 C 
ATOM      5  O   UNL     1      46.789 -21.461  -7.211  1.00  0.00    -0.328 OA
ATOM      6  C   UNL     1      45.878 -22.537  -4.683  1.00  0.00     0.181 C 
ATOM      7  C   UNL     1      47.340 -22.683  -5.164  1.00  0.00     0.214 C 
BRANCH   3   8
ATOM      8  C   UNL     1      44.779 -20.241  -7.583  1.00  0.00     0.073 C 
ATOM      9  O   UNL     1      43.620 -20.330  -8.069  1.00  0.00    -0.547 OA
ATOM     10  O   UNL     1      45.458 -19.029  -7.645  1.00  0.00    -0.547 OA
ENDBRANCH   3   8
BRANCH   4  11
ATOM     11  O   UNL     1      45.557 -20.125  -4.826  1.00  0.00    -0.387 OA
ATOM     12  H   UNL     1      44.830 -19.800  -4.235  1.00  0.00     0.211 HD
ENDBRANCH   4  11
BRANCH   6  13
ATOM     13  O   UNL     1      45.824 -22.373  -3.289  1.00  0.00    -0.387 OA
ATOM     14  H   UNL     1      45.100 -21.718  -3.107  1.00  0.00     0.211 HD
ENDBRANCH   6  13
BRANCH   7  15
ATOM     15  O   UNL     1      48.146 -21.657  -4.642  1.00  0.00    -0.384 OA
ATOM     16  H   UNL     1      47.715 -20.793  -4.879  1.00  0.00     0.211 HD
ENDBRANCH   7  15
ENDBRANCH   1   2
BRANCH   1  17
ATOM     17  C   UNL     1      46.619 -25.062  -6.707  1.00  0.00     0.172 A 
ATOM     18  C   UNL     1      45.348 -25.633  -6.460  1.00  0.00     0.201 A 
ATOM     19  C   UNL     1      47.771 -25.751  -6.329  1.00  0.00     0.098 A 
ATOM     20  C   UNL     1      45.259 -26.935  -5.898  1.00  0.00     0.176 A 
ATOM     21  C   UNL     1      47.697 -27.015  -5.753  1.00  0.00     0.146 A 
ATOM     22  C   UNL     1      46.444 -27.627  -5.539  1.00  0.00     0.111 A 
ATOM     23  O   UNL     1      48.823 -27.634  -5.412  1.00  0.00    -0.456 OA
ATOM     24  C   UNL     1      46.441 -28.920  -4.972  1.00  0.00     0.197 A 
ATOM     25  C   UNL     1      48.855 -28.844  -4.860  1.00  0.00     0.138 A 
ATOM     26  C   UNL     1      47.651 -29.529  -4.633  1.00  0.00     0.100 A 
ATOM     27  O   UNL     1      45.368 -29.548  -4.766  1.00  0.00    -0.289 OA
BRANCH  18  28
ATOM     28  O   UNL     1      44.206 -24.881  -6.742  1.00  0.00    -0.502 OA
ATOM     29  H   UNL     1      43.316 -25.269  -7.020  1.00  0.00     0.293 HD
ENDBRANCH  18  28
BRANCH  20  30
ATOM     30  O   UNL     1      44.021 -27.556  -5.692  1.00  0.00    -0.504 OA
ATOM     31  H   UNL     1      43.327 -27.255  -5.024  1.00  0.00     0.293 HD
ENDBRANCH  20  30
BRANCH  25  32
ATOM     32  C   UNL     1      50.171 -29.435  -4.511  1.00  0.00     0.017 A 
ATOM     33  C   UNL     1      51.373 -28.939  -5.055  1.00  0.00     0.012 A 
ATOM     34  C   UNL     1      50.224 -30.542  -3.644  1.00  0.00     0.012 A 
ATOM     35  C   UNL     1      52.597 -29.526  -4.718  1.00  0.00     0.001 A 
ATOM     36  C   UNL     1      51.451 -31.125  -3.312  1.00  0.00     0.001 A 
ATOM     37  C   UNL     1      52.637 -30.616  -3.846  1.00  0.00     0.000 A 
ENDBRANCH  25  32
ENDBRANCH   1  17
TORSDOF 9
ENDMDL
MODEL 2
REMARK VINA RESULT:    -7.269      2.289      8.439
REMARK INTER + INTRA:         -10.962
REMARK INTER:                  -9.850
REMARK INTRA:                  -1.112
REMARK UNBOUND:                -0.930
REMARK SMILES O=C([O-])[C@H]1O[C@H](Oc2cc3oc(-c4ccccc4)cc(=O)c3c(O)c2O)[C@@H](O)[C@@H](O)[C@H]1O
REMARK SMILES IDX 7 1 6 2 4 3 31 4 5 5 29 6 27 7 2 8 1 9 3 10 32 11 30 13
REMARK SMILES IDX 28 15 8 17 25 18 9 19 23 20 10 21 22 22 11 23 20 24 12 25
REMARK SMILES IDX 19 26 21 27 26 28 24 30 13 32 14 33 18 34 15 35 17 36 16 37
REMARK H PARENT 32 12 30 14 28 16 26 29 24 31
REMARK Flexibility Score: inf
ROOT
ATOM      1  O   UNL     1      48.224 -27.415  -5.751  1.00  0.00    -0.458 OA
ENDROOT
BRANCH   1   2
ATOM      2  C   UNL     1      48.927 -27.692  -4.529  1.00  0.00     0.339 C 
ATOM      3  C   UNL     1      48.026 -29.859  -4.424  1.00  0.00     0.199 C 
ATOM      4  C   UNL     1      49.388 -30.553  -4.672  1.00  0.00     0.180 C 
ATOM      5  O   UNL     1      48.194 -28.623  -3.744  1.00  0.00    -0.328 OA
ATOM      6  C   UNL     1      50.332 -29.603  -5.432  1.00  0.00     0.181 C 
ATOM      7  C   UNL     1      50.365 -28.198  -4.790  1.00  0.00     0.214 C 
BRANCH   3   8
ATOM      8  C   UNL     1      47.125 -30.746  -3.615  1.00  0.00     0.073 C 
ATOM      9  O   UNL     1      47.478 -31.125  -2.466  1.00  0.00    -0.547 OA
ATOM     10  O   UNL     1      45.881 -31.125  -4.110  1.00  0.00    -0.547 OA
ENDBRANCH   3   8
BRANCH   4  11
ATOM     11  O   UNL     1      49.976 -31.020  -3.481  1.00  0.00    -0.387 OA
ATOM     12  H   UNL     1      50.890 -31.345  -3.687  1.00  0.00     0.211 HD
ENDBRANCH   4  11
BRANCH   6  13
ATOM     13  O   UNL     1      51.621 -30.158  -5.489  1.00  0.00    -0.387 OA
ATOM     14  H   UNL     1      51.754 -30.660  -4.642  1.00  0.00     0.211 HD
ENDBRANCH   6  13
BRANCH   7  15
ATOM     15  O   UNL     1      51.073 -28.215  -3.576  1.00  0.00    -0.384 OA
ATOM     16  H   UNL     1      52.032 -28.066  -3.791  1.00  0.00     0.211 HD
ENDBRANCH   7  15
ENDBRANCH   1   2
BRANCH   1  17
ATOM     17  C   UNL     1      47.345 -26.345  -6.001  1.00  0.00     0.172 A 
ATOM     18  C   UNL     1      45.938 -26.483  -6.065  1.00  0.00     0.201 A 
ATOM     19  C   UNL     1      47.928 -25.096  -6.216  1.00  0.00     0.098 A 
ATOM     20  C   UNL     1      45.128 -25.333  -6.273  1.00  0.00     0.176 A 
ATOM     21  C   UNL     1      47.147 -23.968  -6.447  1.00  0.00     0.146 A 
ATOM     22  C   UNL     1      45.740 -24.070  -6.469  1.00  0.00     0.111 A 
ATOM     23  O   UNL     1      47.748 -22.799  -6.643  1.00  0.00    -0.456 OA
ATOM     24  C   UNL     1      45.007 -22.882  -6.685  1.00  0.00     0.197 A 
ATOM     25  C   UNL     1      47.088 -21.666  -6.867  1.00  0.00     0.138 A 
ATOM     26  C   UNL     1      45.685 -21.678  -6.883  1.00  0.00     0.100 A 
ATOM     27  O   UNL     1      43.746 -22.878  -6.699  1.00  0.00    -0.289 OA
BRANCH  18  28
ATOM     28  O   UNL     1      45.381 -27.758  -5.959  1.00  0.00    -0.502 OA
ATOM     29  H   UNL     1      45.898 -28.621  -6.041  1.00  0.00     0.293 HD
ENDBRANCH  18  28
BRANCH  20  30
ATOM     30  O   UNL     1      43.730 -25.421  -6.285  1.00  0.00    -0.504 OA
ATOM     31  H   UNL     1      43.153 -25.342  -7.108  1.00  0.00     0.293 HD
ENDBRANCH  20  30
BRANCH  25  32
ATOM     32  C   UNL     1      47.864 -20.419  -7.082  1.00  0.00     0.017 A 
ATOM     33  C   UNL     1      47.277 -19.146  -6.932  1.00  0.00     0.012 A 
ATOM     34  C   UNL     1      49.211 -20.502  -7.483  1.00  0.00     0.012 A 
ATOM     35  C   UNL     1      48.031 -17.989  -7.157  1.00  0.00     0.001 A 
ATOM     36  C   UNL     1      49.958 -19.342  -7.705  1.00  0.00     0.001 A 
ATOM     37  C   UNL     1      49.370 -18.086  -7.540  1.00  0.00     0.000 A 
ENDBRANCH  25  32
ENDBRANCH   1  17
TORSDOF 9
ENDMDL
MODEL 3
REMARK VINA RESULT:    -7.218      0.852      1.270
REMARK INTER + INTRA:         -10.891
REMARK INTER:                  -9.850
REMARK INTRA:                  -1.041
REMARK UNBOUND:                -0.930
REMARK SMILES O=C([O-])[C@H]1O[C@H](Oc2cc3oc(-c4ccccc4)cc(=O)c3c(O)c2O)[C@@H](O)[C@@H](O)[C@H]1O
REMARK SMILES IDX 7 1 6 2 4 3 31 4 5 5 29 6 27 7 2 8 1 9 3 10 32 11 30 13
REMARK SMILES IDX 28 15 8 17 25 18 9 19 23 20 10 21 22 22 11 23 20 24 12 25
REMARK SMILES IDX 19 26 21 27 26 28 24 30 13 32 14 33 18 34 15 35 17 36 16 37
REMARK H PARENT 32 12 30 14 28 16 26 29 24 31
REMARK Flexibility Score: inf
ROOT
ATOM      1  O   UNL     1      47.069 -23.199  -6.689  1.00  0.00    -0.458 OA
ENDROOT
BRANCH   1   2
ATOM      2  C   UNL     1      47.711 -22.221  -5.856  1.00  0.00     0.339 C 
ATOM      3  C   UNL     1      45.958 -20.693  -6.184  1.00  0.00     0.199 C 
ATOM      4  C   UNL     1      45.478 -20.764  -4.714  1.00  0.00     0.180 C 
ATOM      5  O   UNL     1      47.358 -20.911  -6.280  1.00  0.00    -0.328 OA
ATOM      6  C   UNL     1      45.894 -22.108  -4.089  1.00  0.00     0.181 C 
ATOM      7  C   UNL     1      47.381 -22.428  -4.360  1.00  0.00     0.214 C 
BRANCH   3   8
ATOM      8  C   UNL     1      45.628 -19.355  -6.779  1.00  0.00     0.073 C 
ATOM      9  O   UNL     1      46.345 -18.879  -7.700  1.00  0.00    -0.547 OA
ATOM     10  O   UNL     1      44.510 -18.649  -6.347  1.00  0.00    -0.547 OA
ENDBRANCH   3   8
BRANCH   4  11
ATOM     11  O   UNL     1      45.937 -19.675  -3.947  1.00  0.00    -0.387 OA
ATOM     12  H   UNL     1      46.847 -19.432  -4.258  1.00  0.00     0.211 HD
ENDBRANCH   4  11
BRANCH   6  13
ATOM     13  O   UNL     1      45.627 -22.096  -2.710  1.00  0.00    -0.387 OA
ATOM     14  H   UNL     1      46.161 -21.352  -2.323  1.00  0.00     0.211 HD
ENDBRANCH   6  13
BRANCH   7  15
ATOM     15  O   UNL     1      48.221 -21.608  -3.587  1.00  0.00    -0.384 OA
ATOM     16  H   UNL     1      48.705 -22.197  -2.949  1.00  0.00     0.211 HD
ENDBRANCH   7  15
ENDBRANCH   1   2
BRANCH   1  17
ATOM     17  C   UNL     1      46.783 -24.538  -6.362  1.00  0.00     0.172 A 
ATOM     18  C   UNL     1      45.482 -25.092  -6.385  1.00  0.00     0.201 A 
ATOM     19  C   UNL     1      47.865 -25.330  -5.978  1.00  0.00     0.098 A 
ATOM     20  C   UNL     1      45.298 -26.470  -6.088  1.00  0.00     0.176 A 
ATOM     21  C   UNL     1      47.695 -26.674  -5.658  1.00  0.00     0.146 A 
ATOM     22  C   UNL     1      46.414 -27.262  -5.718  1.00  0.00     0.111 A 
ATOM     23  O   UNL     1      48.756 -27.389  -5.300  1.00  0.00    -0.456 OA
ATOM     24  C   UNL     1      46.316 -28.636  -5.404  1.00  0.00     0.197 A 
ATOM     25  C   UNL     1      48.695 -28.679  -4.980  1.00  0.00     0.138 A 
ATOM     26  C   UNL     1      47.461 -29.344  -5.036  1.00  0.00     0.100 A 
ATOM     27  O   UNL     1      45.214 -29.246  -5.453  1.00  0.00    -0.289 OA
BRANCH  18  28
ATOM     28  O   UNL     1      44.399 -24.256  -6.664  1.00  0.00    -0.502 OA
ATOM     29  H   UNL     1      43.641 -24.063  -6.025  1.00  0.00     0.293 HD
ENDBRANCH  18  28
BRANCH  20  30
ATOM     30  O   UNL     1      44.033 -27.067  -6.156  1.00  0.00    -0.504 OA
ATOM     31  H   UNL     1      43.166 -26.614  -5.907  1.00  0.00     0.293 HD
ENDBRANCH  20  30
BRANCH  25  32
ATOM     32  C   UNL     1      49.944 -29.376  -4.585  1.00  0.00     0.017 A 
ATOM     33  C   UNL     1      49.929 -30.498  -3.732  1.00  0.00     0.012 A 
ATOM     34  C   UNL     1      51.183 -28.888  -5.041  1.00  0.00     0.012 A 
ATOM     35  C   UNL     1      51.125 -31.125  -3.366  1.00  0.00     0.001 A 
ATOM     36  C   UNL     1      52.375 -29.519  -4.671  1.00  0.00     0.001 A 
ATOM     37  C   UNL     1      52.346 -30.638  -3.836  1.00  0.00     0.000 A 
ENDBRANCH  25  32
ENDBRANCH   1  17
TORSDOF 9
ENDMDL
MODEL 4
REMARK VINA RESULT:    -7.207      7.544      9.953
REMARK INTER + INTRA:         -10.876
REMARK INTER:                  -9.805
REMARK INTRA:                  -1.072
REMARK UNBOUND:                -0.930
REMARK SMILES O=C([O-])[C@H]1O[C@H](Oc2cc3oc(-c4ccccc4)cc(=O)c3c(O)c2O)[C@@H](O)[C@@H](O)[C@H]1O
REMARK SMILES IDX 7 1 6 2 4 3 31 4 5 5 29 6 27 7 2 8 1 9 3 10 32 11 30 13
REMARK SMILES IDX 28 15 8 17 25 18 9 19 23 20 10 21 22 22 11 23 20 24 12 25
REMARK SMILES IDX 19 26 21 27 26 28 24 30 13 32 14 33 18 34 15 35 17 36 16 37
REMARK H PARENT 32 12 30 14 28 16 26 29 24 31
REMARK Flexibility Score: inf
ROOT
ATOM      1  O   UNL     1      51.435 -16.990  -4.539  1.00  0.00    -0.458 OA
ENDROOT
BRANCH   1   2
ATOM      2  C   UNL     1      52.165 -15.861  -4.032  1.00  0.00     0.339 C 
ATOM      3  C   UNL     1      53.428 -15.707  -6.006  1.00  0.00     0.199 C 
ATOM      4  C   UNL     1      52.797 -14.360  -6.433  1.00  0.00     0.180 C 
ATOM      5  O   UNL     1      53.471 -15.832  -4.592  1.00  0.00    -0.328 OA
ATOM      6  C   UNL     1      51.402 -14.208  -5.800  1.00  0.00     0.181 C 
ATOM      7  C   UNL     1      51.421 -14.529  -4.289  1.00  0.00     0.214 C 
BRANCH   3   8
ATOM      8  C   UNL     1      54.821 -15.830  -6.552  1.00  0.00     0.073 C 
ATOM      9  O   UNL     1      55.644 -16.616  -6.011  1.00  0.00    -0.547 OA
ATOM     10  O   UNL     1      55.202 -15.109  -7.680  1.00  0.00    -0.547 OA
ENDBRANCH   3   8
BRANCH   4  11
ATOM     11  O   UNL     1      53.624 -13.261  -6.126  1.00  0.00    -0.387 OA
ATOM     12  H   UNL     1      53.047 -12.480  -5.921  1.00  0.00     0.211 HD
ENDBRANCH   4  11
BRANCH   6  13
ATOM     13  O   UNL     1      50.912 -12.912  -6.031  1.00  0.00    -0.387 OA
ATOM     14  H   UNL     1      50.689 -12.859  -6.998  1.00  0.00     0.211 HD
ENDBRANCH   6  13
BRANCH   7  15
ATOM     15  O   UNL     1      52.054 -13.504  -3.565  1.00  0.00    -0.384 OA
ATOM     16  H   UNL     1      51.792 -13.609  -2.612  1.00  0.00     0.211 HD
ENDBRANCH   7  15
ENDBRANCH   1   2
BRANCH   1  17
ATOM     17  C   UNL     1      50.494 -17.773  -3.845  1.00  0.00     0.172 A 
ATOM     18  C   UNL     1      49.178 -18.011  -4.307  1.00  0.00     0.201 A 
ATOM     19  C   UNL     1      50.908 -18.313  -2.628  1.00  0.00     0.098 A 
ATOM     20  C   UNL     1      48.313 -18.859  -3.562  1.00  0.00     0.176 A 
ATOM     21  C   UNL     1      50.061 -19.123  -1.876  1.00  0.00     0.146 A 
ATOM     22  C   UNL     1      48.760 -19.414  -2.337  1.00  0.00     0.111 A 
ATOM     23  O   UNL     1      50.501 -19.617  -0.723  1.00  0.00    -0.456 OA
ATOM     24  C   UNL     1      47.963 -20.261  -1.536  1.00  0.00     0.197 A 
ATOM     25  C   UNL     1      49.770 -20.403   0.063  1.00  0.00     0.138 A 
ATOM     26  C   UNL     1      48.471 -20.756  -0.334  1.00  0.00     0.100 A 
ATOM     27  O   UNL     1      46.796 -20.590  -1.882  1.00  0.00    -0.289 OA
BRANCH  18  28
ATOM     28  O   UNL     1      48.747 -17.372  -5.471  1.00  0.00    -0.502 OA
ATOM     29  H   UNL     1      48.542 -17.839  -6.342  1.00  0.00     0.293 HD
ENDBRANCH  18  28
BRANCH  20  30
ATOM     30  O   UNL     1      47.024 -19.164  -4.016  1.00  0.00    -0.504 OA
ATOM     31  H   UNL     1      46.498 -19.984  -3.755  1.00  0.00     0.293 HD
ENDBRANCH  20  30
BRANCH  25  32
ATOM     32  C   UNL     1      50.361 -20.889   1.335  1.00  0.00     0.017 A 
ATOM     33  C   UNL     1      50.871 -20.000   2.302  1.00  0.00     0.012 A 
ATOM     34  C   UNL     1      50.450 -22.274   1.571  1.00  0.00     0.012 A 
ATOM     35  C   UNL     1      51.435 -20.490   3.485  1.00  0.00     0.001 A 
ATOM     36  C   UNL     1      51.016 -22.756   2.755  1.00  0.00     0.001 A 
ATOM     37  C   UNL     1      51.506 -21.866   3.712  1.00  0.00     0.000 A 
ENDBRANCH  25  32
ENDBRANCH   1  17
TORSDOF 9
ENDMDL
MODEL 5
REMARK VINA RESULT:    -7.204     14.589     17.980
REMARK INTER + INTRA:         -10.872
REMARK INTER:                 -10.109
REMARK INTRA:                  -0.763
REMARK UNBOUND:                -0.930
REMARK SMILES O=C([O-])[C@H]1O[C@H](Oc2cc3oc(-c4ccccc4)cc(=O)c3c(O)c2O)[C@@H](O)[C@@H](O)[C@H]1O
REMARK SMILES IDX 7 1 6 2 4 3 31 4 5 5 29 6 27 7 2 8 1 9 3 10 32 11 30 13
REMARK SMILES IDX 28 15 8 17 25 18 9 19 23 20 10 21 22 22 11 23 20 24 12 25
REMARK SMILES IDX 19 26 21 27 26 28 24 30 13 32 14 33 18 34 15 35 17 36 16 37
REMARK H PARENT 32 12 30 14 28 16 26 29 24 31
REMARK Flexibility Score: inf
ROOT
ATOM      1  O   UNL     1      60.082 -17.656   0.003  1.00  0.00    -0.458 OA
ENDROOT
BRANCH   1   2
ATOM      2  C   UNL     1      60.058 -17.880   1.422  1.00  0.00     0.339 C 
ATOM      3  C   UNL     1      57.711 -17.816   1.461  1.00  0.00     0.199 C 
ATOM      4  C   UNL     1      57.569 -19.316   1.818  1.00  0.00     0.180 C 
ATOM      5  O   UNL     1      58.909 -17.271   1.994  1.00  0.00    -0.328 OA
ATOM      6  C   UNL     1      58.813 -20.090   1.345  1.00  0.00     0.181 C 
ATOM      7  C   UNL     1      60.120 -19.386   1.771  1.00  0.00     0.214 C 
BRANCH   3   8
ATOM      8  C   UNL     1      56.540 -17.039   1.988  1.00  0.00     0.073 C 
ATOM      9  O   UNL     1      55.478 -17.637   2.308  1.00  0.00    -0.547 OA
ATOM     10  O   UNL     1      56.631 -15.662   2.164  1.00  0.00    -0.547 OA
ENDBRANCH   3   8
BRANCH   4  11
ATOM     11  O   UNL     1      57.327 -19.519   3.191  1.00  0.00    -0.387 OA
ATOM     12  H   UNL     1      58.036 -20.111   3.551  1.00  0.00     0.211 HD
ENDBRANCH   4  11
BRANCH   6  13
ATOM     13  O   UNL     1      58.771 -21.406   1.834  1.00  0.00    -0.387 OA
ATOM     14  H   UNL     1      58.389 -21.968   1.108  1.00  0.00     0.211 HD
ENDBRANCH   6  13
BRANCH   7  15
ATOM     15  O   UNL     1      60.340 -19.527   3.152  1.00  0.00    -0.384 OA
ATOM     16  H   UNL     1      59.959 -18.724   3.596  1.00  0.00     0.211 HD
ENDBRANCH   7  15
ENDBRANCH   1   2
BRANCH   1  17
ATOM     17  C   UNL     1      60.493 -16.488  -0.666  1.00  0.00     0.172 A 
ATOM     18  C   UNL     1      61.617 -15.719  -0.284  1.00  0.00     0.201 A 
ATOM     19  C   UNL     1      59.713 -16.083  -1.749  1.00  0.00     0.098 A 
ATOM     20  C   UNL     1      61.986 -14.582  -1.053  1.00  0.00     0.176 A 
ATOM     21  C   UNL     1      60.048 -14.955  -2.493  1.00  0.00     0.146 A 
ATOM     22  C   UNL     1      61.191 -14.198  -2.162  1.00  0.00     0.111 A 
ATOM     23  O   UNL     1      59.276 -14.610  -3.519  1.00  0.00    -0.456 OA
ATOM     24  C   UNL     1      61.486 -13.080  -2.974  1.00  0.00     0.197 A 
ATOM     25  C   UNL     1      59.515 -13.553  -4.291  1.00  0.00     0.138 A 
ATOM     26  C   UNL     1      60.645 -12.759  -4.041  1.00  0.00     0.100 A 
ATOM     27  O   UNL     1      62.499 -12.360  -2.762  1.00  0.00    -0.289 OA
BRANCH  18  28
ATOM     28  O   UNL     1      62.319 -16.078   0.868  1.00  0.00    -0.502 OA
ATOM     29  H   UNL     1      61.907 -16.513   1.681  1.00  0.00     0.293 HD
ENDBRANCH  18  28
BRANCH  20  30
ATOM     30  O   UNL     1      63.125 -13.830  -0.740  1.00  0.00    -0.504 OA
ATOM     31  H   UNL     1      63.616 -13.863   0.141  1.00  0.00     0.293 HD
ENDBRANCH  20  30
BRANCH  25  32
ATOM     32  C   UNL     1      58.579 -13.256  -5.403  1.00  0.00     0.017 A 
ATOM     33  C   UNL     1      58.855 -12.256  -6.358  1.00  0.00     0.012 A 
ATOM     34  C   UNL     1      57.364 -13.961  -5.493  1.00  0.00     0.012 A 
ATOM     35  C   UNL     1      57.946 -11.989  -7.387  1.00  0.00     0.001 A 
ATOM     36  C   UNL     1      56.459 -13.689  -6.524  1.00  0.00     0.001 A 
ATOM     37  C   UNL     1      56.751 -12.706  -7.471  1.00  0.00     0.000 A 
ENDBRANCH  25  32
ENDBRANCH   1  17
TORSDOF 9
ENDMDL
MODEL 6
REMARK VINA RESULT:    -7.197     11.176     14.389
REMARK INTER + INTRA:         -10.862
REMARK INTER:                  -9.821
REMARK INTRA:                  -1.041
REMARK UNBOUND:                -0.930
REMARK SMILES O=C([O-])[C@H]1O[C@H](Oc2cc3oc(-c4ccccc4)cc(=O)c3c(O)c2O)[C@@H](O)[C@@H](O)[C@H]1O
REMARK SMILES IDX 7 1 6 2 4 3 31 4 5 5 29 6 27 7 2 8 1 9 3 10 32 11 30 13
REMARK SMILES IDX 28 15 8 17 25 18 9 19 23 20 10 21 22 22 11 23 20 24 12 25
REMARK SMILES IDX 19 26 21 27 26 28 24 30 13 32 14 33 18 34 15 35 17 36 16 37
REMARK H PARENT 32 12 30 14 28 16 26 29 24 31
REMARK Flexibility Score: inf
ROOT
ATOM      1  O   UNL     1      52.799 -15.610  -4.736  1.00  0.00    -0.458 OA
ENDROOT
BRANCH   1   2
ATOM      2  C   UNL     1      52.558 -17.001  -4.999  1.00  0.00     0.339 C 
ATOM      3  C   UNL     1      51.021 -17.137  -3.228  1.00  0.00     0.199 C 
ATOM      4  C   UNL     1      49.804 -17.358  -4.159  1.00  0.00     0.180 C 
ATOM      5  O   UNL     1      52.208 -17.672  -3.796  1.00  0.00    -0.328 OA
ATOM      6  C   UNL     1      50.092 -16.766  -5.551  1.00  0.00     0.181 C 
ATOM      7  C   UNL     1      51.474 -17.206  -6.084  1.00  0.00     0.214 C 
BRANCH   3   8
ATOM      8  C   UNL     1      50.782 -17.780  -1.892  1.00  0.00     0.073 C 
ATOM      9  O   UNL     1      49.643 -18.234  -1.605  1.00  0.00    -0.547 OA
ATOM     10  O   UNL     1      51.824 -17.913  -0.980  1.00  0.00    -0.547 OA
ENDBRANCH   3   8
BRANCH   4  11
ATOM     11  O   UNL     1      49.432 -18.714  -4.242  1.00  0.00    -0.387 OA
ATOM     12  H   UNL     1      48.569 -18.833  -3.769  1.00  0.00     0.211 HD
ENDBRANCH   4  11
BRANCH   6  13
ATOM     13  O   UNL     1      49.071 -17.131  -6.445  1.00  0.00    -0.387 OA
ATOM     14  H   UNL     1      49.510 -17.601  -7.203  1.00  0.00     0.211 HD
ENDBRANCH   6  13
BRANCH   7  15
ATOM     15  O   UNL     1      51.458 -18.558  -6.467  1.00  0.00    -0.384 OA
ATOM     16  H   UNL     1      50.847 -18.637  -7.246  1.00  0.00     0.211 HD
ENDBRANCH   7  15
ENDBRANCH   1   2
BRANCH   1  17
ATOM     17  C   UNL     1      53.684 -14.757  -5.422  1.00  0.00     0.172 A 
ATOM     18  C   UNL     1      53.296 -13.924  -6.498  1.00  0.00     0.201 A 
ATOM     19  C   UNL     1      55.015 -14.774  -5.006  1.00  0.00     0.098 A 
ATOM     20  C   UNL     1      54.251 -13.057  -7.097  1.00  0.00     0.176 A 
ATOM     21  C   UNL     1      55.965 -13.950  -5.602  1.00  0.00     0.146 A 
ATOM     22  C   UNL     1      55.595 -13.076  -6.645  1.00  0.00     0.111 A 
ATOM     23  O   UNL     1      57.221 -14.000  -5.169  1.00  0.00    -0.456 OA
ATOM     24  C   UNL     1      56.604 -12.251  -7.189  1.00  0.00     0.197 A 
ATOM     25  C   UNL     1      58.198 -13.250  -5.672  1.00  0.00     0.138 A 
ATOM     26  C   UNL     1      57.908 -12.339  -6.699  1.00  0.00     0.100 A 
ATOM     27  O   UNL     1      56.356 -11.426  -8.110  1.00  0.00    -0.289 OA
BRANCH  18  28
ATOM     28  O   UNL     1      51.986 -14.003  -6.973  1.00  0.00    -0.502 OA
ATOM     29  H   UNL     1      51.722 -13.955  -7.946  1.00  0.00     0.293 HD
ENDBRANCH  18  28
BRANCH  20  30
ATOM     30  O   UNL     1      53.892 -12.177  -8.125  1.00  0.00    -0.504 OA
ATOM     31  H   UNL     1      54.445 -11.992  -8.947  1.00  0.00     0.293 HD
ENDBRANCH  20  30
BRANCH  25  32
ATOM     32  C   UNL     1      59.567 -13.396  -5.117  1.00  0.00     0.017 A 
ATOM     33  C   UNL     1      60.666 -12.701  -5.662  1.00  0.00     0.012 A 
ATOM     34  C   UNL     1      59.788 -14.279  -4.043  1.00  0.00     0.012 A 
ATOM     35  C   UNL     1      61.947 -12.870  -5.126  1.00  0.00     0.001 A 
ATOM     36  C   UNL     1      61.071 -14.444  -3.513  1.00  0.00     0.001 A 
ATOM     37  C   UNL     1      62.149 -13.739  -4.052  1.00  0.00     0.000 A 
ENDBRANCH  25  32
ENDBRANCH   1  17
TORSDOF 9
ENDMDL
MODEL 7
REMARK VINA RESULT:    -7.132      1.507      2.130
REMARK INTER + INTRA:         -10.773
REMARK INTER:                  -9.366
REMARK INTRA:                  -1.407
REMARK UNBOUND:                -0.930
REMARK SMILES O=C([O-])[C@H]1O[C@H](Oc2cc3oc(-c4ccccc4)cc(=O)c3c(O)c2O)[C@@H](O)[C@@H](O)[C@H]1O
REMARK SMILES IDX 7 1 6 2 4 3 31 4 5 5 29 6 27 7 2 8 1 9 3 10 32 11 30 13
REMARK SMILES IDX 28 15 8 17 25 18 9 19 23 20 10 21 22 22 11 23 20 24 12 25
REMARK SMILES IDX 19 26 21 27 26 28 24 30 13 32 14 33 18 34 15 35 17 36 16 37
REMARK H PARENT 32 12 30 14 28 16 26 29 24 31
REMARK Flexibility Score: inf
ROOT
ATOM      1  O   UNL     1      46.780 -22.433  -6.023  1.00  0.00    -0.458 OA
ENDROOT
BRANCH   1   2
ATOM      2  C   UNL     1      47.129 -21.659  -7.182  1.00  0.00     0.339 C 
ATOM      3  C   UNL     1      45.353 -20.170  -6.805  1.00  0.00     0.199 C 
ATOM      4  C   UNL     1      46.282 -18.980  -6.461  1.00  0.00     0.180 C 
ATOM      5  O   UNL     1      45.968 -21.052  -7.732  1.00  0.00    -0.328 OA
ATOM      6  C   UNL     1      47.635 -19.501  -5.946  1.00  0.00     0.181 C 
ATOM      7  C   UNL     1      48.212 -20.601  -6.867  1.00  0.00     0.214 C 
BRANCH   3   8
ATOM      8  C   UNL     1      44.058 -19.674  -7.383  1.00  0.00     0.073 C 
ATOM      9  O   UNL     1      43.767 -18.450  -7.321  1.00  0.00    -0.547 OA
ATOM     10  O   UNL     1      43.191 -20.554  -8.024  1.00  0.00    -0.547 OA
ENDBRANCH   3   8
BRANCH   4  11
ATOM     11  O   UNL     1      46.448 -18.099  -7.547  1.00  0.00    -0.387 OA
ATOM     12  H   UNL     1      47.134 -18.476  -8.157  1.00  0.00     0.211 HD
ENDBRANCH   4  11
BRANCH   6  13
ATOM     13  O   UNL     1      48.539 -18.433  -5.815  1.00  0.00    -0.387 OA
ATOM     14  H   UNL     1      49.383 -18.718  -6.255  1.00  0.00     0.211 HD
ENDBRANCH   6  13
BRANCH   7  15
ATOM     15  O   UNL     1      48.682 -20.052  -8.072  1.00  0.00    -0.384 OA
ATOM     16  H   UNL     1      49.010 -20.805  -8.632  1.00  0.00     0.211 HD
ENDBRANCH   7  15
ENDBRANCH   1   2
BRANCH   1  17
ATOM     17  C   UNL     1      46.410 -23.790  -5.987  1.00  0.00     0.172 A 
ATOM     18  C   UNL     1      45.129 -24.265  -6.354  1.00  0.00     0.201 A 
ATOM     19  C   UNL     1      47.378 -24.689  -5.540  1.00  0.00     0.098 A 
ATOM     20  C   UNL     1      44.863 -25.661  -6.335  1.00  0.00     0.176 A 
ATOM     21  C   UNL     1      47.122 -26.056  -5.490  1.00  0.00     0.146 A 
ATOM     22  C   UNL     1      45.868 -26.560  -5.895  1.00  0.00     0.111 A 
ATOM     23  O   UNL     1      48.077 -26.874  -5.059  1.00  0.00    -0.456 OA
ATOM     24  C   UNL     1      45.683 -27.959  -5.842  1.00  0.00     0.197 A 
ATOM     25  C   UNL     1      47.929 -28.194  -4.980  1.00  0.00     0.138 A 
ATOM     26  C   UNL     1      46.718 -28.776  -5.384  1.00  0.00     0.100 A 
ATOM     27  O   UNL     1      44.602 -28.495  -6.205  1.00  0.00    -0.289 OA
BRANCH  18  28
ATOM     28  O   UNL     1      44.139 -23.340  -6.692  1.00  0.00    -0.502 OA
ATOM     29  H   UNL     1      43.446 -22.979  -6.053  1.00  0.00     0.293 HD
ENDBRANCH  18  28
BRANCH  20  30
ATOM     30  O   UNL     1      43.626 -26.173  -6.745  1.00  0.00    -0.504 OA
ATOM     31  H   UNL     1      43.301 -27.111  -6.568  1.00  0.00     0.293 HD
ENDBRANCH  20  30
BRANCH  25  32
ATOM     32  C   UNL     1      49.061 -29.009  -4.474  1.00  0.00     0.017 A 
ATOM     33  C   UNL     1      50.377 -28.507  -4.436  1.00  0.00     0.012 A 
ATOM     34  C   UNL     1      48.827 -30.332  -4.053  1.00  0.00     0.012 A 
ATOM     35  C   UNL     1      51.426 -29.305  -3.967  1.00  0.00     0.001 A 
ATOM     36  C   UNL     1      49.880 -31.125  -3.586  1.00  0.00     0.001 A 
ATOM     37  C   UNL     1      51.178 -30.612  -3.541  1.00  0.00     0.000 A 
ENDBRANCH  25  32
ENDBRANCH   1  17
TORSDOF 9
ENDMDL
MODEL 8
REMARK VINA RESULT:    -7.100      1.150      2.546
REMARK INTER + INTRA:         -10.729
REMARK INTER:                  -9.977
REMARK INTRA:                  -0.751
REMARK UNBOUND:                -0.930
REMARK SMILES O=C([O-])[C@H]1O[C@H](Oc2cc3oc(-c4ccccc4)cc(=O)c3c(O)c2O)[C@@H](O)[C@@H](O)[C@H]1O
REMARK SMILES IDX 7 1 6 2 4 3 31 4 5 5 29 6 27 7 2 8 1 9 3 10 32 11 30 13
REMARK SMILES IDX 28 15 8 17 25 18 9 19 23 20 10 21 22 22 11 23 20 24 12 25
REMARK SMILES IDX 19 26 21 27 26 28 24 30 13 32 14 33 18 34 15 35 17 36 16 37
REMARK H PARENT 32 12 30 14 28 16 26 29 24 31
REMARK Flexibility Score: inf
ROOT
ATOM      1  O   UNL     1      47.041 -23.474  -7.160  1.00  0.00    -0.458 OA
ENDROOT
BRANCH   1   2
ATOM      2  C   UNL     1      46.240 -22.290  -7.024  1.00  0.00     0.339 C 
ATOM      3  C   UNL     1      47.363 -21.677  -5.054  1.00  0.00     0.199 C 
ATOM      4  C   UNL     1      48.033 -20.437  -5.694  1.00  0.00     0.180 C 
ATOM      5  O   UNL     1      46.103 -21.948  -5.652  1.00  0.00    -0.328 OA
ATOM      6  C   UNL     1      48.149 -20.628  -7.217  1.00  0.00     0.181 C 
ATOM      7  C   UNL     1      46.816 -21.105  -7.836  1.00  0.00     0.214 C 
BRANCH   3   8
ATOM      8  C   UNL     1      47.172 -21.467  -3.580  1.00  0.00     0.073 C 
ATOM      9  O   UNL     1      48.107 -20.987  -2.885  1.00  0.00    -0.547 OA
ATOM     10  O   UNL     1      45.954 -21.765  -2.978  1.00  0.00    -0.547 OA
ENDBRANCH   3   8
BRANCH   4  11
ATOM     11  O   UNL     1      47.361 -19.240  -5.375  1.00  0.00    -0.387 OA
ATOM     12  H   UNL     1      47.221 -18.725  -6.210  1.00  0.00     0.211 HD
ENDBRANCH   4  11
BRANCH   6  13
ATOM     13  O   UNL     1      48.580 -19.433  -7.817  1.00  0.00    -0.387 OA
ATOM     14  H   UNL     1      48.632 -19.606  -8.794  1.00  0.00     0.211 HD
ENDBRANCH   6  13
BRANCH   7  15
ATOM     15  O   UNL     1      45.872 -20.065  -7.861  1.00  0.00    -0.384 OA
ATOM     16  H   UNL     1      45.598 -19.891  -6.922  1.00  0.00     0.211 HD
ENDBRANCH   7  15
ENDBRANCH   1   2
BRANCH   1  17
ATOM     17  C   UNL     1      46.789 -24.740  -6.599  1.00  0.00     0.172 A 
ATOM     18  C   UNL     1      45.490 -25.255  -6.376  1.00  0.00     0.201 A 
ATOM     19  C   UNL     1      47.903 -25.494  -6.233  1.00  0.00     0.098 A 
ATOM     20  C   UNL     1      45.333 -26.566  -5.850  1.00  0.00     0.176 A 
ATOM     21  C   UNL     1      47.763 -26.769  -5.692  1.00  0.00     0.146 A 
ATOM     22  C   UNL     1      46.480 -27.324  -5.504  1.00  0.00     0.111 A 
ATOM     23  O   UNL     1      48.855 -27.450  -5.362  1.00  0.00    -0.456 OA
ATOM     24  C   UNL     1      46.411 -28.631  -4.972  1.00  0.00     0.197 A 
ATOM     25  C   UNL     1      48.824 -28.675  -4.843  1.00  0.00     0.138 A 
ATOM     26  C   UNL     1      47.587 -29.307  -4.643  1.00  0.00     0.100 A 
ATOM     27  O   UNL     1      45.306 -29.211  -4.791  1.00  0.00    -0.289 OA
BRANCH  18  28
ATOM     28  O   UNL     1      44.388 -24.441  -6.644  1.00  0.00    -0.502 OA
ATOM     29  H   UNL     1      44.086 -23.671  -6.065  1.00  0.00     0.293 HD
ENDBRANCH  18  28
BRANCH  20  30
ATOM     30  O   UNL     1      44.065 -27.131  -5.670  1.00  0.00    -0.504 OA
ATOM     31  H   UNL     1      43.583 -27.201  -4.786  1.00  0.00     0.293 HD
ENDBRANCH  20  30
BRANCH  25  32
ATOM     32  C   UNL     1      50.107 -29.339  -4.503  1.00  0.00     0.017 A 
ATOM     33  C   UNL     1      51.337 -28.884  -5.020  1.00  0.00     0.012 A 
ATOM     34  C   UNL     1      50.100 -30.474  -3.670  1.00  0.00     0.012 A 
ATOM     35  C   UNL     1      52.528 -29.540  -4.692  1.00  0.00     0.001 A 
ATOM     36  C   UNL     1      51.294 -31.125  -3.347  1.00  0.00     0.001 A 
ATOM     37  C   UNL     1      52.508 -30.657  -3.855  1.00  0.00     0.000 A 
ENDBRANCH  25  32
ENDBRANCH   1  17
TORSDOF 9
ENDMDL
MODEL 9
REMARK VINA RESULT:    -5.717     14.848     18.369
REMARK INTER + INTRA:          -8.819
REMARK INTER:                  -7.763
REMARK INTRA:                  -1.056
REMARK UNBOUND:                -0.930
REMARK SMILES O=C([O-])[C@H]1O[C@H](Oc2cc3oc(-c4ccccc4)cc(=O)c3c(O)c2O)[C@@H](O)[C@@H](O)[C@H]1O
REMARK SMILES IDX 7 1 6 2 4 3 31 4 5 5 29 6 27 7 2 8 1 9 3 10 32 11 30 13
REMARK SMILES IDX 28 15 8 17 25 18 9 19 23 20 10 21 22 22 11 23 20 24 12 25
REMARK SMILES IDX 19 26 21 27 26 28 24 30 13 32 14 33 18 34 15 35 17 36 16 37
REMARK H PARENT 32 12 30 14 28 16 26 29 24 31
REMARK Flexibility Score: inf
ROOT
ATOM      1  O   UNL     1      60.512 -16.661  -0.994  1.00  0.00    -0.458 OA
ENDROOT
BRANCH   1   2
ATOM      2  C   UNL     1      59.262 -17.197  -0.531  1.00  0.00     0.339 C 
ATOM      3  C   UNL     1      60.363 -18.759   0.836  1.00  0.00     0.199 C 
ATOM      4  C   UNL     1      59.891 -18.098   2.154  1.00  0.00     0.180 C 
ATOM      5  O   UNL     1      59.412 -18.572  -0.203  1.00  0.00    -0.328 OA
ATOM      6  C   UNL     1      59.585 -16.608   1.916  1.00  0.00     0.181 C 
ATOM      7  C   UNL     1      58.698 -16.399   0.668  1.00  0.00     0.214 C 
BRANCH   3   8
ATOM      8  C   UNL     1      60.588 -20.229   1.037  1.00  0.00     0.073 C 
ATOM      9  O   UNL     1      61.297 -20.633   1.997  1.00  0.00    -0.547 OA
ATOM     10  O   UNL     1      59.986 -21.156   0.192  1.00  0.00    -0.547 OA
ENDBRANCH   3   8
BRANCH   4  11
ATOM     11  O   UNL     1      58.789 -18.766   2.723  1.00  0.00    -0.387 OA
ATOM     12  H   UNL     1      58.025 -18.706   2.094  1.00  0.00     0.211 HD
ENDBRANCH   4  11
BRANCH   6  13
ATOM     13  O   UNL     1      58.980 -16.057   3.058  1.00  0.00    -0.387 OA
ATOM     14  H   UNL     1      58.868 -15.086   2.881  1.00  0.00     0.211 HD
ENDBRANCH   6  13
BRANCH   7  15
ATOM     15  O   UNL     1      57.378 -16.813   0.914  1.00  0.00    -0.384 OA
ATOM     16  H   UNL     1      57.090 -16.390   1.766  1.00  0.00     0.211 HD
ENDBRANCH   7  15
ENDBRANCH   1   2
BRANCH   1  17
ATOM     17  C   UNL     1      60.698 -15.573  -1.866  1.00  0.00     0.172 A 
ATOM     18  C   UNL     1      61.852 -14.755  -1.867  1.00  0.00     0.201 A 
ATOM     19  C   UNL     1      59.657 -15.299  -2.753  1.00  0.00     0.098 A 
ATOM     20  C   UNL     1      61.973 -13.708  -2.821  1.00  0.00     0.176 A 
ATOM     21  C   UNL     1      59.751 -14.260  -3.674  1.00  0.00     0.146 A 
ATOM     22  C   UNL     1      60.911 -13.459  -3.727  1.00  0.00     0.111 A 
ATOM     23  O   UNL     1      58.734 -14.040  -4.501  1.00  0.00    -0.456 OA
ATOM     24  C   UNL     1      60.951 -12.437  -4.702  1.00  0.00     0.197 A 
ATOM     25  C   UNL     1      58.732 -13.075  -5.418  1.00  0.00     0.138 A 
ATOM     26  C   UNL     1      59.858 -12.247  -5.548  1.00  0.00     0.100 A 
ATOM     27  O   UNL     1      61.957 -11.689  -4.832  1.00  0.00    -0.289 OA
BRANCH  18  28
ATOM     28  O   UNL     1      62.834 -14.974  -0.899  1.00  0.00    -0.502 OA
ATOM     29  H   UNL     1      62.650 -15.143   0.080  1.00  0.00     0.293 HD
ENDBRANCH  18  28
BRANCH  20  30
ATOM     30  O   UNL     1      63.125 -12.915  -2.890  1.00  0.00    -0.504 OA
ATOM     31  H   UNL     1      63.414 -12.382  -3.697  1.00  0.00     0.293 HD
ENDBRANCH  20  30
BRANCH  25  32
ATOM     32  C   UNL     1      57.536 -12.914  -6.282  1.00  0.00     0.017 A 
ATOM     33  C   UNL     1      57.486 -11.947  -7.306  1.00  0.00     0.012 A 
ATOM     34  C   UNL     1      56.404 -13.721  -6.055  1.00  0.00     0.012 A 
ATOM     35  C   UNL     1      56.339 -11.810  -8.094  1.00  0.00     0.001 A 
ATOM     36  C   UNL     1      55.261 -13.578  -6.846  1.00  0.00     0.001 A 
ATOM     37  C   UNL     1      55.228 -12.625  -7.866  1.00  0.00     0.000 A 
ENDBRANCH  25  32
ENDBRANCH   1  17
TORSDOF 9
ENDMDL
