MODEL 1
REMARK VINA RESULT:    -4.493      0.000      0.000
REMARK INTER + INTRA:          -5.231
REMARK INTER:                  -5.150
REMARK INTRA:                  -0.081
REMARK UNBOUND:                -0.081
REMARK SMILES COc1cc(C(=O)[O-])ccc1O
REMARK SMILES IDX 5 1 9 2 4 3 10 4 3 5 11 6 6 7 7 8 8 9 2 10 1 11 12 12
REMARK H PARENT 12 13
REMARK Flexibility Score: inf
ROOT
ATOM      1  C   UNL     1     126.285 124.061 129.240  1.00  0.00     0.001 A 
ATOM      2  C   UNL     1     125.532 123.061 129.877  1.00  0.00     0.014 A 
ATOM      3  C   UNL     1     126.329 124.094 127.834  1.00  0.00     0.060 A 
ATOM      4  C   UNL     1     124.838 122.113 129.125  1.00  0.00     0.051 A 
ATOM      5  C   UNL     1     125.628 123.136 127.072  1.00  0.00     0.161 A 
ATOM      6  C   UNL     1     124.883 122.148 127.726  1.00  0.00     0.157 A 
ENDROOT
BRANCH   1   7
ATOM      7  C   UNL     1     127.020 125.064 130.043  1.00  0.00     0.072 C 
ATOM      8  O   UNL     1     128.001 124.722 130.755  1.00  0.00    -0.545 OA
ATOM      9  O   UNL     1     126.638 126.400 130.022  1.00  0.00    -0.545 OA
ENDBRANCH   1   7
BRANCH   5  10
ATOM     10  O   UNL     1     125.649 123.138 125.667  1.00  0.00    -0.493 OA
ATOM     11  C   UNL     1     126.783 123.477 124.877  1.00  0.00     0.278 C 
ENDBRANCH   5  10
BRANCH   6  12
ATOM     12  O   UNL     1     124.188 121.199 126.977  1.00  0.00    -0.504 OA
ATOM     13  H   UNL     1     124.031 120.260 127.324  1.00  0.00     0.293 HD
ENDBRANCH   6  12
TORSDOF 3
ENDMDL
MODEL 2
REMARK VINA RESULT:    -4.468      3.571      3.993
REMARK INTER + INTRA:          -5.202
REMARK INTER:                  -5.107
REMARK INTRA:                  -0.095
REMARK UNBOUND:                -0.081
REMARK SMILES COc1cc(C(=O)[O-])ccc1O
REMARK SMILES IDX 5 1 9 2 4 3 10 4 3 5 11 6 6 7 7 8 8 9 2 10 1 11 12 12
REMARK H PARENT 12 13
REMARK Flexibility Score: inf
ROOT
ATOM      1  C   UNL     1     123.473 124.932 129.249  1.00  0.00     0.001 A 
ATOM      2  C   UNL     1     122.762 126.142 129.290  1.00  0.00     0.014 A 
ATOM      3  C   UNL     1     123.811 124.379 128.001  1.00  0.00     0.060 A 
ATOM      4  C   UNL     1     122.395 126.786 128.108  1.00  0.00     0.051 A 
ATOM      5  C   UNL     1     123.442 125.027 126.804  1.00  0.00     0.161 A 
ATOM      6  C   UNL     1     122.733 126.234 126.867  1.00  0.00     0.157 A 
ENDROOT
BRANCH   1   7
ATOM      7  C   UNL     1     123.859 124.252 130.506  1.00  0.00     0.072 C 
ATOM      8  O   UNL     1     123.410 123.108 130.781  1.00  0.00    -0.545 OA
ATOM      9  O   UNL     1     124.724 124.867 131.403  1.00  0.00    -0.545 OA
ENDBRANCH   1   7
BRANCH   5  10
ATOM     10  O   UNL     1     123.762 124.505 125.540  1.00  0.00    -0.493 OA
ATOM     11  C   UNL     1     123.020 123.488 124.875  1.00  0.00     0.278 C 
ENDBRANCH   5  10
BRANCH   6  12
ATOM     12  O   UNL     1     122.365 126.880 125.687  1.00  0.00    -0.504 OA
ATOM     13  H   UNL     1     122.470 126.435 124.783  1.00  0.00     0.293 HD
ENDBRANCH   6  12
TORSDOF 3
ENDMDL
MODEL 3
REMARK VINA RESULT:    -4.452      3.509      4.131
REMARK INTER + INTRA:          -5.183
REMARK INTER:                  -5.087
REMARK INTRA:                  -0.096
REMARK UNBOUND:                -0.081
REMARK SMILES COc1cc(C(=O)[O-])ccc1O
REMARK SMILES IDX 5 1 9 2 4 3 10 4 3 5 11 6 6 7 7 8 8 9 2 10 1 11 12 12
REMARK H PARENT 12 13
REMARK Flexibility Score: inf
ROOT
ATOM      1  C   UNL     1     125.835 126.503 129.255  1.00  0.00     0.001 A 
ATOM      2  C   UNL     1     127.237 126.526 129.324  1.00  0.00     0.014 A 
ATOM      3  C   UNL     1     125.212 126.467 127.993  1.00  0.00     0.060 A 
ATOM      4  C   UNL     1     128.002 126.516 128.157  1.00  0.00     0.051 A 
ATOM      5  C   UNL     1     125.983 126.457 126.812  1.00  0.00     0.161 A 
ATOM      6  C   UNL     1     127.380 126.481 126.903  1.00  0.00     0.157 A 
ENDROOT
BRANCH   1   7
ATOM      7  C   UNL     1     125.027 126.513 130.495  1.00  0.00     0.072 C 
ATOM      8  O   UNL     1     124.268 127.484 130.758  1.00  0.00    -0.545 OA
ATOM      9  O   UNL     1     125.095 125.452 131.390  1.00  0.00    -0.545 OA
ENDBRANCH   1   7
BRANCH   5  10
ATOM     10  O   UNL     1     125.397 126.422 125.536  1.00  0.00    -0.493 OA
ATOM     11  C   UNL     1     124.851 127.555 124.867  1.00  0.00     0.278 C 
ENDBRANCH   5  10
BRANCH   6  12
ATOM     12  O   UNL     1     128.147 126.471 125.739  1.00  0.00    -0.504 OA
ATOM     13  H   UNL     1     128.710 125.669 125.481  1.00  0.00     0.293 HD
ENDBRANCH   6  12
TORSDOF 3
ENDMDL
MODEL 4
REMARK VINA RESULT:    -4.449      3.633      5.523
REMARK INTER + INTRA:          -5.179
REMARK INTER:                  -5.104
REMARK INTRA:                  -0.075
REMARK UNBOUND:                -0.081
REMARK SMILES COc1cc(C(=O)[O-])ccc1O
REMARK SMILES IDX 5 1 9 2 4 3 10 4 3 5 11 6 6 7 7 8 8 9 2 10 1 11 12 12
REMARK H PARENT 12 13
REMARK Flexibility Score: inf
ROOT
ATOM      1  C   UNL     1     123.141 126.330 127.293  1.00  0.00     0.001 A 
ATOM      2  C   UNL     1     122.283 126.511 128.389  1.00  0.00     0.014 A 
ATOM      3  C   UNL     1     124.532 126.394 127.494  1.00  0.00     0.060 A 
ATOM      4  C   UNL     1     122.803 126.754 129.661  1.00  0.00     0.051 A 
ATOM      5  C   UNL     1     125.061 126.639 128.778  1.00  0.00     0.161 A 
ATOM      6  C   UNL     1     124.188 126.818 129.859  1.00  0.00     0.157 A 
ENDROOT
BRANCH   1   7
ATOM      7  C   UNL     1     122.584 126.072 125.946  1.00  0.00     0.072 C 
ATOM      8  O   UNL     1     122.249 127.029 125.197  1.00  0.00    -0.545 OA
ATOM      9  O   UNL     1     122.421 124.771 125.487  1.00  0.00    -0.545 OA
ENDBRANCH   1   7
BRANCH   5  10
ATOM     10  O   UNL     1     126.443 126.711 129.017  1.00  0.00    -0.493 OA
ATOM     11  C   UNL     1     127.434 126.815 127.999  1.00  0.00     0.278 C 
ENDBRANCH   5  10
BRANCH   6  12
ATOM     12  O   UNL     1     124.705 127.060 131.131  1.00  0.00    -0.504 OA
ATOM     13  H   UNL     1     125.299 127.859 131.319  1.00  0.00     0.293 HD
ENDBRANCH   6  12
TORSDOF 3
ENDMDL
MODEL 5
REMARK VINA RESULT:    -4.432      1.342      4.369
REMARK INTER + INTRA:          -5.160
REMARK INTER:                  -5.063
REMARK INTRA:                  -0.097
REMARK UNBOUND:                -0.081
REMARK SMILES COc1cc(C(=O)[O-])ccc1O
REMARK SMILES IDX 5 1 9 2 4 3 10 4 3 5 11 6 6 7 7 8 8 9 2 10 1 11 12 12
REMARK H PARENT 12 13
REMARK Flexibility Score: inf
ROOT
ATOM      1  C   UNL     1     125.063 122.825 128.322  1.00  0.00     0.001 A 
ATOM      2  C   UNL     1     123.971 122.728 129.199  1.00  0.00     0.014 A 
ATOM      3  C   UNL     1     126.139 123.665 128.660  1.00  0.00     0.060 A 
ATOM      4  C   UNL     1     123.954 123.456 130.390  1.00  0.00     0.051 A 
ATOM      5  C   UNL     1     126.125 124.402 129.862  1.00  0.00     0.161 A 
ATOM      6  C   UNL     1     125.027 124.291 130.724  1.00  0.00     0.157 A 
ENDROOT
BRANCH   1   7
ATOM      7  C   UNL     1     125.076 122.051 127.060  1.00  0.00     0.072 C 
ATOM      8  O   UNL     1     124.258 121.110 126.877  1.00  0.00    -0.545 OA
ATOM      9  O   UNL     1     125.992 122.350 126.059  1.00  0.00    -0.545 OA
ENDBRANCH   1   7
BRANCH   5  10
ATOM     10  O   UNL     1     127.181 125.251 130.232  1.00  0.00    -0.493 OA
ATOM     11  C   UNL     1     127.624 126.369 129.469  1.00  0.00     0.278 C 
ENDBRANCH   5  10
BRANCH   6  12
ATOM     12  O   UNL     1     125.007 125.018 131.914  1.00  0.00    -0.504 OA
ATOM     13  H   UNL     1     125.374 124.634 132.776  1.00  0.00     0.293 HD
ENDBRANCH   6  12
TORSDOF 3
ENDMDL
MODEL 6
REMARK VINA RESULT:    -4.431      2.450      4.136
REMARK INTER + INTRA:          -5.159
REMARK INTER:                  -5.084
REMARK INTRA:                  -0.075
REMARK UNBOUND:                -0.081
REMARK SMILES COc1cc(C(=O)[O-])ccc1O
REMARK SMILES IDX 5 1 9 2 4 3 10 4 3 5 11 6 6 7 7 8 8 9 2 10 1 11 12 12
REMARK H PARENT 12 13
REMARK Flexibility Score: inf
ROOT
ATOM      1  C   UNL     1     127.147 126.025 127.318  1.00  0.00     0.001 A 
ATOM      2  C   UNL     1     127.704 126.660 128.439  1.00  0.00     0.014 A 
ATOM      3  C   UNL     1     126.489 124.793 127.486  1.00  0.00     0.060 A 
ATOM      4  C   UNL     1     127.608 126.076 129.703  1.00  0.00     0.051 A 
ATOM      5  C   UNL     1     126.390 124.200 128.762  1.00  0.00     0.161 A 
ATOM      6  C   UNL     1     126.952 124.850 129.868  1.00  0.00     0.157 A 
ENDROOT
BRANCH   1   7
ATOM      7  C   UNL     1     127.252 126.649 125.979  1.00  0.00     0.072 C 
ATOM      8  O   UNL     1     128.263 126.447 125.256  1.00  0.00    -0.545 OA
ATOM      9  O   UNL     1     126.236 127.467 125.502  1.00  0.00    -0.545 OA
ENDBRANCH   1   7
BRANCH   5  10
ATOM     10  O   UNL     1     125.742 122.971 128.968  1.00  0.00    -0.493 OA
ATOM     11  C   UNL     1     125.366 122.072 127.930  1.00  0.00     0.278 C 
ENDBRANCH   5  10
BRANCH   6  12
ATOM     12  O   UNL     1     126.858 124.269 131.132  1.00  0.00    -0.504 OA
ATOM     13  H   UNL     1     127.428 123.474 131.394  1.00  0.00     0.293 HD
ENDBRANCH   6  12
TORSDOF 3
ENDMDL
MODEL 7
REMARK VINA RESULT:    -4.413      3.488      4.590
REMARK INTER + INTRA:          -5.139
REMARK INTER:                  -5.038
REMARK INTRA:                  -0.101
REMARK UNBOUND:                -0.081
REMARK SMILES COc1cc(C(=O)[O-])ccc1O
REMARK SMILES IDX 5 1 9 2 4 3 10 4 3 5 11 6 6 7 7 8 8 9 2 10 1 11 12 12
REMARK H PARENT 12 13
REMARK Flexibility Score: inf
ROOT
ATOM      1  C   UNL     1     127.058 126.061 128.351  1.00  0.00     0.001 A 
ATOM      2  C   UNL     1     127.647 125.122 129.213  1.00  0.00     0.014 A 
ATOM      3  C   UNL     1     125.818 126.627 128.700  1.00  0.00     0.060 A 
ATOM      4  C   UNL     1     127.009 124.754 130.399  1.00  0.00     0.051 A 
ATOM      5  C   UNL     1     125.171 126.256 129.897  1.00  0.00     0.161 A 
ATOM      6  C   UNL     1     125.775 125.318 130.743  1.00  0.00     0.157 A 
ENDROOT
BRANCH   1   7
ATOM      7  C   UNL     1     127.738 126.449 127.095  1.00  0.00     0.072 C 
ATOM      8  O   UNL     1     127.123 127.095 126.205  1.00  0.00    -0.545 OA
ATOM      9  O   UNL     1     129.067 126.106 126.879  1.00  0.00    -0.545 OA
ENDBRANCH   1   7
BRANCH   5  10
ATOM     10  O   UNL     1     123.932 126.799 130.278  1.00  0.00    -0.493 OA
ATOM     11  C   UNL     1     122.701 126.549 129.607  1.00  0.00     0.278 C 
ENDBRANCH   5  10
BRANCH   6  12
ATOM     12  O   UNL     1     125.140 124.948 131.928  1.00  0.00    -0.504 OA
ATOM     13  H   UNL     1     125.539 124.254 132.550  1.00  0.00     0.293 HD
ENDBRANCH   6  12
TORSDOF 3
ENDMDL
MODEL 8
REMARK VINA RESULT:    -4.402      2.481      4.335
REMARK INTER + INTRA:          -5.126
REMARK INTER:                  -5.050
REMARK INTRA:                  -0.076
REMARK UNBOUND:                -0.081
REMARK SMILES COc1cc(C(=O)[O-])ccc1O
REMARK SMILES IDX 5 1 9 2 4 3 10 4 3 5 11 6 6 7 7 8 8 9 2 10 1 11 12 12
REMARK H PARENT 12 13
REMARK Flexibility Score: inf
ROOT
ATOM      1  C   UNL     1     124.916 122.815 127.334  1.00  0.00     0.001 A 
ATOM      2  C   UNL     1     125.117 121.982 128.446  1.00  0.00     0.014 A 
ATOM      3  C   UNL     1     124.206 124.018 127.500  1.00  0.00     0.060 A 
ATOM      4  C   UNL     1     124.617 122.342 129.698  1.00  0.00     0.051 A 
ATOM      5  C   UNL     1     123.699 124.384 128.764  1.00  0.00     0.161 A 
ATOM      6  C   UNL     1     123.911 123.540 129.860  1.00  0.00     0.157 A 
ENDROOT
BRANCH   1   7
ATOM      7  C   UNL     1     125.448 122.428 126.008  1.00  0.00     0.072 C 
ATOM      8  O   UNL     1     126.550 122.884 125.601  1.00  0.00    -0.545 OA
ATOM      9  O   UNL     1     124.738 121.556 125.191  1.00  0.00    -0.545 OA
ENDBRANCH   1   7
BRANCH   5  10
ATOM     10  O   UNL     1     122.985 125.577 128.967  1.00  0.00    -0.493 OA
ATOM     11  C   UNL     1     122.313 126.300 127.941  1.00  0.00     0.278 C 
ENDBRANCH   5  10
BRANCH   6  12
ATOM     12  O   UNL     1     123.413 123.897 131.113  1.00  0.00    -0.504 OA
ATOM     13  H   UNL     1     124.016 124.262 131.840  1.00  0.00     0.293 HD
ENDBRANCH   6  12
TORSDOF 3
ENDMDL
MODEL 9
REMARK VINA RESULT:    -4.291      3.377      5.323
REMARK INTER + INTRA:          -4.999
REMARK INTER:                  -4.903
REMARK INTRA:                  -0.096
REMARK UNBOUND:                -0.081
REMARK SMILES COc1cc(C(=O)[O-])ccc1O
REMARK SMILES IDX 5 1 9 2 4 3 10 4 3 5 11 6 6 7 7 8 8 9 2 10 1 11 12 12
REMARK H PARENT 12 13
REMARK Flexibility Score: inf
ROOT
ATOM      1  C   UNL     1     127.142 126.543 125.880  1.00  0.00     0.001 A 
ATOM      2  C   UNL     1     128.206 126.472 126.793  1.00  0.00     0.014 A 
ATOM      3  C   UNL     1     125.823 126.587 126.369  1.00  0.00     0.060 A 
ATOM      4  C   UNL     1     127.959 126.444 128.166  1.00  0.00     0.051 A 
ATOM      5  C   UNL     1     125.570 126.559 127.756  1.00  0.00     0.161 A 
ATOM      6  C   UNL     1     126.646 126.488 128.650  1.00  0.00     0.157 A 
ENDROOT
BRANCH   1   7
ATOM      7  C   UNL     1     127.409 126.572 124.425  1.00  0.00     0.072 C 
ATOM      8  O   UNL     1     126.509 126.260 123.601  1.00  0.00    -0.545 OA
ATOM      9  O   UNL     1     128.659 126.944 123.945  1.00  0.00    -0.545 OA
ENDBRANCH   1   7
BRANCH   5  10
ATOM     10  O   UNL     1     124.268 126.600 128.280  1.00  0.00    -0.493 OA
ATOM     11  C   UNL     1     123.252 125.643 127.998  1.00  0.00     0.278 C 
ENDBRANCH   5  10
BRANCH   6  12
ATOM     12  O   UNL     1     126.402 126.460 130.023  1.00  0.00    -0.504 OA
ATOM     13  H   UNL     1     125.672 127.022 130.444  1.00  0.00     0.293 HD
ENDBRANCH   6  12
TORSDOF 3
ENDMDL
