MODEL 1
REMARK VINA RESULT:    -7.644      0.000      0.000
REMARK INTER + INTRA:          -8.998
REMARK INTER:                  -8.984
REMARK INTRA:                  -0.014
REMARK UNBOUND:                -0.014
REMARK SMILES C=C(C)[C@H]1CC[C@@]2(CO)CC[C@]3(C)[C@@H](CC[C@H]4[C@@]5(C)CC[C@H](O)C(C)(C)[C@H]5CC[C@@]43C)[C@@H]12
REMARK SMILES IDX 4 1 5 2 6 3 7 4 32 5 14 6 15 7 16 8 17 9 18 10 20 11 21 12
REMARK SMILES IDX 22 13 24 14 27 15 28 16 29 17 30 18 12 19 11 20 10 21 13 22
REMARK SMILES IDX 31 23 25 24 26 25 19 26 2 27 3 28 1 29 8 30 9 31 23 33
REMARK H PARENT 9 32 23 34
REMARK Flexibility Score: inf
ROOT
ATOM      1  C   UNL     1     -33.398  45.091   4.450  1.00  0.00     0.018 C 
ATOM      2  C   UNL     1     -33.515  44.496   3.043  1.00  0.00     0.009 C 
ATOM      3  C   UNL     1     -34.942  43.968   2.900  1.00  0.00     0.010 C 
ATOM      4  C   UNL     1     -35.624  44.016   4.294  1.00  0.00    -0.003 C 
ATOM      5  C   UNL     1     -34.503  44.414   5.303  1.00  0.00     0.008 C 
ATOM      6  C   UNL     1     -34.079  43.240   6.270  1.00  0.00    -0.000 C 
ATOM      7  C   UNL     1     -33.243  42.144   5.542  1.00  0.00     0.005 C 
ATOM      8  C   UNL     1     -33.412  40.644   5.910  1.00  0.00     0.005 C 
ATOM      9  C   UNL     1     -34.545  40.242   6.900  1.00  0.00     0.002 C 
ATOM     10  C   UNL     1     -34.443  38.731   7.440  1.00  0.00    -0.026 C 
ATOM     11  C   UNL     1     -33.091  38.420   8.155  1.00  0.00     0.010 C 
ATOM     12  C   UNL     1     -33.017  37.015   8.773  1.00  0.00     0.033 C 
ATOM     13  C   UNL     1     -34.161  36.761   9.771  1.00  0.00     0.120 C 
ATOM     14  C   UNL     1     -35.577  36.976   9.148  1.00  0.00    -0.006 C 
ATOM     15  C   UNL     1     -35.653  38.404   8.421  1.00  0.00     0.003 C 
ATOM     16  C   UNL     1     -35.832  39.543   9.462  1.00  0.00     0.005 C 
ATOM     17  C   UNL     1     -36.025  40.930   8.852  1.00  0.00     0.008 C 
ATOM     18  C   UNL     1     -34.869  41.394   7.921  1.00  0.00    -0.024 C 
ATOM     19  C   UNL     1     -35.315  42.714   7.098  1.00  0.00    -0.024 C 
ATOM     20  C   UNL     1     -36.562  42.484   6.136  1.00  0.00     0.008 C 
ATOM     21  C   UNL     1     -36.259  42.637   4.639  1.00  0.00     0.010 C 
ATOM     22  C   UNL     1     -35.761  43.853   8.085  1.00  0.00     0.012 C 
ATOM     23  C   UNL     1     -33.616  41.704   8.817  1.00  0.00     0.012 C 
ATOM     24  C   UNL     1     -35.948  35.813   8.172  1.00  0.00     0.014 C 
ATOM     25  C   UNL     1     -36.608  36.878  10.318  1.00  0.00     0.014 C 
ATOM     26  C   UNL     1     -34.523  37.823   6.173  1.00  0.00     0.012 C 
ENDROOT
BRANCH   1  27
ATOM     27  C   UNL     1     -31.996  45.121   5.052  1.00  0.00    -0.077 C 
ATOM     28  C   UNL     1     -31.783  45.125   6.552  1.00  0.00     0.039 C 
ATOM     29  C   UNL     1     -30.923  45.041   4.238  1.00  0.00     0.008 C 
ENDBRANCH   1  27
BRANCH   4  30
ATOM     30  C   UNL     1     -36.724  45.120   4.291  1.00  0.00     0.163 C 
BRANCH  30  31
ATOM     31  O   UNL     1     -37.792  44.768   3.450  1.00  0.00    -0.396 OA
ATOM     32  H   UNL     1     -38.181  45.625   3.135  1.00  0.00     0.210 HD
ENDBRANCH  30  31
ENDBRANCH   4  30
BRANCH  13  33
ATOM     33  O   UNL     1     -34.053  35.457  10.293  1.00  0.00    -0.393 OA
ATOM     34  H   UNL     1     -33.857  35.546  11.260  1.00  0.00     0.210 HD
ENDBRANCH  13  33
TORSDOF 4
ENDMDL
MODEL 2
REMARK VINA RESULT:    -7.010      1.498      2.727
REMARK INTER + INTRA:          -8.253
REMARK INTER:                  -7.763
REMARK INTRA:                  -0.491
REMARK UNBOUND:                -0.014
REMARK SMILES C=C(C)[C@H]1CC[C@@]2(CO)CC[C@]3(C)[C@@H](CC[C@H]4[C@@]5(C)CC[C@H](O)C(C)(C)[C@H]5CC[C@@]43C)[C@@H]12
REMARK SMILES IDX 4 1 5 2 6 3 7 4 32 5 14 6 15 7 16 8 17 9 18 10 20 11 21 12
REMARK SMILES IDX 22 13 24 14 27 15 28 16 29 17 30 18 12 19 11 20 10 21 13 22
REMARK SMILES IDX 31 23 25 24 26 25 19 26 2 27 3 28 1 29 8 30 9 31 23 33
REMARK H PARENT 9 32 23 34
REMARK Flexibility Score: inf
ROOT
ATOM      1  C   UNL     1     -33.700  44.869   7.094  1.00  0.00     0.018 C 
ATOM      2  C   UNL     1     -32.252  44.775   6.602  1.00  0.00     0.009 C 
ATOM      3  C   UNL     1     -32.273  43.955   5.312  1.00  0.00     0.010 C 
ATOM      4  C   UNL     1     -33.689  43.342   5.144  1.00  0.00    -0.003 C 
ATOM      5  C   UNL     1     -34.455  43.669   6.464  1.00  0.00     0.008 C 
ATOM      6  C   UNL     1     -34.721  42.403   7.368  1.00  0.00    -0.000 C 
ATOM      7  C   UNL     1     -33.426  41.890   8.069  1.00  0.00     0.005 C 
ATOM      8  C   UNL     1     -33.184  40.369   8.272  1.00  0.00     0.005 C 
ATOM      9  C   UNL     1     -34.176  39.363   7.619  1.00  0.00     0.002 C 
ATOM     10  C   UNL     1     -34.013  37.848   8.133  1.00  0.00    -0.026 C 
ATOM     11  C   UNL     1     -34.174  37.699   9.679  1.00  0.00     0.010 C 
ATOM     12  C   UNL     1     -34.129  36.246  10.176  1.00  0.00     0.033 C 
ATOM     13  C   UNL     1     -35.191  35.366   9.493  1.00  0.00     0.120 C 
ATOM     14  C   UNL     1     -35.089  35.381   7.935  1.00  0.00    -0.006 C 
ATOM     15  C   UNL     1     -35.048  36.891   7.395  1.00  0.00     0.003 C 
ATOM     16  C   UNL     1     -36.469  37.517   7.403  1.00  0.00     0.005 C 
ATOM     17  C   UNL     1     -36.544  38.918   6.799  1.00  0.00     0.008 C 
ATOM     18  C   UNL     1     -35.623  39.967   7.484  1.00  0.00    -0.024 C 
ATOM     19  C   UNL     1     -35.547  41.310   6.585  1.00  0.00    -0.024 C 
ATOM     20  C   UNL     1     -34.923  41.084   5.138  1.00  0.00     0.008 C 
ATOM     21  C   UNL     1     -33.594  41.809   4.888  1.00  0.00     0.010 C 
ATOM     22  C   UNL     1     -36.988  41.881   6.327  1.00  0.00     0.012 C 
ATOM     23  C   UNL     1     -36.219  40.289   8.902  1.00  0.00     0.012 C 
ATOM     24  C   UNL     1     -33.853  34.560   7.442  1.00  0.00     0.014 C 
ATOM     25  C   UNL     1     -36.337  34.615   7.389  1.00  0.00     0.014 C 
ATOM     26  C   UNL     1     -32.552  37.435   7.772  1.00  0.00     0.012 C 
ENDROOT
BRANCH   1  27
ATOM     27  C   UNL     1     -33.887  45.080   8.594  1.00  0.00    -0.077 C 
ATOM     28  C   UNL     1     -35.268  45.125   9.216  1.00  0.00     0.039 C 
ATOM     29  C   UNL     1     -32.805  45.125   9.397  1.00  0.00     0.008 C 
ENDBRANCH   1  27
BRANCH   4  30
ATOM     30  C   UNL     1     -34.412  44.035   3.950  1.00  0.00     0.163 C 
BRANCH  30  31
ATOM     31  O   UNL     1     -35.712  44.428   4.306  1.00  0.00    -0.396 OA
ATOM     32  H   UNL     1     -36.228  44.453   3.459  1.00  0.00     0.210 HD
ENDBRANCH  30  31
ENDBRANCH   4  30
BRANCH  13  33
ATOM     33  O   UNL     1     -35.094  34.046   9.974  1.00  0.00    -0.393 OA
ATOM     34  H   UNL     1     -34.214  33.965  10.423  1.00  0.00     0.210 HD
ENDBRANCH  13  33
TORSDOF 4
ENDMDL
MODEL 3
REMARK VINA RESULT:    -6.991     17.068     19.385
REMARK INTER + INTRA:          -8.230
REMARK INTER:                  -7.754
REMARK INTRA:                  -0.476
REMARK UNBOUND:                -0.014
REMARK SMILES C=C(C)[C@H]1CC[C@@]2(CO)CC[C@]3(C)[C@@H](CC[C@H]4[C@@]5(C)CC[C@H](O)C(C)(C)[C@H]5CC[C@@]43C)[C@@H]12
REMARK SMILES IDX 4 1 5 2 6 3 7 4 32 5 14 6 15 7 16 8 17 9 18 10 20 11 21 12
REMARK SMILES IDX 22 13 24 14 27 15 28 16 29 17 30 18 12 19 11 20 10 21 13 22
REMARK SMILES IDX 31 23 25 24 26 25 19 26 2 27 3 28 1 29 8 30 9 31 23 33
REMARK H PARENT 9 32 23 34
REMARK Flexibility Score: inf
ROOT
ATOM      1  C   UNL     1     -24.474  33.384  21.196  1.00  0.00     0.018 C 
ATOM      2  C   UNL     1     -24.036  32.921  22.589  1.00  0.00     0.009 C 
ATOM      3  C   UNL     1     -23.838  31.407  22.512  1.00  0.00     0.010 C 
ATOM      4  C   UNL     1     -24.386  30.909  21.148  1.00  0.00    -0.003 C 
ATOM      5  C   UNL     1     -25.083  32.143  20.493  1.00  0.00     0.008 C 
ATOM      6  C   UNL     1     -26.656  32.020  20.436  1.00  0.00    -0.000 C 
ATOM      7  C   UNL     1     -27.318  32.200  21.837  1.00  0.00     0.005 C 
ATOM      8  C   UNL     1     -28.568  31.368  22.236  1.00  0.00     0.005 C 
ATOM      9  C   UNL     1     -29.048  30.239  21.278  1.00  0.00     0.002 C 
ATOM     10  C   UNL     1     -30.503  29.651  21.629  1.00  0.00    -0.026 C 
ATOM     11  C   UNL     1     -31.623  30.737  21.640  1.00  0.00     0.010 C 
ATOM     12  C   UNL     1     -33.036  30.178  21.867  1.00  0.00     0.033 C 
ATOM     13  C   UNL     1     -33.411  29.109  20.826  1.00  0.00     0.120 C 
ATOM     14  C   UNL     1     -32.392  27.926  20.768  1.00  0.00    -0.006 C 
ATOM     15  C   UNL     1     -30.897  28.488  20.616  1.00  0.00     0.003 C 
ATOM     16  C   UNL     1     -30.619  28.925  19.152  1.00  0.00     0.005 C 
ATOM     17  C   UNL     1     -29.182  29.370  18.890  1.00  0.00     0.008 C 
ATOM     18  C   UNL     1     -28.699  30.553  19.776  1.00  0.00    -0.024 C 
ATOM     19  C   UNL     1     -27.096  30.732  19.638  1.00  0.00    -0.024 C 
ATOM     20  C   UNL     1     -26.261  29.470  20.130  1.00  0.00     0.008 C 
ATOM     21  C   UNL     1     -25.372  29.722  21.356  1.00  0.00     0.010 C 
ATOM     22  C   UNL     1     -26.694  30.931  18.132  1.00  0.00     0.012 C 
ATOM     23  C   UNL     1     -29.440  31.854  19.300  1.00  0.00     0.012 C 
ATOM     24  C   UNL     1     -32.533  26.996  22.017  1.00  0.00     0.014 C 
ATOM     25  C   UNL     1     -32.793  27.039  19.546  1.00  0.00     0.014 C 
ATOM     26  C   UNL     1     -30.388  29.081  23.078  1.00  0.00     0.012 C 
ENDROOT
BRANCH   1  27
ATOM     27  C   UNL     1     -25.296  34.669  21.143  1.00  0.00    -0.077 C 
ATOM     28  C   UNL     1     -25.543  35.497  22.387  1.00  0.00     0.039 C 
ATOM     29  C   UNL     1     -25.727  35.132  19.951  1.00  0.00     0.008 C 
ENDBRANCH   1  27
BRANCH   4  30
ATOM     30  C   UNL     1     -23.197  30.459  20.247  1.00  0.00     0.163 C 
BRANCH  30  31
ATOM     31  O   UNL     1     -23.264  31.063  18.982  1.00  0.00    -0.396 OA
ATOM     32  H   UNL     1     -22.763  30.464  18.370  1.00  0.00     0.210 HD
ENDBRANCH  30  31
ENDBRANCH   4  30
BRANCH  13  33
ATOM     33  O   UNL     1     -34.706  28.622  21.091  1.00  0.00    -0.393 OA
ATOM     34  H   UNL     1     -35.336  29.367  20.924  1.00  0.00     0.210 HD
ENDBRANCH  13  33
TORSDOF 4
ENDMDL
MODEL 4
REMARK VINA RESULT:    -5.974     16.818     19.209
REMARK INTER + INTRA:          -7.036
REMARK INTER:                  -6.488
REMARK INTRA:                  -0.548
REMARK UNBOUND:                -0.014
REMARK SMILES C=C(C)[C@H]1CC[C@@]2(CO)CC[C@]3(C)[C@@H](CC[C@H]4[C@@]5(C)CC[C@H](O)C(C)(C)[C@H]5CC[C@@]43C)[C@@H]12
REMARK SMILES IDX 4 1 5 2 6 3 7 4 32 5 14 6 15 7 16 8 17 9 18 10 20 11 21 12
REMARK SMILES IDX 22 13 24 14 27 15 28 16 29 17 30 18 12 19 11 20 10 21 13 22
REMARK SMILES IDX 31 23 25 24 26 25 19 26 2 27 3 28 1 29 8 30 9 31 23 33
REMARK H PARENT 9 32 23 34
REMARK Flexibility Score: inf
ROOT
ATOM      1  C   UNL     1     -25.956  30.985  20.650  1.00  0.00     0.018 C 
ATOM      2  C   UNL     1     -25.731  30.636  19.175  1.00  0.00     0.009 C 
ATOM      3  C   UNL     1     -26.764  31.423  18.369  1.00  0.00     0.010 C 
ATOM      4  C   UNL     1     -27.776  32.061  19.359  1.00  0.00    -0.003 C 
ATOM      5  C   UNL     1     -27.422  31.479  20.764  1.00  0.00     0.008 C 
ATOM      6  C   UNL     1     -28.504  30.473  21.319  1.00  0.00    -0.000 C 
ATOM      7  C   UNL     1     -28.476  29.102  20.577  1.00  0.00     0.005 C 
ATOM      8  C   UNL     1     -29.793  28.328  20.292  1.00  0.00     0.005 C 
ATOM      9  C   UNL     1     -31.149  29.021  20.614  1.00  0.00     0.002 C 
ATOM     10  C   UNL     1     -32.420  28.037  20.568  1.00  0.00    -0.026 C 
ATOM     11  C   UNL     1     -32.296  26.821  21.538  1.00  0.00     0.010 C 
ATOM     12  C   UNL     1     -33.546  25.929  21.587  1.00  0.00     0.033 C 
ATOM     13  C   UNL     1     -34.809  26.722  21.966  1.00  0.00     0.120 C 
ATOM     14  C   UNL     1     -35.079  27.934  21.019  1.00  0.00    -0.006 C 
ATOM     15  C   UNL     1     -33.760  28.836  20.883  1.00  0.00     0.003 C 
ATOM     16  C   UNL     1     -33.575  29.734  22.137  1.00  0.00     0.005 C 
ATOM     17  C   UNL     1     -32.403  30.710  22.046  1.00  0.00     0.008 C 
ATOM     18  C   UNL     1     -31.021  30.040  21.806  1.00  0.00    -0.024 C 
ATOM     19  C   UNL     1     -29.920  31.162  21.420  1.00  0.00    -0.024 C 
ATOM     20  C   UNL     1     -30.244  31.948  20.076  1.00  0.00     0.008 C 
ATOM     21  C   UNL     1     -29.237  31.727  18.939  1.00  0.00     0.010 C 
ATOM     22  C   UNL     1     -29.846  32.266  22.536  1.00  0.00     0.012 C 
ATOM     23  C   UNL     1     -30.605  29.294  23.125  1.00  0.00     0.012 C 
ATOM     24  C   UNL     1     -35.596  27.457  19.623  1.00  0.00     0.014 C 
ATOM     25  C   UNL     1     -36.260  28.744  21.641  1.00  0.00     0.014 C 
ATOM     26  C   UNL     1     -32.464  27.473  19.113  1.00  0.00     0.012 C 
ENDROOT
BRANCH   1  27
ATOM     27  C   UNL     1     -25.512  29.934  21.664  1.00  0.00    -0.077 C 
ATOM     28  C   UNL     1     -24.939  28.604  21.219  1.00  0.00     0.039 C 
ATOM     29  C   UNL     1     -25.533  30.231  22.979  1.00  0.00     0.008 C 
ENDBRANCH   1  27
BRANCH   4  30
ATOM     30  C   UNL     1     -27.571  33.606  19.381  1.00  0.00     0.163 C 
BRANCH  30  31
ATOM     31  O   UNL     1     -27.481  34.086  20.698  1.00  0.00    -0.396 OA
ATOM     32  H   UNL     1     -26.764  34.771  20.687  1.00  0.00     0.210 HD
ENDBRANCH  30  31
ENDBRANCH   4  30
BRANCH  13  33
ATOM     33  O   UNL     1     -35.923  25.859  21.980  1.00  0.00    -0.393 OA
ATOM     34  H   UNL     1     -35.698  25.084  21.407  1.00  0.00     0.210 HD
ENDBRANCH  13  33
TORSDOF 4
ENDMDL
MODEL 5
REMARK VINA RESULT:    -5.855     16.640     20.025
REMARK INTER + INTRA:          -6.895
REMARK INTER:                  -6.433
REMARK INTRA:                  -0.462
REMARK UNBOUND:                -0.014
REMARK SMILES C=C(C)[C@H]1CC[C@@]2(CO)CC[C@]3(C)[C@@H](CC[C@H]4[C@@]5(C)CC[C@H](O)C(C)(C)[C@H]5CC[C@@]43C)[C@@H]12
REMARK SMILES IDX 4 1 5 2 6 3 7 4 32 5 14 6 15 7 16 8 17 9 18 10 20 11 21 12
REMARK SMILES IDX 22 13 24 14 27 15 28 16 29 17 30 18 12 19 11 20 10 21 13 22
REMARK SMILES IDX 31 23 25 24 26 25 19 26 2 27 3 28 1 29 8 30 9 31 23 33
REMARK H PARENT 9 32 23 34
REMARK Flexibility Score: inf
ROOT
ATOM      1  C   UNL     1     -31.588  28.819  20.880  1.00  0.00     0.018 C 
ATOM      2  C   UNL     1     -31.670  28.497  22.375  1.00  0.00     0.009 C 
ATOM      3  C   UNL     1     -31.607  29.829  23.121  1.00  0.00     0.010 C 
ATOM      4  C   UNL     1     -31.243  30.944  22.104  1.00  0.00    -0.003 C 
ATOM      5  C   UNL     1     -30.910  30.209  20.768  1.00  0.00     0.008 C 
ATOM      6  C   UNL     1     -29.379  30.259  20.387  1.00  0.00    -0.000 C 
ATOM      7  C   UNL     1     -28.511  29.330  21.289  1.00  0.00     0.005 C 
ATOM      8  C   UNL     1     -27.081  29.756  21.723  1.00  0.00     0.005 C 
ATOM      9  C   UNL     1     -26.595  31.194  21.376  1.00  0.00     0.002 C 
ATOM     10  C   UNL     1     -25.019  31.428  21.596  1.00  0.00    -0.026 C 
ATOM     11  C   UNL     1     -24.127  30.442  20.779  1.00  0.00     0.010 C 
ATOM     12  C   UNL     1     -22.620  30.720  20.892  1.00  0.00     0.033 C 
ATOM     13  C   UNL     1     -22.262  32.157  20.472  1.00  0.00     0.120 C 
ATOM     14  C   UNL     1     -23.048  33.243  21.274  1.00  0.00    -0.006 C 
ATOM     15  C   UNL     1     -24.620  32.927  21.242  1.00  0.00     0.003 C 
ATOM     16  C   UNL     1     -25.239  33.347  19.881  1.00  0.00     0.005 C 
ATOM     17  C   UNL     1     -26.756  33.186  19.802  1.00  0.00     0.008 C 
ATOM     18  C   UNL     1     -27.267  31.742  20.063  1.00  0.00    -0.024 C 
ATOM     19  C   UNL     1     -28.873  31.749  20.262  1.00  0.00    -0.024 C 
ATOM     20  C   UNL     1     -29.365  32.601  21.512  1.00  0.00     0.008 C 
ATOM     21  C   UNL     1     -30.041  31.786  22.624  1.00  0.00     0.010 C 
ATOM     22  C   UNL     1     -29.578  32.399  19.017  1.00  0.00     0.012 C 
ATOM     23  C   UNL     1     -26.871  30.853  18.830  1.00  0.00     0.012 C 
ATOM     24  C   UNL     1     -22.514  33.361  22.739  1.00  0.00     0.014 C 
ATOM     25  C   UNL     1     -22.730  34.619  20.607  1.00  0.00     0.014 C 
ATOM     26  C   UNL     1     -24.759  31.149  23.110  1.00  0.00     0.012 C 
ENDROOT
BRANCH   1  27
ATOM     27  C   UNL     1     -31.031  27.715  19.985  1.00  0.00    -0.077 C 
ATOM     28  C   UNL     1     -30.576  26.390  20.560  1.00  0.00     0.039 C 
ATOM     29  C   UNL     1     -31.037  27.881  18.646  1.00  0.00     0.008 C 
ENDBRANCH   1  27
BRANCH   4  30
ATOM     30  C   UNL     1     -32.480  31.866  21.884  1.00  0.00     0.163 C 
BRANCH  30  31
ATOM     31  O   UNL     1     -33.578  31.427  22.640  1.00  0.00    -0.396 OA
ATOM     32  H   UNL     1     -33.195  30.994  23.446  1.00  0.00     0.210 HD
ENDBRANCH  30  31
ENDBRANCH   4  30
BRANCH  13  33
ATOM     33  O   UNL     1     -20.875  32.359  20.611  1.00  0.00    -0.393 OA
ATOM     34  H   UNL     1     -20.575  32.869  19.816  1.00  0.00     0.210 HD
ENDBRANCH  13  33
TORSDOF 4
ENDMDL
MODEL 6
REMARK VINA RESULT:    -5.447     16.452     19.910
REMARK INTER + INTRA:          -6.417
REMARK INTER:                  -5.985
REMARK INTRA:                  -0.432
REMARK UNBOUND:                -0.014
REMARK SMILES C=C(C)[C@H]1CC[C@@]2(CO)CC[C@]3(C)[C@@H](CC[C@H]4[C@@]5(C)CC[C@H](O)C(C)(C)[C@H]5CC[C@@]43C)[C@@H]12
REMARK SMILES IDX 4 1 5 2 6 3 7 4 32 5 14 6 15 7 16 8 17 9 18 10 20 11 21 12
REMARK SMILES IDX 22 13 24 14 27 15 28 16 29 17 30 18 12 19 11 20 10 21 13 22
REMARK SMILES IDX 31 23 25 24 26 25 19 26 2 27 3 28 1 29 8 30 9 31 23 33
REMARK H PARENT 9 32 23 34
REMARK Flexibility Score: inf
ROOT
ATOM      1  C   UNL     1     -27.324  31.433  20.267  1.00  0.00     0.018 C 
ATOM      2  C   UNL     1     -27.566  32.486  21.353  1.00  0.00     0.009 C 
ATOM      3  C   UNL     1     -27.666  31.738  22.683  1.00  0.00     0.010 C 
ATOM      4  C   UNL     1     -27.730  30.215  22.385  1.00  0.00    -0.003 C 
ATOM      5  C   UNL     1     -27.851  30.089  20.834  1.00  0.00     0.008 C 
ATOM      6  C   UNL     1     -29.267  29.585  20.352  1.00  0.00    -0.000 C 
ATOM      7  C   UNL     1     -30.369  30.678  20.500  1.00  0.00     0.005 C 
ATOM      8  C   UNL     1     -31.817  30.293  20.913  1.00  0.00     0.005 C 
ATOM      9  C   UNL     1     -32.106  28.822  21.333  1.00  0.00     0.002 C 
ATOM     10  C   UNL     1     -33.669  28.464  21.447  1.00  0.00    -0.026 C 
ATOM     11  C   UNL     1     -34.460  28.717  20.124  1.00  0.00     0.010 C 
ATOM     12  C   UNL     1     -35.931  28.279  20.180  1.00  0.00     0.033 C 
ATOM     13  C   UNL     1     -36.080  26.794  20.556  1.00  0.00     0.120 C 
ATOM     14  C   UNL     1     -35.382  26.430  21.905  1.00  0.00    -0.006 C 
ATOM     15  C   UNL     1     -33.866  26.952  21.905  1.00  0.00     0.003 C 
ATOM     16  C   UNL     1     -32.958  26.009  21.070  1.00  0.00     0.005 C 
ATOM     17  C   UNL     1     -31.474  26.368  21.106  1.00  0.00     0.008 C 
ATOM     18  C   UNL     1     -31.144  27.805  20.614  1.00  0.00    -0.024 C 
ATOM     19  C   UNL     1     -29.614  28.181  20.983  1.00  0.00    -0.024 C 
ATOM     20  C   UNL     1     -29.311  28.192  22.545  1.00  0.00     0.008 C 
ATOM     21  C   UNL     1     -28.938  29.565  23.121  1.00  0.00     0.010 C 
ATOM     22  C   UNL     1     -28.626  27.119  20.379  1.00  0.00     0.012 C 
ATOM     23  C   UNL     1     -31.360  27.850  19.058  1.00  0.00     0.012 C 
ATOM     24  C   UNL     1     -36.184  26.989  23.125  1.00  0.00     0.014 C 
ATOM     25  C   UNL     1     -35.448  24.875  22.046  1.00  0.00     0.014 C 
ATOM     26  C   UNL     1     -34.245  29.430  22.529  1.00  0.00     0.012 C 
ENDROOT
BRANCH   1  27
ATOM     27  C   UNL     1     -27.781  31.804  18.859  1.00  0.00    -0.077 C 
ATOM     28  C   UNL     1     -28.813  32.889  18.626  1.00  0.00     0.039 C 
ATOM     29  C   UNL     1     -27.184  31.229  17.795  1.00  0.00     0.008 C 
ENDBRANCH   1  27
BRANCH   4  30
ATOM     30  C   UNL     1     -26.403  29.543  22.849  1.00  0.00     0.163 C 
BRANCH  30  31
ATOM     31  O   UNL     1     -25.929  28.640  21.883  1.00  0.00    -0.396 OA
ATOM     32  H   UNL     1     -26.233  27.744  22.180  1.00  0.00     0.210 HD
ENDBRANCH  30  31
ENDBRANCH   4  30
BRANCH  13  33
ATOM     33  O   UNL     1     -37.446  26.453  20.607  1.00  0.00    -0.393 OA
ATOM     34  H   UNL     1     -37.955  27.243  20.294  1.00  0.00     0.210 HD
ENDBRANCH  13  33
TORSDOF 4
ENDMDL
MODEL 7
REMARK VINA RESULT:    -5.031      2.003      3.585
REMARK INTER + INTRA:          -5.927
REMARK INTER:                  -5.410
REMARK INTRA:                  -0.517
REMARK UNBOUND:                -0.014
REMARK SMILES C=C(C)[C@H]1CC[C@@]2(CO)CC[C@]3(C)[C@@H](CC[C@H]4[C@@]5(C)CC[C@H](O)C(C)(C)[C@H]5CC[C@@]43C)[C@@H]12
REMARK SMILES IDX 4 1 5 2 6 3 7 4 32 5 14 6 15 7 16 8 17 9 18 10 20 11 21 12
REMARK SMILES IDX 22 13 24 14 27 15 28 16 29 17 30 18 12 19 11 20 10 21 13 22
REMARK SMILES IDX 31 23 25 24 26 25 19 26 2 27 3 28 1 29 8 30 9 31 23 33
REMARK H PARENT 9 32 23 34
REMARK Flexibility Score: inf
ROOT
ATOM      1  C   UNL     1     -33.988  44.567   5.714  1.00  0.00     0.018 C 
ATOM      2  C   UNL     1     -35.294  45.125   6.288  1.00  0.00     0.009 C 
ATOM      3  C   UNL     1     -35.199  45.004   7.809  1.00  0.00     0.010 C 
ATOM      4  C   UNL     1     -33.947  44.153   8.155  1.00  0.00    -0.003 C 
ATOM      5  C   UNL     1     -33.406  43.617   6.793  1.00  0.00     0.008 C 
ATOM      6  C   UNL     1     -33.609  42.064   6.602  1.00  0.00    -0.000 C 
ATOM      7  C   UNL     1     -35.097  41.688   6.330  1.00  0.00     0.005 C 
ATOM      8  C   UNL     1     -35.703  40.379   6.909  1.00  0.00     0.005 C 
ATOM      9  C   UNL     1     -34.846  39.536   7.897  1.00  0.00     0.002 C 
ATOM     10  C   UNL     1     -35.437  38.070   8.196  1.00  0.00    -0.026 C 
ATOM     11  C   UNL     1     -35.623  37.204   6.911  1.00  0.00     0.010 C 
ATOM     12  C   UNL     1     -36.084  35.765   7.186  1.00  0.00     0.033 C 
ATOM     13  C   UNL     1     -35.127  35.021   8.135  1.00  0.00     0.120 C 
ATOM     14  C   UNL     1     -34.912  35.762   9.493  1.00  0.00    -0.006 C 
ATOM     15  C   UNL     1     -34.512  37.294   9.233  1.00  0.00     0.003 C 
ATOM     16  C   UNL     1     -33.019  37.411   8.823  1.00  0.00     0.005 C 
ATOM     17  C   UNL     1     -32.520  38.846   8.664  1.00  0.00     0.008 C 
ATOM     18  C   UNL     1     -33.305  39.691   7.622  1.00  0.00    -0.024 C 
ATOM     19  C   UNL     1     -32.904  41.253   7.758  1.00  0.00    -0.024 C 
ATOM     20  C   UNL     1     -33.263  41.890   9.171  1.00  0.00     0.008 C 
ATOM     21  C   UNL     1     -34.324  42.999   9.129  1.00  0.00     0.010 C 
ATOM     22  C   UNL     1     -31.351  41.437   7.605  1.00  0.00     0.012 C 
ATOM     23  C   UNL     1     -32.946  39.156   6.188  1.00  0.00     0.012 C 
ATOM     24  C   UNL     1     -36.175  35.645  10.407  1.00  0.00     0.014 C 
ATOM     25  C   UNL     1     -33.780  35.000  10.253  1.00  0.00     0.014 C 
ATOM     26  C   UNL     1     -36.852  38.303   8.813  1.00  0.00     0.012 C 
ENDROOT
BRANCH   1  27
ATOM     27  C   UNL     1     -34.060  44.018   4.291  1.00  0.00    -0.077 C 
ATOM     28  C   UNL     1     -35.390  43.731   3.625  1.00  0.00     0.039 C 
ATOM     29  C   UNL     1     -32.926  43.881   3.575  1.00  0.00     0.008 C 
ENDBRANCH   1  27
BRANCH   4  30
ATOM     30  C   UNL     1     -32.867  45.067   8.809  1.00  0.00     0.163 C 
BRANCH  30  31
ATOM     31  O   UNL     1     -31.608  44.860   8.223  1.00  0.00    -0.396 OA
ATOM     32  H   UNL     1     -31.735  45.008   7.250  1.00  0.00     0.210 HD
ENDBRANCH  30  31
ENDBRANCH   4  30
BRANCH  13  33
ATOM     33  O   UNL     1     -35.606  33.716   8.364  1.00  0.00    -0.393 OA
ATOM     34  H   UNL     1     -35.365  33.175   7.570  1.00  0.00     0.210 HD
ENDBRANCH  13  33
TORSDOF 4
ENDMDL
MODEL 8
REMARK VINA RESULT:    -4.671      2.487      4.388
REMARK INTER + INTRA:          -5.504
REMARK INTER:                  -5.111
REMARK INTRA:                  -0.394
REMARK UNBOUND:                -0.014
REMARK SMILES C=C(C)[C@H]1CC[C@@]2(CO)CC[C@]3(C)[C@@H](CC[C@H]4[C@@]5(C)CC[C@H](O)C(C)(C)[C@H]5CC[C@@]43C)[C@@H]12
REMARK SMILES IDX 4 1 5 2 6 3 7 4 32 5 14 6 15 7 16 8 17 9 18 10 20 11 21 12
REMARK SMILES IDX 22 13 24 14 27 15 28 16 29 17 30 18 12 19 11 20 10 21 13 22
REMARK SMILES IDX 31 23 25 24 26 25 19 26 2 27 3 28 1 29 8 30 9 31 23 33
REMARK H PARENT 9 32 23 34
REMARK Flexibility Score: inf
ROOT
ATOM      1  C   UNL     1     -34.500  44.885   7.708  1.00  0.00     0.018 C 
ATOM      2  C   UNL     1     -33.978  45.125   9.128  1.00  0.00     0.009 C 
ATOM      3  C   UNL     1     -32.659  44.362   9.251  1.00  0.00     0.010 C 
ATOM      4  C   UNL     1     -32.495  43.460   7.998  1.00  0.00    -0.003 C 
ATOM      5  C   UNL     1     -33.841  43.570   7.216  1.00  0.00     0.008 C 
ATOM      6  C   UNL     1     -34.703  42.247   7.256  1.00  0.00    -0.000 C 
ATOM      7  C   UNL     1     -35.359  42.007   8.650  1.00  0.00     0.005 C 
ATOM      8  C   UNL     1     -35.500  40.570   9.223  1.00  0.00     0.005 C 
ATOM      9  C   UNL     1     -34.829  39.393   8.456  1.00  0.00     0.002 C 
ATOM     10  C   UNL     1     -35.284  37.935   8.958  1.00  0.00    -0.026 C 
ATOM     11  C   UNL     1     -36.825  37.704   8.876  1.00  0.00     0.010 C 
ATOM     12  C   UNL     1     -37.267  36.281   9.250  1.00  0.00     0.033 C 
ATOM     13  C   UNL     1     -36.573  35.213   8.386  1.00  0.00     0.120 C 
ATOM     14  C   UNL     1     -35.014  35.300   8.440  1.00  0.00    -0.006 C 
ATOM     15  C   UNL     1     -34.530  36.799   8.137  1.00  0.00     0.003 C 
ATOM     16  C   UNL     1     -34.590  37.099   6.615  1.00  0.00     0.005 C 
ATOM     17  C   UNL     1     -34.040  38.468   6.220  1.00  0.00     0.008 C 
ATOM     18  C   UNL     1     -34.745  39.671   6.909  1.00  0.00    -0.024 C 
ATOM     19  C   UNL     1     -33.895  41.026   6.666  1.00  0.00    -0.024 C 
ATOM     20  C   UNL     1     -32.429  40.988   7.285  1.00  0.00     0.008 C 
ATOM     21  C   UNL     1     -32.180  41.994   8.418  1.00  0.00     0.010 C 
ATOM     22  C   UNL     1     -33.687  41.277   5.129  1.00  0.00     0.012 C 
ATOM     23  C   UNL     1     -36.185  39.809   6.296  1.00  0.00     0.012 C 
ATOM     24  C   UNL     1     -34.467  34.785   9.812  1.00  0.00     0.014 C 
ATOM     25  C   UNL     1     -34.465  34.298   7.375  1.00  0.00     0.014 C 
ATOM     26  C   UNL     1     -34.879  37.863  10.464  1.00  0.00     0.012 C 
ENDROOT
BRANCH   1  27
ATOM     27  C   UNL     1     -36.011  45.001   7.520  1.00  0.00    -0.077 C 
ATOM     28  C   UNL     1     -36.645  44.884   6.149  1.00  0.00     0.039 C 
ATOM     29  C   UNL     1     -36.808  45.107   8.603  1.00  0.00     0.008 C 
ENDBRANCH   1  27
BRANCH   4  30
ATOM     30  C   UNL     1     -31.343  44.016   7.109  1.00  0.00     0.163 C 
BRANCH  30  31
ATOM     31  O   UNL     1     -30.252  44.425   7.893  1.00  0.00    -0.396 OA
ATOM     32  H   UNL     1     -30.536  44.302   8.836  1.00  0.00     0.210 HD
ENDBRANCH  30  31
ENDBRANCH   4  30
BRANCH  13  33
ATOM     33  O   UNL     1     -37.002  33.931   8.782  1.00  0.00    -0.393 OA
ATOM     34  H   UNL     1     -36.552  33.727   9.641  1.00  0.00     0.210 HD
ENDBRANCH  13  33
TORSDOF 4
ENDMDL
