MODEL 1
REMARK VINA RESULT:    -3.654      0.000      0.000
REMARK INTER + INTRA:          -5.696
REMARK INTER:                  -5.577
REMARK INTRA:                  -0.119
REMARK UNBOUND:                -0.119
REMARK SMILES CC1=CCC[C@@H](C)C(=O)C[C@@H](C(C)C)C(=O)C1
REMARK SMILES IDX 8 1 9 2 6 3 7 4 5 5 4 6 3 7 2 8 1 9 10 11 11 12 15 13 16 14
REMARK SMILES IDX 17 15 12 17 13 18 14 19
REMARK H PARENT
REMARK Flexibility Score: 70.00
ROOT
ATOM      1  C   UNL     1      42.538 -39.653  -3.834  1.00  0.00     0.136 C 
ATOM      2  O   UNL     1      42.729 -38.594  -4.416  1.00  0.00    -0.299 OA
ENDROOT
BRANCH   1   3
ATOM      3  C   UNL     1      42.217 -40.902  -4.625  1.00  0.00     0.053 C 
ATOM      4  C   UNL     1      43.402 -41.245  -5.534  1.00  0.00     0.016 C 
BRANCH   3   5
ATOM      5  C   UNL     1      40.924 -40.765  -5.460  1.00  0.00     0.015 C 
BRANCH   5   6
ATOM      6  C   UNL     1      39.634 -40.818  -4.618  1.00  0.00     0.028 C 
BRANCH   6   7
ATOM      7  C   UNL     1      38.974 -39.461  -4.524  1.00  0.00    -0.028 C 
ATOM      8  C   UNL     1      38.604 -38.824  -3.387  1.00  0.00    -0.070 CG0
ATOM      9  C   UNL     1      37.927 -37.482  -3.519  1.00  0.00     0.039 C 
ATOM     10  G   UNL     1      38.892 -39.347  -1.995  1.00  0.00     0.000 G0
ENDBRANCH   6   7
ENDBRANCH   5   6
ENDBRANCH   3   5
ENDBRANCH   1   3
BRANCH   1  11
ATOM     11  C   UNL     1      42.660 -39.705  -2.330  1.00  0.00     0.087 C 
BRANCH  11  12
ATOM     12  C   UNL     1      41.360 -40.209  -1.659  1.00  0.00     0.066 C 
BRANCH  12  13
ATOM     13  C   UNL     1      40.318 -39.107  -1.618  1.00  0.00     0.140 C 
ATOM     14  O   UNL     1      40.645 -37.973  -1.299  1.00  0.00    -0.299 OA
BRANCH  13  15
ATOM     15  C   UNL     1      38.886 -39.370  -1.997  1.00  0.00     0.106 CG0
ATOM     16  G   UNL     1      38.607 -38.826  -3.383  1.00  0.00     0.000 G0
ENDBRANCH  13  15
ENDBRANCH  12  13
BRANCH  12  17
ATOM     17  C   UNL     1      41.581 -40.827  -0.243  1.00  0.00    -0.006 C 
ATOM     18  C   UNL     1      40.523 -41.895   0.079  1.00  0.00     0.008 C 
ATOM     19  C   UNL     1      42.990 -41.406  -0.022  1.00  0.00     0.008 C 
ENDBRANCH  12  17
ENDBRANCH  11  12
ENDBRANCH   1  11
TORSDOF 1
ENDMDL
MODEL 2
REMARK VINA RESULT:    -3.454      1.937      3.947
REMARK INTER + INTRA:          -5.390
REMARK INTER:                  -5.230
REMARK INTRA:                  -0.160
REMARK UNBOUND:                -0.119
REMARK SMILES CC1=CCC[C@@H](C)C(=O)C[C@@H](C(C)C)C(=O)C1
REMARK SMILES IDX 8 1 9 2 6 3 7 4 5 5 4 6 3 7 2 8 1 9 10 11 11 12 15 13 16 14
REMARK SMILES IDX 17 15 12 17 13 18 14 19
REMARK H PARENT
REMARK Flexibility Score: 70.00
ROOT
ATOM      1  C   UNL     1      41.035 -40.814  -4.945  1.00  0.00     0.136 C 
ATOM      2  O   UNL     1      40.619 -41.184  -6.034  1.00  0.00    -0.299 OA
ENDROOT
BRANCH   1   3
ATOM      3  C   UNL     1      42.484 -40.408  -4.788  1.00  0.00     0.053 C 
ATOM      4  C   UNL     1      43.373 -41.391  -5.557  1.00  0.00     0.016 C 
BRANCH   3   5
ATOM      5  C   UNL     1      42.926 -40.332  -3.308  1.00  0.00     0.015 C 
BRANCH   5   6
ATOM      6  C   UNL     1      42.895 -38.905  -2.725  1.00  0.00     0.028 C 
BRANCH   6   7
ATOM      7  C   UNL     1      42.446 -38.903  -1.281  1.00  0.00    -0.028 C 
ATOM      8  C   UNL     1      41.285 -38.397  -0.802  1.00  0.00    -0.070 CG0
ATOM      9  C   UNL     1      41.045 -38.469   0.686  1.00  0.00     0.039 C 
ATOM     10  G   UNL     1      40.187 -37.828  -1.677  1.00  0.00     0.000 G0
ENDBRANCH   6   7
ENDBRANCH   5   6
ENDBRANCH   3   5
ENDBRANCH   1   3
BRANCH   1  11
ATOM     11  C   UNL     1      40.085 -40.737  -3.775  1.00  0.00     0.087 C 
BRANCH  11  12
ATOM     12  C   UNL     1      39.399 -39.354  -3.672  1.00  0.00     0.066 C 
BRANCH  12  13
ATOM     13  C   UNL     1      39.293 -38.917  -2.223  1.00  0.00     0.140 C 
ATOM     14  O   UNL     1      38.507 -39.480  -1.474  1.00  0.00    -0.299 OA
BRANCH  13  15
ATOM     15  C   UNL     1      40.163 -37.821  -1.671  1.00  0.00     0.106 CG0
ATOM     16  G   UNL     1      41.251 -38.411  -0.798  1.00  0.00     0.000 G0
ENDBRANCH  13  15
ENDBRANCH  12  13
BRANCH  12  17
ATOM     17  C   UNL     1      38.012 -39.284  -4.384  1.00  0.00    -0.006 C 
ATOM     18  C   UNL     1      38.114 -38.589  -5.752  1.00  0.00     0.008 C 
ATOM     19  C   UNL     1      37.317 -40.647  -4.543  1.00  0.00     0.008 C 
ENDBRANCH  12  17
ENDBRANCH  11  12
ENDBRANCH   1  11
TORSDOF 1
ENDMDL
MODEL 3
REMARK VINA RESULT:    -3.446      2.305      4.342
REMARK INTER + INTRA:          -5.378
REMARK INTER:                  -5.036
REMARK INTRA:                  -0.342
REMARK UNBOUND:                -0.119
REMARK SMILES CC1=CCC[C@@H](C)C(=O)C[C@@H](C(C)C)C(=O)C1
REMARK SMILES IDX 8 1 9 2 6 3 7 4 5 5 4 6 3 7 2 8 1 9 10 11 11 12 15 13 16 14
REMARK SMILES IDX 17 15 12 17 13 18 14 19
REMARK H PARENT
REMARK Flexibility Score: 70.00
ROOT
ATOM      1  C   UNL     1      41.221 -40.481  -1.385  1.00  0.00     0.136 C 
ATOM      2  O   UNL     1      40.477 -40.853  -0.489  1.00  0.00    -0.299 OA
ENDROOT
BRANCH   1   3
ATOM      3  C   UNL     1      42.627 -40.028  -1.060  1.00  0.00     0.053 C 
ATOM      4  C   UNL     1      43.344 -41.128  -0.271  1.00  0.00     0.016 C 
BRANCH   3   5
ATOM      5  C   UNL     1      42.660 -38.697  -0.274  1.00  0.00     0.015 C 
BRANCH   5   6
ATOM      6  C   UNL     1      43.003 -37.472  -1.144  1.00  0.00     0.028 C 
BRANCH   6   7
ATOM      7  C   UNL     1      41.791 -36.600  -1.382  1.00  0.00    -0.028 C 
ATOM      8  C   UNL     1      41.196 -36.359  -2.574  1.00  0.00    -0.070 CG0
ATOM      9  C   UNL     1      40.009 -35.428  -2.594  1.00  0.00     0.039 C 
ATOM     10  G   UNL     1      41.607 -37.023  -3.873  1.00  0.00     0.000 G0
ENDBRANCH   6   7
ENDBRANCH   5   6
ENDBRANCH   3   5
ENDBRANCH   1   3
BRANCH   1  11
ATOM     11  C   UNL     1      40.734 -40.510  -2.814  1.00  0.00     0.087 C 
BRANCH  11  12
ATOM     12  C   UNL     1      41.613 -39.643  -3.746  1.00  0.00     0.066 C 
BRANCH  12  13
ATOM     13  C   UNL     1      40.915 -38.336  -4.074  1.00  0.00     0.140 C 
ATOM     14  O   UNL     1      39.760 -38.347  -4.473  1.00  0.00    -0.299 OA
BRANCH  13  15
ATOM     15  C   UNL     1      41.606 -37.012  -3.887  1.00  0.00     0.106 CG0
ATOM     16  G   UNL     1      41.178 -36.384  -2.577  1.00  0.00     0.000 G0
ENDBRANCH  13  15
ENDBRANCH  12  13
BRANCH  12  17
ATOM     17  C   UNL     1      42.070 -40.378  -5.044  1.00  0.00    -0.006 C 
ATOM     18  C   UNL     1      43.372 -41.164  -4.820  1.00  0.00     0.008 C 
ATOM     19  C   UNL     1      41.002 -41.303  -5.653  1.00  0.00     0.008 C 
ENDBRANCH  12  17
ENDBRANCH  11  12
ENDBRANCH   1  11
TORSDOF 1
ENDMDL
MODEL 4
REMARK VINA RESULT:    -3.401      2.056      3.752
REMARK INTER + INTRA:          -5.309
REMARK INTER:                  -4.932
REMARK INTRA:                  -0.377
REMARK UNBOUND:                -0.119
REMARK SMILES CC1=CCC[C@@H](C)C(=O)C[C@@H](C(C)C)C(=O)C1
REMARK SMILES IDX 8 1 9 2 6 3 7 4 5 5 4 6 3 7 2 8 1 9 10 11 11 12 15 13 16 14
REMARK SMILES IDX 17 15 12 17 13 18 14 19
REMARK H PARENT
REMARK Flexibility Score: 70.00
ROOT
ATOM      1  C   UNL     1      39.053 -40.764  -4.327  1.00  0.00     0.136 C 
ATOM      2  O   UNL     1      39.234 -41.409  -3.304  1.00  0.00    -0.299 OA
ENDROOT
BRANCH   1   3
ATOM      3  C   UNL     1      37.656 -40.614  -4.889  1.00  0.00     0.053 C 
ATOM      4  C   UNL     1      37.741 -40.071  -6.320  1.00  0.00     0.016 C 
BRANCH   3   5
ATOM      5  C   UNL     1      36.758 -39.701  -4.023  1.00  0.00     0.015 C 
BRANCH   5   6
ATOM      6  C   UNL     1      36.806 -38.216  -4.433  1.00  0.00     0.028 C 
BRANCH   6   7
ATOM      7  C   UNL     1      37.541 -37.379  -3.409  1.00  0.00    -0.028 C 
ATOM      8  C   UNL     1      38.810 -36.918  -3.509  1.00  0.00    -0.070 CG0
ATOM      9  C   UNL     1      39.365 -36.124  -2.353  1.00  0.00     0.039 C 
ATOM     10  G   UNL     1      39.677 -37.094  -4.739  1.00  0.00     0.000 G0
ENDBRANCH   6   7
ENDBRANCH   5   6
ENDBRANCH   3   5
ENDBRANCH   1   3
BRANCH   1  11
ATOM     11  C   UNL     1      40.227 -40.094  -5.000  1.00  0.00     0.087 C 
BRANCH  11  12
ATOM     12  C   UNL     1      41.049 -39.232  -4.013  1.00  0.00     0.066 C 
BRANCH  12  13
ATOM     13  C   UNL     1      40.988 -37.768  -4.404  1.00  0.00     0.140 C 
ATOM     14  O   UNL     1      42.018 -37.114  -4.478  1.00  0.00    -0.299 OA
BRANCH  13  15
ATOM     15  C   UNL     1      39.681 -37.102  -4.740  1.00  0.00     0.106 CG0
ATOM     16  G   UNL     1      38.849 -36.930  -3.486  1.00  0.00     0.000 G0
ENDBRANCH  13  15
ENDBRANCH  12  13
BRANCH  12  17
ATOM     17  C   UNL     1      42.526 -39.707  -3.841  1.00  0.00    -0.006 C 
ATOM     18  C   UNL     1      42.817 -40.132  -2.392  1.00  0.00     0.008 C 
ATOM     19  C   UNL     1      42.942 -40.831  -4.807  1.00  0.00     0.008 C 
ENDBRANCH  12  17
ENDBRANCH  11  12
ENDBRANCH   1  11
TORSDOF 1
ENDMDL
MODEL 5
REMARK VINA RESULT:    -3.382      2.160      3.692
REMARK INTER + INTRA:          -5.280
REMARK INTER:                  -5.236
REMARK INTRA:                  -0.044
REMARK UNBOUND:                -0.119
REMARK SMILES CC1=CCC[C@@H](C)C(=O)C[C@@H](C(C)C)C(=O)C1
REMARK SMILES IDX 8 1 9 2 6 3 7 4 5 5 4 6 3 7 2 8 1 9 10 11 11 12 15 13 16 14
REMARK SMILES IDX 17 15 12 17 13 18 14 19
REMARK H PARENT
REMARK Flexibility Score: 70.00
ROOT
ATOM      1  C   UNL     1      39.180 -40.848  -3.970  1.00  0.00     0.136 C 
ATOM      2  O   UNL     1      38.070 -41.268  -4.262  1.00  0.00    -0.299 OA
ENDROOT
BRANCH   1   3
ATOM      3  C   UNL     1      40.035 -40.177  -5.023  1.00  0.00     0.053 C 
ATOM      4  C   UNL     1      39.129 -39.583  -6.107  1.00  0.00     0.016 C 
BRANCH   3   5
ATOM      5  C   UNL     1      41.067 -41.138  -5.657  1.00  0.00     0.015 C 
BRANCH   5   6
ATOM      6  C   UNL     1      42.488 -40.991  -5.077  1.00  0.00     0.028 C 
BRANCH   6   7
ATOM      7  C   UNL     1      42.758 -39.576  -4.617  1.00  0.00    -0.028 C 
ATOM      8  C   UNL     1      42.803 -39.142  -3.334  1.00  0.00    -0.070 CG0
ATOM      9  C   UNL     1      43.058 -37.675  -3.095  1.00  0.00     0.039 C 
ATOM     10  G   UNL     1      42.683 -40.054  -2.130  1.00  0.00     0.000 G0
ENDBRANCH   6   7
ENDBRANCH   5   6
ENDBRANCH   3   5
ENDBRANCH   1   3
BRANCH   1  11
ATOM     11  C   UNL     1      39.672 -40.975  -2.549  1.00  0.00     0.087 C 
BRANCH  11  12
ATOM     12  C   UNL     1      40.080 -39.608  -1.950  1.00  0.00     0.066 C 
BRANCH  12  13
ATOM     13  C   UNL     1      41.455 -39.693  -1.313  1.00  0.00     0.140 C 
ATOM     14  O   UNL     1      41.585 -39.479  -0.116  1.00  0.00    -0.299 OA
BRANCH  13  15
ATOM     15  C   UNL     1      42.668 -40.071  -2.118  1.00  0.00     0.106 CG0
ATOM     16  G   UNL     1      42.805 -39.152  -3.315  1.00  0.00     0.000 G0
ENDBRANCH  13  15
ENDBRANCH  12  13
BRANCH  12  17
ATOM     17  C   UNL     1      39.034 -39.019  -0.953  1.00  0.00    -0.006 C 
ATOM     18  C   UNL     1      37.967 -38.186  -1.682  1.00  0.00     0.008 C 
ATOM     19  C   UNL     1      38.354 -40.071  -0.060  1.00  0.00     0.008 C 
ENDBRANCH  12  17
ENDBRANCH  11  12
ENDBRANCH   1  11
TORSDOF 1
ENDMDL
MODEL 6
REMARK VINA RESULT:    -3.268      2.301      4.225
REMARK INTER + INTRA:          -5.107
REMARK INTER:                  -5.485
REMARK INTRA:                   0.379
REMARK UNBOUND:                -0.119
REMARK SMILES CC1=CCC[C@@H](C)C(=O)C[C@@H](C(C)C)C(=O)C1
REMARK SMILES IDX 8 1 9 2 6 3 7 4 5 5 4 6 3 7 2 8 1 9 10 11 11 12 15 13 16 14
REMARK SMILES IDX 17 15 12 17 13 18 14 19
REMARK H PARENT
REMARK Flexibility Score: 70.00
ROOT
ATOM      1  C   UNL     1      41.198 -40.780  -4.936  1.00  0.00     0.136 C 
ATOM      2  O   UNL     1      40.897 -41.628  -5.763  1.00  0.00    -0.299 OA
ENDROOT
BRANCH   1   3
ATOM      3  C   UNL     1      42.654 -40.455  -4.682  1.00  0.00     0.053 C 
ATOM      4  C   UNL     1      43.531 -41.300  -5.612  1.00  0.00     0.016 C 
BRANCH   3   5
ATOM      5  C   UNL     1      43.068 -40.676  -3.209  1.00  0.00     0.015 C 
BRANCH   5   6
ATOM      6  C   UNL     1      42.566 -39.576  -2.253  1.00  0.00     0.028 C 
BRANCH   6   7
ATOM      7  C   UNL     1      42.872 -38.193  -2.784  1.00  0.00    -0.028 C 
ATOM      8  C   UNL     1      41.969 -37.266  -3.181  1.00  0.00    -0.070 CG0
ATOM      9  C   UNL     1      42.492 -35.954  -3.711  1.00  0.00     0.039 C 
ATOM     10  G   UNL     1      40.469 -37.442  -3.058  1.00  0.00     0.000 G0
ENDBRANCH   6   7
ENDBRANCH   5   6
ENDBRANCH   3   5
ENDBRANCH   1   3
BRANCH   1  11
ATOM     11  C   UNL     1      40.107 -40.042  -4.199  1.00  0.00     0.087 C 
BRANCH  11  12
ATOM     12  C   UNL     1      39.507 -38.894  -5.046  1.00  0.00     0.066 C 
BRANCH  12  13
ATOM     13  C   UNL     1      39.854 -37.547  -4.441  1.00  0.00     0.140 C 
ATOM     14  O   UNL     1      39.611 -36.521  -5.061  1.00  0.00    -0.299 OA
BRANCH  13  15
ATOM     15  C   UNL     1      40.464 -37.439  -3.070  1.00  0.00     0.106 CG0
ATOM     16  G   UNL     1      41.964 -37.253  -3.182  1.00  0.00     0.000 G0
ENDBRANCH  13  15
ENDBRANCH  12  13
BRANCH  12  17
ATOM     17  C   UNL     1      37.970 -39.025  -5.284  1.00  0.00    -0.006 C 
ATOM     18  C   UNL     1      37.659 -39.524  -6.705  1.00  0.00     0.008 C 
ATOM     19  C   UNL     1      37.246 -39.908  -4.253  1.00  0.00     0.008 C 
ENDBRANCH  12  17
ENDBRANCH  11  12
ENDBRANCH   1  11
TORSDOF 1
ENDMDL
MODEL 7
REMARK VINA RESULT:    -2.926     13.617     15.777
REMARK INTER + INTRA:          -4.585
REMARK INTER:                  -4.164
REMARK INTRA:                  -0.421
REMARK UNBOUND:                -0.119
REMARK SMILES CC1=CCC[C@@H](C)C(=O)C[C@@H](C(C)C)C(=O)C1
REMARK SMILES IDX 8 1 9 2 6 3 7 4 5 5 4 6 3 7 2 8 1 9 10 11 11 12 15 13 16 14
REMARK SMILES IDX 17 15 12 17 13 18 14 19
REMARK H PARENT
REMARK Flexibility Score: 70.00
ROOT
ATOM      1  C   UNL     1      28.127 -34.045   1.939  1.00  0.00     0.136 C 
ATOM      2  O   UNL     1      28.506 -35.170   2.232  1.00  0.00    -0.299 OA
ENDROOT
BRANCH   1   3
ATOM      3  C   UNL     1      28.264 -33.548   0.517  1.00  0.00     0.053 C 
ATOM      4  C   UNL     1      27.561 -34.525  -0.431  1.00  0.00     0.016 C 
BRANCH   3   5
ATOM      5  C   UNL     1      29.737 -33.355   0.091  1.00  0.00     0.015 C 
BRANCH   5   6
ATOM      6  C   UNL     1      30.252 -31.914   0.277  1.00  0.00     0.028 C 
BRANCH   6   7
ATOM      7  C   UNL     1      31.022 -31.759   1.569  1.00  0.00    -0.028 C 
ATOM      8  C   UNL     1      30.715 -30.926   2.593  1.00  0.00    -0.070 CG0
ATOM      9  C   UNL     1      31.640 -30.905   3.785  1.00  0.00     0.039 C 
ATOM     10  G   UNL     1      29.466 -30.071   2.639  1.00  0.00     0.000 G0
ENDBRANCH   6   7
ENDBRANCH   5   6
ENDBRANCH   3   5
ENDBRANCH   1   3
BRANCH   1  11
ATOM     11  C   UNL     1      27.492 -33.177   2.998  1.00  0.00     0.087 C 
BRANCH  11  12
ATOM     12  C   UNL     1      27.371 -31.702   2.547  1.00  0.00     0.066 C 
BRANCH  12  13
ATOM     13  C   UNL     1      28.333 -30.824   3.326  1.00  0.00     0.140 C 
ATOM     14  O   UNL     1      28.222 -30.729   4.540  1.00  0.00    -0.299 OA
BRANCH  13  15
ATOM     15  C   UNL     1      29.450 -30.087   2.639  1.00  0.00     0.106 CG0
ATOM     16  G   UNL     1      30.696 -30.948   2.603  1.00  0.00     0.000 G0
ENDBRANCH  13  15
ENDBRANCH  12  13
BRANCH  12  17
ATOM     17  C   UNL     1      25.917 -31.140   2.613  1.00  0.00    -0.006 C 
ATOM     18  C   UNL     1      25.206 -31.251   1.254  1.00  0.00     0.008 C 
ATOM     19  C   UNL     1      25.046 -31.777   3.710  1.00  0.00     0.008 C 
ENDBRANCH  12  17
ENDBRANCH  11  12
ENDBRANCH   1  11
TORSDOF 1
ENDMDL
MODEL 8
REMARK VINA RESULT:    -2.876      2.455      4.727
REMARK INTER + INTRA:          -4.508
REMARK INTER:                  -4.255
REMARK INTRA:                  -0.253
REMARK UNBOUND:                -0.119
REMARK SMILES CC1=CCC[C@@H](C)C(=O)C[C@@H](C(C)C)C(=O)C1
REMARK SMILES IDX 8 1 9 2 6 3 7 4 5 5 4 6 3 7 2 8 1 9 10 11 11 12 15 13 16 14
REMARK SMILES IDX 17 15 12 17 13 18 14 19
REMARK H PARENT
REMARK Flexibility Score: 70.00
ROOT
ATOM      1  C   UNL     1      40.333 -40.230  -4.937  1.00  0.00     0.136 C 
ATOM      2  O   UNL     1      41.094 -41.154  -5.186  1.00  0.00    -0.299 OA
ENDROOT
BRANCH   1   3
ATOM      3  C   UNL     1      40.790 -39.093  -4.050  1.00  0.00     0.053 C 
ATOM      4  C   UNL     1      42.215 -38.686  -4.440  1.00  0.00     0.016 C 
BRANCH   3   5
ATOM      5  C   UNL     1      40.727 -39.446  -2.546  1.00  0.00     0.015 C 
BRANCH   5   6
ATOM      6  C   UNL     1      39.563 -40.388  -2.179  1.00  0.00     0.028 C 
BRANCH   6   7
ATOM      7  C   UNL     1      38.393 -39.627  -1.596  1.00  0.00    -0.028 C 
ATOM      8  C   UNL     1      37.223 -39.350  -2.221  1.00  0.00    -0.070 CG0
ATOM      9  C   UNL     1      36.194 -38.546  -1.465  1.00  0.00     0.039 C 
ATOM     10  G   UNL     1      36.862 -39.859  -3.601  1.00  0.00     0.000 G0
ENDBRANCH   6   7
ENDBRANCH   5   6
ENDBRANCH   3   5
ENDBRANCH   1   3
BRANCH   1  11
ATOM     11  C   UNL     1      38.953 -40.220  -5.549  1.00  0.00     0.087 C 
BRANCH  11  12
ATOM     12  C   UNL     1      38.325 -38.807  -5.546  1.00  0.00     0.066 C 
BRANCH  12  13
ATOM     13  C   UNL     1      37.104 -38.767  -4.646  1.00  0.00     0.140 C 
ATOM     14  O   UNL     1      36.291 -37.861  -4.763  1.00  0.00    -0.299 OA
BRANCH  13  15
ATOM     15  C   UNL     1      36.848 -39.844  -3.626  1.00  0.00     0.106 CG0
ATOM     16  G   UNL     1      37.225 -39.351  -2.244  1.00  0.00     0.000 G0
ENDBRANCH  13  15
ENDBRANCH  12  13
BRANCH  12  17
ATOM     17  C   UNL     1      37.992 -38.262  -6.969  1.00  0.00    -0.006 C 
ATOM     18  C   UNL     1      38.482 -36.815  -7.149  1.00  0.00     0.008 C 
ATOM     19  C   UNL     1      38.523 -39.137  -8.118  1.00  0.00     0.008 C 
ENDBRANCH  12  17
ENDBRANCH  11  12
ENDBRANCH   1  11
TORSDOF 1
ENDMDL
MODEL 9
REMARK VINA RESULT:    -2.846      2.711      4.588
REMARK INTER + INTRA:          -4.462
REMARK INTER:                  -4.069
REMARK INTRA:                  -0.394
REMARK UNBOUND:                -0.119
REMARK SMILES CC1=CCC[C@@H](C)C(=O)C[C@@H](C(C)C)C(=O)C1
REMARK SMILES IDX 8 1 9 2 6 3 7 4 5 5 4 6 3 7 2 8 1 9 10 11 11 12 15 13 16 14
REMARK SMILES IDX 17 15 12 17 13 18 14 19
REMARK H PARENT
REMARK Flexibility Score: 70.00
ROOT
ATOM      1  C   UNL     1      40.323 -39.574  -3.132  1.00  0.00     0.136 C 
ATOM      2  O   UNL     1      40.512 -40.354  -2.211  1.00  0.00    -0.299 OA
ENDROOT
BRANCH   1   3
ATOM      3  C   UNL     1      41.376 -39.400  -4.204  1.00  0.00     0.053 C 
ATOM      4  C   UNL     1      41.919 -40.775  -4.609  1.00  0.00     0.016 C 
BRANCH   3   5
ATOM      5  C   UNL     1      42.534 -38.477  -3.760  1.00  0.00     0.015 C 
BRANCH   5   6
ATOM      6  C   UNL     1      42.102 -37.019  -3.509  1.00  0.00     0.028 C 
BRANCH   6   7
ATOM      7  C   UNL     1      41.756 -36.310  -4.799  1.00  0.00    -0.028 C 
ATOM      8  C   UNL     1      40.538 -35.835  -5.153  1.00  0.00    -0.070 CG0
ATOM      9  C   UNL     1      40.403 -35.184  -6.507  1.00  0.00     0.039 C 
ATOM     10  G   UNL     1      39.327 -35.856  -4.243  1.00  0.00     0.000 G0
ENDBRANCH   6   7
ENDBRANCH   5   6
ENDBRANCH   3   5
ENDBRANCH   1   3
BRANCH   1  11
ATOM     11  C   UNL     1      39.019 -38.816  -3.207  1.00  0.00     0.087 C 
BRANCH  11  12
ATOM     12  C   UNL     1      38.685 -38.374  -4.651  1.00  0.00     0.066 C 
BRANCH  12  13
ATOM     13  C   UNL     1      38.327 -36.899  -4.688  1.00  0.00     0.140 C 
ATOM     14  O   UNL     1      37.212 -36.553  -5.052  1.00  0.00    -0.299 OA
BRANCH  13  15
ATOM     15  C   UNL     1      39.309 -35.845  -4.253  1.00  0.00     0.106 CG0
ATOM     16  G   UNL     1      40.522 -35.859  -5.159  1.00  0.00     0.000 G0
ENDBRANCH  13  15
ENDBRANCH  12  13
BRANCH  12  17
ATOM     17  C   UNL     1      37.580 -39.238  -5.335  1.00  0.00    -0.006 C 
ATOM     18  C   UNL     1      37.989 -39.654  -6.758  1.00  0.00     0.008 C 
ATOM     19  C   UNL     1      37.164 -40.480  -4.528  1.00  0.00     0.008 C 
ENDBRANCH  12  17
ENDBRANCH  11  12
ENDBRANCH   1  11
TORSDOF 1
ENDMDL
