MODEL 1
REMARK VINA RESULT:    -4.212      0.000      0.000
REMARK INTER + INTRA:          -5.180
REMARK INTER:                  -5.935
REMARK INTRA:                   0.756
REMARK UNBOUND:                 0.756
REMARK SMILES CC1=CCC(=C(C)C)C(=O)CC(C)=CCC1
REMARK SMILES IDX 12 1 14 2 13 3 15 4 16 5 2 6 1 7 3 8 11 10 9 11 10 12 5 13
REMARK SMILES IDX 6 14 7 15 8 16 4 17
REMARK H PARENT
REMARK Flexibility Score: 60.00
ROOT
ATOM      1  C   UNL     1      -2.388  28.749  54.231  1.00  0.00    -0.070 C 
ATOM      2  C   UNL     1      -2.728  29.935  53.673  1.00  0.00    -0.027 C 
ATOM      3  C   UNL     1      -2.087  28.717  55.708  1.00  0.00     0.039 C 
ENDROOT
BRANCH   2   4
ATOM      4  C   UNL     1      -2.982  30.143  52.202  1.00  0.00     0.032 C 
BRANCH   4   5
ATOM      5  C   UNL     1      -2.049  31.222  51.640  1.00  0.00     0.034 C 
BRANCH   5   6
ATOM      6  C   UNL     1      -1.073  30.623  50.649  1.00  0.00    -0.077 C 
ATOM      7  C   UNL     1      -1.348  30.838  49.182  1.00  0.00     0.039 C 
ATOM      8  C   UNL     1      -0.046  29.821  51.021  1.00  0.00    -0.023 CG0
ATOM      9  G   UNL     1       0.350  29.516  52.448  1.00  0.00     0.000 G0
ENDBRANCH   5   6
ENDBRANCH   4   5
ENDBRANCH   2   4
BRANCH   1  10
ATOM     10  C   UNL     1      -2.328  27.459  53.435  1.00  0.00     0.111 C 
BRANCH  10  11
ATOM     11  C   UNL     1      -1.155  27.445  52.487  1.00  0.00     0.163 C 
ATOM     12  O   UNL     1      -1.290  26.884  51.366  1.00  0.00    -0.294 OA
BRANCH  11  13
ATOM     13  C   UNL     1       0.159  28.052  52.838  1.00  0.00    -0.002 C 
ATOM     14  C   UNL     1       1.087  27.380  53.580  1.00  0.00    -0.069 C 
ATOM     15  C   UNL     1       2.439  27.985  53.883  1.00  0.00     0.039 C 
ATOM     16  C   UNL     1       0.793  26.029  54.192  1.00  0.00     0.039 C 
BRANCH  13  17
ATOM     17  C   UNL     1       0.359  29.510  52.449  1.00  0.00     0.066 CG0
ATOM     18  G   UNL     1      -0.044  29.802  51.022  1.00  0.00     0.000 G0
ENDBRANCH  13  17
ENDBRANCH  11  13
ENDBRANCH  10  11
ENDBRANCH   1  10
TORSDOF 0
ENDMDL
MODEL 2
REMARK VINA RESULT:    -3.353      8.406     10.659
REMARK INTER + INTRA:          -3.969
REMARK INTER:                  -4.399
REMARK INTRA:                   0.429
REMARK UNBOUND:                 0.756
REMARK SMILES CC1=CCC(=C(C)C)C(=O)CC(C)=CCC1
REMARK SMILES IDX 12 1 14 2 13 3 15 4 16 5 2 6 1 7 3 8 11 10 9 11 10 12 5 13
REMARK SMILES IDX 6 14 7 15 8 16 4 17
REMARK H PARENT
REMARK Flexibility Score: 60.00
ROOT
ATOM      1  C   UNL     1      -3.742  32.038  64.053  1.00  0.00    -0.070 C 
ATOM      2  C   UNL     1      -3.952  30.894  63.359  1.00  0.00    -0.027 C 
ATOM      3  C   UNL     1      -3.871  31.994  65.554  1.00  0.00     0.039 C 
ENDROOT
BRANCH   2   4
ATOM      4  C   UNL     1      -3.934  30.794  61.855  1.00  0.00     0.032 C 
BRANCH   4   5
ATOM      5  C   UNL     1      -2.575  30.284  61.363  1.00  0.00     0.034 C 
BRANCH   5   6
ATOM      6  C   UNL     1      -2.156  31.008  60.101  1.00  0.00    -0.077 C 
ATOM      7  C   UNL     1      -2.763  30.549  58.799  1.00  0.00     0.039 C 
ATOM      8  C   UNL     1      -1.189  31.958  60.084  1.00  0.00    -0.023 CG0
ATOM      9  G   UNL     1      -0.494  32.517  61.304  1.00  0.00     0.000 G0
ENDBRANCH   5   6
ENDBRANCH   4   5
ENDBRANCH   2   4
BRANCH   1  10
ATOM     10  C   UNL     1      -3.355  33.342  63.381  1.00  0.00     0.111 C 
BRANCH  10  11
ATOM     11  C   UNL     1      -1.858  33.479  63.256  1.00  0.00     0.163 C 
ATOM     12  O   UNL     1      -1.155  33.403  64.299  1.00  0.00    -0.294 OA
BRANCH  11  13
ATOM     13  C   UNL     1      -1.187  33.720  61.949  1.00  0.00    -0.002 C 
ATOM     14  C   UNL     1      -1.308  34.908  61.286  1.00  0.00    -0.069 C 
ATOM     15  C   UNL     1      -0.577  35.162  59.987  1.00  0.00     0.039 C 
ATOM     16  C   UNL     1      -2.224  36.007  61.778  1.00  0.00     0.039 C 
BRANCH  13  17
ATOM     17  C   UNL     1      -0.477  32.531  61.319  1.00  0.00     0.066 CG0
ATOM     18  G   UNL     1      -1.194  31.989  60.104  1.00  0.00     0.000 G0
ENDBRANCH  13  17
ENDBRANCH  11  13
ENDBRANCH  10  11
ENDBRANCH   1  10
TORSDOF 0
ENDMDL
MODEL 3
REMARK VINA RESULT:    -3.187      8.659     11.107
REMARK INTER + INTRA:          -3.736
REMARK INTER:                  -4.488
REMARK INTRA:                   0.752
REMARK UNBOUND:                 0.756
REMARK SMILES CC1=CCC(=C(C)C)C(=O)CC(C)=CCC1
REMARK SMILES IDX 12 1 14 2 13 3 15 4 16 5 2 6 1 7 3 8 11 10 9 11 10 12 5 13
REMARK SMILES IDX 6 14 7 15 8 16 4 17
REMARK H PARENT
REMARK Flexibility Score: 60.00
ROOT
ATOM      1  C   UNL     1      -0.495  33.615  62.581  1.00  0.00    -0.070 C 
ATOM      2  C   UNL     1       0.000  32.607  61.824  1.00  0.00    -0.027 C 
ATOM      3  C   UNL     1       0.000  33.750  63.999  1.00  0.00     0.039 C 
ENDROOT
BRANCH   2   4
ATOM      4  C   UNL     1      -0.451  32.296  60.420  1.00  0.00     0.032 C 
BRANCH   4   5
ATOM      5  C   UNL     1      -1.188  30.952  60.375  1.00  0.00     0.034 C 
BRANCH   5   6
ATOM      6  C   UNL     1      -2.654  31.154  60.057  1.00  0.00    -0.077 C 
ATOM      7  C   UNL     1      -3.068  31.096  58.608  1.00  0.00     0.039 C 
ATOM      8  C   UNL     1      -3.571  31.493  60.996  1.00  0.00    -0.023 CG0
ATOM      9  G   UNL     1      -3.304  31.589  62.480  1.00  0.00     0.000 G0
ENDBRANCH   5   6
ENDBRANCH   4   5
ENDBRANCH   2   4
BRANCH   1  10
ATOM     10  C   UNL     1      -1.500  34.620  62.049  1.00  0.00     0.111 C 
BRANCH  10  11
ATOM     11  C   UNL     1      -2.906  34.077  62.098  1.00  0.00     0.163 C 
ATOM     12  O   UNL     1      -3.771  34.570  61.324  1.00  0.00    -0.294 OA
BRANCH  11  13
ATOM     13  C   UNL     1      -3.311  32.997  63.040  1.00  0.00    -0.002 C 
ATOM     14  C   UNL     1      -3.554  33.247  64.360  1.00  0.00    -0.069 C 
ATOM     15  C   UNL     1      -4.018  32.154  65.295  1.00  0.00     0.039 C 
ATOM     16  C   UNL     1      -3.313  34.610  64.972  1.00  0.00     0.039 C 
BRANCH  13  17
ATOM     17  C   UNL     1      -3.302  31.578  62.491  1.00  0.00     0.066 CG0
ATOM     18  G   UNL     1      -3.565  31.518  61.004  1.00  0.00     0.000 G0
ENDBRANCH  13  17
ENDBRANCH  11  13
ENDBRANCH  10  11
ENDBRANCH   1  10
TORSDOF 0
ENDMDL
MODEL 4
REMARK VINA RESULT:    -3.060      9.230     11.369
REMARK INTER + INTRA:          -3.556
REMARK INTER:                  -4.195
REMARK INTRA:                   0.639
REMARK UNBOUND:                 0.756
REMARK SMILES CC1=CCC(=C(C)C)C(=O)CC(C)=CCC1
REMARK SMILES IDX 12 1 14 2 13 3 15 4 16 5 2 6 1 7 3 8 11 10 9 11 10 12 5 13
REMARK SMILES IDX 6 14 7 15 8 16 4 17
REMARK H PARENT
REMARK Flexibility Score: 60.00
ROOT
ATOM      1  C   UNL     1      -0.343  33.582  61.809  1.00  0.00    -0.070 C 
ATOM      2  C   UNL     1      -0.385  32.572  60.909  1.00  0.00    -0.027 C 
ATOM      3  C   UNL     1       0.309  34.877  61.397  1.00  0.00     0.039 C 
ENDROOT
BRANCH   2   4
ATOM      4  C   UNL     1      -0.932  31.197  61.195  1.00  0.00     0.032 C 
BRANCH   4   5
ATOM      5  C   UNL     1      -2.249  30.972  60.443  1.00  0.00     0.034 C 
BRANCH   5   6
ATOM      6  C   UNL     1      -3.428  31.061  61.389  1.00  0.00    -0.077 C 
ATOM      7  C   UNL     1      -3.914  29.781  62.020  1.00  0.00     0.039 C 
ATOM      8  C   UNL     1      -4.120  32.208  61.595  1.00  0.00    -0.023 CG0
ATOM      9  G   UNL     1      -3.753  33.562  61.033  1.00  0.00     0.000 G0
ENDBRANCH   5   6
ENDBRANCH   4   5
ENDBRANCH   2   4
BRANCH   1  10
ATOM     10  C   UNL     1      -0.950  33.467  63.195  1.00  0.00     0.111 C 
BRANCH  10  11
ATOM     11  C   UNL     1      -2.416  33.823  63.190  1.00  0.00     0.163 C 
ATOM     12  O   UNL     1      -3.111  33.535  64.201  1.00  0.00    -0.294 OA
BRANCH  11  13
ATOM     13  C   UNL     1      -3.071  34.482  62.026  1.00  0.00    -0.002 C 
ATOM     14  C   UNL     1      -3.153  35.840  61.920  1.00  0.00    -0.069 C 
ATOM     15  C   UNL     1      -3.770  36.499  60.708  1.00  0.00     0.039 C 
ATOM     16  C   UNL     1      -2.690  36.756  63.032  1.00  0.00     0.039 C 
BRANCH  13  17
ATOM     17  C   UNL     1      -3.770  33.567  61.031  1.00  0.00     0.066 CG0
ATOM     18  G   UNL     1      -4.105  32.211  61.609  1.00  0.00     0.000 G0
ENDBRANCH  13  17
ENDBRANCH  11  13
ENDBRANCH  10  11
ENDBRANCH   1  10
TORSDOF 0
ENDMDL
MODEL 5
REMARK VINA RESULT:    -2.668      1.757      4.660
REMARK INTER + INTRA:          -3.004
REMARK INTER:                  -4.354
REMARK INTRA:                   1.350
REMARK UNBOUND:                 0.756
REMARK SMILES CC1=CCC(=C(C)C)C(=O)CC(C)=CCC1
REMARK SMILES IDX 12 1 14 2 13 3 15 4 16 5 2 6 1 7 3 8 11 10 9 11 10 12 5 13
REMARK SMILES IDX 6 14 7 15 8 16 4 17
REMARK H PARENT
REMARK Flexibility Score: 60.00
ROOT
ATOM      1  C   UNL     1       0.409  28.042  52.978  1.00  0.00    -0.070 C 
ATOM      2  C   UNL     1      -0.548  27.156  53.345  1.00  0.00    -0.027 C 
ATOM      3  C   UNL     1       1.653  28.138  53.824  1.00  0.00     0.039 C 
ENDROOT
BRANCH   2   4
ATOM      4  C   UNL     1      -1.876  26.999  52.649  1.00  0.00     0.032 C 
BRANCH   4   5
ATOM      5  C   UNL     1      -3.019  27.479  53.551  1.00  0.00     0.034 C 
BRANCH   5   6
ATOM      6  C   UNL     1      -2.614  28.723  54.313  1.00  0.00    -0.077 C 
ATOM      7  C   UNL     1      -2.216  28.557  55.758  1.00  0.00     0.039 C 
ATOM      8  C   UNL     1      -2.705  29.970  53.789  1.00  0.00    -0.023 CG0
ATOM      9  G   UNL     1      -3.088  30.290  52.362  1.00  0.00     0.000 G0
ENDBRANCH   5   6
ENDBRANCH   4   5
ENDBRANCH   2   4
BRANCH   1  10
ATOM     10  C   UNL     1       0.285  28.912  51.741  1.00  0.00     0.111 C 
BRANCH  10  11
ATOM     11  C   UNL     1      -0.560  30.133  52.004  1.00  0.00     0.163 C 
ATOM     12  O   UNL     1      -0.109  31.026  52.771  1.00  0.00    -0.294 OA
BRANCH  11  13
ATOM     13  C   UNL     1      -1.912  30.310  51.406  1.00  0.00    -0.002 C 
ATOM     14  C   UNL     1      -2.081  30.602  50.083  1.00  0.00    -0.069 C 
ATOM     15  C   UNL     1      -3.460  30.724  49.475  1.00  0.00     0.039 C 
ATOM     16  C   UNL     1      -0.908  30.882  49.171  1.00  0.00     0.039 C 
BRANCH  13  17
ATOM     17  C   UNL     1      -3.090  30.288  52.369  1.00  0.00     0.066 CG0
ATOM     18  G   UNL     1      -2.685  29.968  53.790  1.00  0.00     0.000 G0
ENDBRANCH  13  17
ENDBRANCH  11  13
ENDBRANCH  10  11
ENDBRANCH   1  10
TORSDOF 0
ENDMDL
MODEL 6
REMARK VINA RESULT:    -2.662      9.673     12.123
REMARK INTER + INTRA:          -2.996
REMARK INTER:                  -4.250
REMARK INTRA:                   1.254
REMARK UNBOUND:                 0.756
REMARK SMILES CC1=CCC(=C(C)C)C(=O)CC(C)=CCC1
REMARK SMILES IDX 12 1 14 2 13 3 15 4 16 5 2 6 1 7 3 8 11 10 9 11 10 12 5 13
REMARK SMILES IDX 6 14 7 15 8 16 4 17
REMARK H PARENT
REMARK Flexibility Score: 60.00
ROOT
ATOM      1  C   UNL     1      -0.296  33.525  61.465  1.00  0.00    -0.070 C 
ATOM      2  C   UNL     1      -0.937  33.058  60.367  1.00  0.00    -0.027 C 
ATOM      3  C   UNL     1       0.461  34.823  61.349  1.00  0.00     0.039 C 
ENDROOT
BRANCH   2   4
ATOM      4  C   UNL     1      -1.670  31.743  60.303  1.00  0.00     0.032 C 
BRANCH   4   5
ATOM      5  C   UNL     1      -3.164  31.941  60.583  1.00  0.00     0.034 C 
BRANCH   5   6
ATOM      6  C   UNL     1      -3.519  31.449  61.970  1.00  0.00    -0.077 C 
ATOM      7  C   UNL     1      -3.946  30.009  62.111  1.00  0.00     0.039 C 
ATOM      8  C   UNL     1      -3.577  32.267  63.049  1.00  0.00    -0.023 CG0
ATOM      9  G   UNL     1      -3.180  33.725  63.061  1.00  0.00     0.000 G0
ENDBRANCH   5   6
ENDBRANCH   4   5
ENDBRANCH   2   4
BRANCH   1  10
ATOM     10  C   UNL     1      -0.338  32.808  62.801  1.00  0.00     0.111 C 
BRANCH  10  11
ATOM     11  C   UNL     1      -0.760  33.734  63.914  1.00  0.00     0.163 C 
ATOM     12  O   UNL     1       0.127  34.215  64.670  1.00  0.00    -0.294 OA
BRANCH  11  13
ATOM     13  C   UNL     1      -2.187  34.083  64.163  1.00  0.00    -0.002 C 
ATOM     14  C   UNL     1      -2.609  34.571  65.365  1.00  0.00    -0.069 C 
ATOM     15  C   UNL     1      -4.049  34.974  65.589  1.00  0.00     0.039 C 
ATOM     16  C   UNL     1      -1.681  34.676  66.555  1.00  0.00     0.039 C 
BRANCH  13  17
ATOM     17  C   UNL     1      -3.174  33.735  63.058  1.00  0.00     0.066 CG0
ATOM     18  G   UNL     1      -3.568  32.275  63.056  1.00  0.00     0.000 G0
ENDBRANCH  13  17
ENDBRANCH  11  13
ENDBRANCH  10  11
ENDBRANCH   1  10
TORSDOF 0
ENDMDL
MODEL 7
REMARK VINA RESULT:    -2.650      1.585      3.763
REMARK INTER + INTRA:          -2.979
REMARK INTER:                  -4.482
REMARK INTRA:                   1.503
REMARK UNBOUND:                 0.756
REMARK SMILES CC1=CCC(=C(C)C)C(=O)CC(C)=CCC1
REMARK SMILES IDX 12 1 14 2 13 3 15 4 16 5 2 6 1 7 3 8 11 10 9 11 10 12 5 13
REMARK SMILES IDX 6 14 7 15 8 16 4 17
REMARK H PARENT
REMARK Flexibility Score: 60.00
ROOT
ATOM      1  C   UNL     1      -1.516  30.169  50.332  1.00  0.00    -0.070 C 
ATOM      2  C   UNL     1      -2.633  30.383  51.067  1.00  0.00    -0.027 C 
ATOM      3  C   UNL     1      -1.211  31.124  49.206  1.00  0.00     0.039 C 
ENDROOT
BRANCH   2   4
ATOM      4  C   UNL     1      -3.113  29.476  52.171  1.00  0.00     0.032 C 
BRANCH   4   5
ATOM      5  C   UNL     1      -2.692  30.022  53.541  1.00  0.00     0.034 C 
BRANCH   5   6
ATOM      6  C   UNL     1      -2.698  28.922  54.581  1.00  0.00    -0.077 C 
ATOM      7  C   UNL     1      -3.378  29.211  55.896  1.00  0.00     0.039 C 
ATOM      8  C   UNL     1      -2.030  27.754  54.422  1.00  0.00    -0.023 CG0
ATOM      9  G   UNL     1      -1.307  27.328  53.165  1.00  0.00     0.000 G0
ENDBRANCH   5   6
ENDBRANCH   4   5
ENDBRANCH   2   4
BRANCH   1  10
ATOM     10  C   UNL     1      -0.556  29.030  50.618  1.00  0.00     0.111 C 
BRANCH  10  11
ATOM     11  C   UNL     1       0.047  29.145  51.995  1.00  0.00     0.163 C 
ATOM     12  O   UNL     1       0.594  30.231  52.327  1.00  0.00    -0.294 OA
BRANCH  11  13
ATOM     13  C   UNL     1       0.036  28.016  52.966  1.00  0.00    -0.002 C 
ATOM     14  C   UNL     1       1.182  27.554  53.547  1.00  0.00    -0.069 C 
ATOM     15  C   UNL     1       1.153  26.445  54.573  1.00  0.00     0.039 C 
ATOM     16  C   UNL     1       2.544  28.080  53.152  1.00  0.00     0.039 C 
BRANCH  13  17
ATOM     17  C   UNL     1      -1.296  27.309  53.172  1.00  0.00     0.066 CG0
ATOM     18  G   UNL     1      -2.011  27.750  54.428  1.00  0.00     0.000 G0
ENDBRANCH  13  17
ENDBRANCH  11  13
ENDBRANCH  10  11
ENDBRANCH   1  10
TORSDOF 0
ENDMDL
MODEL 8
REMARK VINA RESULT:    -2.643      9.967     12.002
REMARK INTER + INTRA:          -2.969
REMARK INTER:                  -3.746
REMARK INTRA:                   0.777
REMARK UNBOUND:                 0.756
REMARK SMILES CC1=CCC(=C(C)C)C(=O)CC(C)=CCC1
REMARK SMILES IDX 12 1 14 2 13 3 15 4 16 5 2 6 1 7 3 8 11 10 9 11 10 12 5 13
REMARK SMILES IDX 6 14 7 15 8 16 4 17
REMARK H PARENT
REMARK Flexibility Score: 60.00
ROOT
ATOM      1  C   UNL     1      -0.481  33.673  62.596  1.00  0.00    -0.070 C 
ATOM      2  C   UNL     1      -0.150  34.511  61.586  1.00  0.00    -0.027 C 
ATOM      3  C   UNL     1       0.311  33.753  63.876  1.00  0.00     0.039 C 
ENDROOT
BRANCH   2   4
ATOM      4  C   UNL     1      -0.795  34.500  60.223  1.00  0.00     0.032 C 
BRANCH   4   5
ATOM      5  C   UNL     1      -1.746  35.692  60.065  1.00  0.00     0.034 C 
BRANCH   5   6
ATOM      6  C   UNL     1      -3.181  35.267  60.292  1.00  0.00    -0.077 C 
ATOM      7  C   UNL     1      -3.988  34.862  59.085  1.00  0.00     0.039 C 
ATOM      8  C   UNL     1      -3.789  35.345  61.501  1.00  0.00    -0.023 CG0
ATOM      9  G   UNL     1      -3.111  35.732  62.795  1.00  0.00     0.000 G0
ENDBRANCH   5   6
ENDBRANCH   4   5
ENDBRANCH   2   4
BRANCH   1  10
ATOM     10  C   UNL     1      -1.629  32.686  62.496  1.00  0.00     0.111 C 
BRANCH  10  11
ATOM     11  C   UNL     1      -2.875  33.216  63.159  1.00  0.00     0.163 C 
ATOM     12  O   UNL     1      -3.904  32.488  63.180  1.00  0.00    -0.294 OA
BRANCH  11  13
ATOM     13  C   UNL     1      -2.937  34.573  63.769  1.00  0.00    -0.002 C 
ATOM     14  C   UNL     1      -2.961  34.754  65.122  1.00  0.00    -0.069 C 
ATOM     15  C   UNL     1      -2.968  36.137  65.730  1.00  0.00     0.039 C 
ATOM     16  C   UNL     1      -3.046  33.588  66.081  1.00  0.00     0.039 C 
BRANCH  13  17
ATOM     17  C   UNL     1      -3.116  35.741  62.810  1.00  0.00     0.066 CG0
ATOM     18  G   UNL     1      -3.774  35.343  61.509  1.00  0.00     0.000 G0
ENDBRANCH  13  17
ENDBRANCH  11  13
ENDBRANCH  10  11
ENDBRANCH   1  10
TORSDOF 0
ENDMDL
MODEL 9
REMARK VINA RESULT:    -2.638     10.055     12.249
REMARK INTER + INTRA:          -2.962
REMARK INTER:                  -3.638
REMARK INTRA:                   0.676
REMARK UNBOUND:                 0.756
REMARK SMILES CC1=CCC(=C(C)C)C(=O)CC(C)=CCC1
REMARK SMILES IDX 12 1 14 2 13 3 15 4 16 5 2 6 1 7 3 8 11 10 9 11 10 12 5 13
REMARK SMILES IDX 6 14 7 15 8 16 4 17
REMARK H PARENT
REMARK Flexibility Score: 60.00
ROOT
ATOM      1  C   UNL     1      -0.248  34.316  61.474  1.00  0.00    -0.070 C 
ATOM      2  C   UNL     1       0.015  34.028  62.771  1.00  0.00    -0.027 C 
ATOM      3  C   UNL     1       0.516  35.440  60.824  1.00  0.00     0.039 C 
ENDROOT
BRANCH   2   4
ATOM      4  C   UNL     1      -0.716  32.988  63.579  1.00  0.00     0.032 C 
BRANCH   4   5
ATOM      5  C   UNL     1      -1.517  33.645  64.710  1.00  0.00     0.034 C 
BRANCH   5   6
ATOM      6  C   UNL     1      -3.004  33.545  64.442  1.00  0.00    -0.077 C 
ATOM      7  C   UNL     1      -3.747  32.390  65.062  1.00  0.00     0.039 C 
ATOM      8  C   UNL     1      -3.656  34.374  63.591  1.00  0.00    -0.023 CG0
ATOM      9  G   UNL     1      -3.044  35.571  62.899  1.00  0.00     0.000 G0
ENDBRANCH   5   6
ENDBRANCH   4   5
ENDBRANCH   2   4
BRANCH   1  10
ATOM     10  C   UNL     1      -1.255  33.533  60.653  1.00  0.00     0.111 C 
BRANCH  10  11
ATOM     11  C   UNL     1      -2.663  34.019  60.890  1.00  0.00     0.163 C 
ATOM     12  O   UNL     1      -3.622  33.237  60.649  1.00  0.00    -0.294 OA
BRANCH  11  13
ATOM     13  C   UNL     1      -2.959  35.394  61.379  1.00  0.00    -0.002 C 
ATOM     14  C   UNL     1      -3.025  36.461  60.529  1.00  0.00    -0.069 C 
ATOM     15  C   UNL     1      -3.381  37.843  61.028  1.00  0.00     0.039 C 
ATOM     16  C   UNL     1      -2.686  36.334  59.061  1.00  0.00     0.039 C 
BRANCH  13  17
ATOM     17  C   UNL     1      -3.043  35.576  62.887  1.00  0.00     0.066 CG0
ATOM     18  G   UNL     1      -3.650  34.386  63.593  1.00  0.00     0.000 G0
ENDBRANCH  13  17
ENDBRANCH  11  13
ENDBRANCH  10  11
ENDBRANCH   1  10
TORSDOF 0
ENDMDL
