MODEL 1
REMARK VINA RESULT:    -6.186      0.000      0.000
REMARK INTER + INTRA:          -7.567
REMARK INTER:                  -7.271
REMARK INTRA:                  -0.296
REMARK UNBOUND:                -0.296
REMARK SMILES O=c1c(O)c(-c2ccc(O)cc2)oc2cc(O)cc(O)c12
REMARK SMILES IDX 5 1 3 2 2 3 1 4 21 5 19 6 18 7 16 8 15 9 14 10 13 11 6 12
REMARK SMILES IDX 7 13 8 14 9 15 12 16 11 17 10 18 4 20 20 22 17 24
REMARK H PARENT 10 19 4 21 20 23 17 25
REMARK Flexibility Score: inf
ROOT
ATOM      1  C   UNL     1      28.591  33.696 125.353  1.00  0.00     0.180 A 
ATOM      2  C   UNL     1      27.268  33.903 124.928  1.00  0.00     0.208 A 
ATOM      3  C   UNL     1      26.933  33.638 123.591  1.00  0.00     0.238 A 
ATOM      4  O   UNL     1      25.760  33.877 123.203  1.00  0.00    -0.285 OA
ATOM      5  C   UNL     1      27.921  33.154 122.699  1.00  0.00     0.111 A 
ATOM      6  C   UNL     1      27.682  32.814 121.334  1.00  0.00     0.134 A 
ATOM      7  C   UNL     1      28.762  32.469 120.510  1.00  0.00     0.093 A 
ATOM      8  C   UNL     1      30.059  32.389 121.020  1.00  0.00     0.123 A 
ATOM      9  C   UNL     1      30.292  32.661 122.366  1.00  0.00     0.094 A 
ATOM     10  C   UNL     1      29.242  33.042 123.204  1.00  0.00     0.146 A 
ATOM     11  O   UNL     1      29.509  33.303 124.478  1.00  0.00    -0.452 OA
ENDROOT
BRANCH   1  12
ATOM     12  C   UNL     1      29.016  33.928 126.753  1.00  0.00     0.021 A 
ATOM     13  C   UNL     1      28.873  32.932 127.737  1.00  0.00     0.016 A 
ATOM     14  C   UNL     1      29.303  33.166 129.046  1.00  0.00     0.047 A 
ATOM     15  C   UNL     1      29.890  34.387 129.387  1.00  0.00     0.115 A 
ATOM     16  C   UNL     1      29.625  35.145 127.098  1.00  0.00     0.016 A 
ATOM     17  C   UNL     1      30.054  35.377 128.409  1.00  0.00     0.047 A 
BRANCH  15  18
ATOM     18  O   UNL     1      30.312  34.607 130.696  1.00  0.00    -0.508 OA
ATOM     19  H   UNL     1      31.005  35.312 130.918  1.00  0.00     0.293 HD
ENDBRANCH  15  18
ENDBRANCH   1  12
BRANCH   2  20
ATOM     20  O   UNL     1      26.313  34.402 125.819  1.00  0.00    -0.502 OA
ATOM     21  H   UNL     1      25.857  35.296 125.683  1.00  0.00     0.293 HD
ENDBRANCH   2  20
BRANCH   6  22
ATOM     22  O   UNL     1      26.413  32.773 120.749  1.00  0.00    -0.507 OA
ATOM     23  H   UNL     1      26.212  32.379 119.842  1.00  0.00     0.293 HD
ENDBRANCH   6  22
BRANCH   8  24
ATOM     24  O   UNL     1      31.125  32.030 120.197  1.00  0.00    -0.508 OA
ATOM     25  H   UNL     1      31.813  31.345 120.489  1.00  0.00     0.293 HD
ENDBRANCH   8  24
TORSDOF 5
ENDMDL
MODEL 2
REMARK VINA RESULT:    -5.880      1.541      2.071
REMARK INTER + INTRA:          -7.207
REMARK INTER:                  -6.949
REMARK INTRA:                  -0.258
REMARK UNBOUND:                -0.296
REMARK SMILES O=c1c(O)c(-c2ccc(O)cc2)oc2cc(O)cc(O)c12
REMARK SMILES IDX 5 1 3 2 2 3 1 4 21 5 19 6 18 7 16 8 15 9 14 10 13 11 6 12
REMARK SMILES IDX 7 13 8 14 9 15 12 16 11 17 10 18 4 20 20 22 17 24
REMARK H PARENT 10 19 4 21 20 23 17 25
REMARK Flexibility Score: inf
ROOT
ATOM      1  C   UNL     1      29.169  34.368 126.655  1.00  0.00     0.180 A 
ATOM      2  C   UNL     1      28.186  35.248 126.172  1.00  0.00     0.208 A 
ATOM      3  C   UNL     1      27.923  35.283 124.793  1.00  0.00     0.238 A 
ATOM      4  O   UNL     1      27.081  36.112 124.360  1.00  0.00    -0.285 OA
ATOM      5  C   UNL     1      28.635  34.428 123.917  1.00  0.00     0.111 A 
ATOM      6  C   UNL     1      28.422  34.352 122.508  1.00  0.00     0.134 A 
ATOM      7  C   UNL     1      29.274  33.566 121.723  1.00  0.00     0.093 A 
ATOM      8  C   UNL     1      30.289  32.802 122.304  1.00  0.00     0.123 A 
ATOM      9  C   UNL     1      30.466  32.823 123.686  1.00  0.00     0.094 A 
ATOM     10  C   UNL     1      29.655  33.626 124.492  1.00  0.00     0.146 A 
ATOM     11  O   UNL     1      29.865  33.626 125.803  1.00  0.00    -0.452 OA
ENDROOT
BRANCH   1  12
ATOM     12  C   UNL     1      29.484  34.254 128.098  1.00  0.00     0.021 A 
ATOM     13  C   UNL     1      30.586  34.923 128.663  1.00  0.00     0.016 A 
ATOM     14  C   UNL     1      30.850  34.819 130.032  1.00  0.00     0.047 A 
ATOM     15  C   UNL     1      30.014  34.059 130.854  1.00  0.00     0.115 A 
ATOM     16  C   UNL     1      28.637  33.509 128.934  1.00  0.00     0.016 A 
ATOM     17  C   UNL     1      28.903  33.406 130.303  1.00  0.00     0.047 A 
BRANCH  15  18
ATOM     18  O   UNL     1      30.290  33.964 132.217  1.00  0.00    -0.508 OA
ATOM     19  H   UNL     1      29.705  33.418 132.839  1.00  0.00     0.293 HD
ENDBRANCH  15  18
ENDBRANCH   1  12
BRANCH   2  20
ATOM     20  O   UNL     1      27.510  36.099 127.051  1.00  0.00    -0.502 OA
ATOM     21  H   UNL     1      27.913  36.964 127.388  1.00  0.00     0.293 HD
ENDBRANCH   2  20
BRANCH   6  22
ATOM     22  O   UNL     1      27.380  35.002 121.840  1.00  0.00    -0.507 OA
ATOM     23  H   UNL     1      27.506  35.693 121.115  1.00  0.00     0.293 HD
ENDBRANCH   6  22
BRANCH   8  24
ATOM     24  O   UNL     1      31.122  32.010 121.517  1.00  0.00    -0.508 OA
ATOM     25  H   UNL     1      30.753  31.431 120.771  1.00  0.00     0.293 HD
ENDBRANCH   8  24
TORSDOF 5
ENDMDL
MODEL 3
REMARK VINA RESULT:    -5.757      1.799      3.638
REMARK INTER + INTRA:          -7.062
REMARK INTER:                  -6.780
REMARK INTRA:                  -0.282
REMARK UNBOUND:                -0.296
REMARK SMILES O=c1c(O)c(-c2ccc(O)cc2)oc2cc(O)cc(O)c12
REMARK SMILES IDX 5 1 3 2 2 3 1 4 21 5 19 6 18 7 16 8 15 9 14 10 13 11 6 12
REMARK SMILES IDX 7 13 8 14 9 15 12 16 11 17 10 18 4 20 20 22 17 24
REMARK H PARENT 10 19 4 21 20 23 17 25
REMARK Flexibility Score: inf
ROOT
ATOM      1  C   UNL     1      29.007  33.703 126.841  1.00  0.00     0.180 A 
ATOM      2  C   UNL     1      29.883  33.203 125.862  1.00  0.00     0.208 A 
ATOM      3  C   UNL     1      29.486  33.228 124.516  1.00  0.00     0.238 A 
ATOM      4  O   UNL     1      30.251  32.730 123.650  1.00  0.00    -0.285 OA
ATOM      5  C   UNL     1      28.225  33.767 124.163  1.00  0.00     0.111 A 
ATOM      6  C   UNL     1      27.737  33.880 122.827  1.00  0.00     0.134 A 
ATOM      7  C   UNL     1      26.422  34.308 122.606  1.00  0.00     0.093 A 
ATOM      8  C   UNL     1      25.601  34.691 123.669  1.00  0.00     0.123 A 
ATOM      9  C   UNL     1      26.089  34.642 124.973  1.00  0.00     0.094 A 
ATOM     10  C   UNL     1      27.384  34.184 125.228  1.00  0.00     0.146 A 
ATOM     11  O   UNL     1      27.806  34.142 126.486  1.00  0.00    -0.452 OA
ENDROOT
BRANCH   1  12
ATOM     12  C   UNL     1      29.365  33.735 128.277  1.00  0.00     0.021 A 
ATOM     13  C   UNL     1      30.171  34.758 128.810  1.00  0.00     0.016 A 
ATOM     14  C   UNL     1      30.476  34.780 130.174  1.00  0.00     0.047 A 
ATOM     15  C   UNL     1      29.973  33.791 131.024  1.00  0.00     0.115 A 
ATOM     16  C   UNL     1      28.847  32.756 129.141  1.00  0.00     0.016 A 
ATOM     17  C   UNL     1      29.155  32.779 130.505  1.00  0.00     0.047 A 
BRANCH  15  18
ATOM     18  O   UNL     1      30.287  33.824 132.381  1.00  0.00    -0.508 OA
ATOM     19  H   UNL     1      29.780  33.264 133.056  1.00  0.00     0.293 HD
ENDBRANCH  15  18
ENDBRANCH   1  12
BRANCH   2  20
ATOM     20  O   UNL     1      31.115  32.655 126.234  1.00  0.00    -0.502 OA
ATOM     21  H   UNL     1      31.991  33.143 126.095  1.00  0.00     0.293 HD
ENDBRANCH   2  20
BRANCH   6  22
ATOM     22  O   UNL     1      28.505  33.612 121.690  1.00  0.00    -0.507 OA
ATOM     23  H   UNL     1      28.584  34.225 120.893  1.00  0.00     0.293 HD
ENDBRANCH   6  22
BRANCH   8  24
ATOM     24  O   UNL     1      24.299  35.131 123.439  1.00  0.00    -0.508 OA
ATOM     25  H   UNL     1      23.678  34.642 122.804  1.00  0.00     0.293 HD
ENDBRANCH   8  24
TORSDOF 5
ENDMDL
MODEL 4
REMARK VINA RESULT:    -5.700      1.784      3.461
REMARK INTER + INTRA:          -6.996
REMARK INTER:                  -6.730
REMARK INTRA:                  -0.266
REMARK UNBOUND:                -0.296
REMARK SMILES O=c1c(O)c(-c2ccc(O)cc2)oc2cc(O)cc(O)c12
REMARK SMILES IDX 5 1 3 2 2 3 1 4 21 5 19 6 18 7 16 8 15 9 14 10 13 11 6 12
REMARK SMILES IDX 7 13 8 14 9 15 12 16 11 17 10 18 4 20 20 22 17 24
REMARK H PARENT 10 19 4 21 20 23 17 25
REMARK Flexibility Score: inf
ROOT
ATOM      1  C   UNL     1      29.000  33.722 126.843  1.00  0.00     0.180 A 
ATOM      2  C   UNL     1      29.907  33.220 125.894  1.00  0.00     0.208 A 
ATOM      3  C   UNL     1      29.555  33.246 124.535  1.00  0.00     0.238 A 
ATOM      4  O   UNL     1      30.348  32.745 123.696  1.00  0.00    -0.285 OA
ATOM      5  C   UNL     1      28.308  33.788 124.140  1.00  0.00     0.111 A 
ATOM      6  C   UNL     1      27.866  33.901 122.788  1.00  0.00     0.134 A 
ATOM      7  C   UNL     1      26.560  34.333 122.523  1.00  0.00     0.093 A 
ATOM      8  C   UNL     1      25.704  34.717 123.558  1.00  0.00     0.123 A 
ATOM      9  C   UNL     1      26.148  34.667 124.877  1.00  0.00     0.094 A 
ATOM     10  C   UNL     1      27.433  34.206 125.176  1.00  0.00     0.146 A 
ATOM     11  O   UNL     1      27.812  34.163 126.448  1.00  0.00    -0.452 OA
ENDROOT
BRANCH   1  12
ATOM     12  C   UNL     1      29.309  33.753 128.291  1.00  0.00     0.021 A 
ATOM     13  C   UNL     1      28.851  32.746 129.160  1.00  0.00     0.016 A 
ATOM     14  C   UNL     1      29.176  32.784 130.519  1.00  0.00     0.047 A 
ATOM     15  C   UNL     1      29.970  33.817 131.025  1.00  0.00     0.115 A 
ATOM     16  C   UNL     1      30.124  34.776 128.802  1.00  0.00     0.016 A 
ATOM     17  C   UNL     1      30.448  34.812 130.162  1.00  0.00     0.047 A 
BRANCH  15  18
ATOM     18  O   UNL     1      30.285  33.843 132.381  1.00  0.00    -0.508 OA
ATOM     19  H   UNL     1      31.060  33.308 132.756  1.00  0.00     0.293 HD
ENDBRANCH  15  18
ENDBRANCH   1  12
BRANCH   2  20
ATOM     20  O   UNL     1      31.124  32.669 126.307  1.00  0.00    -0.502 OA
ATOM     21  H   UNL     1      31.259  32.282 127.233  1.00  0.00     0.293 HD
ENDBRANCH   2  20
BRANCH   6  22
ATOM     22  O   UNL     1      28.671  33.631 121.678  1.00  0.00    -0.507 OA
ATOM     23  H   UNL     1      28.331  33.282 120.794  1.00  0.00     0.293 HD
ENDBRANCH   6  22
BRANCH   8  24
ATOM     24  O   UNL     1      24.412  35.160 123.284  1.00  0.00    -0.508 OA
ATOM     25  H   UNL     1      24.223  35.806 122.525  1.00  0.00     0.293 HD
ENDBRANCH   8  24
TORSDOF 5
ENDMDL
MODEL 5
REMARK VINA RESULT:    -5.659      1.306      3.131
REMARK INTER + INTRA:          -6.948
REMARK INTER:                  -6.659
REMARK INTRA:                  -0.289
REMARK UNBOUND:                -0.296
REMARK SMILES O=c1c(O)c(-c2ccc(O)cc2)oc2cc(O)cc(O)c12
REMARK SMILES IDX 5 1 3 2 2 3 1 4 21 5 19 6 18 7 16 8 15 9 14 10 13 11 6 12
REMARK SMILES IDX 7 13 8 14 9 15 12 16 11 17 10 18 4 20 20 22 17 24
REMARK H PARENT 10 19 4 21 20 23 17 25
REMARK Flexibility Score: inf
ROOT
ATOM      1  C   UNL     1      28.534  33.812 125.221  1.00  0.00     0.180 A 
ATOM      2  C   UNL     1      29.389  33.284 124.238  1.00  0.00     0.208 A 
ATOM      3  C   UNL     1      28.915  33.155 122.923  1.00  0.00     0.238 A 
ATOM      4  O   UNL     1      29.665  32.631 122.059  1.00  0.00    -0.285 OA
ATOM      5  C   UNL     1      27.599  33.569 122.603  1.00  0.00     0.111 A 
ATOM      6  C   UNL     1      27.030  33.522 121.296  1.00  0.00     0.134 A 
ATOM      7  C   UNL     1      25.676  33.835 121.121  1.00  0.00     0.093 A 
ATOM      8  C   UNL     1      24.890  34.259 122.195  1.00  0.00     0.123 A 
ATOM      9  C   UNL     1      25.453  34.366 123.464  1.00  0.00     0.094 A 
ATOM     10  C   UNL     1      26.791  34.025 123.677  1.00  0.00     0.146 A 
ATOM     11  O   UNL     1      27.285  34.131 124.905  1.00  0.00    -0.452 OA
ENDROOT
BRANCH   1  12
ATOM     12  C   UNL     1      28.970  34.003 126.623  1.00  0.00     0.021 A 
ATOM     13  C   UNL     1      28.820  32.985 127.583  1.00  0.00     0.016 A 
ATOM     14  C   UNL     1      29.260  33.181 128.895  1.00  0.00     0.047 A 
ATOM     15  C   UNL     1      29.865  34.386 129.263  1.00  0.00     0.115 A 
ATOM     16  C   UNL     1      29.597  35.204 126.995  1.00  0.00     0.016 A 
ATOM     17  C   UNL     1      30.036  35.397 128.309  1.00  0.00     0.047 A 
BRANCH  15  18
ATOM     18  O   UNL     1      30.298  34.567 130.575  1.00  0.00    -0.508 OA
ATOM     19  H   UNL     1      31.201  34.230 130.886  1.00  0.00     0.293 HD
ENDBRANCH  15  18
ENDBRANCH   1  12
BRANCH   2  20
ATOM     20  O   UNL     1      30.677  32.860 124.579  1.00  0.00    -0.502 OA
ATOM     21  H   UNL     1      30.849  32.165 125.295  1.00  0.00     0.293 HD
ENDBRANCH   2  20
BRANCH   6  22
ATOM     22  O   UNL     1      27.750  33.201 120.141  1.00  0.00    -0.507 OA
ATOM     23  H   UNL     1      28.532  33.731 119.787  1.00  0.00     0.293 HD
ENDBRANCH   6  22
BRANCH   8  24
ATOM     24  O   UNL     1      23.548  34.584 122.009  1.00  0.00    -0.508 OA
ATOM     25  H   UNL     1      22.814  34.127 122.538  1.00  0.00     0.293 HD
ENDBRANCH   8  24
TORSDOF 5
ENDMDL
MODEL 6
REMARK VINA RESULT:    -5.475      2.254      4.594
REMARK INTER + INTRA:          -6.731
REMARK INTER:                  -6.495
REMARK INTRA:                  -0.236
REMARK UNBOUND:                -0.296
REMARK SMILES O=c1c(O)c(-c2ccc(O)cc2)oc2cc(O)cc(O)c12
REMARK SMILES IDX 5 1 3 2 2 3 1 4 21 5 19 6 18 7 16 8 15 9 14 10 13 11 6 12
REMARK SMILES IDX 7 13 8 14 9 15 12 16 11 17 10 18 4 20 20 22 17 24
REMARK H PARENT 10 19 4 21 20 23 17 25
REMARK Flexibility Score: inf
ROOT
ATOM      1  C   UNL     1      28.851  33.092 122.005  1.00  0.00     0.180 A 
ATOM      2  C   UNL     1      29.964  32.363 121.553  1.00  0.00     0.208 A 
ATOM      3  C   UNL     1      29.877  31.675 120.332  1.00  0.00     0.238 A 
ATOM      4  O   UNL     1      30.857  30.979 119.960  1.00  0.00    -0.285 OA
ATOM      5  C   UNL     1      28.685  31.739 119.571  1.00  0.00     0.111 A 
ATOM      6  C   UNL     1      28.501  31.115 118.300  1.00  0.00     0.134 A 
ATOM      7  C   UNL     1      27.237  31.136 117.698  1.00  0.00     0.093 A 
ATOM      8  C   UNL     1      26.168  31.814 118.288  1.00  0.00     0.123 A 
ATOM      9  C   UNL     1      26.355  32.477 119.499  1.00  0.00     0.094 A 
ATOM     10  C   UNL     1      27.594  32.444 120.142  1.00  0.00     0.146 A 
ATOM     11  O   UNL     1      27.726  33.080 121.300  1.00  0.00    -0.452 OA
ENDROOT
BRANCH   1  12
ATOM     12  C   UNL     1      28.874  33.864 123.269  1.00  0.00     0.021 A 
ATOM     13  C   UNL     1      28.973  35.267 123.269  1.00  0.00     0.016 A 
ATOM     14  C   UNL     1      28.969  35.975 124.475  1.00  0.00     0.047 A 
ATOM     15  C   UNL     1      28.854  35.296 125.690  1.00  0.00     0.115 A 
ATOM     16  C   UNL     1      28.738  33.189 124.493  1.00  0.00     0.016 A 
ATOM     17  C   UNL     1      28.735  33.900 125.698  1.00  0.00     0.047 A 
BRANCH  15  18
ATOM     18  O   UNL     1      28.853  36.015 126.884  1.00  0.00    -0.508 OA
ATOM     19  H   UNL     1      29.408  36.856 126.996  1.00  0.00     0.293 HD
ENDBRANCH  15  18
ENDBRANCH   1  12
BRANCH   2  20
ATOM     20  O   UNL     1      31.123  32.294 122.331  1.00  0.00    -0.502 OA
ATOM     21  H   UNL     1      31.983  31.881 121.991  1.00  0.00     0.293 HD
ENDBRANCH   2  20
BRANCH   6  22
ATOM     22  O   UNL     1      29.524  30.490 117.581  1.00  0.00    -0.507 OA
ATOM     23  H   UNL     1      30.425  30.243 117.962  1.00  0.00     0.293 HD
ENDBRANCH   6  22
BRANCH   8  24
ATOM     24  O   UNL     1      24.918  31.843 117.675  1.00  0.00    -0.508 OA
ATOM     25  H   UNL     1      24.266  31.072 117.764  1.00  0.00     0.293 HD
ENDBRANCH   8  24
TORSDOF 5
ENDMDL
MODEL 7
REMARK VINA RESULT:    -5.247      2.271      7.180
REMARK INTER + INTRA:          -6.463
REMARK INTER:                  -6.929
REMARK INTRA:                   0.466
REMARK UNBOUND:                -0.296
REMARK SMILES O=c1c(O)c(-c2ccc(O)cc2)oc2cc(O)cc(O)c12
REMARK SMILES IDX 5 1 3 2 2 3 1 4 21 5 19 6 18 7 16 8 15 9 14 10 13 11 6 12
REMARK SMILES IDX 7 13 8 14 9 15 12 16 11 17 10 18 4 20 20 22 17 24
REMARK H PARENT 10 19 4 21 20 23 17 25
REMARK Flexibility Score: inf
ROOT
ATOM      1  C   UNL     1      28.786  33.024 122.129  1.00  0.00     0.180 A 
ATOM      2  C   UNL     1      29.862  33.149 123.025  1.00  0.00     0.208 A 
ATOM      3  C   UNL     1      29.658  33.814 124.244  1.00  0.00     0.238 A 
ATOM      4  O   UNL     1      30.638  33.971 125.018  1.00  0.00    -0.285 OA
ATOM      5  C   UNL     1      28.378  34.330 124.561  1.00  0.00     0.111 A 
ATOM      6  C   UNL     1      28.049  34.985 125.785  1.00  0.00     0.134 A 
ATOM      7  C   UNL     1      26.786  35.571 125.937  1.00  0.00     0.093 A 
ATOM      8  C   UNL     1      25.819  35.467 124.935  1.00  0.00     0.123 A 
ATOM      9  C   UNL     1      26.111  34.777 123.760  1.00  0.00     0.094 A 
ATOM     10  C   UNL     1      27.375  34.214 123.565  1.00  0.00     0.146 A 
ATOM     11  O   UNL     1      27.615  33.575 122.426  1.00  0.00    -0.452 OA
ENDROOT
BRANCH   1  12
ATOM     12  C   UNL     1      28.915  32.314 120.836  1.00  0.00     0.021 A 
ATOM     13  C   UNL     1      30.063  31.564 120.523  1.00  0.00     0.016 A 
ATOM     14  C   UNL     1      30.152  30.883 119.305  1.00  0.00     0.047 A 
ATOM     15  C   UNL     1      29.096  30.933 118.392  1.00  0.00     0.115 A 
ATOM     16  C   UNL     1      27.849  32.343 119.922  1.00  0.00     0.016 A 
ATOM     17  C   UNL     1      27.941  31.662 118.704  1.00  0.00     0.047 A 
BRANCH  15  18
ATOM     18  O   UNL     1      29.199  30.251 117.181  1.00  0.00    -0.508 OA
ATOM     19  H   UNL     1      30.022  30.334 116.595  1.00  0.00     0.293 HD
ENDBRANCH  15  18
ENDBRANCH   1  12
BRANCH   2  20
ATOM     20  O   UNL     1      31.123  32.652 122.683  1.00  0.00    -0.502 OA
ATOM     21  H   UNL     1      31.698  32.133 123.335  1.00  0.00     0.293 HD
ENDBRANCH   2  20
BRANCH   6  22
ATOM     22  O   UNL     1      28.909  35.064 126.885  1.00  0.00    -0.507 OA
ATOM     23  H   UNL     1      29.324  35.917 127.228  1.00  0.00     0.293 HD
ENDBRANCH   6  22
BRANCH   8  24
ATOM     24  O   UNL     1      24.560  36.039 125.100  1.00  0.00    -0.508 OA
ATOM     25  H   UNL     1      24.433  36.902 125.616  1.00  0.00     0.293 HD
ENDBRANCH   8  24
TORSDOF 5
ENDMDL
MODEL 8
REMARK VINA RESULT:    -5.181      2.009      2.947
REMARK INTER + INTRA:          -6.386
REMARK INTER:                  -6.218
REMARK INTRA:                  -0.168
REMARK UNBOUND:                -0.296
REMARK SMILES O=c1c(O)c(-c2ccc(O)cc2)oc2cc(O)cc(O)c12
REMARK SMILES IDX 5 1 3 2 2 3 1 4 21 5 19 6 18 7 16 8 15 9 14 10 13 11 6 12
REMARK SMILES IDX 7 13 8 14 9 15 12 16 11 17 10 18 4 20 20 22 17 24
REMARK H PARENT 10 19 4 21 20 23 17 25
REMARK Flexibility Score: inf
ROOT
ATOM      1  C   UNL     1      28.150  33.183 122.678  1.00  0.00     0.180 A 
ATOM      2  C   UNL     1      26.967  33.875 122.369  1.00  0.00     0.208 A 
ATOM      3  C   UNL     1      26.395  33.711 121.097  1.00  0.00     0.238 A 
ATOM      4  O   UNL     1      25.366  34.375 120.808  1.00  0.00    -0.285 OA
ATOM      5  C   UNL     1      27.004  32.846 120.156  1.00  0.00     0.111 A 
ATOM      6  C   UNL     1      26.488  32.574 118.854  1.00  0.00     0.134 A 
ATOM      7  C   UNL     1      27.243  31.803 117.960  1.00  0.00     0.093 A 
ATOM      8  C   UNL     1      28.461  31.241 118.345  1.00  0.00     0.123 A 
ATOM      9  C   UNL     1      28.944  31.451 119.635  1.00  0.00     0.094 A 
ATOM     10  C   UNL     1      28.231  32.245 120.537  1.00  0.00     0.146 A 
ATOM     11  O   UNL     1      28.732  32.429 121.753  1.00  0.00    -0.452 OA
ENDROOT
BRANCH   1  12
ATOM     12  C   UNL     1      28.799  33.283 124.005  1.00  0.00     0.021 A 
ATOM     13  C   UNL     1      28.168  32.803 125.168  1.00  0.00     0.016 A 
ATOM     14  C   UNL     1      28.810  32.888 126.407  1.00  0.00     0.047 A 
ATOM     15  C   UNL     1      30.091  33.440 126.500  1.00  0.00     0.115 A 
ATOM     16  C   UNL     1      30.094  33.818 124.104  1.00  0.00     0.016 A 
ATOM     17  C   UNL     1      30.734  33.903 125.344  1.00  0.00     0.047 A 
BRANCH  15  18
ATOM     18  O   UNL     1      30.718  33.519 127.741  1.00  0.00    -0.508 OA
ATOM     19  H   UNL     1      30.188  33.498 128.605  1.00  0.00     0.293 HD
ENDBRANCH  15  18
ENDBRANCH   1  12
BRANCH   2  20
ATOM     20  O   UNL     1      26.394  34.742 123.305  1.00  0.00    -0.502 OA
ATOM     21  H   UNL     1      26.038  35.655 123.052  1.00  0.00     0.293 HD
ENDBRANCH   2  20
BRANCH   6  22
ATOM     22  O   UNL     1      25.239  33.010 118.401  1.00  0.00    -0.507 OA
ATOM     23  H   UNL     1      24.359  32.584 118.647  1.00  0.00     0.293 HD
ENDBRANCH   6  22
BRANCH   8  24
ATOM     24  O   UNL     1      29.198  30.462 117.455  1.00  0.00    -0.508 OA
ATOM     25  H   UNL     1      29.562  29.554 117.721  1.00  0.00     0.293 HD
ENDBRANCH   8  24
TORSDOF 5
ENDMDL
