MODEL 1
REMARK VINA RESULT:    -6.191      0.000      0.000
REMARK INTER + INTRA:         -14.593
REMARK INTER:                 -13.430
REMARK INTRA:                  -1.163
REMARK UNBOUND:                -1.163
REMARK SMILES CCCCCCCCCCCCCCCCCCCCCC(=O)[O-]
REMARK SMILES IDX 12 1 11 2 10 3 9 4 8 5 7 6 6 7 5 8 4 9 3 10 2 11 1 12 13 13
REMARK SMILES IDX 14 14 15 15 16 16 17 17 18 18 19 19 20 20 21 21 22 22 23 23
REMARK SMILES IDX 24 24
REMARK H PARENT
REMARK Flexibility Score: inf
ROOT
ATOM      1  C   UNL     1     -10.115 -14.915  26.124  1.00  0.00     0.000 C 
ENDROOT
BRANCH   1   2
ATOM      2  C   UNL     1      -8.819 -14.122  26.332  1.00  0.00     0.000 C 
BRANCH   2   3
ATOM      3  C   UNL     1      -7.623 -15.068  26.514  1.00  0.00     0.000 C 
BRANCH   3   4
ATOM      4  C   UNL     1      -6.651 -14.602  27.613  1.00  0.00    -0.000 C 
BRANCH   4   5
ATOM      5  C   UNL     1      -7.214 -14.645  29.048  1.00  0.00    -0.000 C 
BRANCH   5   6
ATOM      6  C   UNL     1      -6.251 -14.159  30.145  1.00  0.00    -0.000 C 
BRANCH   6   7
ATOM      7  C   UNL     1      -6.964 -13.398  31.273  1.00  0.00    -0.000 C 
BRANCH   7   8
ATOM      8  C   UNL     1      -6.348 -13.740  32.638  1.00  0.00    -0.000 C 
BRANCH   8   9
ATOM      9  C   UNL     1      -4.876 -13.312  32.747  1.00  0.00    -0.000 C 
BRANCH   9  10
ATOM     10  C   UNL     1      -4.685 -11.798  32.550  1.00  0.00    -0.000 C 
BRANCH  10  11
ATOM     11  C   UNL     1      -3.245 -11.346  32.835  1.00  0.00    -0.003 C 
ATOM     12  C   UNL     1      -2.258 -12.512  32.875  1.00  0.00     0.004 C 
ENDBRANCH  10  11
ENDBRANCH   9  10
ENDBRANCH   8   9
ENDBRANCH   7   8
ENDBRANCH   6   7
ENDBRANCH   5   6
ENDBRANCH   4   5
ENDBRANCH   3   4
ENDBRANCH   2   3
ENDBRANCH   1   2
BRANCH   1  13
ATOM     13  C   UNL     1     -10.482 -15.719  27.379  1.00  0.00     0.000 C 
BRANCH  13  14
ATOM     14  C   UNL     1     -11.957 -16.177  27.364  1.00  0.00     0.000 C 
BRANCH  14  15
ATOM     15  C   UNL     1     -12.344 -17.046  28.571  1.00  0.00     0.000 C 
BRANCH  15  16
ATOM     16  C   UNL     1     -11.136 -17.440  29.434  1.00  0.00     0.000 C 
BRANCH  16  17
ATOM     17  C   UNL     1     -11.235 -16.901  30.870  1.00  0.00     0.000 C 
BRANCH  17  18
ATOM     18  C   UNL     1     -12.408 -17.514  31.654  1.00  0.00     0.000 C 
BRANCH  18  19
ATOM     19  C   UNL     1     -12.219 -19.013  31.933  1.00  0.00     0.000 C 
BRANCH  19  20
ATOM     20  C   UNL     1     -12.941 -19.476  33.207  1.00  0.00     0.006 C 
BRANCH  20  21
ATOM     21  C   UNL     1     -12.173 -20.611  33.892  1.00  0.00     0.053 C 
BRANCH  21  22
ATOM     22  C   UNL     1     -13.112 -21.498  34.647  1.00  0.00     0.041 C 
ATOM     23  O   UNL     1     -12.846 -22.719  34.803  1.00  0.00    -0.550 OA
ATOM     24  O   UNL     1     -14.258 -20.964  35.225  1.00  0.00    -0.550 OA
ENDBRANCH  21  22
ENDBRANCH  20  21
ENDBRANCH  19  20
ENDBRANCH  18  19
ENDBRANCH  17  18
ENDBRANCH  16  17
ENDBRANCH  15  16
ENDBRANCH  14  15
ENDBRANCH  13  14
ENDBRANCH   1  13
TORSDOF 20
ENDMDL
MODEL 2
REMARK VINA RESULT:    -6.181      2.428      3.768
REMARK INTER + INTRA:         -14.571
REMARK INTER:                 -12.229
REMARK INTRA:                  -2.342
REMARK UNBOUND:                -1.163
REMARK SMILES CCCCCCCCCCCCCCCCCCCCCC(=O)[O-]
REMARK SMILES IDX 12 1 11 2 10 3 9 4 8 5 7 6 6 7 5 8 4 9 3 10 2 11 1 12 13 13
REMARK SMILES IDX 14 14 15 15 16 16 17 17 18 18 19 19 20 20 21 21 22 22 23 23
REMARK SMILES IDX 24 24
REMARK H PARENT
REMARK Flexibility Score: inf
ROOT
ATOM      1  C   UNL     1      -6.799 -14.218  27.067  1.00  0.00     0.000 C 
ENDROOT
BRANCH   1   2
ATOM      2  C   UNL     1      -6.088 -14.088  28.419  1.00  0.00     0.000 C 
BRANCH   2   3
ATOM      3  C   UNL     1      -7.079 -14.280  29.578  1.00  0.00     0.000 C 
BRANCH   3   4
ATOM      4  C   UNL     1      -6.421 -14.866  30.840  1.00  0.00    -0.000 C 
BRANCH   4   5
ATOM      5  C   UNL     1      -6.420 -13.937  32.070  1.00  0.00    -0.000 C 
BRANCH   5   6
ATOM      6  C   UNL     1      -6.769 -12.466  31.782  1.00  0.00    -0.000 C 
BRANCH   6   7
ATOM      7  C   UNL     1      -5.529 -11.567  31.673  1.00  0.00    -0.000 C 
BRANCH   7   8
ATOM      8  C   UNL     1      -4.498 -11.923  32.755  1.00  0.00    -0.000 C 
BRANCH   8   9
ATOM      9  C   UNL     1      -3.057 -11.926  32.222  1.00  0.00    -0.000 C 
BRANCH   9  10
ATOM     10  C   UNL     1      -2.926 -12.669  30.879  1.00  0.00    -0.000 C 
BRANCH  10  11
ATOM     11  C   UNL     1      -2.829 -14.191  31.058  1.00  0.00    -0.003 C 
ATOM     12  C   UNL     1      -2.748 -14.937  29.727  1.00  0.00     0.004 C 
ENDBRANCH  10  11
ENDBRANCH   9  10
ENDBRANCH   8   9
ENDBRANCH   7   8
ENDBRANCH   6   7
ENDBRANCH   5   6
ENDBRANCH   4   5
ENDBRANCH   3   4
ENDBRANCH   2   3
ENDBRANCH   1   2
BRANCH   1  13
ATOM     13  C   UNL     1      -8.179 -14.874  27.224  1.00  0.00     0.000 C 
BRANCH  13  14
ATOM     14  C   UNL     1      -9.110 -14.559  26.033  1.00  0.00     0.000 C 
BRANCH  14  15
ATOM     15  C   UNL     1     -10.552 -15.052  26.233  1.00  0.00     0.000 C 
BRANCH  15  16
ATOM     16  C   UNL     1     -10.730 -15.871  27.521  1.00  0.00     0.000 C 
BRANCH  16  17
ATOM     17  C   UNL     1     -12.086 -16.591  27.581  1.00  0.00     0.000 C 
BRANCH  17  18
ATOM     18  C   UNL     1     -12.855 -16.301  28.882  1.00  0.00     0.000 C 
BRANCH  18  19
ATOM     19  C   UNL     1     -13.301 -17.580  29.607  1.00  0.00     0.000 C 
BRANCH  19  20
ATOM     20  C   UNL     1     -12.950 -17.568  31.102  1.00  0.00     0.006 C 
BRANCH  20  21
ATOM     21  C   UNL     1     -11.654 -16.791  31.355  1.00  0.00     0.053 C 
BRANCH  21  22
ATOM     22  C   UNL     1     -10.465 -17.628  31.003  1.00  0.00     0.041 C 
ATOM     23  O   UNL     1     -10.542 -18.884  31.029  1.00  0.00    -0.550 OA
ATOM     24  O   UNL     1      -9.284 -17.019  30.593  1.00  0.00    -0.550 OA
ENDBRANCH  21  22
ENDBRANCH  20  21
ENDBRANCH  19  20
ENDBRANCH  18  19
ENDBRANCH  17  18
ENDBRANCH  16  17
ENDBRANCH  15  16
ENDBRANCH  14  15
ENDBRANCH  13  14
ENDBRANCH   1  13
TORSDOF 20
ENDMDL
MODEL 3
REMARK VINA RESULT:    -6.135      1.781      3.450
REMARK INTER + INTRA:         -14.470
REMARK INTER:                 -12.343
REMARK INTRA:                  -2.128
REMARK UNBOUND:                -1.163
REMARK SMILES CCCCCCCCCCCCCCCCCCCCCC(=O)[O-]
REMARK SMILES IDX 12 1 11 2 10 3 9 4 8 5 7 6 6 7 5 8 4 9 3 10 2 11 1 12 13 13
REMARK SMILES IDX 14 14 15 15 16 16 17 17 18 18 19 19 20 20 21 21 22 22 23 23
REMARK SMILES IDX 24 24
REMARK H PARENT
REMARK Flexibility Score: inf
ROOT
ATOM      1  C   UNL     1      -7.662 -14.576  27.553  1.00  0.00     0.000 C 
ENDROOT
BRANCH   1   2
ATOM      2  C   UNL     1      -6.292 -14.092  27.062  1.00  0.00     0.000 C 
BRANCH   2   3
ATOM      3  C   UNL     1      -5.162 -14.719  27.891  1.00  0.00     0.000 C 
BRANCH   3   4
ATOM      4  C   UNL     1      -4.023 -13.730  28.199  1.00  0.00    -0.000 C 
BRANCH   4   5
ATOM      5  C   UNL     1      -4.102 -13.051  29.581  1.00  0.00    -0.000 C 
BRANCH   5   6
ATOM      6  C   UNL     1      -5.122 -11.904  29.692  1.00  0.00    -0.000 C 
BRANCH   6   7
ATOM      7  C   UNL     1      -5.722 -11.770  31.099  1.00  0.00    -0.000 C 
BRANCH   7   8
ATOM      8  C   UNL     1      -6.967 -12.659  31.249  1.00  0.00    -0.000 C 
BRANCH   8   9
ATOM      9  C   UNL     1      -6.665 -13.985  31.963  1.00  0.00    -0.000 C 
BRANCH   9  10
ATOM     10  C   UNL     1      -6.944 -15.211  31.075  1.00  0.00    -0.000 C 
BRANCH  10  11
ATOM     11  C   UNL     1      -7.929 -16.194  31.725  1.00  0.00    -0.003 C 
ATOM     12  C   UNL     1      -9.136 -16.492  30.837  1.00  0.00     0.004 C 
ENDBRANCH  10  11
ENDBRANCH   9  10
ENDBRANCH   8   9
ENDBRANCH   7   8
ENDBRANCH   6   7
ENDBRANCH   5   6
ENDBRANCH   4   5
ENDBRANCH   3   4
ENDBRANCH   2   3
ENDBRANCH   1   2
BRANCH   1  13
ATOM     13  C   UNL     1      -8.434 -15.289  26.433  1.00  0.00     0.000 C 
BRANCH  13  14
ATOM     14  C   UNL     1      -9.754 -14.565  26.087  1.00  0.00     0.000 C 
BRANCH  14  15
ATOM     15  C   UNL     1     -11.010 -15.337  26.519  1.00  0.00     0.000 C 
BRANCH  15  16
ATOM     16  C   UNL     1     -10.734 -16.345  27.646  1.00  0.00     0.000 C 
BRANCH  16  17
ATOM     17  C   UNL     1     -12.006 -16.734  28.416  1.00  0.00     0.000 C 
BRANCH  17  18
ATOM     18  C   UNL     1     -11.981 -18.193  28.904  1.00  0.00     0.000 C 
BRANCH  18  19
ATOM     19  C   UNL     1     -12.945 -18.446  30.073  1.00  0.00     0.000 C 
BRANCH  19  20
ATOM     20  C   UNL     1     -12.644 -17.561  31.292  1.00  0.00     0.006 C 
BRANCH  20  21
ATOM     21  C   UNL     1     -13.248 -18.159  32.567  1.00  0.00     0.053 C 
BRANCH  21  22
ATOM     22  C   UNL     1     -12.860 -19.597  32.705  1.00  0.00     0.041 C 
ATOM     23  O   UNL     1     -11.665 -19.912  32.949  1.00  0.00    -0.550 OA
ATOM     24  O   UNL     1     -13.829 -20.589  32.616  1.00  0.00    -0.550 OA
ENDBRANCH  21  22
ENDBRANCH  20  21
ENDBRANCH  19  20
ENDBRANCH  18  19
ENDBRANCH  17  18
ENDBRANCH  16  17
ENDBRANCH  15  16
ENDBRANCH  14  15
ENDBRANCH  13  14
ENDBRANCH   1  13
TORSDOF 20
ENDMDL
MODEL 4
REMARK VINA RESULT:    -6.086      4.199      9.448
REMARK INTER + INTRA:         -14.364
REMARK INTER:                 -13.029
REMARK INTRA:                  -1.335
REMARK UNBOUND:                -1.163
REMARK SMILES CCCCCCCCCCCCCCCCCCCCCC(=O)[O-]
REMARK SMILES IDX 12 1 11 2 10 3 9 4 8 5 7 6 6 7 5 8 4 9 3 10 2 11 1 12 13 13
REMARK SMILES IDX 14 14 15 15 16 16 17 17 18 18 19 19 20 20 21 21 22 22 23 23
REMARK SMILES IDX 24 24
REMARK H PARENT
REMARK Flexibility Score: inf
ROOT
ATOM      1  C   UNL     1     -10.595 -16.008  27.876  1.00  0.00     0.000 C 
ENDROOT
BRANCH   1   2
ATOM      2  C   UNL     1     -11.693 -17.047  28.137  1.00  0.00     0.000 C 
BRANCH   2   3
ATOM      3  C   UNL     1     -12.769 -16.481  29.076  1.00  0.00     0.000 C 
BRANCH   3   4
ATOM      4  C   UNL     1     -13.314 -17.528  30.064  1.00  0.00    -0.000 C 
BRANCH   4   5
ATOM      5  C   UNL     1     -12.379 -17.867  31.242  1.00  0.00    -0.000 C 
BRANCH   5   6
ATOM      6  C   UNL     1     -13.014 -18.712  32.361  1.00  0.00    -0.000 C 
BRANCH   6   7
ATOM      7  C   UNL     1     -12.030 -19.711  32.988  1.00  0.00    -0.000 C 
BRANCH   7   8
ATOM      8  C   UNL     1     -12.782 -20.874  33.652  1.00  0.00    -0.000 C 
BRANCH   8   9
ATOM      9  C   UNL     1     -14.220 -21.024  33.131  1.00  0.00    -0.000 C 
BRANCH   9  10
ATOM     10  C   UNL     1     -15.247 -21.172  34.268  1.00  0.00    -0.000 C 
BRANCH  10  11
ATOM     11  C   UNL     1     -14.901 -20.304  35.487  1.00  0.00    -0.003 C 
ATOM     12  C   UNL     1     -15.356 -18.854  35.328  1.00  0.00     0.004 C 
ENDBRANCH  10  11
ENDBRANCH   9  10
ENDBRANCH   8   9
ENDBRANCH   7   8
ENDBRANCH   6   7
ENDBRANCH   5   6
ENDBRANCH   4   5
ENDBRANCH   3   4
ENDBRANCH   2   3
ENDBRANCH   1   2
BRANCH   1  13
ATOM     13  C   UNL     1     -10.714 -15.417  26.463  1.00  0.00     0.000 C 
BRANCH  13  14
ATOM     14  C   UNL     1      -9.443 -14.643  26.050  1.00  0.00     0.000 C 
BRANCH  14  15
ATOM     15  C   UNL     1      -8.143 -15.268  26.582  1.00  0.00     0.000 C 
BRANCH  15  16
ATOM     16  C   UNL     1      -7.106 -14.217  27.009  1.00  0.00     0.000 C 
BRANCH  16  17
ATOM     17  C   UNL     1      -6.422 -14.569  28.340  1.00  0.00     0.000 C 
BRANCH  17  18
ATOM     18  C   UNL     1      -7.154 -13.975  29.556  1.00  0.00     0.000 C 
BRANCH  18  19
ATOM     19  C   UNL     1      -6.342 -12.878  30.263  1.00  0.00     0.000 C 
BRANCH  19  20
ATOM     20  C   UNL     1      -6.697 -12.742  31.751  1.00  0.00     0.006 C 
BRANCH  20  21
ATOM     21  C   UNL     1      -5.639 -13.413  32.632  1.00  0.00     0.053 C 
BRANCH  21  22
ATOM     22  C   UNL     1      -4.329 -12.699  32.513  1.00  0.00     0.041 C 
ATOM     23  O   UNL     1      -4.199 -11.532  32.967  1.00  0.00    -0.550 OA
ATOM     24  O   UNL     1      -3.236 -13.344  31.947  1.00  0.00    -0.550 OA
ENDBRANCH  21  22
ENDBRANCH  20  21
ENDBRANCH  19  20
ENDBRANCH  18  19
ENDBRANCH  17  18
ENDBRANCH  16  17
ENDBRANCH  15  16
ENDBRANCH  14  15
ENDBRANCH  13  14
ENDBRANCH   1  13
TORSDOF 20
ENDMDL
MODEL 5
REMARK VINA RESULT:    -6.079      4.897      9.241
REMARK INTER + INTRA:         -14.350
REMARK INTER:                 -12.239
REMARK INTRA:                  -2.111
REMARK UNBOUND:                -1.163
REMARK SMILES CCCCCCCCCCCCCCCCCCCCCC(=O)[O-]
REMARK SMILES IDX 12 1 11 2 10 3 9 4 8 5 7 6 6 7 5 8 4 9 3 10 2 11 1 12 13 13
REMARK SMILES IDX 14 14 15 15 16 16 17 17 18 18 19 19 20 20 21 21 22 22 23 23
REMARK SMILES IDX 24 24
REMARK H PARENT
REMARK Flexibility Score: inf
ROOT
ATOM      1  C   UNL     1      -6.987 -14.419  26.611  1.00  0.00     0.000 C 
ENDROOT
BRANCH   1   2
ATOM      2  C   UNL     1      -8.262 -15.267  26.695  1.00  0.00     0.000 C 
BRANCH   2   3
ATOM      3  C   UNL     1      -9.411 -14.604  25.921  1.00  0.00     0.000 C 
BRANCH   3   4
ATOM      4  C   UNL     1     -10.790 -15.191  26.274  1.00  0.00    -0.000 C 
BRANCH   4   5
ATOM      5  C   UNL     1     -10.854 -15.954  27.612  1.00  0.00    -0.000 C 
BRANCH   5   6
ATOM      6  C   UNL     1     -12.073 -16.878  27.781  1.00  0.00    -0.000 C 
BRANCH   6   7
ATOM      7  C   UNL     1     -13.096 -16.341  28.792  1.00  0.00    -0.000 C 
BRANCH   7   8
ATOM      8  C   UNL     1     -13.267 -17.315  29.968  1.00  0.00    -0.000 C 
BRANCH   8   9
ATOM      9  C   UNL     1     -12.108 -17.236  30.974  1.00  0.00    -0.000 C 
BRANCH   9  10
ATOM     10  C   UNL     1     -11.303 -18.546  31.050  1.00  0.00    -0.000 C 
BRANCH  10  11
ATOM     11  C   UNL     1      -9.792 -18.317  30.888  1.00  0.00    -0.003 C 
ATOM     12  C   UNL     1      -9.424 -16.835  30.833  1.00  0.00     0.004 C 
ENDBRANCH  10  11
ENDBRANCH   9  10
ENDBRANCH   8   9
ENDBRANCH   7   8
ENDBRANCH   6   7
ENDBRANCH   5   6
ENDBRANCH   4   5
ENDBRANCH   3   4
ENDBRANCH   2   3
ENDBRANCH   1   2
BRANCH   1  13
ATOM     13  C   UNL     1      -6.202 -14.462  27.930  1.00  0.00     0.000 C 
BRANCH  13  14
ATOM     14  C   UNL     1      -7.123 -14.295  29.158  1.00  0.00     0.000 C 
BRANCH  14  15
ATOM     15  C   UNL     1      -6.571 -13.324  30.214  1.00  0.00     0.000 C 
BRANCH  15  16
ATOM     16  C   UNL     1      -7.102 -13.612  31.626  1.00  0.00     0.000 C 
BRANCH  16  17
ATOM     17  C   UNL     1      -5.978 -13.726  32.668  1.00  0.00     0.000 C 
BRANCH  17  18
ATOM     18  C   UNL     1      -4.578 -13.563  32.050  1.00  0.00     0.000 C 
BRANCH  18  19
ATOM     19  C   UNL     1      -3.767 -12.433  32.704  1.00  0.00     0.000 C 
BRANCH  19  20
ATOM     20  C   UNL     1      -3.747 -11.151  31.858  1.00  0.00     0.006 C 
BRANCH  20  21
ATOM     21  C   UNL     1      -2.541 -11.136  30.913  1.00  0.00     0.053 C 
BRANCH  21  22
ATOM     22  C   UNL     1      -2.983 -10.905  29.503  1.00  0.00     0.041 C 
ATOM     23  O   UNL     1      -3.758 -11.721  28.938  1.00  0.00    -0.550 OA
ATOM     24  O   UNL     1      -2.581  -9.757  28.829  1.00  0.00    -0.550 OA
ENDBRANCH  21  22
ENDBRANCH  20  21
ENDBRANCH  19  20
ENDBRANCH  18  19
ENDBRANCH  17  18
ENDBRANCH  16  17
ENDBRANCH  15  16
ENDBRANCH  14  15
ENDBRANCH  13  14
ENDBRANCH   1  13
TORSDOF 20
ENDMDL
MODEL 6
REMARK VINA RESULT:    -6.076      2.773      5.392
REMARK INTER + INTRA:         -14.343
REMARK INTER:                 -11.781
REMARK INTRA:                  -2.563
REMARK UNBOUND:                -1.163
REMARK SMILES CCCCCCCCCCCCCCCCCCCCCC(=O)[O-]
REMARK SMILES IDX 12 1 11 2 10 3 9 4 8 5 7 6 6 7 5 8 4 9 3 10 2 11 1 12 13 13
REMARK SMILES IDX 14 14 15 15 16 16 17 17 18 18 19 19 20 20 21 21 22 22 23 23
REMARK SMILES IDX 24 24
REMARK H PARENT
REMARK Flexibility Score: inf
ROOT
ATOM      1  C   UNL     1      -7.429 -13.983  30.572  1.00  0.00     0.000 C 
ENDROOT
BRANCH   1   2
ATOM      2  C   UNL     1      -6.337 -14.460  31.538  1.00  0.00     0.000 C 
BRANCH   2   3
ATOM      3  C   UNL     1      -6.012 -13.373  32.574  1.00  0.00     0.000 C 
BRANCH   3   4
ATOM      4  C   UNL     1      -4.500 -13.146  32.752  1.00  0.00    -0.000 C 
BRANCH   4   5
ATOM      5  C   UNL     1      -4.085 -11.691  33.044  1.00  0.00    -0.000 C 
BRANCH   5   6
ATOM      6  C   UNL     1      -3.066 -11.089  32.062  1.00  0.00    -0.000 C 
BRANCH   6   7
ATOM      7  C   UNL     1      -3.728 -10.379  30.872  1.00  0.00    -0.000 C 
BRANCH   7   8
ATOM      8  C   UNL     1      -3.231 -10.963  29.541  1.00  0.00    -0.000 C 
BRANCH   8   9
ATOM      9  C   UNL     1      -3.881 -12.315  29.208  1.00  0.00    -0.000 C 
BRANCH   9  10
ATOM     10  C   UNL     1      -2.843 -13.409  28.898  1.00  0.00    -0.000 C 
BRANCH  10  11
ATOM     11  C   UNL     1      -2.986 -14.632  29.817  1.00  0.00    -0.003 C 
ATOM     12  C   UNL     1      -1.807 -14.791  30.775  1.00  0.00     0.004 C 
ENDBRANCH  10  11
ENDBRANCH   9  10
ENDBRANCH   8   9
ENDBRANCH   7   8
ENDBRANCH   6   7
ENDBRANCH   5   6
ENDBRANCH   4   5
ENDBRANCH   3   4
ENDBRANCH   2   3
ENDBRANCH   1   2
BRANCH   1  13
ATOM     13  C   UNL     1      -7.478 -14.861  29.313  1.00  0.00     0.000 C 
BRANCH  13  14
ATOM     14  C   UNL     1      -6.389 -14.470  28.291  1.00  0.00     0.000 C 
BRANCH  14  15
ATOM     15  C   UNL     1      -6.920 -14.310  26.857  1.00  0.00     0.000 C 
BRANCH  15  16
ATOM     16  C   UNL     1      -8.090 -15.256  26.545  1.00  0.00     0.000 C 
BRANCH  16  17
ATOM     17  C   UNL     1      -9.372 -14.502  26.158  1.00  0.00     0.000 C 
BRANCH  17  18
ATOM     18  C   UNL     1     -10.647 -15.312  26.452  1.00  0.00     0.000 C 
BRANCH  18  19
ATOM     19  C   UNL     1     -10.537 -16.151  27.735  1.00  0.00     0.000 C 
BRANCH  19  20
ATOM     20  C   UNL     1     -11.862 -16.829  28.116  1.00  0.00     0.006 C 
BRANCH  20  21
ATOM     21  C   UNL     1     -11.621 -18.246  28.645  1.00  0.00     0.053 C 
BRANCH  21  22
ATOM     22  C   UNL     1     -10.975 -18.199  29.993  1.00  0.00     0.041 C 
ATOM     23  O   UNL     1     -10.002 -18.954  30.258  1.00  0.00    -0.550 OA
ATOM     24  O   UNL     1     -11.412 -17.283  30.941  1.00  0.00    -0.550 OA
ENDBRANCH  21  22
ENDBRANCH  20  21
ENDBRANCH  19  20
ENDBRANCH  18  19
ENDBRANCH  17  18
ENDBRANCH  16  17
ENDBRANCH  15  16
ENDBRANCH  14  15
ENDBRANCH  13  14
ENDBRANCH   1  13
TORSDOF 20
ENDMDL
MODEL 7
REMARK VINA RESULT:    -6.037      2.742      5.394
REMARK INTER + INTRA:         -14.258
REMARK INTER:                 -11.608
REMARK INTRA:                  -2.650
REMARK UNBOUND:                -1.163
REMARK SMILES CCCCCCCCCCCCCCCCCCCCCC(=O)[O-]
REMARK SMILES IDX 12 1 11 2 10 3 9 4 8 5 7 6 6 7 5 8 4 9 3 10 2 11 1 12 13 13
REMARK SMILES IDX 14 14 15 15 16 16 17 17 18 18 19 19 20 20 21 21 22 22 23 23
REMARK SMILES IDX 24 24
REMARK H PARENT
REMARK Flexibility Score: inf
ROOT
ATOM      1  C   UNL     1      -6.586 -14.867  30.463  1.00  0.00     0.000 C 
ENDROOT
BRANCH   1   2
ATOM      2  C   UNL     1      -6.729 -14.161  31.817  1.00  0.00     0.000 C 
BRANCH   2   3
ATOM      3  C   UNL     1      -6.735 -12.635  31.640  1.00  0.00     0.000 C 
BRANCH   3   4
ATOM      4  C   UNL     1      -5.554 -11.943  32.344  1.00  0.00    -0.000 C 
BRANCH   4   5
ATOM      5  C   UNL     1      -4.485 -12.894  32.918  1.00  0.00    -0.000 C 
BRANCH   5   6
ATOM      6  C   UNL     1      -3.030 -12.427  32.744  1.00  0.00    -0.000 C 
BRANCH   6   7
ATOM      7  C   UNL     1      -2.175 -13.416  31.939  1.00  0.00    -0.000 C 
BRANCH   7   8
ATOM      8  C   UNL     1      -2.995 -14.054  30.808  1.00  0.00    -0.000 C 
BRANCH   8   9
ATOM      9  C   UNL     1      -2.743 -13.388  29.446  1.00  0.00    -0.000 C 
BRANCH   9  10
ATOM     10  C   UNL     1      -3.488 -12.049  29.297  1.00  0.00    -0.000 C 
BRANCH  10  11
ATOM     11  C   UNL     1      -2.536 -10.844  29.305  1.00  0.00    -0.003 C 
ATOM     12  C   UNL     1      -3.053  -9.689  30.162  1.00  0.00     0.004 C 
ENDBRANCH  10  11
ENDBRANCH   9  10
ENDBRANCH   8   9
ENDBRANCH   7   8
ENDBRANCH   6   7
ENDBRANCH   5   6
ENDBRANCH   4   5
ENDBRANCH   3   4
ENDBRANCH   2   3
ENDBRANCH   1   2
BRANCH   1  13
ATOM     13  C   UNL     1      -6.718 -13.872  29.301  1.00  0.00     0.000 C 
BRANCH  13  14
ATOM     14  C   UNL     1      -5.994 -14.367  28.030  1.00  0.00     0.000 C 
BRANCH  14  15
ATOM     15  C   UNL     1      -6.909 -14.462  26.799  1.00  0.00     0.000 C 
BRANCH  15  16
ATOM     16  C   UNL     1      -8.354 -14.845  27.157  1.00  0.00     0.000 C 
BRANCH  16  17
ATOM     17  C   UNL     1      -9.371 -14.347  26.118  1.00  0.00     0.000 C 
BRANCH  17  18
ATOM     18  C   UNL     1     -10.676 -15.163  26.128  1.00  0.00     0.000 C 
BRANCH  18  19
ATOM     19  C   UNL     1     -10.820 -16.040  27.382  1.00  0.00     0.000 C 
BRANCH  19  20
ATOM     20  C   UNL     1     -12.277 -16.431  27.668  1.00  0.00     0.006 C 
BRANCH  20  21
ATOM     21  C   UNL     1     -12.507 -16.627  29.170  1.00  0.00     0.053 C 
BRANCH  21  22
ATOM     22  C   UNL     1     -12.377 -18.072  29.535  1.00  0.00     0.041 C 
ATOM     23  O   UNL     1     -13.372 -18.709  29.972  1.00  0.00    -0.550 OA
ATOM     24  O   UNL     1     -11.168 -18.731  29.343  1.00  0.00    -0.550 OA
ENDBRANCH  21  22
ENDBRANCH  20  21
ENDBRANCH  19  20
ENDBRANCH  18  19
ENDBRANCH  17  18
ENDBRANCH  16  17
ENDBRANCH  15  16
ENDBRANCH  14  15
ENDBRANCH  13  14
ENDBRANCH   1  13
TORSDOF 20
ENDMDL
MODEL 8
REMARK VINA RESULT:    -6.010      4.644      9.000
REMARK INTER + INTRA:         -14.200
REMARK INTER:                 -11.935
REMARK INTRA:                  -2.264
REMARK UNBOUND:                -1.163
REMARK SMILES CCCCCCCCCCCCCCCCCCCCCC(=O)[O-]
REMARK SMILES IDX 12 1 11 2 10 3 9 4 8 5 7 6 6 7 5 8 4 9 3 10 2 11 1 12 13 13
REMARK SMILES IDX 14 14 15 15 16 16 17 17 18 18 19 19 20 20 21 21 22 22 23 23
REMARK SMILES IDX 24 24
REMARK H PARENT
REMARK Flexibility Score: inf
ROOT
ATOM      1  C   UNL     1      -5.984 -14.502  28.272  1.00  0.00     0.000 C 
ENDROOT
BRANCH   1   2
ATOM      2  C   UNL     1      -6.821 -14.426  26.989  1.00  0.00     0.000 C 
BRANCH   2   3
ATOM      3  C   UNL     1      -8.259 -14.902  27.246  1.00  0.00     0.000 C 
BRANCH   3   4
ATOM      4  C   UNL     1      -9.137 -14.869  25.982  1.00  0.00    -0.000 C 
BRANCH   4   5
ATOM      5  C   UNL     1     -10.651 -15.018  26.231  1.00  0.00    -0.000 C 
BRANCH   5   6
ATOM      6  C   UNL     1     -11.036 -15.941  27.401  1.00  0.00    -0.000 C 
BRANCH   6   7
ATOM      7  C   UNL     1     -12.529 -16.299  27.414  1.00  0.00    -0.000 C 
BRANCH   7   8
ATOM      8  C   UNL     1     -13.116 -16.143  28.825  1.00  0.00    -0.000 C 
BRANCH   8   9
ATOM      9  C   UNL     1     -12.606 -17.215  29.801  1.00  0.00    -0.000 C 
BRANCH   9  10
ATOM     10  C   UNL     1     -11.650 -16.640  30.862  1.00  0.00    -0.000 C 
BRANCH  10  11
ATOM     11  C   UNL     1     -10.239 -17.241  30.767  1.00  0.00    -0.003 C 
ATOM     12  C   UNL     1     -10.207 -18.547  29.974  1.00  0.00     0.004 C 
ENDBRANCH  10  11
ENDBRANCH   9  10
ENDBRANCH   8   9
ENDBRANCH   7   8
ENDBRANCH   6   7
ENDBRANCH   5   6
ENDBRANCH   4   5
ENDBRANCH   3   4
ENDBRANCH   2   3
ENDBRANCH   1   2
BRANCH   1  13
ATOM     13  C   UNL     1      -6.766 -13.961  29.478  1.00  0.00     0.000 C 
BRANCH  13  14
ATOM     14  C   UNL     1      -6.607 -14.861  30.723  1.00  0.00     0.000 C 
BRANCH  14  15
ATOM     15  C   UNL     1      -6.530 -14.077  32.043  1.00  0.00     0.000 C 
BRANCH  15  16
ATOM     16  C   UNL     1      -6.725 -12.565  31.851  1.00  0.00     0.000 C 
BRANCH  16  17
ATOM     17  C   UNL     1      -5.419 -11.774  32.022  1.00  0.00     0.000 C 
BRANCH  17  18
ATOM     18  C   UNL     1      -4.429 -12.464  32.977  1.00  0.00     0.000 C 
BRANCH  18  19
ATOM     19  C   UNL     1      -3.040 -12.666  32.351  1.00  0.00     0.000 C 
BRANCH  19  20
ATOM     20  C   UNL     1      -3.107 -12.992  30.851  1.00  0.00     0.006 C 
BRANCH  20  21
ATOM     21  C   UNL     1      -2.950 -14.497  30.610  1.00  0.00     0.053 C 
BRANCH  21  22
ATOM     22  C   UNL     1      -1.503 -14.860  30.494  1.00  0.00     0.041 C 
ATOM     23  O   UNL     1      -1.129 -16.047  30.684  1.00  0.00    -0.550 OA
ATOM     24  O   UNL     1      -0.573 -13.896  30.122  1.00  0.00    -0.550 OA
ENDBRANCH  21  22
ENDBRANCH  20  21
ENDBRANCH  19  20
ENDBRANCH  18  19
ENDBRANCH  17  18
ENDBRANCH  16  17
ENDBRANCH  15  16
ENDBRANCH  14  15
ENDBRANCH  13  14
ENDBRANCH   1  13
TORSDOF 20
ENDMDL
MODEL 9
REMARK VINA RESULT:    -5.991      4.683      9.196
REMARK INTER + INTRA:         -14.159
REMARK INTER:                 -11.497
REMARK INTRA:                  -2.662
REMARK UNBOUND:                -1.163
REMARK SMILES CCCCCCCCCCCCCCCCCCCCCC(=O)[O-]
REMARK SMILES IDX 12 1 11 2 10 3 9 4 8 5 7 6 6 7 5 8 4 9 3 10 2 11 1 12 13 13
REMARK SMILES IDX 14 14 15 15 16 16 17 17 18 18 19 19 20 20 21 21 22 22 23 23
REMARK SMILES IDX 24 24
REMARK H PARENT
REMARK Flexibility Score: inf
ROOT
ATOM      1  C   UNL     1      -7.456 -14.041  30.420  1.00  0.00     0.000 C 
ENDROOT
BRANCH   1   2
ATOM      2  C   UNL     1      -7.428 -14.887  29.142  1.00  0.00     0.000 C 
BRANCH   2   3
ATOM      3  C   UNL     1      -6.828 -14.091  27.973  1.00  0.00     0.000 C 
BRANCH   3   4
ATOM      4  C   UNL     1      -7.558 -14.337  26.641  1.00  0.00    -0.000 C 
BRANCH   4   5
ATOM      5  C   UNL     1      -8.725 -15.342  26.709  1.00  0.00    -0.000 C 
BRANCH   5   6
ATOM      6  C   UNL     1     -10.078 -14.812  26.203  1.00  0.00    -0.000 C 
BRANCH   6   7
ATOM      7  C   UNL     1     -11.274 -15.612  26.740  1.00  0.00    -0.000 C 
BRANCH   7   8
ATOM      8  C   UNL     1     -10.880 -16.408  27.994  1.00  0.00    -0.000 C 
BRANCH   8   9
ATOM      9  C   UNL     1     -11.939 -16.325  29.104  1.00  0.00    -0.000 C 
BRANCH   9  10
ATOM     10  C   UNL     1     -11.324 -16.401  30.513  1.00  0.00    -0.000 C 
BRANCH  10  11
ATOM     11  C   UNL     1      -9.960 -17.108  30.521  1.00  0.00    -0.003 C 
ATOM     12  C   UNL     1     -10.070 -18.598  30.841  1.00  0.00     0.004 C 
ENDBRANCH  10  11
ENDBRANCH   9  10
ENDBRANCH   8   9
ENDBRANCH   7   8
ENDBRANCH   6   7
ENDBRANCH   5   6
ENDBRANCH   4   5
ENDBRANCH   3   4
ENDBRANCH   2   3
ENDBRANCH   1   2
BRANCH   1  13
ATOM     13  C   UNL     1      -6.801 -14.784  31.593  1.00  0.00     0.000 C 
BRANCH  13  14
ATOM     14  C   UNL     1      -6.273 -13.814  32.672  1.00  0.00     0.000 C 
BRANCH  14  15
ATOM     15  C   UNL     1      -6.056 -12.382  32.158  1.00  0.00     0.000 C 
BRANCH  15  16
ATOM     16  C   UNL     1      -4.716 -11.781  32.611  1.00  0.00     0.000 C 
BRANCH  16  17
ATOM     17  C   UNL     1      -3.623 -12.846  32.794  1.00  0.00     0.000 C 
BRANCH  17  18
ATOM     18  C   UNL     1      -2.629 -12.882  31.620  1.00  0.00     0.000 C 
BRANCH  18  19
ATOM     19  C   UNL     1      -2.530 -14.269  30.966  1.00  0.00     0.000 C 
BRANCH  19  20
ATOM     20  C   UNL     1      -3.625 -14.510  29.917  1.00  0.00     0.006 C 
BRANCH  20  21
ATOM     21  C   UNL     1      -3.151 -14.090  28.522  1.00  0.00     0.053 C 
BRANCH  21  22
ATOM     22  C   UNL     1      -2.062 -14.997  28.044  1.00  0.00     0.041 C 
ATOM     23  O   UNL     1      -1.063 -14.526  27.438  1.00  0.00    -0.550 OA
ATOM     24  O   UNL     1      -2.123 -16.359  28.317  1.00  0.00    -0.550 OA
ENDBRANCH  21  22
ENDBRANCH  20  21
ENDBRANCH  19  20
ENDBRANCH  18  19
ENDBRANCH  17  18
ENDBRANCH  16  17
ENDBRANCH  15  16
ENDBRANCH  14  15
ENDBRANCH  13  14
ENDBRANCH   1  13
TORSDOF 20
ENDMDL
