MODEL 1
REMARK VINA RESULT:    -5.549      0.000      0.000
REMARK INTER + INTRA:         -12.064
REMARK INTER:                 -10.091
REMARK INTRA:                  -1.973
REMARK UNBOUND:                -1.973
REMARK SMILES CCCCCCCCCCCCCCCC(=O)[O-]
REMARK SMILES IDX 9 1 10 2 11 3 12 4 13 5 14 6 15 7 16 8 17 9 18 10 8 11 7 12
REMARK SMILES IDX 6 13 5 14 4 15 3 16 2 17 1 18
REMARK H PARENT
REMARK Flexibility Score: inf
ROOT
ATOM      1  C   UNL     1     -97.216 -61.129 -64.454  1.00  0.00     0.000 C 
ENDROOT
BRANCH   1   2
ATOM      2  C   UNL     1     -96.015 -62.043 -64.724  1.00  0.00     0.000 C 
BRANCH   2   3
ATOM      3  C   UNL     1     -95.224 -61.564 -65.952  1.00  0.00     0.000 C 
BRANCH   3   4
ATOM      4  C   UNL     1     -93.913 -62.339 -66.149  1.00  0.00     0.000 C 
BRANCH   4   5
ATOM      5  C   UNL     1     -93.626 -62.650 -67.630  1.00  0.00     0.000 C 
BRANCH   5   6
ATOM      6  C   UNL     1     -94.686 -62.059 -68.573  1.00  0.00     0.006 C 
BRANCH   6   7
ATOM      7  C   UNL     1     -94.301 -62.195 -70.052  1.00  0.00     0.053 C 
BRANCH   7   8
ATOM      8  C   UNL     1     -95.509 -62.492 -70.881  1.00  0.00     0.041 C 
ATOM      9  O   UNL     1     -95.579 -63.563 -71.540  1.00  0.00    -0.550 OA
ATOM     10  O   UNL     1     -96.582 -61.609 -70.889  1.00  0.00    -0.550 OA
ENDBRANCH   7   8
ENDBRANCH   6   7
ENDBRANCH   5   6
ENDBRANCH   4   5
ENDBRANCH   3   4
ENDBRANCH   2   3
ENDBRANCH   1   2
BRANCH   1  11
ATOM     11  C   UNL     1     -98.424 -61.940 -63.962  1.00  0.00     0.000 C 
BRANCH  11  12
ATOM     12  C   UNL     1     -99.716 -61.591 -64.718  1.00  0.00    -0.000 C 
BRANCH  12  13
ATOM     13  C   UNL     1     -99.821 -62.314 -66.072  1.00  0.00    -0.000 C 
BRANCH  13  14
ATOM     14  C   UNL     1     -99.722 -61.353 -67.272  1.00  0.00    -0.000 C 
BRANCH  14  15
ATOM     15  C   UNL     1     -98.342 -61.308 -67.953  1.00  0.00    -0.000 C 
BRANCH  15  16
ATOM     16  C   UNL     1     -97.680 -59.924 -67.877  1.00  0.00    -0.000 C 
BRANCH  16  17
ATOM     17  C   UNL     1     -98.622 -58.900 -67.234  1.00  0.00    -0.003 C 
ATOM     18  C   UNL     1     -97.839 -57.826 -66.481  1.00  0.00     0.004 C 
ENDBRANCH  16  17
ENDBRANCH  15  16
ENDBRANCH  14  15
ENDBRANCH  13  14
ENDBRANCH  12  13
ENDBRANCH  11  12
ENDBRANCH   1  11
TORSDOF 14
ENDMDL
MODEL 2
REMARK VINA RESULT:    -5.196      1.196      2.073
REMARK INTER + INTRA:         -11.422
REMARK INTER:                  -9.664
REMARK INTRA:                  -1.758
REMARK UNBOUND:                -1.973
REMARK SMILES CCCCCCCCCCCCCCCC(=O)[O-]
REMARK SMILES IDX 9 1 10 2 11 3 12 4 13 5 14 6 15 7 16 8 17 9 18 10 8 11 7 12
REMARK SMILES IDX 6 13 5 14 4 15 3 16 2 17 1 18
REMARK H PARENT
REMARK Flexibility Score: inf
ROOT
ATOM      1  C   UNL     1     -95.518 -60.575 -66.319  1.00  0.00     0.000 C 
ENDROOT
BRANCH   1   2
ATOM      2  C   UNL     1     -94.122 -61.031 -66.761  1.00  0.00     0.000 C 
BRANCH   2   3
ATOM      3  C   UNL     1     -93.855 -62.481 -66.330  1.00  0.00     0.000 C 
BRANCH   3   4
ATOM      4  C   UNL     1     -93.360 -63.360 -67.489  1.00  0.00     0.000 C 
BRANCH   4   5
ATOM      5  C   UNL     1     -93.160 -62.564 -68.792  1.00  0.00     0.000 C 
BRANCH   5   6
ATOM      6  C   UNL     1     -94.165 -62.959 -69.885  1.00  0.00     0.006 C 
BRANCH   6   7
ATOM      7  C   UNL     1     -94.723 -61.745 -70.639  1.00  0.00     0.053 C 
BRANCH   7   8
ATOM      8  C   UNL     1     -96.184 -61.585 -70.363  1.00  0.00     0.041 C 
ATOM      9  O   UNL     1     -96.648 -61.853 -69.224  1.00  0.00    -0.550 OA
ATOM     10  O   UNL     1     -97.029 -61.093 -71.351  1.00  0.00    -0.550 OA
ENDBRANCH   7   8
ENDBRANCH   6   7
ENDBRANCH   5   6
ENDBRANCH   4   5
ENDBRANCH   3   4
ENDBRANCH   2   3
ENDBRANCH   1   2
BRANCH   1  11
ATOM     11  C   UNL     1     -96.151 -61.595 -65.361  1.00  0.00     0.000 C 
BRANCH  11  12
ATOM     12  C   UNL     1     -97.200 -60.960 -64.433  1.00  0.00    -0.000 C 
BRANCH  12  13
ATOM     13  C   UNL     1     -98.366 -61.914 -64.121  1.00  0.00    -0.000 C 
BRANCH  13  14
ATOM     14  C   UNL     1     -99.711 -61.415 -64.682  1.00  0.00    -0.000 C 
BRANCH  14  15
ATOM     15  C   UNL     1     -99.743 -61.216 -66.208  1.00  0.00    -0.000 C 
BRANCH  15  16
ATOM     16  C   UNL     1    -100.003 -59.758 -66.617  1.00  0.00    -0.000 C 
BRANCH  16  17
ATOM     17  C   UNL     1     -98.805 -59.180 -67.380  1.00  0.00    -0.003 C 
ATOM     18  C   UNL     1     -98.158 -58.035 -66.604  1.00  0.00     0.004 C 
ENDBRANCH  16  17
ENDBRANCH  15  16
ENDBRANCH  14  15
ENDBRANCH  13  14
ENDBRANCH  12  13
ENDBRANCH  11  12
ENDBRANCH   1  11
TORSDOF 14
ENDMDL
MODEL 3
REMARK VINA RESULT:    -5.156      2.610      5.564
REMARK INTER + INTRA:         -11.349
REMARK INTER:                  -9.511
REMARK INTRA:                  -1.839
REMARK UNBOUND:                -1.973
REMARK SMILES CCCCCCCCCCCCCCCC(=O)[O-]
REMARK SMILES IDX 9 1 10 2 11 3 12 4 13 5 14 6 15 7 16 8 17 9 18 10 8 11 7 12
REMARK SMILES IDX 6 13 5 14 4 15 3 16 2 17 1 18
REMARK H PARENT
REMARK Flexibility Score: inf
ROOT
ATOM      1  C   UNL     1     -95.829 -60.422 -66.344  1.00  0.00     0.000 C 
ENDROOT
BRANCH   1   2
ATOM      2  C   UNL     1     -96.819 -60.364 -65.174  1.00  0.00     0.000 C 
BRANCH   2   3
ATOM      3  C   UNL     1     -97.305 -61.772 -64.795  1.00  0.00     0.000 C 
BRANCH   3   4
ATOM      4  C   UNL     1     -98.559 -61.745 -63.908  1.00  0.00     0.000 C 
BRANCH   4   5
ATOM      5  C   UNL     1     -99.814 -62.250 -64.641  1.00  0.00     0.000 C 
BRANCH   5   6
ATOM      6  C   UNL     1     -99.630 -62.293 -66.166  1.00  0.00     0.006 C 
BRANCH   6   7
ATOM      7  C   UNL     1    -100.689 -61.471 -66.912  1.00  0.00     0.053 C 
BRANCH   7   8
ATOM      8  C   UNL     1    -100.651 -60.044 -66.467  1.00  0.00     0.041 C 
ATOM      9  O   UNL     1     -99.754 -59.270 -66.893  1.00  0.00    -0.550 OA
ATOM     10  O   UNL     1    -101.637 -59.553 -65.619  1.00  0.00    -0.550 OA
ENDBRANCH   7   8
ENDBRANCH   6   7
ENDBRANCH   5   6
ENDBRANCH   4   5
ENDBRANCH   3   4
ENDBRANCH   2   3
ENDBRANCH   1   2
BRANCH   1  11
ATOM     11  C   UNL     1     -94.898 -61.637 -66.216  1.00  0.00     0.000 C 
BRANCH  11  12
ATOM     12  C   UNL     1     -93.719 -61.582 -67.203  1.00  0.00    -0.000 C 
BRANCH  12  13
ATOM     13  C   UNL     1     -93.576 -62.877 -68.022  1.00  0.00    -0.000 C 
BRANCH  13  14
ATOM     14  C   UNL     1     -93.609 -62.629 -69.541  1.00  0.00    -0.000 C 
BRANCH  14  15
ATOM     15  C   UNL     1     -95.015 -62.651 -70.170  1.00  0.00    -0.000 C 
BRANCH  15  16
ATOM     16  C   UNL     1     -95.447 -61.284 -70.721  1.00  0.00    -0.000 C 
BRANCH  16  17
ATOM     17  C   UNL     1     -96.660 -60.743 -69.957  1.00  0.00    -0.003 C 
ATOM     18  C   UNL     1     -97.466 -61.876 -69.326  1.00  0.00     0.004 C 
ENDBRANCH  16  17
ENDBRANCH  15  16
ENDBRANCH  14  15
ENDBRANCH  13  14
ENDBRANCH  12  13
ENDBRANCH  11  12
ENDBRANCH   1  11
TORSDOF 14
ENDMDL
MODEL 4
REMARK VINA RESULT:    -5.142      1.240      2.934
REMARK INTER + INTRA:         -11.324
REMARK INTER:                  -9.418
REMARK INTRA:                  -1.906
REMARK UNBOUND:                -1.973
REMARK SMILES CCCCCCCCCCCCCCCC(=O)[O-]
REMARK SMILES IDX 9 1 10 2 11 3 12 4 13 5 14 6 15 7 16 8 17 9 18 10 8 11 7 12
REMARK SMILES IDX 6 13 5 14 4 15 3 16 2 17 1 18
REMARK H PARENT
REMARK Flexibility Score: inf
ROOT
ATOM      1  C   UNL     1     -97.039 -60.186 -67.779  1.00  0.00     0.000 C 
ENDROOT
BRANCH   1   2
ATOM      2  C   UNL     1     -96.121 -61.370 -67.450  1.00  0.00     0.000 C 
BRANCH   2   3
ATOM      3  C   UNL     1     -95.167 -61.023 -66.297  1.00  0.00     0.000 C 
BRANCH   3   4
ATOM      4  C   UNL     1     -93.713 -61.416 -66.594  1.00  0.00     0.000 C 
BRANCH   4   5
ATOM      5  C   UNL     1     -93.585 -62.859 -67.117  1.00  0.00     0.000 C 
BRANCH   5   6
ATOM      6  C   UNL     1     -92.896 -62.932 -68.488  1.00  0.00     0.006 C 
BRANCH   6   7
ATOM      7  C   UNL     1     -93.584 -63.916 -69.443  1.00  0.00     0.053 C 
BRANCH   7   8
ATOM      8  C   UNL     1     -94.243 -63.181 -70.566  1.00  0.00     0.041 C 
ATOM      9  O   UNL     1     -94.441 -61.940 -70.481  1.00  0.00    -0.550 OA
ATOM     10  O   UNL     1     -94.596 -63.856 -71.727  1.00  0.00    -0.550 OA
ENDBRANCH   7   8
ENDBRANCH   6   7
ENDBRANCH   5   6
ENDBRANCH   4   5
ENDBRANCH   3   4
ENDBRANCH   2   3
ENDBRANCH   1   2
BRANCH   1  11
ATOM     11  C   UNL     1     -97.138 -59.221 -66.589  1.00  0.00     0.000 C 
BRANCH  11  12
ATOM     12  C   UNL     1     -98.321 -58.246 -66.717  1.00  0.00    -0.000 C 
BRANCH  12  13
ATOM     13  C   UNL     1     -99.557 -58.900 -67.356  1.00  0.00    -0.000 C 
BRANCH  13  14
ATOM     14  C   UNL     1    -100.427 -59.658 -66.335  1.00  0.00    -0.000 C 
BRANCH  14  15
ATOM     15  C   UNL     1    -100.741 -61.118 -66.709  1.00  0.00    -0.000 C 
BRANCH  15  16
ATOM     16  C   UNL     1     -99.684 -62.109 -66.198  1.00  0.00    -0.000 C 
BRANCH  16  17
ATOM     17  C   UNL     1     -99.625 -62.106 -64.666  1.00  0.00    -0.003 C 
ATOM     18  C   UNL     1     -98.222 -61.771 -64.169  1.00  0.00     0.004 C 
ENDBRANCH  16  17
ENDBRANCH  15  16
ENDBRANCH  14  15
ENDBRANCH  13  14
ENDBRANCH  12  13
ENDBRANCH  11  12
ENDBRANCH   1  11
TORSDOF 14
ENDMDL
MODEL 5
REMARK VINA RESULT:    -5.138      1.832      3.355
REMARK INTER + INTRA:         -11.316
REMARK INTER:                  -9.425
REMARK INTRA:                  -1.891
REMARK UNBOUND:                -1.973
REMARK SMILES CCCCCCCCCCCCCCCC(=O)[O-]
REMARK SMILES IDX 9 1 10 2 11 3 12 4 13 5 14 6 15 7 16 8 17 9 18 10 8 11 7 12
REMARK SMILES IDX 6 13 5 14 4 15 3 16 2 17 1 18
REMARK H PARENT
REMARK Flexibility Score: inf
ROOT
ATOM      1  C   UNL     1    -100.441 -61.179 -67.149  1.00  0.00     0.000 C 
ENDROOT
BRANCH   1   2
ATOM      2  C   UNL     1     -99.937 -62.572 -67.544  1.00  0.00     0.000 C 
BRANCH   2   3
ATOM      3  C   UNL     1     -99.157 -62.520 -68.867  1.00  0.00     0.000 C 
BRANCH   3   4
ATOM      4  C   UNL     1     -97.830 -61.757 -68.741  1.00  0.00     0.000 C 
BRANCH   4   5
ATOM      5  C   UNL     1     -97.022 -61.752 -70.052  1.00  0.00     0.000 C 
BRANCH   5   6
ATOM      6  C   UNL     1     -95.566 -61.306 -69.847  1.00  0.00     0.006 C 
BRANCH   6   7
ATOM      7  C   UNL     1     -94.598 -62.490 -69.728  1.00  0.00     0.053 C 
BRANCH   7   8
ATOM      8  C   UNL     1     -93.936 -62.490 -68.386  1.00  0.00     0.041 C 
ATOM      9  O   UNL     1     -93.166 -63.431 -68.059  1.00  0.00    -0.550 OA
ATOM     10  O   UNL     1     -94.131 -61.426 -67.515  1.00  0.00    -0.550 OA
ENDBRANCH   7   8
ENDBRANCH   6   7
ENDBRANCH   5   6
ENDBRANCH   4   5
ENDBRANCH   3   4
ENDBRANCH   2   3
ENDBRANCH   1   2
BRANCH   1  11
ATOM     11  C   UNL     1    -100.543 -61.044 -65.623  1.00  0.00     0.000 C 
BRANCH  11  12
ATOM     12  C   UNL     1     -99.895 -62.224 -64.882  1.00  0.00    -0.000 C 
BRANCH  12  13
ATOM     13  C   UNL     1     -98.787 -61.775 -63.913  1.00  0.00    -0.000 C 
BRANCH  13  14
ATOM     14  C   UNL     1     -97.393 -61.755 -64.568  1.00  0.00    -0.000 C 
BRANCH  14  15
ATOM     15  C   UNL     1     -96.785 -60.353 -64.753  1.00  0.00    -0.000 C 
BRANCH  15  16
ATOM     16  C   UNL     1     -96.890 -59.839 -66.197  1.00  0.00    -0.000 C 
BRANCH  16  17
ATOM     17  C   UNL     1     -97.334 -58.372 -66.227  1.00  0.00    -0.003 C 
ATOM     18  C   UNL     1     -98.496 -58.168 -67.196  1.00  0.00     0.004 C 
ENDBRANCH  16  17
ENDBRANCH  15  16
ENDBRANCH  14  15
ENDBRANCH  13  14
ENDBRANCH  12  13
ENDBRANCH  11  12
ENDBRANCH   1  11
TORSDOF 14
ENDMDL
MODEL 6
REMARK VINA RESULT:    -5.061      1.119      2.741
REMARK INTER + INTRA:         -11.177
REMARK INTER:                  -9.138
REMARK INTRA:                  -2.039
REMARK UNBOUND:                -1.973
REMARK SMILES CCCCCCCCCCCCCCCC(=O)[O-]
REMARK SMILES IDX 9 1 10 2 11 3 12 4 13 5 14 6 15 7 16 8 17 9 18 10 8 11 7 12
REMARK SMILES IDX 6 13 5 14 4 15 3 16 2 17 1 18
REMARK H PARENT
REMARK Flexibility Score: inf
ROOT
ATOM      1  C   UNL     1     -97.024 -59.173 -64.814  1.00  0.00     0.000 C 
ENDROOT
BRANCH   1   2
ATOM      2  C   UNL     1     -96.893 -60.665 -64.484  1.00  0.00     0.000 C 
BRANCH   2   3
ATOM      3  C   UNL     1     -96.553 -61.478 -65.743  1.00  0.00     0.000 C 
BRANCH   3   4
ATOM      4  C   UNL     1     -95.141 -62.081 -65.693  1.00  0.00     0.000 C 
BRANCH   4   5
ATOM      5  C   UNL     1     -94.308 -61.740 -66.942  1.00  0.00     0.000 C 
BRANCH   5   6
ATOM      6  C   UNL     1     -95.181 -61.424 -68.166  1.00  0.00     0.006 C 
BRANCH   6   7
ATOM      7  C   UNL     1     -94.741 -62.193 -69.419  1.00  0.00     0.053 C 
BRANCH   7   8
ATOM      8  C   UNL     1     -95.858 -62.255 -70.412  1.00  0.00     0.041 C 
ATOM      9  O   UNL     1     -95.627 -62.579 -71.607  1.00  0.00    -0.550 OA
ATOM     10  O   UNL     1     -97.163 -62.004 -70.007  1.00  0.00    -0.550 OA
ENDBRANCH   7   8
ENDBRANCH   6   7
ENDBRANCH   5   6
ENDBRANCH   4   5
ENDBRANCH   3   4
ENDBRANCH   2   3
ENDBRANCH   1   2
BRANCH   1  11
ATOM     11  C   UNL     1     -96.985 -58.939 -66.331  1.00  0.00     0.000 C 
BRANCH  11  12
ATOM     12  C   UNL     1     -98.110 -58.009 -66.814  1.00  0.00    -0.000 C 
BRANCH  12  13
ATOM     13  C   UNL     1     -99.410 -58.770 -67.126  1.00  0.00    -0.000 C 
BRANCH  13  14
ATOM     14  C   UNL     1     -99.159 -60.222 -67.577  1.00  0.00    -0.000 C 
BRANCH  14  15
ATOM     15  C   UNL     1    -100.166 -61.252 -67.033  1.00  0.00    -0.000 C 
BRANCH  15  16
ATOM     16  C   UNL     1    -101.085 -60.676 -65.946  1.00  0.00    -0.000 C 
BRANCH  16  17
ATOM     17  C   UNL     1    -100.690 -61.197 -64.560  1.00  0.00    -0.003 C 
ATOM     18  C   UNL     1     -99.997 -62.554 -64.657  1.00  0.00     0.004 C 
ENDBRANCH  16  17
ENDBRANCH  15  16
ENDBRANCH  14  15
ENDBRANCH  13  14
ENDBRANCH  12  13
ENDBRANCH  11  12
ENDBRANCH   1  11
TORSDOF 14
ENDMDL
MODEL 7
REMARK VINA RESULT:    -5.033      2.389      6.092
REMARK INTER + INTRA:         -11.125
REMARK INTER:                  -9.207
REMARK INTRA:                  -1.918
REMARK UNBOUND:                -1.973
REMARK SMILES CCCCCCCCCCCCCCCC(=O)[O-]
REMARK SMILES IDX 9 1 10 2 11 3 12 4 13 5 14 6 15 7 16 8 17 9 18 10 8 11 7 12
REMARK SMILES IDX 6 13 5 14 4 15 3 16 2 17 1 18
REMARK H PARENT
REMARK Flexibility Score: inf
ROOT
ATOM      1  C   UNL     1     -96.684 -61.682 -69.045  1.00  0.00     0.000 C 
ENDROOT
BRANCH   1   2
ATOM      2  C   UNL     1     -97.310 -60.372 -68.551  1.00  0.00     0.000 C 
BRANCH   2   3
ATOM      3  C   UNL     1     -97.163 -60.233 -67.027  1.00  0.00     0.000 C 
BRANCH   3   4
ATOM      4  C   UNL     1     -98.019 -59.094 -66.453  1.00  0.00     0.000 C 
BRANCH   4   5
ATOM      5  C   UNL     1     -99.400 -58.994 -67.127  1.00  0.00     0.000 C 
BRANCH   5   6
ATOM      6  C   UNL     1    -100.490 -59.752 -66.354  1.00  0.00     0.006 C 
BRANCH   6   7
ATOM      7  C   UNL     1    -101.123 -60.880 -67.181  1.00  0.00     0.053 C 
BRANCH   7   8
ATOM      8  C   UNL     1    -100.272 -62.108 -67.125  1.00  0.00     0.041 C 
ATOM      9  O   UNL     1    -100.010 -62.746 -68.178  1.00  0.00    -0.550 OA
ATOM     10  O   UNL     1     -99.728 -62.523 -65.916  1.00  0.00    -0.550 OA
ENDBRANCH   7   8
ENDBRANCH   6   7
ENDBRANCH   5   6
ENDBRANCH   4   5
ENDBRANCH   3   4
ENDBRANCH   2   3
ENDBRANCH   1   2
BRANCH   1  11
ATOM     11  C   UNL     1     -96.252 -61.565 -70.514  1.00  0.00     0.000 C 
BRANCH  11  12
ATOM     12  C   UNL     1     -94.756 -61.856 -70.715  1.00  0.00    -0.000 C 
BRANCH  12  13
ATOM     13  C   UNL     1     -94.439 -63.361 -70.685  1.00  0.00    -0.000 C 
BRANCH  13  14
ATOM     14  C   UNL     1     -93.155 -63.686 -69.900  1.00  0.00    -0.000 C 
BRANCH  14  15
ATOM     15  C   UNL     1     -92.928 -62.823 -68.645  1.00  0.00    -0.000 C 
BRANCH  15  16
ATOM     16  C   UNL     1     -93.406 -63.503 -67.354  1.00  0.00    -0.000 C 
BRANCH  16  17
ATOM     17  C   UNL     1     -94.001 -62.479 -66.381  1.00  0.00    -0.003 C 
ATOM     18  C   UNL     1     -93.632 -61.054 -66.786  1.00  0.00     0.004 C 
ENDBRANCH  16  17
ENDBRANCH  15  16
ENDBRANCH  14  15
ENDBRANCH  13  14
ENDBRANCH  12  13
ENDBRANCH  11  12
ENDBRANCH   1  11
TORSDOF 14
ENDMDL
MODEL 8
REMARK VINA RESULT:    -5.002      2.957      5.996
REMARK INTER + INTRA:         -11.069
REMARK INTER:                  -8.759
REMARK INTRA:                  -2.310
REMARK UNBOUND:                -1.973
REMARK SMILES CCCCCCCCCCCCCCCC(=O)[O-]
REMARK SMILES IDX 9 1 10 2 11 3 12 4 13 5 14 6 15 7 16 8 17 9 18 10 8 11 7 12
REMARK SMILES IDX 6 13 5 14 4 15 3 16 2 17 1 18
REMARK H PARENT
REMARK Flexibility Score: inf
ROOT
ATOM      1  C   UNL     1     -95.269 -62.621 -70.430  1.00  0.00     0.000 C 
ENDROOT
BRANCH   1   2
ATOM      2  C   UNL     1     -96.683 -62.108 -70.131  1.00  0.00     0.000 C 
BRANCH   2   3
ATOM      3  C   UNL     1     -96.635 -60.790 -69.343  1.00  0.00     0.000 C 
BRANCH   3   4
ATOM      4  C   UNL     1     -97.729 -60.705 -68.268  1.00  0.00     0.000 C 
BRANCH   4   5
ATOM      5  C   UNL     1     -98.465 -62.042 -68.064  1.00  0.00     0.000 C 
BRANCH   5   6
ATOM      6  C   UNL     1     -99.879 -61.856 -67.493  1.00  0.00     0.006 C 
BRANCH   6   7
ATOM      7  C   UNL     1    -100.088 -60.469 -66.872  1.00  0.00     0.053 C 
BRANCH   7   8
ATOM      8  C   UNL     1    -100.815 -60.583 -65.570  1.00  0.00     0.041 C 
ATOM      9  O   UNL     1    -101.776 -59.813 -65.311  1.00  0.00    -0.550 OA
ATOM     10  O   UNL     1    -100.462 -61.574 -64.661  1.00  0.00    -0.550 OA
ENDBRANCH   7   8
ENDBRANCH   6   7
ENDBRANCH   5   6
ENDBRANCH   4   5
ENDBRANCH   3   4
ENDBRANCH   2   3
ENDBRANCH   1   2
BRANCH   1  11
ATOM     11  C   UNL     1     -94.267 -62.110 -69.385  1.00  0.00     0.000 C 
BRANCH  11  12
ATOM     12  C   UNL     1     -93.671 -63.244 -68.534  1.00  0.00    -0.000 C 
BRANCH  12  13
ATOM     13  C   UNL     1     -93.536 -62.860 -67.051  1.00  0.00    -0.000 C 
BRANCH  13  14
ATOM     14  C   UNL     1     -93.702 -61.348 -66.808  1.00  0.00    -0.000 C 
BRANCH  14  15
ATOM     15  C   UNL     1     -94.977 -60.952 -66.041  1.00  0.00    -0.000 C 
BRANCH  15  16
ATOM     16  C   UNL     1     -95.611 -62.128 -65.283  1.00  0.00    -0.000 C 
BRANCH  16  17
ATOM     17  C   UNL     1     -96.909 -61.699 -64.589  1.00  0.00    -0.003 C 
ATOM     18  C   UNL     1     -97.075 -60.181 -64.620  1.00  0.00     0.004 C 
ENDBRANCH  16  17
ENDBRANCH  15  16
ENDBRANCH  14  15
ENDBRANCH  13  14
ENDBRANCH  12  13
ENDBRANCH  11  12
ENDBRANCH   1  11
TORSDOF 14
ENDMDL
MODEL 9
REMARK VINA RESULT:    -4.927      2.571      5.645
REMARK INTER + INTRA:         -10.933
REMARK INTER:                  -9.253
REMARK INTRA:                  -1.680
REMARK UNBOUND:                -1.973
REMARK SMILES CCCCCCCCCCCCCCCC(=O)[O-]
REMARK SMILES IDX 9 1 10 2 11 3 12 4 13 5 14 6 15 7 16 8 17 9 18 10 8 11 7 12
REMARK SMILES IDX 6 13 5 14 4 15 3 16 2 17 1 18
REMARK H PARENT
REMARK Flexibility Score: inf
ROOT
ATOM      1  C   UNL     1     -94.460 -62.141 -65.976  1.00  0.00     0.000 C 
ENDROOT
BRANCH   1   2
ATOM      2  C   UNL     1     -95.315 -61.057 -66.643  1.00  0.00     0.000 C 
BRANCH   2   3
ATOM      3  C   UNL     1     -96.704 -60.973 -65.990  1.00  0.00     0.000 C 
BRANCH   3   4
ATOM      4  C   UNL     1     -97.032 -59.561 -65.481  1.00  0.00     0.000 C 
BRANCH   4   5
ATOM      5  C   UNL     1     -97.473 -58.612 -66.611  1.00  0.00     0.000 C 
BRANCH   5   6
ATOM      6  C   UNL     1     -98.623 -59.189 -67.451  1.00  0.00     0.006 C 
BRANCH   6   7
ATOM      7  C   UNL     1     -99.963 -59.179 -66.703  1.00  0.00     0.053 C 
BRANCH   7   8
ATOM      8  C   UNL     1    -100.446 -60.576 -66.478  1.00  0.00     0.041 C 
ATOM      9  O   UNL     1    -100.312 -61.120 -65.350  1.00  0.00    -0.550 OA
ATOM     10  O   UNL     1    -101.090 -61.263 -67.500  1.00  0.00    -0.550 OA
ENDBRANCH   7   8
ENDBRANCH   6   7
ENDBRANCH   5   6
ENDBRANCH   4   5
ENDBRANCH   3   4
ENDBRANCH   2   3
ENDBRANCH   1   2
BRANCH   1  11
ATOM     11  C   UNL     1     -93.444 -62.727 -66.967  1.00  0.00     0.000 C 
BRANCH  11  12
ATOM     12  C   UNL     1     -93.820 -62.448 -68.432  1.00  0.00    -0.000 C 
BRANCH  12  13
ATOM     13  C   UNL     1     -93.314 -63.541 -69.389  1.00  0.00    -0.000 C 
BRANCH  13  14
ATOM     14  C   UNL     1     -94.065 -63.551 -70.734  1.00  0.00    -0.000 C 
BRANCH  14  15
ATOM     15  C   UNL     1     -94.414 -62.159 -71.291  1.00  0.00    -0.000 C 
BRANCH  15  16
ATOM     16  C   UNL     1     -95.916 -61.982 -71.565  1.00  0.00    -0.000 C 
BRANCH  16  17
ATOM     17  C   UNL     1     -96.565 -61.087 -70.504  1.00  0.00    -0.003 C 
ATOM     18  C   UNL     1     -97.432 -61.903 -69.549  1.00  0.00     0.004 C 
ENDBRANCH  16  17
ENDBRANCH  15  16
ENDBRANCH  14  15
ENDBRANCH  13  14
ENDBRANCH  12  13
ENDBRANCH  11  12
ENDBRANCH   1  11
TORSDOF 14
ENDMDL
