MODEL 1
REMARK VINA RESULT:    -2.914      0.000      0.000
REMARK INTER + INTRA:          -4.812
REMARK INTER:                  -4.447
REMARK INTRA:                  -0.365
REMARK UNBOUND:                -0.365
REMARK SMILES O=C([O-])CCCCCCCCC(=O)[O-]
REMARK SMILES IDX 7 1 6 2 5 3 4 4 2 5 1 6 3 7 8 8 9 9 10 10 11 11 12 12 13 13
REMARK SMILES IDX 14 14
REMARK H PARENT
REMARK Flexibility Score: inf
ROOT
ATOM      1  C   UNL     1       3.431  18.820   6.358  1.00  0.00     0.000 C 
ENDROOT
BRANCH   1   2
ATOM      2  C   UNL     1       2.629  20.030   5.855  1.00  0.00     0.000 C 
BRANCH   2   3
ATOM      3  C   UNL     1       1.338  20.209   6.669  1.00  0.00     0.006 C 
BRANCH   3   4
ATOM      4  C   UNL     1       0.228  20.887   5.856  1.00  0.00     0.053 C 
BRANCH   4   5
ATOM      5  C   UNL     1      -1.117  20.701   6.490  1.00  0.00     0.041 C 
ATOM      6  O   UNL     1      -1.368  21.219   7.609  1.00  0.00    -0.550 OA
ATOM      7  O   UNL     1      -2.081  19.927   5.857  1.00  0.00    -0.550 OA
ENDBRANCH   4   5
ENDBRANCH   3   4
ENDBRANCH   2   3
ENDBRANCH   1   2
BRANCH   1   8
ATOM      8  C   UNL     1       3.637  18.835   7.881  1.00  0.00     0.000 C 
BRANCH   8   9
ATOM      9  C   UNL     1       4.139  17.485   8.423  1.00  0.00     0.000 C 
BRANCH   9  10
ATOM     10  C   UNL     1       4.432  16.472   7.304  1.00  0.00     0.006 C 
BRANCH  10  11
ATOM     11  C   UNL     1       3.905  15.066   7.624  1.00  0.00     0.053 C 
BRANCH  11  12
ATOM     12  C   UNL     1       4.500  14.061   6.689  1.00  0.00     0.041 C 
ATOM     13  O   UNL     1       5.750  13.965   6.574  1.00  0.00    -0.550 OA
ATOM     14  O   UNL     1       3.676  13.196   5.982  1.00  0.00    -0.550 OA
ENDBRANCH  11  12
ENDBRANCH  10  11
ENDBRANCH   9  10
ENDBRANCH   8   9
ENDBRANCH   1   8
TORSDOF 9
ENDMDL
MODEL 2
REMARK VINA RESULT:    -2.876      1.488      6.976
REMARK INTER + INTRA:          -4.755
REMARK INTER:                  -4.220
REMARK INTRA:                  -0.536
REMARK UNBOUND:                -0.365
REMARK SMILES O=C([O-])CCCCCCCCC(=O)[O-]
REMARK SMILES IDX 7 1 6 2 5 3 4 4 2 5 1 6 3 7 8 8 9 9 10 10 11 11 12 12 13 13
REMARK SMILES IDX 14 14
REMARK H PARENT
REMARK Flexibility Score: inf
ROOT
ATOM      1  C   UNL     1       3.616  18.596   8.136  1.00  0.00     0.000 C 
ENDROOT
BRANCH   1   2
ATOM      2  C   UNL     1       4.294  17.261   8.476  1.00  0.00     0.000 C 
BRANCH   2   3
ATOM      3  C   UNL     1       4.385  16.359   7.236  1.00  0.00     0.006 C 
BRANCH   3   4
ATOM      4  C   UNL     1       4.210  14.875   7.582  1.00  0.00     0.053 C 
BRANCH   4   5
ATOM      5  C   UNL     1       4.336  14.003   6.370  1.00  0.00     0.041 C 
ATOM      6  O   UNL     1       3.591  12.999   6.232  1.00  0.00    -0.550 OA
ATOM      7  O   UNL     1       5.300  14.284   5.410  1.00  0.00    -0.550 OA
ENDBRANCH   4   5
ENDBRANCH   3   4
ENDBRANCH   2   3
ENDBRANCH   1   2
BRANCH   1   8
ATOM      8  C   UNL     1       3.243  18.711   6.649  1.00  0.00     0.000 C 
BRANCH   8   9
ATOM      9  C   UNL     1       3.264  20.165   6.144  1.00  0.00     0.000 C 
BRANCH   9  10
ATOM     10  C   UNL     1       1.952  20.568   5.453  1.00  0.00     0.006 C 
BRANCH  10  11
ATOM     11  C   UNL     1       0.723  20.372   6.353  1.00  0.00     0.053 C 
BRANCH  11  12
ATOM     12  C   UNL     1       0.757  21.335   7.498  1.00  0.00     0.041 C 
ATOM     13  O   UNL     1       0.816  20.910   8.681  1.00  0.00    -0.550 OA
ATOM     14  O   UNL     1       0.774  22.702   7.256  1.00  0.00    -0.550 OA
ENDBRANCH  11  12
ENDBRANCH  10  11
ENDBRANCH   9  10
ENDBRANCH   8   9
ENDBRANCH   1   8
TORSDOF 9
ENDMDL
MODEL 3
REMARK VINA RESULT:    -2.869      2.911      3.502
REMARK INTER + INTRA:          -4.743
REMARK INTER:                  -4.295
REMARK INTRA:                  -0.449
REMARK UNBOUND:                -0.365
REMARK SMILES O=C([O-])CCCCCCCCC(=O)[O-]
REMARK SMILES IDX 7 1 6 2 5 3 4 4 2 5 1 6 3 7 8 8 9 9 10 10 11 11 12 12 13 13
REMARK SMILES IDX 14 14
REMARK H PARENT
REMARK Flexibility Score: inf
ROOT
ATOM      1  C   UNL     1       3.141  18.727   6.789  1.00  0.00     0.000 C 
ENDROOT
BRANCH   1   2
ATOM      2  C   UNL     1       2.040  19.745   6.460  1.00  0.00     0.000 C 
BRANCH   2   3
ATOM      3  C   UNL     1       2.385  20.536   5.189  1.00  0.00     0.006 C 
BRANCH   3   4
ATOM      4  C   UNL     1       3.847  20.345   4.766  1.00  0.00     0.053 C 
BRANCH   4   5
ATOM      5  C   UNL     1       4.153  21.064   3.488  1.00  0.00     0.041 C 
ATOM      6  O   UNL     1       5.335  21.117   3.058  1.00  0.00    -0.550 OA
ATOM      7  O   UNL     1       3.137  21.703   2.789  1.00  0.00    -0.550 OA
ENDBRANCH   4   5
ENDBRANCH   3   4
ENDBRANCH   2   3
ENDBRANCH   1   2
BRANCH   1   8
ATOM      8  C   UNL     1       3.506  18.707   8.283  1.00  0.00     0.000 C 
BRANCH   8   9
ATOM      9  C   UNL     1       4.322  17.463   8.676  1.00  0.00     0.000 C 
BRANCH   9  10
ATOM     10  C   UNL     1       4.576  16.524   7.486  1.00  0.00     0.006 C 
BRANCH  10  11
ATOM     11  C   UNL     1       3.937  15.141   7.675  1.00  0.00     0.053 C 
BRANCH  11  12
ATOM     12  C   UNL     1       4.365  14.215   6.580  1.00  0.00     0.041 C 
ATOM     13  O   UNL     1       3.717  13.160   6.353  1.00  0.00    -0.550 OA
ATOM     14  O   UNL     1       5.450  14.543   5.776  1.00  0.00    -0.550 OA
ENDBRANCH  11  12
ENDBRANCH  10  11
ENDBRANCH   9  10
ENDBRANCH   8   9
ENDBRANCH   1   8
TORSDOF 9
ENDMDL
MODEL 4
REMARK VINA RESULT:    -2.862      2.553      2.932
REMARK INTER + INTRA:          -4.733
REMARK INTER:                  -3.660
REMARK INTRA:                  -1.072
REMARK UNBOUND:                -0.365
REMARK SMILES O=C([O-])CCCCCCCCC(=O)[O-]
REMARK SMILES IDX 7 1 6 2 5 3 4 4 2 5 1 6 3 7 8 8 9 9 10 10 11 11 12 12 13 13
REMARK SMILES IDX 14 14
REMARK H PARENT
REMARK Flexibility Score: inf
ROOT
ATOM      1  C   UNL     1       4.129  20.095   5.267  1.00  0.00     0.000 C 
ENDROOT
BRANCH   1   2
ATOM      2  C   UNL     1       2.629  20.414   5.351  1.00  0.00     0.000 C 
BRANCH   2   3
ATOM      3  C   UNL     1       1.968  19.645   6.505  1.00  0.00     0.006 C 
BRANCH   3   4
ATOM      4  C   UNL     1       1.775  20.519   7.750  1.00  0.00     0.053 C 
BRANCH   4   5
ATOM      5  C   UNL     1       2.838  20.269   8.775  1.00  0.00     0.041 C 
ATOM      6  O   UNL     1       3.912  20.924   8.747  1.00  0.00    -0.550 OA
ATOM      7  O   UNL     1       2.655  19.288   9.741  1.00  0.00    -0.550 OA
ENDBRANCH   4   5
ENDBRANCH   3   4
ENDBRANCH   2   3
ENDBRANCH   1   2
BRANCH   1   8
ATOM      8  C   UNL     1       4.457  18.657   5.699  1.00  0.00     0.000 C 
BRANCH   8   9
ATOM      9  C   UNL     1       5.557  18.598   6.774  1.00  0.00     0.000 C 
BRANCH   9  10
ATOM     10  C   UNL     1       5.278  17.531   7.845  1.00  0.00     0.006 C 
BRANCH  10  11
ATOM     11  C   UNL     1       4.053  16.667   7.516  1.00  0.00     0.053 C 
BRANCH  11  12
ATOM     12  C   UNL     1       4.478  15.292   7.106  1.00  0.00     0.041 C 
ATOM     13  O   UNL     1       5.675  15.069   6.787  1.00  0.00    -0.550 OA
ATOM     14  O   UNL     1       3.564  14.247   7.125  1.00  0.00    -0.550 OA
ENDBRANCH  11  12
ENDBRANCH  10  11
ENDBRANCH   9  10
ENDBRANCH   8   9
ENDBRANCH   1   8
TORSDOF 9
ENDMDL
MODEL 5
REMARK VINA RESULT:    -2.852      2.293      6.576
REMARK INTER + INTRA:          -4.719
REMARK INTER:                  -4.222
REMARK INTRA:                  -0.497
REMARK UNBOUND:                -0.365
REMARK SMILES O=C([O-])CCCCCCCCC(=O)[O-]
REMARK SMILES IDX 7 1 6 2 5 3 4 4 2 5 1 6 3 7 8 8 9 9 10 10 11 11 12 12 13 13
REMARK SMILES IDX 14 14
REMARK H PARENT
REMARK Flexibility Score: inf
ROOT
ATOM      1  C   UNL     1       3.768  17.972  10.450  1.00  0.00     0.000 C 
ENDROOT
BRANCH   1   2
ATOM      2  C   UNL     1       4.773  17.352   9.468  1.00  0.00     0.000 C 
BRANCH   2   3
ATOM      3  C   UNL     1       4.445  15.874   9.207  1.00  0.00     0.006 C 
BRANCH   3   4
ATOM      4  C   UNL     1       4.031  15.619   7.752  1.00  0.00     0.053 C 
BRANCH   4   5
ATOM      5  C   UNL     1       4.333  14.214   7.327  1.00  0.00     0.041 C 
ATOM      6  O   UNL     1       3.798  13.737   6.292  1.00  0.00    -0.550 OA
ATOM      7  O   UNL     1       5.179  13.423   8.093  1.00  0.00    -0.550 OA
ENDBRANCH   4   5
ENDBRANCH   3   4
ENDBRANCH   2   3
ENDBRANCH   1   2
BRANCH   1   8
ATOM      8  C   UNL     1       2.996  19.155   9.844  1.00  0.00     0.000 C 
BRANCH   8   9
ATOM      9  C   UNL     1       3.218  19.291   8.327  1.00  0.00     0.000 C 
BRANCH   9  10
ATOM     10  C   UNL     1       2.274  20.319   7.683  1.00  0.00     0.006 C 
BRANCH  10  11
ATOM     11  C   UNL     1       1.713  19.846   6.334  1.00  0.00     0.053 C 
BRANCH  11  12
ATOM     12  C   UNL     1       2.438  20.511   5.207  1.00  0.00     0.041 C 
ATOM     13  O   UNL     1       3.640  20.223   4.969  1.00  0.00    -0.550 OA
ATOM     14  O   UNL     1       1.770  21.412   4.388  1.00  0.00    -0.550 OA
ENDBRANCH  11  12
ENDBRANCH  10  11
ENDBRANCH   9  10
ENDBRANCH   8   9
ENDBRANCH   1   8
TORSDOF 9
ENDMDL
MODEL 6
REMARK VINA RESULT:    -2.841      3.074      6.158
REMARK INTER + INTRA:          -4.701
REMARK INTER:                  -4.038
REMARK INTRA:                  -0.664
REMARK UNBOUND:                -0.365
REMARK SMILES O=C([O-])CCCCCCCCC(=O)[O-]
REMARK SMILES IDX 7 1 6 2 5 3 4 4 2 5 1 6 3 7 8 8 9 9 10 10 11 11 12 12 13 13
REMARK SMILES IDX 14 14
REMARK H PARENT
REMARK Flexibility Score: inf
ROOT
ATOM      1  C   UNL     1       4.097  18.113   8.713  1.00  0.00     0.000 C 
ENDROOT
BRANCH   1   2
ATOM      2  C   UNL     1       4.393  17.092   9.822  1.00  0.00     0.000 C 
BRANCH   2   3
ATOM      3  C   UNL     1       4.331  15.657   9.277  1.00  0.00     0.006 C 
BRANCH   3   4
ATOM      4  C   UNL     1       4.044  15.620   7.771  1.00  0.00     0.053 C 
BRANCH   4   5
ATOM      5  C   UNL     1       4.464  14.318   7.158  1.00  0.00     0.041 C 
ATOM      6  O   UNL     1       3.623  13.602   6.555  1.00  0.00    -0.550 OA
ATOM      7  O   UNL     1       5.777  13.883   7.283  1.00  0.00    -0.550 OA
ENDBRANCH   4   5
ENDBRANCH   3   4
ENDBRANCH   2   3
ENDBRANCH   1   2
BRANCH   1   8
ATOM      8  C   UNL     1       3.106  19.201   9.156  1.00  0.00     0.000 C 
BRANCH   8   9
ATOM      9  C   UNL     1       2.678  20.119   7.997  1.00  0.00     0.000 C 
BRANCH   9  10
ATOM     10  C   UNL     1       2.411  19.342   6.697  1.00  0.00     0.006 C 
BRANCH  10  11
ATOM     11  C   UNL     1       3.037  20.012   5.467  1.00  0.00     0.053 C 
BRANCH  11  12
ATOM     12  C   UNL     1       4.469  19.602   5.322  1.00  0.00     0.041 C 
ATOM     13  O   UNL     1       5.381  20.469   5.345  1.00  0.00    -0.550 OA
ATOM     14  O   UNL     1       4.799  18.257   5.212  1.00  0.00    -0.550 OA
ENDBRANCH  11  12
ENDBRANCH  10  11
ENDBRANCH   9  10
ENDBRANCH   8   9
ENDBRANCH   1   8
TORSDOF 9
ENDMDL
MODEL 7
REMARK VINA RESULT:    -2.785      2.758      7.005
REMARK INTER + INTRA:          -4.616
REMARK INTER:                  -4.165
REMARK INTRA:                  -0.451
REMARK UNBOUND:                -0.365
REMARK SMILES O=C([O-])CCCCCCCCC(=O)[O-]
REMARK SMILES IDX 7 1 6 2 5 3 4 4 2 5 1 6 3 7 8 8 9 9 10 10 11 11 12 12 13 13
REMARK SMILES IDX 14 14
REMARK H PARENT
REMARK Flexibility Score: inf
ROOT
ATOM      1  C   UNL     1       3.600  18.336   7.408  1.00  0.00     0.000 C 
ENDROOT
BRANCH   1   2
ATOM      2  C   UNL     1       4.487  17.882   6.239  1.00  0.00     0.000 C 
BRANCH   2   3
ATOM      3  C   UNL     1       5.006  16.454   6.466  1.00  0.00     0.006 C 
BRANCH   3   4
ATOM      4  C   UNL     1       4.102  15.650   7.409  1.00  0.00     0.053 C 
BRANCH   4   5
ATOM      5  C   UNL     1       4.345  14.177   7.290  1.00  0.00     0.041 C 
ATOM      6  O   UNL     1       3.598  13.467   6.567  1.00  0.00    -0.550 OA
ATOM      7  O   UNL     1       5.379  13.584   8.003  1.00  0.00    -0.550 OA
ENDBRANCH   4   5
ENDBRANCH   3   4
ENDBRANCH   2   3
ENDBRANCH   1   2
BRANCH   1   8
ATOM      8  C   UNL     1       3.075  19.770   7.234  1.00  0.00     0.000 C 
BRANCH   8   9
ATOM      9  C   UNL     1       1.751  19.825   6.453  1.00  0.00     0.000 C 
BRANCH   9  10
ATOM     10  C   UNL     1       1.785  20.848   5.306  1.00  0.00     0.006 C 
BRANCH  10  11
ATOM     11  C   UNL     1       3.131  20.866   4.568  1.00  0.00     0.053 C 
BRANCH  11  12
ATOM     12  C   UNL     1       3.043  21.725   3.346  1.00  0.00     0.041 C 
ATOM     13  O   UNL     1       2.072  22.511   3.192  1.00  0.00    -0.550 OA
ATOM     14  O   UNL     1       4.060  21.694   2.400  1.00  0.00    -0.550 OA
ENDBRANCH  11  12
ENDBRANCH  10  11
ENDBRANCH   9  10
ENDBRANCH   8   9
ENDBRANCH   1   8
TORSDOF 9
ENDMDL
MODEL 8
REMARK VINA RESULT:    -2.776      3.291      5.961
REMARK INTER + INTRA:          -4.602
REMARK INTER:                  -4.024
REMARK INTRA:                  -0.578
REMARK UNBOUND:                -0.365
REMARK SMILES O=C([O-])CCCCCCCCC(=O)[O-]
REMARK SMILES IDX 7 1 6 2 5 3 4 4 2 5 1 6 3 7 8 8 9 9 10 10 11 11 12 12 13 13
REMARK SMILES IDX 14 14
REMARK H PARENT
REMARK Flexibility Score: inf
ROOT
ATOM      1  C   UNL     1       2.869  19.005   6.638  1.00  0.00     0.000 C 
ENDROOT
BRANCH   1   2
ATOM      2  C   UNL     1       3.301  19.078   8.110  1.00  0.00     0.000 C 
BRANCH   2   3
ATOM      3  C   UNL     1       4.217  17.900   8.472  1.00  0.00     0.006 C 
BRANCH   3   4
ATOM      4  C   UNL     1       4.248  16.828   7.375  1.00  0.00     0.053 C 
BRANCH   4   5
ATOM      5  C   UNL     1       4.074  15.451   7.938  1.00  0.00     0.041 C 
ATOM      6  O   UNL     1       3.599  14.530   7.225  1.00  0.00    -0.550 OA
ATOM      7  O   UNL     1       4.408  15.195   9.262  1.00  0.00    -0.550 OA
ENDBRANCH   4   5
ENDBRANCH   3   4
ENDBRANCH   2   3
ENDBRANCH   1   2
BRANCH   1   8
ATOM      8  C   UNL     1       1.800  20.050   6.279  1.00  0.00     0.000 C 
BRANCH   8   9
ATOM      9  C   UNL     1       2.154  20.846   5.011  1.00  0.00     0.000 C 
BRANCH   9  10
ATOM     10  C   UNL     1       3.651  21.185   4.925  1.00  0.00     0.006 C 
BRANCH  10  11
ATOM     11  C   UNL     1       4.291  20.713   3.612  1.00  0.00     0.053 C 
BRANCH  11  12
ATOM     12  C   UNL     1       5.489  19.862   3.893  1.00  0.00     0.041 C 
ATOM     13  O   UNL     1       6.634  20.381   3.957  1.00  0.00    -0.550 OA
ATOM     14  O   UNL     1       5.335  18.503   4.133  1.00  0.00    -0.550 OA
ENDBRANCH  11  12
ENDBRANCH  10  11
ENDBRANCH   9  10
ENDBRANCH   8   9
ENDBRANCH   1   8
TORSDOF 9
ENDMDL
MODEL 9
REMARK VINA RESULT:    -2.763      2.622      6.677
REMARK INTER + INTRA:          -4.582
REMARK INTER:                  -3.972
REMARK INTRA:                  -0.610
REMARK UNBOUND:                -0.365
REMARK SMILES O=C([O-])CCCCCCCCC(=O)[O-]
REMARK SMILES IDX 7 1 6 2 5 3 4 4 2 5 1 6 3 7 8 8 9 9 10 10 11 11 12 12 13 13
REMARK SMILES IDX 14 14
REMARK H PARENT
REMARK Flexibility Score: inf
ROOT
ATOM      1  C   UNL     1       4.113  18.724   6.037  1.00  0.00     0.000 C 
ENDROOT
BRANCH   1   2
ATOM      2  C   UNL     1       3.682  17.859   7.231  1.00  0.00     0.000 C 
BRANCH   2   3
ATOM      3  C   UNL     1       4.678  16.712   7.465  1.00  0.00     0.006 C 
BRANCH   3   4
ATOM      4  C   UNL     1       3.976  15.360   7.639  1.00  0.00     0.053 C 
BRANCH   4   5
ATOM      5  C   UNL     1       4.474  14.345   6.656  1.00  0.00     0.041 C 
ATOM      6  O   UNL     1       5.641  14.431   6.192  1.00  0.00    -0.550 OA
ATOM      7  O   UNL     1       3.636  13.323   6.229  1.00  0.00    -0.550 OA
ENDBRANCH   4   5
ENDBRANCH   3   4
ENDBRANCH   2   3
ENDBRANCH   1   2
BRANCH   1   8
ATOM      8  C   UNL     1       3.120  19.858   5.736  1.00  0.00     0.000 C 
BRANCH   8   9
ATOM      9  C   UNL     1       1.818  19.735   6.546  1.00  0.00     0.000 C 
BRANCH   9  10
ATOM     10  C   UNL     1       1.615  20.908   7.518  1.00  0.00     0.006 C 
BRANCH  10  11
ATOM     11  C   UNL     1       1.819  20.504   8.985  1.00  0.00     0.053 C 
BRANCH  11  12
ATOM     12  C   UNL     1       3.066  21.127   9.529  1.00  0.00     0.041 C 
ATOM     13  O   UNL     1       4.014  21.425   8.756  1.00  0.00    -0.550 OA
ATOM     14  O   UNL     1       3.161  21.424  10.882  1.00  0.00    -0.550 OA
ENDBRANCH  11  12
ENDBRANCH  10  11
ENDBRANCH   9  10
ENDBRANCH   8   9
ENDBRANCH   1   8
TORSDOF 9
ENDMDL
