MODEL 1
REMARK VINA RESULT:    -1.605      0.000      0.000
REMARK INTER + INTRA:          -1.605
REMARK INTER:                  -1.605
REMARK INTRA:                   0.000
REMARK UNBOUND:                 0.000
REMARK SMILES CC(=O)[O-]
REMARK SMILES IDX 1 1 2 2 3 3 4 4
REMARK H PARENT
REMARK Flexibility Score: inf
ROOT
ATOM      1  C   UNL     1       5.798   6.008  -2.920  1.00  0.00     0.063 C 
ATOM      2  C   UNL     1       5.176   7.310  -2.547  1.00  0.00     0.038 C 
ATOM      3  O   UNL     1       3.971   7.538  -2.830  1.00  0.00    -0.550 OA
ATOM      4  O   UNL     1       5.940   8.297  -1.936  1.00  0.00    -0.550 OA
ENDROOT
TORSDOF 0
ENDMDL
MODEL 2
REMARK VINA RESULT:    -1.565      1.453      1.780
REMARK INTER + INTRA:          -1.565
REMARK INTER:                  -1.565
REMARK INTRA:                   0.000
REMARK UNBOUND:                 0.000
REMARK SMILES CC(=O)[O-]
REMARK SMILES IDX 1 1 2 2 3 3 4 4
REMARK H PARENT
REMARK Flexibility Score: inf
ROOT
ATOM      1  C   UNL     1       5.701   8.283  -1.747  1.00  0.00     0.063 C 
ATOM      2  C   UNL     1       4.976   7.225  -2.506  1.00  0.00     0.038 C 
ATOM      3  O   UNL     1       3.734   7.318  -2.690  1.00  0.00    -0.550 OA
ATOM      4  O   UNL     1       5.658   6.105  -2.966  1.00  0.00    -0.550 OA
ENDROOT
TORSDOF 0
ENDMDL
MODEL 3
REMARK VINA RESULT:    -1.474      1.347      1.669
REMARK INTER + INTRA:          -1.474
REMARK INTER:                  -1.474
REMARK INTRA:                   0.000
REMARK UNBOUND:                 0.000
REMARK SMILES CC(=O)[O-]
REMARK SMILES IDX 1 1 2 2 3 3 4 4
REMARK H PARENT
REMARK Flexibility Score: inf
ROOT
ATOM      1  C   UNL     1       3.843   7.195  -2.081  1.00  0.00     0.063 C 
ATOM      2  C   UNL     1       5.300   7.241  -2.396  1.00  0.00     0.038 C 
ATOM      3  O   UNL     1       5.849   6.275  -2.987  1.00  0.00    -0.550 OA
ATOM      4  O   UNL     1       6.066   8.326  -1.988  1.00  0.00    -0.550 OA
ENDROOT
TORSDOF 0
ENDMDL
MODEL 4
REMARK VINA RESULT:    -0.692      4.927      5.403
REMARK INTER + INTRA:          -0.692
REMARK INTER:                  -0.692
REMARK INTRA:                   0.000
REMARK UNBOUND:                 0.000
REMARK SMILES CC(=O)[O-]
REMARK SMILES IDX 1 1 2 2 3 3 4 4
REMARK H PARENT
REMARK Flexibility Score: inf
ROOT
ATOM      1  C   UNL     1       0.853   8.783  -5.881  1.00  0.00     0.063 C 
ATOM      2  C   UNL     1       0.642   8.365  -4.466  1.00  0.00     0.038 C 
ATOM      3  O   UNL     1       1.184   7.316  -4.030  1.00  0.00    -0.550 OA
ATOM      4  O   UNL     1      -0.199   9.102  -3.641  1.00  0.00    -0.550 OA
ENDROOT
TORSDOF 0
ENDMDL
MODEL 5
REMARK VINA RESULT:    -0.393      4.946      5.528
REMARK INTER + INTRA:          -0.393
REMARK INTER:                  -0.393
REMARK INTRA:                   0.000
REMARK UNBOUND:                 0.000
REMARK SMILES CC(=O)[O-]
REMARK SMILES IDX 1 1 2 2 3 3 4 4
REMARK H PARENT
REMARK Flexibility Score: inf
ROOT
ATOM      1  C   UNL     1      -0.260   9.217  -3.771  1.00  0.00     0.063 C 
ATOM      2  C   UNL     1       0.694   8.428  -4.602  1.00  0.00     0.038 C 
ATOM      3  O   UNL     1       1.206   7.373  -4.145  1.00  0.00    -0.550 OA
ATOM      4  O   UNL     1       1.062   8.885  -5.861  1.00  0.00    -0.550 OA
ENDROOT
TORSDOF 0
ENDMDL
MODEL 6
REMARK VINA RESULT:    -0.175      9.387      9.701
REMARK INTER + INTRA:          -0.175
REMARK INTER:                  -0.175
REMARK INTRA:                   0.000
REMARK UNBOUND:                 0.000
REMARK SMILES CC(=O)[O-]
REMARK SMILES IDX 1 1 2 2 3 3 4 4
REMARK H PARENT
REMARK Flexibility Score: inf
ROOT
ATOM      1  C   UNL     1       1.379  16.178  -3.137  1.00  0.00     0.063 C 
ATOM      2  C   UNL     1       1.883  15.875  -4.507  1.00  0.00     0.038 C 
ATOM      3  O   UNL     1       3.116  15.936  -4.754  1.00  0.00    -0.550 OA
ATOM      4  O   UNL     1       0.989  15.577  -5.528  1.00  0.00    -0.550 OA
ENDROOT
TORSDOF 0
ENDMDL
MODEL 7
REMARK VINA RESULT:    -0.099      5.392      5.590
REMARK INTER + INTRA:          -0.099
REMARK INTER:                  -0.099
REMARK INTRA:                   0.000
REMARK UNBOUND:                 0.000
REMARK SMILES CC(=O)[O-]
REMARK SMILES IDX 1 1 2 2 3 3 4 4
REMARK H PARENT
REMARK Flexibility Score: inf
ROOT
ATOM      1  C   UNL     1       0.567   7.685  -4.355  1.00  0.00     0.063 C 
ATOM      2  C   UNL     1       0.822   8.792  -5.320  1.00  0.00     0.038 C 
ATOM      3  O   UNL     1       0.308   9.925  -5.132  1.00  0.00    -0.550 OA
ATOM      4  O   UNL     1       1.583   8.560  -6.460  1.00  0.00    -0.550 OA
ENDROOT
TORSDOF 0
ENDMDL
MODEL 8
REMARK VINA RESULT:     0.754      3.137      3.399
REMARK INTER + INTRA:           0.754
REMARK INTER:                   0.754
REMARK INTRA:                   0.000
REMARK UNBOUND:                 0.000
REMARK SMILES CC(=O)[O-]
REMARK SMILES IDX 1 1 2 2 3 3 4 4
REMARK H PARENT
REMARK Flexibility Score: inf
ROOT
ATOM      1  C   UNL     1       5.525   6.007  -3.007  1.00  0.00     0.063 C 
ATOM      2  C   UNL     1       6.022   4.883  -3.850  1.00  0.00     0.038 C 
ATOM      3  O   UNL     1       5.770   4.859  -5.083  1.00  0.00    -0.550 OA
ATOM      4  O   UNL     1       6.716   3.830  -3.267  1.00  0.00    -0.550 OA
ENDROOT
TORSDOF 0
ENDMDL
MODEL 9
REMARK VINA RESULT:     1.047     20.513     20.912
REMARK INTER + INTRA:           1.047
REMARK INTER:                   1.047
REMARK INTRA:                   0.000
REMARK UNBOUND:                 0.000
REMARK SMILES CC(=O)[O-]
REMARK SMILES IDX 1 1 2 2 3 3 4 4
REMARK H PARENT
REMARK Flexibility Score: inf
ROOT
ATOM      1  C   UNL     1      -9.627  19.199 -13.776  1.00  0.00     0.063 C 
ATOM      2  C   UNL     1      -8.232  18.983 -13.296  1.00  0.00     0.038 C 
ATOM      3  O   UNL     1      -7.545  18.035 -13.758  1.00  0.00    -0.550 OA
ATOM      4  O   UNL     1      -7.706  19.794 -12.297  1.00  0.00    -0.550 OA
ENDROOT
TORSDOF 0
ENDMDL
