MODEL 1
REMARK VINA RESULT:    -6.016      0.000      0.000
REMARK INTER + INTRA:         -19.069
REMARK INTER:                 -15.863
REMARK INTRA:                  -3.206
REMARK UNBOUND:                -3.206
REMARK SMILES CCCCCCCCCCCCCCCCCCCCCCCCCCCCCC(=O)[O-]
REMARK SMILES IDX 16 1 17 2 18 3 19 4 20 5 21 6 22 7 23 8 24 9 25 10 26 11
REMARK SMILES IDX 27 12 28 13 29 14 30 15 31 16 32 17 15 18 14 19 13 20 12 21
REMARK SMILES IDX 11 22 10 23 9 24 8 25 7 26 6 27 5 28 4 29 3 30 2 31 1 32
REMARK H PARENT
REMARK Flexibility Score: inf
ROOT
ATOM      1  C   UNL     1      89.899 325.982 202.627  1.00  0.00     0.000 C 
ENDROOT
BRANCH   1   2
ATOM      2  C   UNL     1      88.942 326.349 201.476  1.00  0.00     0.000 C 
BRANCH   2   3
ATOM      3  C   UNL     1      89.688 326.814 200.213  1.00  0.00     0.000 C 
BRANCH   3   4
ATOM      4  C   UNL     1      89.228 326.068 198.945  1.00  0.00     0.000 C 
BRANCH   4   5
ATOM      5  C   UNL     1      88.855 326.985 197.765  1.00  0.00     0.000 C 
BRANCH   5   6
ATOM      6  C   UNL     1      88.329 326.198 196.552  1.00  0.00     0.000 C 
BRANCH   6   7
ATOM      7  C   UNL     1      86.872 326.551 196.209  1.00  0.00     0.000 C 
BRANCH   7   8
ATOM      8  C   UNL     1      86.611 326.600 194.697  1.00  0.00     0.000 C 
BRANCH   8   9
ATOM      9  C   UNL     1      87.920 326.835 193.926  1.00  0.00     0.000 C 
BRANCH   9  10
ATOM     10  C   UNL     1      88.175 325.774 192.845  1.00  0.00     0.000 C 
BRANCH  10  11
ATOM     11  C   UNL     1      88.372 324.363 193.429  1.00  0.00     0.000 C 
BRANCH  11  12
ATOM     12  C   UNL     1      88.625 323.299 192.338  1.00  0.00     0.000 C 
BRANCH  12  13
ATOM     13  C   UNL     1      87.990 323.639 190.976  1.00  0.00     0.006 C 
BRANCH  13  14
ATOM     14  C   UNL     1      89.000 323.827 189.834  1.00  0.00     0.053 C 
BRANCH  14  15
ATOM     15  C   UNL     1      88.739 322.900 188.683  1.00  0.00     0.041 C 
ATOM     16  O   UNL     1      87.559 322.661 188.317  1.00  0.00    -0.550 OA
ATOM     17  O   UNL     1      89.798 322.280 188.033  1.00  0.00    -0.550 OA
ENDBRANCH  14  15
ENDBRANCH  13  14
ENDBRANCH  12  13
ENDBRANCH  11  12
ENDBRANCH  10  11
ENDBRANCH   9  10
ENDBRANCH   8   9
ENDBRANCH   7   8
ENDBRANCH   6   7
ENDBRANCH   5   6
ENDBRANCH   4   5
ENDBRANCH   3   4
ENDBRANCH   2   3
ENDBRANCH   1   2
BRANCH   1  18
ATOM     18  C   UNL     1      90.347 327.182 203.484  1.00  0.00     0.000 C 
BRANCH  18  19
ATOM     19  C   UNL     1      89.233 327.679 204.424  1.00  0.00     0.000 C 
BRANCH  19  20
ATOM     20  C   UNL     1      89.577 327.467 205.908  1.00  0.00     0.000 C 
BRANCH  20  21
ATOM     21  C   UNL     1      89.102 326.102 206.440  1.00  0.00     0.000 C 
BRANCH  21  22
ATOM     22  C   UNL     1      87.674 325.751 205.990  1.00  0.00     0.000 C 
BRANCH  22  23
ATOM     23  C   UNL     1      87.462 324.238 205.822  1.00  0.00     0.000 C 
BRANCH  23  24
ATOM     24  C   UNL     1      86.374 323.900 204.787  1.00  0.00    -0.000 C 
BRANCH  24  25
ATOM     25  C   UNL     1      86.852 322.943 203.674  1.00  0.00    -0.000 C 
BRANCH  25  26
ATOM     26  C   UNL     1      86.699 323.565 202.274  1.00  0.00    -0.000 C 
BRANCH  26  27
ATOM     27  C   UNL     1      86.045 322.608 201.265  1.00  0.00    -0.000 C 
BRANCH  27  28
ATOM     28  C   UNL     1      87.075 321.875 200.391  1.00  0.00    -0.000 C 
BRANCH  28  29
ATOM     29  C   UNL     1      87.997 322.873 199.674  1.00  0.00    -0.000 C 
BRANCH  29  30
ATOM     30  C   UNL     1      89.432 322.344 199.500  1.00  0.00    -0.000 C 
BRANCH  30  31
ATOM     31  C   UNL     1      90.493 323.063 200.351  1.00  0.00    -0.003 C 
ATOM     32  C   UNL     1      90.677 322.436 201.733  1.00  0.00     0.004 C 
ENDBRANCH  30  31
ENDBRANCH  29  30
ENDBRANCH  28  29
ENDBRANCH  27  28
ENDBRANCH  26  27
ENDBRANCH  25  26
ENDBRANCH  24  25
ENDBRANCH  23  24
ENDBRANCH  22  23
ENDBRANCH  21  22
ENDBRANCH  20  21
ENDBRANCH  19  20
ENDBRANCH  18  19
ENDBRANCH   1  18
TORSDOF 28
ENDMDL
MODEL 2
REMARK VINA RESULT:    -6.008      1.248      3.088
REMARK INTER + INTRA:         -19.050
REMARK INTER:                 -15.964
REMARK INTRA:                  -3.085
REMARK UNBOUND:                -3.206
REMARK SMILES CCCCCCCCCCCCCCCCCCCCCCCCCCCCCC(=O)[O-]
REMARK SMILES IDX 16 1 17 2 18 3 19 4 20 5 21 6 22 7 23 8 24 9 25 10 26 11
REMARK SMILES IDX 27 12 28 13 29 14 30 15 31 16 32 17 15 18 14 19 13 20 12 21
REMARK SMILES IDX 11 22 10 23 9 24 8 25 7 26 6 27 5 28 4 29 3 30 2 31 1 32
REMARK H PARENT
REMARK Flexibility Score: inf
ROOT
ATOM      1  C   UNL     1      89.623 324.689 199.153  1.00  0.00     0.000 C 
ENDROOT
BRANCH   1   2
ATOM      2  C   UNL     1      88.655 324.256 198.034  1.00  0.00     0.000 C 
BRANCH   2   3
ATOM      3  C   UNL     1      89.203 324.560 196.628  1.00  0.00     0.000 C 
BRANCH   3   4
ATOM      4  C   UNL     1      88.912 326.005 196.180  1.00  0.00     0.000 C 
BRANCH   4   5
ATOM      5  C   UNL     1      87.534 326.542 196.610  1.00  0.00     0.000 C 
BRANCH   5   6
ATOM      6  C   UNL     1      86.529 326.585 195.445  1.00  0.00     0.000 C 
BRANCH   6   7
ATOM      7  C   UNL     1      87.222 326.645 194.073  1.00  0.00     0.000 C 
BRANCH   7   8
ATOM      8  C   UNL     1      86.969 325.391 193.223  1.00  0.00     0.000 C 
BRANCH   8   9
ATOM      9  C   UNL     1      88.184 325.082 192.334  1.00  0.00     0.000 C 
BRANCH   9  10
ATOM     10  C   UNL     1      88.742 323.668 192.557  1.00  0.00     0.000 C 
BRANCH  10  11
ATOM     11  C   UNL     1      88.378 322.697 191.419  1.00  0.00     0.000 C 
BRANCH  11  12
ATOM     12  C   UNL     1      87.821 323.422 190.175  1.00  0.00     0.000 C 
BRANCH  12  13
ATOM     13  C   UNL     1      88.554 323.069 188.866  1.00  0.00     0.006 C 
BRANCH  13  14
ATOM     14  C   UNL     1      89.978 323.636 188.762  1.00  0.00     0.053 C 
BRANCH  14  15
ATOM     15  C   UNL     1      90.975 322.597 188.342  1.00  0.00     0.041 C 
ATOM     16  O   UNL     1      90.821 321.970 187.262  1.00  0.00    -0.550 OA
ATOM     17  O   UNL     1      92.061 322.304 189.157  1.00  0.00    -0.550 OA
ENDBRANCH  14  15
ENDBRANCH  13  14
ENDBRANCH  12  13
ENDBRANCH  11  12
ENDBRANCH  10  11
ENDBRANCH   9  10
ENDBRANCH   8   9
ENDBRANCH   7   8
ENDBRANCH   6   7
ENDBRANCH   5   6
ENDBRANCH   4   5
ENDBRANCH   3   4
ENDBRANCH   2   3
ENDBRANCH   1   2
BRANCH   1  18
ATOM     18  C   UNL     1      89.232 326.006 199.851  1.00  0.00     0.000 C 
BRANCH  18  19
ATOM     19  C   UNL     1      90.025 326.239 201.150  1.00  0.00     0.000 C 
BRANCH  19  20
ATOM     20  C   UNL     1      89.160 326.839 202.270  1.00  0.00     0.000 C 
BRANCH  20  21
ATOM     21  C   UNL     1      89.975 327.195 203.526  1.00  0.00     0.000 C 
BRANCH  21  22
ATOM     22  C   UNL     1      89.095 327.671 204.694  1.00  0.00     0.000 C 
BRANCH  22  23
ATOM     23  C   UNL     1      89.595 327.166 206.057  1.00  0.00     0.000 C 
BRANCH  23  24
ATOM     24  C   UNL     1      88.977 325.814 206.455  1.00  0.00    -0.000 C 
BRANCH  24  25
ATOM     25  C   UNL     1      87.554 325.594 205.900  1.00  0.00    -0.000 C 
BRANCH  25  26
ATOM     26  C   UNL     1      87.271 324.108 205.614  1.00  0.00    -0.000 C 
BRANCH  26  27
ATOM     27  C   UNL     1      86.582 323.883 204.259  1.00  0.00    -0.000 C 
BRANCH  27  28
ATOM     28  C   UNL     1      87.583 323.748 203.101  1.00  0.00    -0.000 C 
BRANCH  28  29
ATOM     29  C   UNL     1      86.865 323.789 201.744  1.00  0.00    -0.000 C 
BRANCH  29  30
ATOM     30  C   UNL     1      86.077 322.502 201.442  1.00  0.00    -0.000 C 
BRANCH  30  31
ATOM     31  C   UNL     1      86.766 321.537 200.461  1.00  0.00    -0.003 C 
ATOM     32  C   UNL     1      88.288 321.532 200.598  1.00  0.00     0.004 C 
ENDBRANCH  30  31
ENDBRANCH  29  30
ENDBRANCH  28  29
ENDBRANCH  27  28
ENDBRANCH  26  27
ENDBRANCH  25  26
ENDBRANCH  24  25
ENDBRANCH  23  24
ENDBRANCH  22  23
ENDBRANCH  21  22
ENDBRANCH  20  21
ENDBRANCH  19  20
ENDBRANCH  18  19
ENDBRANCH   1  18
TORSDOF 28
ENDMDL
MODEL 3
REMARK VINA RESULT:    -6.002      4.178     10.568
REMARK INTER + INTRA:         -19.033
REMARK INTER:                 -15.296
REMARK INTRA:                  -3.737
REMARK UNBOUND:                -3.206
REMARK SMILES CCCCCCCCCCCCCCCCCCCCCCCCCCCCCC(=O)[O-]
REMARK SMILES IDX 16 1 17 2 18 3 19 4 20 5 21 6 22 7 23 8 24 9 25 10 26 11
REMARK SMILES IDX 27 12 28 13 29 14 30 15 31 16 32 17 15 18 14 19 13 20 12 21
REMARK SMILES IDX 11 22 10 23 9 24 8 25 7 26 6 27 5 28 4 29 3 30 2 31 1 32
REMARK H PARENT
REMARK Flexibility Score: inf
ROOT
ATOM      1  C   UNL     1      90.030 324.941 200.912  1.00  0.00     0.000 C 
ENDROOT
BRANCH   1   2
ATOM      2  C   UNL     1      89.148 324.488 202.093  1.00  0.00     0.000 C 
BRANCH   2   3
ATOM      3  C   UNL     1      87.653 324.764 201.853  1.00  0.00     0.000 C 
BRANCH   3   4
ATOM      4  C   UNL     1      86.790 323.492 201.966  1.00  0.00     0.000 C 
BRANCH   4   5
ATOM      5  C   UNL     1      87.571 322.224 202.358  1.00  0.00     0.000 C 
BRANCH   5   6
ATOM      6  C   UNL     1      87.092 321.626 203.692  1.00  0.00     0.000 C 
BRANCH   6   7
ATOM      7  C   UNL     1      87.599 322.419 204.908  1.00  0.00     0.000 C 
BRANCH   7   8
ATOM      8  C   UNL     1      86.483 323.201 205.616  1.00  0.00     0.000 C 
BRANCH   8   9
ATOM      9  C   UNL     1      86.737 324.715 205.524  1.00  0.00     0.000 C 
BRANCH   9  10
ATOM     10  C   UNL     1      88.226 325.077 205.626  1.00  0.00     0.000 C 
BRANCH  10  11
ATOM     11  C   UNL     1      88.480 326.309 206.516  1.00  0.00     0.000 C 
BRANCH  11  12
ATOM     12  C   UNL     1      89.495 327.292 205.892  1.00  0.00     0.000 C 
BRANCH  12  13
ATOM     13  C   UNL     1      89.515 327.275 204.351  1.00  0.00     0.006 C 
BRANCH  13  14
ATOM     14  C   UNL     1      90.768 327.904 203.725  1.00  0.00     0.053 C 
BRANCH  14  15
ATOM     15  C   UNL     1      91.858 326.898 203.497  1.00  0.00     0.041 C 
ATOM     16  O   UNL     1      92.832 327.176 202.751  1.00  0.00    -0.550 OA
ATOM     17  O   UNL     1      91.783 325.643 204.089  1.00  0.00    -0.550 OA
ENDBRANCH  14  15
ENDBRANCH  13  14
ENDBRANCH  12  13
ENDBRANCH  11  12
ENDBRANCH  10  11
ENDBRANCH   9  10
ENDBRANCH   8   9
ENDBRANCH   7   8
ENDBRANCH   6   7
ENDBRANCH   5   6
ENDBRANCH   4   5
ENDBRANCH   3   4
ENDBRANCH   2   3
ENDBRANCH   1   2
BRANCH   1  18
ATOM     18  C   UNL     1      89.754 326.379 200.434  1.00  0.00     0.000 C 
BRANCH  18  19
ATOM     19  C   UNL     1      89.203 326.424 198.997  1.00  0.00     0.000 C 
BRANCH  19  20
ATOM     20  C   UNL     1      89.105 325.029 198.359  1.00  0.00     0.000 C 
BRANCH  20  21
ATOM     21  C   UNL     1      88.419 325.051 196.981  1.00  0.00     0.000 C 
BRANCH  21  22
ATOM     22  C   UNL     1      88.111 326.476 196.491  1.00  0.00     0.000 C 
BRANCH  22  23
ATOM     23  C   UNL     1      86.719 326.595 195.852  1.00  0.00     0.000 C 
BRANCH  23  24
ATOM     24  C   UNL     1      86.683 326.083 194.401  1.00  0.00    -0.000 C 
BRANCH  24  25
ATOM     25  C   UNL     1      87.990 326.335 193.620  1.00  0.00    -0.000 C 
BRANCH  25  26
ATOM     26  C   UNL     1      88.187 325.318 192.482  1.00  0.00    -0.000 C 
BRANCH  26  27
ATOM     27  C   UNL     1      88.153 323.862 192.971  1.00  0.00    -0.000 C 
BRANCH  27  28
ATOM     28  C   UNL     1      86.930 323.091 192.452  1.00  0.00    -0.000 C 
BRANCH  28  29
ATOM     29  C   UNL     1      86.759 323.283 190.938  1.00  0.00    -0.000 C 
BRANCH  29  30
ATOM     30  C   UNL     1      87.783 322.484 190.112  1.00  0.00    -0.000 C 
BRANCH  30  31
ATOM     31  C   UNL     1      88.296 323.199 188.851  1.00  0.00    -0.003 C 
ATOM     32  C   UNL     1      89.614 323.939 189.079  1.00  0.00     0.004 C 
ENDBRANCH  30  31
ENDBRANCH  29  30
ENDBRANCH  28  29
ENDBRANCH  27  28
ENDBRANCH  26  27
ENDBRANCH  25  26
ENDBRANCH  24  25
ENDBRANCH  23  24
ENDBRANCH  22  23
ENDBRANCH  21  22
ENDBRANCH  20  21
ENDBRANCH  19  20
ENDBRANCH  18  19
ENDBRANCH   1  18
TORSDOF 28
ENDMDL
MODEL 4
REMARK VINA RESULT:    -5.976      1.158      3.973
REMARK INTER + INTRA:         -18.963
REMARK INTER:                 -15.473
REMARK INTRA:                  -3.490
REMARK UNBOUND:                -3.206
REMARK SMILES CCCCCCCCCCCCCCCCCCCCCCCCCCCCCC(=O)[O-]
REMARK SMILES IDX 16 1 17 2 18 3 19 4 20 5 21 6 22 7 23 8 24 9 25 10 26 11
REMARK SMILES IDX 27 12 28 13 29 14 30 15 31 16 32 17 15 18 14 19 13 20 12 21
REMARK SMILES IDX 11 22 10 23 9 24 8 25 7 26 6 27 5 28 4 29 3 30 2 31 1 32
REMARK H PARENT
REMARK Flexibility Score: inf
ROOT
ATOM      1  C   UNL     1      89.171 323.025 198.982  1.00  0.00     0.000 C 
ENDROOT
BRANCH   1   2
ATOM      2  C   UNL     1      89.155 324.178 197.960  1.00  0.00     0.000 C 
BRANCH   2   3
ATOM      3  C   UNL     1      89.208 325.563 198.630  1.00  0.00     0.000 C 
BRANCH   3   4
ATOM      4  C   UNL     1      88.637 326.678 197.732  1.00  0.00     0.000 C 
BRANCH   4   5
ATOM      5  C   UNL     1      88.380 326.254 196.274  1.00  0.00     0.000 C 
BRANCH   5   6
ATOM      6  C   UNL     1      86.908 326.427 195.861  1.00  0.00     0.000 C 
BRANCH   6   7
ATOM      7  C   UNL     1      86.733 326.532 194.337  1.00  0.00     0.000 C 
BRANCH   7   8
ATOM      8  C   UNL     1      88.071 326.522 193.583  1.00  0.00     0.000 C 
BRANCH   8   9
ATOM      9  C   UNL     1      88.124 325.354 192.584  1.00  0.00     0.000 C 
BRANCH   9  10
ATOM     10  C   UNL     1      86.800 324.581 192.499  1.00  0.00     0.000 C 
BRANCH  10  11
ATOM     11  C   UNL     1      86.789 323.540 191.364  1.00  0.00     0.000 C 
BRANCH  11  12
ATOM     12  C   UNL     1      88.210 323.159 190.894  1.00  0.00     0.000 C 
BRANCH  12  13
ATOM     13  C   UNL     1      88.407 323.244 189.368  1.00  0.00     0.006 C 
BRANCH  13  14
ATOM     14  C   UNL     1      89.657 324.022 188.931  1.00  0.00     0.053 C 
BRANCH  14  15
ATOM     15  C   UNL     1      90.697 323.132 188.316  1.00  0.00     0.041 C 
ATOM     16  O   UNL     1      90.365 322.035 187.797  1.00  0.00    -0.550 OA
ATOM     17  O   UNL     1      92.034 323.504 188.340  1.00  0.00    -0.550 OA
ENDBRANCH  14  15
ENDBRANCH  13  14
ENDBRANCH  12  13
ENDBRANCH  11  12
ENDBRANCH  10  11
ENDBRANCH   9  10
ENDBRANCH   8   9
ENDBRANCH   7   8
ENDBRANCH   6   7
ENDBRANCH   5   6
ENDBRANCH   4   5
ENDBRANCH   3   4
ENDBRANCH   2   3
ENDBRANCH   1   2
BRANCH   1  18
ATOM     18  C   UNL     1      87.798 322.723 199.614  1.00  0.00     0.000 C 
BRANCH  18  19
ATOM     19  C   UNL     1      87.848 322.724 201.153  1.00  0.00     0.000 C 
BRANCH  19  20
ATOM     20  C   UNL     1      86.470 322.975 201.787  1.00  0.00     0.000 C 
BRANCH  20  21
ATOM     21  C   UNL     1      86.510 324.045 202.893  1.00  0.00     0.000 C 
BRANCH  21  22
ATOM     22  C   UNL     1      87.346 323.614 204.110  1.00  0.00     0.000 C 
BRANCH  22  23
ATOM     23  C   UNL     1      87.242 324.603 205.281  1.00  0.00     0.000 C 
BRANCH  23  24
ATOM     24  C   UNL     1      88.616 325.012 205.840  1.00  0.00    -0.000 C 
BRANCH  24  25
ATOM     25  C   UNL     1      88.615 326.383 206.551  1.00  0.00    -0.000 C 
BRANCH  25  26
ATOM     26  C   UNL     1      89.096 327.513 205.623  1.00  0.00    -0.000 C 
BRANCH  26  27
ATOM     27  C   UNL     1      90.611 327.471 205.369  1.00  0.00    -0.000 C 
BRANCH  27  28
ATOM     28  C   UNL     1      90.958 327.203 203.897  1.00  0.00    -0.000 C 
BRANCH  28  29
ATOM     29  C   UNL     1      89.698 327.234 203.019  1.00  0.00    -0.000 C 
BRANCH  29  30
ATOM     30  C   UNL     1      89.531 325.965 202.164  1.00  0.00    -0.000 C 
BRANCH  30  31
ATOM     31  C   UNL     1      90.639 324.913 202.343  1.00  0.00    -0.003 C 
ATOM     32  C   UNL     1      91.673 324.937 201.217  1.00  0.00     0.004 C 
ENDBRANCH  30  31
ENDBRANCH  29  30
ENDBRANCH  28  29
ENDBRANCH  27  28
ENDBRANCH  26  27
ENDBRANCH  25  26
ENDBRANCH  24  25
ENDBRANCH  23  24
ENDBRANCH  22  23
ENDBRANCH  21  22
ENDBRANCH  20  21
ENDBRANCH  19  20
ENDBRANCH  18  19
ENDBRANCH   1  18
TORSDOF 28
ENDMDL
MODEL 5
REMARK VINA RESULT:    -5.955      3.686     10.081
REMARK INTER + INTRA:         -18.910
REMARK INTER:                 -15.211
REMARK INTRA:                  -3.699
REMARK UNBOUND:                -3.206
REMARK SMILES CCCCCCCCCCCCCCCCCCCCCCCCCCCCCC(=O)[O-]
REMARK SMILES IDX 16 1 17 2 18 3 19 4 20 5 21 6 22 7 23 8 24 9 25 10 26 11
REMARK SMILES IDX 27 12 28 13 29 14 30 15 31 16 32 17 15 18 14 19 13 20 12 21
REMARK SMILES IDX 11 22 10 23 9 24 8 25 7 26 6 27 5 28 4 29 3 30 2 31 1 32
REMARK H PARENT
REMARK Flexibility Score: inf
ROOT
ATOM      1  C   UNL     1      87.683 323.705 201.157  1.00  0.00     0.000 C 
ENDROOT
BRANCH   1   2
ATOM      2  C   UNL     1      86.582 323.108 202.054  1.00  0.00     0.000 C 
BRANCH   2   3
ATOM      3  C   UNL     1      87.125 322.049 203.031  1.00  0.00     0.000 C 
BRANCH   3   4
ATOM      4  C   UNL     1      86.930 322.449 204.506  1.00  0.00     0.000 C 
BRANCH   4   5
ATOM      5  C   UNL     1      86.247 323.814 204.713  1.00  0.00     0.000 C 
BRANCH   5   6
ATOM      6  C   UNL     1      87.068 324.754 205.612  1.00  0.00     0.000 C 
BRANCH   6   7
ATOM      7  C   UNL     1      88.572 324.434 205.578  1.00  0.00     0.000 C 
BRANCH   7   8
ATOM      8  C   UNL     1      89.368 325.200 206.645  1.00  0.00     0.000 C 
BRANCH   8   9
ATOM      9  C   UNL     1      88.997 326.692 206.634  1.00  0.00     0.000 C 
BRANCH   9  10
ATOM     10  C   UNL     1      89.989 327.548 205.832  1.00  0.00     0.000 C 
BRANCH  10  11
ATOM     11  C   UNL     1      89.576 327.714 204.357  1.00  0.00     0.000 C 
BRANCH  11  12
ATOM     12  C   UNL     1      90.776 327.611 203.390  1.00  0.00     0.000 C 
BRANCH  12  13
ATOM     13  C   UNL     1      91.957 326.792 203.946  1.00  0.00     0.006 C 
BRANCH  13  14
ATOM     14  C   UNL     1      91.950 325.310 203.540  1.00  0.00     0.053 C 
BRANCH  14  15
ATOM     15  C   UNL     1      92.411 325.104 202.127  1.00  0.00     0.041 C 
ATOM     16  O   UNL     1      93.171 325.944 201.579  1.00  0.00    -0.550 OA
ATOM     17  O   UNL     1      91.978 323.997 201.408  1.00  0.00    -0.550 OA
ENDBRANCH  14  15
ENDBRANCH  13  14
ENDBRANCH  12  13
ENDBRANCH  11  12
ENDBRANCH  10  11
ENDBRANCH   9  10
ENDBRANCH   8   9
ENDBRANCH   7   8
ENDBRANCH   6   7
ENDBRANCH   5   6
ENDBRANCH   4   5
ENDBRANCH   3   4
ENDBRANCH   2   3
ENDBRANCH   1   2
BRANCH   1  18
ATOM     18  C   UNL     1      88.596 324.722 201.868  1.00  0.00     0.000 C 
BRANCH  18  19
ATOM     19  C   UNL     1      88.566 326.108 201.198  1.00  0.00     0.000 C 
BRANCH  19  20
ATOM     20  C   UNL     1      89.600 326.239 200.068  1.00  0.00     0.000 C 
BRANCH  20  21
ATOM     21  C   UNL     1      88.952 326.317 198.674  1.00  0.00     0.000 C 
BRANCH  21  22
ATOM     22  C   UNL     1      89.048 324.995 197.895  1.00  0.00     0.000 C 
BRANCH  22  23
ATOM     23  C   UNL     1      88.530 325.117 196.453  1.00  0.00     0.000 C 
BRANCH  23  24
ATOM     24  C   UNL     1      87.851 326.469 196.176  1.00  0.00    -0.000 C 
BRANCH  24  25
ATOM     25  C   UNL     1      87.506 326.698 194.689  1.00  0.00    -0.000 C 
BRANCH  25  26
ATOM     26  C   UNL     1      86.368 325.779 194.213  1.00  0.00    -0.000 C 
BRANCH  26  27
ATOM     27  C   UNL     1      86.817 324.787 193.128  1.00  0.00    -0.000 C 
BRANCH  27  28
ATOM     28  C   UNL     1      88.137 325.200 192.459  1.00  0.00    -0.000 C 
BRANCH  28  29
ATOM     29  C   UNL     1      88.640 324.103 191.508  1.00  0.00    -0.000 C 
BRANCH  29  30
ATOM     30  C   UNL     1      87.546 323.589 190.555  1.00  0.00    -0.000 C 
BRANCH  30  31
ATOM     31  C   UNL     1      88.068 322.937 189.264  1.00  0.00    -0.003 C 
ATOM     32  C   UNL     1      89.374 323.557 188.767  1.00  0.00     0.004 C 
ENDBRANCH  30  31
ENDBRANCH  29  30
ENDBRANCH  28  29
ENDBRANCH  27  28
ENDBRANCH  26  27
ENDBRANCH  25  26
ENDBRANCH  24  25
ENDBRANCH  23  24
ENDBRANCH  22  23
ENDBRANCH  21  22
ENDBRANCH  20  21
ENDBRANCH  19  20
ENDBRANCH  18  19
ENDBRANCH   1  18
TORSDOF 28
ENDMDL
MODEL 6
REMARK VINA RESULT:    -5.933      1.405      3.892
REMARK INTER + INTRA:         -18.850
REMARK INTER:                 -16.128
REMARK INTRA:                  -2.722
REMARK UNBOUND:                -3.206
REMARK SMILES CCCCCCCCCCCCCCCCCCCCCCCCCCCCCC(=O)[O-]
REMARK SMILES IDX 16 1 17 2 18 3 19 4 20 5 21 6 22 7 23 8 24 9 25 10 26 11
REMARK SMILES IDX 27 12 28 13 29 14 30 15 31 16 32 17 15 18 14 19 13 20 12 21
REMARK SMILES IDX 11 22 10 23 9 24 8 25 7 26 6 27 5 28 4 29 3 30 2 31 1 32
REMARK H PARENT
REMARK Flexibility Score: inf
ROOT
ATOM      1  C   UNL     1      89.080 324.574 199.023  1.00  0.00     0.000 C 
ENDROOT
BRANCH   1   2
ATOM      2  C   UNL     1      89.476 323.876 197.707  1.00  0.00     0.000 C 
BRANCH   2   3
ATOM      3  C   UNL     1      88.576 324.287 196.527  1.00  0.00     0.000 C 
BRANCH   3   4
ATOM      4  C   UNL     1      88.152 325.766 196.594  1.00  0.00     0.000 C 
BRANCH   4   5
ATOM      5  C   UNL     1      88.746 326.652 195.483  1.00  0.00     0.000 C 
BRANCH   5   6
ATOM      6  C   UNL     1      87.745 326.923 194.347  1.00  0.00     0.000 C 
BRANCH   6   7
ATOM      7  C   UNL     1      86.459 326.091 194.486  1.00  0.00     0.000 C 
BRANCH   7   8
ATOM      8  C   UNL     1      86.189 325.202 193.263  1.00  0.00     0.000 C 
BRANCH   8   9
ATOM      9  C   UNL     1      87.054 323.932 193.312  1.00  0.00     0.000 C 
BRANCH   9  10
ATOM     10  C   UNL     1      88.310 324.031 192.434  1.00  0.00     0.000 C 
BRANCH  10  11
ATOM     11  C   UNL     1      87.982 324.123 190.932  1.00  0.00     0.000 C 
BRANCH  11  12
ATOM     12  C   UNL     1      89.232 323.951 190.040  1.00  0.00     0.000 C 
BRANCH  12  13
ATOM     13  C   UNL     1      88.956 323.213 188.715  1.00  0.00     0.006 C 
BRANCH  13  14
ATOM     14  C   UNL     1      87.486 322.827 188.497  1.00  0.00     0.053 C 
BRANCH  14  15
ATOM     15  C   UNL     1      87.340 321.476 187.860  1.00  0.00     0.041 C 
ATOM     16  O   UNL     1      86.266 321.159 187.285  1.00  0.00    -0.550 OA
ATOM     17  O   UNL     1      88.380 320.559 187.926  1.00  0.00    -0.550 OA
ENDBRANCH  14  15
ENDBRANCH  13  14
ENDBRANCH  12  13
ENDBRANCH  11  12
ENDBRANCH  10  11
ENDBRANCH   9  10
ENDBRANCH   8   9
ENDBRANCH   7   8
ENDBRANCH   6   7
ENDBRANCH   5   6
ENDBRANCH   4   5
ENDBRANCH   3   4
ENDBRANCH   2   3
ENDBRANCH   1   2
BRANCH   1  18
ATOM     18  C   UNL     1      90.271 325.137 199.822  1.00  0.00     0.000 C 
BRANCH  18  19
ATOM     19  C   UNL     1      90.004 326.560 200.347  1.00  0.00     0.000 C 
BRANCH  19  20
ATOM     20  C   UNL     1      91.211 327.148 201.097  1.00  0.00     0.000 C 
BRANCH  20  21
ATOM     21  C   UNL     1      91.036 327.113 202.627  1.00  0.00     0.000 C 
BRANCH  21  22
ATOM     22  C   UNL     1      89.572 326.915 203.055  1.00  0.00     0.000 C 
BRANCH  22  23
ATOM     23  C   UNL     1      89.190 327.772 204.272  1.00  0.00     0.000 C 
BRANCH  23  24
ATOM     24  C   UNL     1      90.252 327.734 205.385  1.00  0.00    -0.000 C 
BRANCH  24  25
ATOM     25  C   UNL     1      89.936 326.728 206.512  1.00  0.00    -0.000 C 
BRANCH  25  26
ATOM     26  C   UNL     1      88.449 326.330 206.529  1.00  0.00    -0.000 C 
BRANCH  26  27
ATOM     27  C   UNL     1      88.204 324.916 205.979  1.00  0.00    -0.000 C 
BRANCH  27  28
ATOM     28  C   UNL     1      86.712 324.613 205.769  1.00  0.00    -0.000 C 
BRANCH  28  29
ATOM     29  C   UNL     1      86.455 324.064 204.358  1.00  0.00    -0.000 C 
BRANCH  29  30
ATOM     30  C   UNL     1      87.747 323.653 203.629  1.00  0.00    -0.000 C 
BRANCH  30  31
ATOM     31  C   UNL     1      87.630 323.576 202.097  1.00  0.00    -0.003 C 
ATOM     32  C   UNL     1      86.301 322.984 201.629  1.00  0.00     0.004 C 
ENDBRANCH  30  31
ENDBRANCH  29  30
ENDBRANCH  28  29
ENDBRANCH  27  28
ENDBRANCH  26  27
ENDBRANCH  25  26
ENDBRANCH  24  25
ENDBRANCH  23  24
ENDBRANCH  22  23
ENDBRANCH  21  22
ENDBRANCH  20  21
ENDBRANCH  19  20
ENDBRANCH  18  19
ENDBRANCH   1  18
TORSDOF 28
ENDMDL
MODEL 7
REMARK VINA RESULT:    -5.891      3.275      9.936
REMARK INTER + INTRA:         -18.740
REMARK INTER:                 -15.542
REMARK INTRA:                  -3.198
REMARK UNBOUND:                -3.206
REMARK SMILES CCCCCCCCCCCCCCCCCCCCCCCCCCCCCC(=O)[O-]
REMARK SMILES IDX 16 1 17 2 18 3 19 4 20 5 21 6 22 7 23 8 24 9 25 10 26 11
REMARK SMILES IDX 27 12 28 13 29 14 30 15 31 16 32 17 15 18 14 19 13 20 12 21
REMARK SMILES IDX 11 22 10 23 9 24 8 25 7 26 6 27 5 28 4 29 3 30 2 31 1 32
REMARK H PARENT
REMARK Flexibility Score: inf
ROOT
ATOM      1  C   UNL     1      90.480 324.668 199.694  1.00  0.00     0.000 C 
ENDROOT
BRANCH   1   2
ATOM      2  C   UNL     1      90.593 325.955 200.535  1.00  0.00     0.000 C 
BRANCH   2   3
ATOM      3  C   UNL     1      89.220 326.495 200.975  1.00  0.00     0.000 C 
BRANCH   3   4
ATOM      4  C   UNL     1      89.183 326.872 202.468  1.00  0.00     0.000 C 
BRANCH   4   5
ATOM      5  C   UNL     1      90.494 326.598 203.229  1.00  0.00     0.000 C 
BRANCH   5   6
ATOM      6  C   UNL     1      90.527 327.277 204.609  1.00  0.00     0.000 C 
BRANCH   6   7
ATOM      7  C   UNL     1      89.120 327.480 205.197  1.00  0.00     0.000 C 
BRANCH   7   8
ATOM      8  C   UNL     1      88.834 326.555 206.389  1.00  0.00     0.000 C 
BRANCH   8   9
ATOM      9  C   UNL     1      88.441 325.150 205.905  1.00  0.00     0.000 C 
BRANCH   9  10
ATOM     10  C   UNL     1      86.926 324.987 205.712  1.00  0.00     0.000 C 
BRANCH  10  11
ATOM     11  C   UNL     1      86.567 323.832 204.758  1.00  0.00     0.000 C 
BRANCH  11  12
ATOM     12  C   UNL     1      86.935 324.139 203.290  1.00  0.00     0.000 C 
BRANCH  12  13
ATOM     13  C   UNL     1      87.354 322.898 202.479  1.00  0.00     0.006 C 
BRANCH  13  14
ATOM     14  C   UNL     1      86.323 322.442 201.436  1.00  0.00     0.053 C 
BRANCH  14  15
ATOM     15  C   UNL     1      86.798 321.260 200.643  1.00  0.00     0.041 C 
ATOM     16  O   UNL     1      86.478 321.140 199.432  1.00  0.00    -0.550 OA
ATOM     17  O   UNL     1      87.571 320.279 201.249  1.00  0.00    -0.550 OA
ENDBRANCH  14  15
ENDBRANCH  13  14
ENDBRANCH  12  13
ENDBRANCH  11  12
ENDBRANCH  10  11
ENDBRANCH   9  10
ENDBRANCH   8   9
ENDBRANCH   7   8
ENDBRANCH   6   7
ENDBRANCH   5   6
ENDBRANCH   4   5
ENDBRANCH   3   4
ENDBRANCH   2   3
ENDBRANCH   1   2
BRANCH   1  18
ATOM     18  C   UNL     1      89.037 324.168 199.495  1.00  0.00     0.000 C 
BRANCH  18  19
ATOM     19  C   UNL     1      88.729 323.835 198.023  1.00  0.00     0.000 C 
BRANCH  19  20
ATOM     20  C   UNL     1      89.209 324.930 197.057  1.00  0.00     0.000 C 
BRANCH  20  21
ATOM     21  C   UNL     1      88.439 326.253 197.227  1.00  0.00     0.000 C 
BRANCH  21  22
ATOM     22  C   UNL     1      87.977 326.850 195.888  1.00  0.00     0.000 C 
BRANCH  22  23
ATOM     23  C   UNL     1      86.529 326.471 195.538  1.00  0.00     0.000 C 
BRANCH  23  24
ATOM     24  C   UNL     1      86.423 325.657 194.237  1.00  0.00    -0.000 C 
BRANCH  24  25
ATOM     25  C   UNL     1      87.740 325.595 193.433  1.00  0.00    -0.000 C 
BRANCH  25  26
ATOM     26  C   UNL     1      88.429 324.224 193.561  1.00  0.00    -0.000 C 
BRANCH  26  27
ATOM     27  C   UNL     1      88.396 323.418 192.253  1.00  0.00    -0.000 C 
BRANCH  27  28
ATOM     28  C   UNL     1      88.567 324.301 191.008  1.00  0.00    -0.000 C 
BRANCH  28  29
ATOM     29  C   UNL     1      88.301 323.501 189.724  1.00  0.00    -0.000 C 
BRANCH  29  30
ATOM     30  C   UNL     1      89.537 322.725 189.234  1.00  0.00    -0.000 C 
BRANCH  30  31
ATOM     31  C   UNL     1      90.556 323.563 188.444  1.00  0.00    -0.003 C 
ATOM     32  C   UNL     1      91.834 322.792 188.112  1.00  0.00     0.004 C 
ENDBRANCH  30  31
ENDBRANCH  29  30
ENDBRANCH  28  29
ENDBRANCH  27  28
ENDBRANCH  26  27
ENDBRANCH  25  26
ENDBRANCH  24  25
ENDBRANCH  23  24
ENDBRANCH  22  23
ENDBRANCH  21  22
ENDBRANCH  20  21
ENDBRANCH  19  20
ENDBRANCH  18  19
ENDBRANCH   1  18
TORSDOF 28
ENDMDL
MODEL 8
REMARK VINA RESULT:    -5.879      3.709     10.670
REMARK INTER + INTRA:         -18.707
REMARK INTER:                 -15.296
REMARK INTRA:                  -3.411
REMARK UNBOUND:                -3.206
REMARK SMILES CCCCCCCCCCCCCCCCCCCCCCCCCCCCCC(=O)[O-]
REMARK SMILES IDX 16 1 17 2 18 3 19 4 20 5 21 6 22 7 23 8 24 9 25 10 26 11
REMARK SMILES IDX 27 12 28 13 29 14 30 15 31 16 32 17 15 18 14 19 13 20 12 21
REMARK SMILES IDX 11 22 10 23 9 24 8 25 7 26 6 27 5 28 4 29 3 30 2 31 1 32
REMARK H PARENT
REMARK Flexibility Score: inf
ROOT
ATOM      1  C   UNL     1      88.889 324.110 199.206  1.00  0.00     0.000 C 
ENDROOT
BRANCH   1   2
ATOM      2  C   UNL     1      90.354 324.134 199.684  1.00  0.00     0.000 C 
BRANCH   2   3
ATOM      3  C   UNL     1      90.734 325.465 200.357  1.00  0.00     0.000 C 
BRANCH   3   4
ATOM      4  C   UNL     1      89.549 326.446 200.441  1.00  0.00     0.000 C 
BRANCH   4   5
ATOM      5  C   UNL     1      88.871 326.512 201.823  1.00  0.00     0.000 C 
BRANCH   5   6
ATOM      6  C   UNL     1      89.862 326.275 202.976  1.00  0.00     0.000 C 
BRANCH   6   7
ATOM      7  C   UNL     1      90.397 327.588 203.571  1.00  0.00     0.000 C 
BRANCH   7   8
ATOM      8  C   UNL     1      90.445 327.570 205.106  1.00  0.00     0.000 C 
BRANCH   8   9
ATOM      9  C   UNL     1      89.062 327.241 205.690  1.00  0.00     0.000 C 
BRANCH   9  10
ATOM     10  C   UNL     1      89.093 326.056 206.666  1.00  0.00     0.000 C 
BRANCH  10  11
ATOM     11  C   UNL     1      88.563 324.753 206.039  1.00  0.00     0.000 C 
BRANCH  11  12
ATOM     12  C   UNL     1      87.086 324.863 205.601  1.00  0.00     0.000 C 
BRANCH  12  13
ATOM     13  C   UNL     1      86.586 323.658 204.781  1.00  0.00     0.006 C 
BRANCH  13  14
ATOM     14  C   UNL     1      86.608 323.871 203.260  1.00  0.00     0.053 C 
BRANCH  14  15
ATOM     15  C   UNL     1      87.561 322.943 202.567  1.00  0.00     0.041 C 
ATOM     16  O   UNL     1      87.147 322.159 201.674  1.00  0.00    -0.550 OA
ATOM     17  O   UNL     1      88.902 322.924 202.928  1.00  0.00    -0.550 OA
ENDBRANCH  14  15
ENDBRANCH  13  14
ENDBRANCH  12  13
ENDBRANCH  11  12
ENDBRANCH  10  11
ENDBRANCH   9  10
ENDBRANCH   8   9
ENDBRANCH   7   8
ENDBRANCH   6   7
ENDBRANCH   5   6
ENDBRANCH   4   5
ENDBRANCH   3   4
ENDBRANCH   2   3
ENDBRANCH   1   2
BRANCH   1  18
ATOM     18  C   UNL     1      88.707 323.642 197.750  1.00  0.00     0.000 C 
BRANCH  18  19
ATOM     19  C   UNL     1      89.201 324.686 196.732  1.00  0.00     0.000 C 
BRANCH  19  20
ATOM     20  C   UNL     1      88.507 326.048 196.900  1.00  0.00     0.000 C 
BRANCH  20  21
ATOM     21  C   UNL     1      88.131 326.694 195.554  1.00  0.00     0.000 C 
BRANCH  21  22
ATOM     22  C   UNL     1      86.625 326.610 195.252  1.00  0.00     0.000 C 
BRANCH  22  23
ATOM     23  C   UNL     1      86.311 325.699 194.055  1.00  0.00     0.000 C 
BRANCH  23  24
ATOM     24  C   UNL     1      86.568 324.211 194.353  1.00  0.00    -0.000 C 
BRANCH  24  25
ATOM     25  C   UNL     1      87.584 323.552 193.396  1.00  0.00    -0.000 C 
BRANCH  25  26
ATOM     26  C   UNL     1      88.329 324.592 192.541  1.00  0.00    -0.000 C 
BRANCH  26  27
ATOM     27  C   UNL     1      88.157 324.357 191.032  1.00  0.00    -0.000 C 
BRANCH  27  28
ATOM     28  C   UNL     1      88.987 323.170 190.520  1.00  0.00    -0.000 C 
BRANCH  28  29
ATOM     29  C   UNL     1      89.194 323.257 189.000  1.00  0.00    -0.000 C 
BRANCH  29  30
ATOM     30  C   UNL     1      88.725 321.992 188.258  1.00  0.00    -0.000 C 
BRANCH  30  31
ATOM     31  C   UNL     1      87.341 321.470 188.678  1.00  0.00    -0.003 C 
ATOM     32  C   UNL     1      86.203 322.050 187.838  1.00  0.00     0.004 C 
ENDBRANCH  30  31
ENDBRANCH  29  30
ENDBRANCH  28  29
ENDBRANCH  27  28
ENDBRANCH  26  27
ENDBRANCH  25  26
ENDBRANCH  24  25
ENDBRANCH  23  24
ENDBRANCH  22  23
ENDBRANCH  21  22
ENDBRANCH  20  21
ENDBRANCH  19  20
ENDBRANCH  18  19
ENDBRANCH   1  18
TORSDOF 28
ENDMDL
MODEL 9
REMARK VINA RESULT:    -5.855      3.428      9.629
REMARK INTER + INTRA:         -18.645
REMARK INTER:                 -14.469
REMARK INTRA:                  -4.176
REMARK UNBOUND:                -3.206
REMARK SMILES CCCCCCCCCCCCCCCCCCCCCCCCCCCCCC(=O)[O-]
REMARK SMILES IDX 16 1 17 2 18 3 19 4 20 5 21 6 22 7 23 8 24 9 25 10 26 11
REMARK SMILES IDX 27 12 28 13 29 14 30 15 31 16 32 17 15 18 14 19 13 20 12 21
REMARK SMILES IDX 11 22 10 23 9 24 8 25 7 26 6 27 5 28 4 29 3 30 2 31 1 32
REMARK H PARENT
REMARK Flexibility Score: inf
ROOT
ATOM      1  C   UNL     1      87.613 321.394 200.659  1.00  0.00     0.000 C 
ENDROOT
BRANCH   1   2
ATOM      2  C   UNL     1      86.333 321.626 201.485  1.00  0.00     0.000 C 
BRANCH   2   3
ATOM      3  C   UNL     1      85.912 323.107 201.518  1.00  0.00     0.000 C 
BRANCH   3   4
ATOM      4  C   UNL     1      86.586 323.888 202.662  1.00  0.00     0.000 C 
BRANCH   4   5
ATOM      5  C   UNL     1      86.740 323.095 203.973  1.00  0.00     0.000 C 
BRANCH   5   6
ATOM      6  C   UNL     1      86.951 324.008 205.193  1.00  0.00     0.000 C 
BRANCH   6   7
ATOM      7  C   UNL     1      88.250 323.688 205.950  1.00  0.00     0.000 C 
BRANCH   7   8
ATOM      8  C   UNL     1      89.151 324.919 206.132  1.00  0.00     0.000 C 
BRANCH   8   9
ATOM      9  C   UNL     1      88.367 326.213 205.862  1.00  0.00     0.000 C 
BRANCH   9  10
ATOM     10  C   UNL     1      89.037 327.109 204.810  1.00  0.00     0.000 C 
BRANCH  10  11
ATOM     11  C   UNL     1      89.563 326.316 203.599  1.00  0.00     0.000 C 
BRANCH  11  12
ATOM     12  C   UNL     1      89.101 326.914 202.252  1.00  0.00     0.000 C 
BRANCH  12  13
ATOM     13  C   UNL     1      89.211 325.938 201.065  1.00  0.00     0.006 C 
BRANCH  13  14
ATOM     14  C   UNL     1      89.881 324.598 201.404  1.00  0.00     0.053 C 
BRANCH  14  15
ATOM     15  C   UNL     1      91.234 324.461 200.771  1.00  0.00     0.041 C 
ATOM     16  O   UNL     1      91.694 323.322 200.498  1.00  0.00    -0.550 OA
ATOM     17  O   UNL     1      91.997 325.591 200.508  1.00  0.00    -0.550 OA
ENDBRANCH  14  15
ENDBRANCH  13  14
ENDBRANCH  12  13
ENDBRANCH  11  12
ENDBRANCH  10  11
ENDBRANCH   9  10
ENDBRANCH   8   9
ENDBRANCH   7   8
ENDBRANCH   6   7
ENDBRANCH   5   6
ENDBRANCH   4   5
ENDBRANCH   3   4
ENDBRANCH   2   3
ENDBRANCH   1   2
BRANCH   1  18
ATOM     18  C   UNL     1      87.458 321.694 199.155  1.00  0.00     0.000 C 
BRANCH  18  19
ATOM     19  C   UNL     1      88.466 322.747 198.660  1.00  0.00     0.000 C 
BRANCH  19  20
ATOM     20  C   UNL     1      88.518 322.837 197.126  1.00  0.00     0.000 C 
BRANCH  20  21
ATOM     21  C   UNL     1      89.122 324.163 196.628  1.00  0.00     0.000 C 
BRANCH  21  22
ATOM     22  C   UNL     1      88.842 325.340 197.577  1.00  0.00     0.000 C 
BRANCH  22  23
ATOM     23  C   UNL     1      88.362 326.597 196.836  1.00  0.00     0.000 C 
BRANCH  23  24
ATOM     24  C   UNL     1      88.646 326.543 195.324  1.00  0.00    -0.000 C 
BRANCH  24  25
ATOM     25  C   UNL     1      87.442 326.954 194.450  1.00  0.00    -0.000 C 
BRANCH  25  26
ATOM     26  C   UNL     1      86.278 325.954 194.565  1.00  0.00    -0.000 C 
BRANCH  26  27
ATOM     27  C   UNL     1      86.250 324.938 193.413  1.00  0.00    -0.000 C 
BRANCH  27  28
ATOM     28  C   UNL     1      86.935 323.611 193.776  1.00  0.00    -0.000 C 
BRANCH  28  29
ATOM     29  C   UNL     1      88.269 323.457 193.030  1.00  0.00    -0.000 C 
BRANCH  29  30
ATOM     30  C   UNL     1      88.406 324.425 191.841  1.00  0.00    -0.000 C 
BRANCH  30  31
ATOM     31  C   UNL     1      88.088 323.811 190.467  1.00  0.00    -0.003 C 
ATOM     32  C   UNL     1      89.283 323.828 189.514  1.00  0.00     0.004 C 
ENDBRANCH  30  31
ENDBRANCH  29  30
ENDBRANCH  28  29
ENDBRANCH  27  28
ENDBRANCH  26  27
ENDBRANCH  25  26
ENDBRANCH  24  25
ENDBRANCH  23  24
ENDBRANCH  22  23
ENDBRANCH  21  22
ENDBRANCH  20  21
ENDBRANCH  19  20
ENDBRANCH  18  19
ENDBRANCH   1  18
TORSDOF 28
ENDMDL
