MODEL 1
REMARK VINA RESULT:    26.186      0.000      0.000
REMARK INTER + INTRA:          31.192
REMARK INTER:                  31.544
REMARK INTRA:                  -0.353
REMARK UNBOUND:                -0.353
REMARK SMILES Oc1cc(O)c2cc(O)c(-c3ccc(O)c(O)c3)[o+]c2c1.[Cl-]
REMARK SMILES IDX 10 1 19 2 20 3 21 4 2 5 3 6 4 7 6 8 7 9 8 10 11 11 12 12
REMARK SMILES IDX 13 13 14 14 18 15 16 16 15 17 17 19 9 21 1 23 5 25
REMARK H PARENT 15 18 17 20 9 22 1 24 5 26
REMARK Flexibility Score: inf
ROOT
ATOM      1  C   UNL     1      17.708  95.643   8.661  1.00  0.00     0.402 A 
ATOM      2  O   UNL     1      18.369  96.795   8.591  1.00  0.00    -0.202 OA
ATOM      3  C   UNL     1      17.808  97.974   8.836  1.00  0.00     0.368 A 
ATOM      4  C   UNL     1      18.587  99.131   8.740  1.00  0.00     0.162 A 
ATOM      5  C   UNL     1      18.023 100.384   8.995  1.00  0.00     0.128 A 
ATOM      6  C   UNL     1      16.676 100.481   9.350  1.00  0.00     0.093 A 
ATOM      7  C   UNL     1      15.874  99.337   9.453  1.00  0.00     0.136 A 
ATOM      8  C   UNL     1      16.441  98.063   9.192  1.00  0.00     0.125 A 
ATOM      9  C   UNL     1      15.711  96.864   9.258  1.00  0.00     0.078 A 
ATOM     10  C   UNL     1      16.338  95.646   8.983  1.00  0.00     0.223 A 
ENDROOT
BRANCH   1  11
ATOM     11  C   UNL     1      18.447  94.392   8.374  1.00  0.00     0.087 A 
ATOM     12  C   UNL     1      18.576  93.955   7.046  1.00  0.00     0.022 A 
ATOM     13  C   UNL     1      19.286  92.788   6.751  1.00  0.00     0.051 A 
ATOM     14  C   UNL     1      19.891  92.051   7.773  1.00  0.00     0.157 A 
ATOM     15  C   UNL     1      19.074  93.660   9.399  1.00  0.00     0.068 A 
ATOM     16  C   UNL     1      19.789  92.490   9.103  1.00  0.00     0.158 A 
BRANCH  14  17
ATOM     17  O   UNL     1      20.591  90.889   7.447  1.00  0.00    -0.504 OA
ATOM     18  H   UNL     1      21.559  90.911   7.147  1.00  0.00     0.293 HD
ENDBRANCH  14  17
BRANCH  16  19
ATOM     19  O   UNL     1      20.402  91.766  10.125  1.00  0.00    -0.504 OA
ATOM     20  H   UNL     1      19.901  91.057  10.649  1.00  0.00     0.293 HD
ENDBRANCH  16  19
ENDBRANCH   1  11
BRANCH  10  21
ATOM     21  O   UNL     1      15.602  94.461   9.000  1.00  0.00    -0.500 OA
ATOM     22  H   UNL     1      14.619  94.448   9.247  1.00  0.00     0.294 HD
ENDBRANCH  10  21
BRANCH   5  23
ATOM     23  O   UNL     1      18.794 101.541   8.901  1.00  0.00    -0.507 OA
ATOM     24  H   UNL     1      19.730 101.587   9.287  1.00  0.00     0.293 HD
ENDBRANCH   5  23
BRANCH   7  25
ATOM     25  O   UNL     1      14.537  99.520   9.816  1.00  0.00    -0.507 OA
ATOM     26  H   UNL     1      13.771  99.577   9.160  1.00  0.00     0.293 HD
ENDBRANCH   7  25
TORSDOF 6
ENDMDL
MODEL 2
REMARK VINA RESULT:    29.055      2.600      6.167
REMARK INTER + INTRA:          34.647
REMARK INTER:                  34.535
REMARK INTRA:                   0.112
REMARK UNBOUND:                -0.353
REMARK SMILES Oc1cc(O)c2cc(O)c(-c3ccc(O)c(O)c3)[o+]c2c1.[Cl-]
REMARK SMILES IDX 10 1 19 2 20 3 21 4 2 5 3 6 4 7 6 8 7 9 8 10 11 11 12 12
REMARK SMILES IDX 13 13 14 14 18 15 16 16 15 17 17 19 9 21 1 23 5 25
REMARK H PARENT 15 18 17 20 9 22 1 24 5 26
REMARK Flexibility Score: inf
ROOT
ATOM      1  C   UNL     1      17.711  97.534   9.084  1.00  0.00     0.402 A 
ATOM      2  O   UNL     1      16.439  97.671   9.449  1.00  0.00    -0.202 OA
ATOM      3  C   UNL     1      15.547  96.689   9.370  1.00  0.00     0.368 A 
ATOM      4  C   UNL     1      14.233  96.929   9.783  1.00  0.00     0.162 A 
ATOM      5  C   UNL     1      13.276  95.913   9.713  1.00  0.00     0.128 A 
ATOM      6  C   UNL     1      13.634  94.651   9.233  1.00  0.00     0.093 A 
ATOM      7  C   UNL     1      14.944  94.385   8.814  1.00  0.00     0.136 A 
ATOM      8  C   UNL     1      15.919  95.415   8.879  1.00  0.00     0.125 A 
ATOM      9  C   UNL     1      17.252  95.243   8.470  1.00  0.00     0.078 A 
ATOM     10  C   UNL     1      18.155  96.306   8.560  1.00  0.00     0.223 A 
ENDROOT
BRANCH   1  11
ATOM     11  C   UNL     1      18.611  98.701   9.227  1.00  0.00     0.087 A 
ATOM     12  C   UNL     1      18.099  99.995   9.042  1.00  0.00     0.022 A 
ATOM     13  C   UNL     1      18.925 101.111   9.192  1.00  0.00     0.051 A 
ATOM     14  C   UNL     1      20.269 100.954   9.546  1.00  0.00     0.157 A 
ATOM     15  C   UNL     1      19.957  98.546   9.604  1.00  0.00     0.068 A 
ATOM     16  C   UNL     1      20.788  99.666   9.758  1.00  0.00     0.158 A 
BRANCH  14  17
ATOM     17  O   UNL     1      21.070 102.088   9.687  1.00  0.00    -0.504 OA
ATOM     18  H   UNL     1      22.046 102.092   9.417  1.00  0.00     0.293 HD
ENDBRANCH  14  17
BRANCH  16  19
ATOM     19  O   UNL     1      22.123  99.504  10.125  1.00  0.00    -0.504 OA
ATOM     20  H   UNL     1      22.828  99.219   9.453  1.00  0.00     0.293 HD
ENDBRANCH  16  19
ENDBRANCH   1  11
BRANCH  10  21
ATOM     21  O   UNL     1      19.465  96.150   8.107  1.00  0.00    -0.500 OA
ATOM     22  H   UNL     1      19.700  96.215   7.123  1.00  0.00     0.294 HD
ENDBRANCH  10  21
BRANCH   5  23
ATOM     23  O   UNL     1      11.964  96.145  10.122  1.00  0.00    -0.507 OA
ATOM     24  H   UNL     1      11.303  96.631   9.528  1.00  0.00     0.293 HD
ENDBRANCH   5  23
BRANCH   7  25
ATOM     25  O   UNL     1      15.222  93.097   8.349  1.00  0.00    -0.507 OA
ATOM     26  H   UNL     1      15.469  92.318   8.941  1.00  0.00     0.293 HD
ENDBRANCH   7  25
TORSDOF 6
ENDMDL
