MODEL 1
REMARK VINA RESULT:    -4.734      0.000      0.000
REMARK INTER + INTRA:          -7.277
REMARK INTER:                  -6.533
REMARK INTRA:                  -0.745
REMARK UNBOUND:                -0.745
REMARK SMILES OC[C@H](O)C(O)[C@@H](O)CO
REMARK SMILES IDX 5 1 7 2 9 3 10 4 8 6 3 8 2 9 1 10 4 12 6 14
REMARK H PARENT 10 5 8 7 1 11 4 13 6 15
REMARK Flexibility Score: inf
ROOT
ATOM      1  C   UNL     1       1.880  -9.254  -0.453  1.00  0.00     0.176 C 
ENDROOT
BRANCH   1   2
ATOM      2  C   UNL     1       3.205  -9.200   0.362  1.00  0.00     0.171 C 
BRANCH   2   3
ATOM      3  C   UNL     1       3.028  -9.574   1.852  1.00  0.00     0.190 C 
BRANCH   3   4
ATOM      4  O   UNL     1       2.940 -10.962   2.026  1.00  0.00    -0.394 OA
ATOM      5  H   UNL     1       1.975 -11.192   1.999  1.00  0.00     0.210 HD
ENDBRANCH   3   4
ENDBRANCH   2   3
BRANCH   2   6
ATOM      6  O   UNL     1       3.765  -7.914   0.272  1.00  0.00    -0.388 OA
ATOM      7  H   UNL     1       3.553  -7.434   1.116  1.00  0.00     0.211 HD
ENDBRANCH   2   6
ENDBRANCH   1   2
BRANCH   1   8
ATOM      8  C   UNL     1       0.761  -8.297   0.050  1.00  0.00     0.171 C 
BRANCH   8   9
ATOM      9  C   UNL     1      -0.661  -8.691  -0.404  1.00  0.00     0.190 C 
BRANCH   9  10
ATOM     10  O   UNL     1      -1.241  -9.586   0.504  1.00  0.00    -0.394 OA
ATOM     11  H   UNL     1      -0.548 -10.269   0.700  1.00  0.00     0.210 HD
ENDBRANCH   9  10
ENDBRANCH   8   9
BRANCH   8  12
ATOM     12  O   UNL     1       1.045  -6.984  -0.366  1.00  0.00    -0.388 OA
ATOM     13  H   UNL     1       0.473  -6.785  -1.154  1.00  0.00     0.211 HD
ENDBRANCH   8  12
ENDBRANCH   1   8
BRANCH   1  14
ATOM     14  O   UNL     1       1.391 -10.572  -0.465  1.00  0.00    -0.388 OA
ATOM     15  H   UNL     1       0.961 -10.722  -1.347  1.00  0.00     0.211 HD
ENDBRANCH   1  14
TORSDOF 9
ENDMDL
MODEL 2
REMARK VINA RESULT:    -4.497      1.414      4.077
REMARK INTER + INTRA:          -6.950
REMARK INTER:                  -6.157
REMARK INTRA:                  -0.793
REMARK UNBOUND:                -0.745
REMARK SMILES OC[C@H](O)C(O)[C@@H](O)CO
REMARK SMILES IDX 5 1 7 2 9 3 10 4 8 6 3 8 2 9 1 10 4 12 6 14
REMARK H PARENT 10 5 8 7 1 11 4 13 6 15
REMARK Flexibility Score: inf
ROOT
ATOM      1  C   UNL     1       2.453  -9.590   0.055  1.00  0.00     0.176 C 
ENDROOT
BRANCH   1   2
ATOM      2  C   UNL     1       1.118  -8.794  -0.010  1.00  0.00     0.171 C 
BRANCH   2   3
ATOM      3  C   UNL     1       1.288  -7.344  -0.518  1.00  0.00     0.190 C 
BRANCH   3   4
ATOM      4  O   UNL     1       2.322  -6.682   0.159  1.00  0.00    -0.394 OA
ATOM      5  H   UNL     1       2.269  -5.726  -0.105  1.00  0.00     0.210 HD
ENDBRANCH   3   4
ENDBRANCH   2   3
BRANCH   2   6
ATOM      6  O   UNL     1       0.518  -8.771   1.262  1.00  0.00    -0.388 OA
ATOM      7  H   UNL     1       1.151  -8.324   1.884  1.00  0.00     0.211 HD
ENDBRANCH   2   6
ENDBRANCH   1   2
BRANCH   1   8
ATOM      8  C   UNL     1       3.141  -9.607   1.450  1.00  0.00     0.171 C 
BRANCH   8   9
ATOM      9  C   UNL     1       4.664  -9.356   1.409  1.00  0.00     0.190 C 
BRANCH   9  10
ATOM     10  O   UNL     1       4.939  -8.036   1.032  1.00  0.00    -0.394 OA
ATOM     11  H   UNL     1       4.586  -7.932   0.111  1.00  0.00     0.210 HD
ENDBRANCH   9  10
ENDBRANCH   8   9
BRANCH   8  12
ATOM     12  O   UNL     1       2.880 -10.833   2.087  1.00  0.00    -0.388 OA
ATOM     13  H   UNL     1       2.257 -11.348   1.511  1.00  0.00     0.211 HD
ENDBRANCH   8  12
ENDBRANCH   1   8
BRANCH   1  14
ATOM     14  O   UNL     1       3.352  -9.076  -0.898  1.00  0.00    -0.388 OA
ATOM     15  H   UNL     1       3.056  -9.397  -1.789  1.00  0.00     0.211 HD
ENDBRANCH   1  14
TORSDOF 9
ENDMDL
MODEL 3
REMARK VINA RESULT:    -4.472      6.523      8.833
REMARK INTER + INTRA:          -6.916
REMARK INTER:                  -6.391
REMARK INTRA:                  -0.526
REMARK UNBOUND:                -0.745
REMARK SMILES OC[C@H](O)C(O)[C@@H](O)CO
REMARK SMILES IDX 5 1 7 2 9 3 10 4 8 6 3 8 2 9 1 10 4 12 6 14
REMARK H PARENT 10 5 8 7 1 11 4 13 6 15
REMARK Flexibility Score: inf
ROOT
ATOM      1  C   UNL     1      -5.992  -9.203   0.852  1.00  0.00     0.176 C 
ENDROOT
BRANCH   1   2
ATOM      2  C   UNL     1      -7.486  -8.798   1.013  1.00  0.00     0.171 C 
BRANCH   2   3
ATOM      3  C   UNL     1      -8.443  -9.597   0.099  1.00  0.00     0.190 C 
BRANCH   3   4
ATOM      4  O   UNL     1      -9.577 -10.033   0.799  1.00  0.00    -0.394 OA
ATOM      5  H   UNL     1     -10.330  -9.453   0.513  1.00  0.00     0.210 HD
ENDBRANCH   3   4
ENDBRANCH   2   3
BRANCH   2   6
ATOM      6  O   UNL     1      -7.636  -7.425   0.751  1.00  0.00    -0.388 OA
ATOM      7  H   UNL     1      -8.573  -7.275   0.457  1.00  0.00     0.211 HD
ENDBRANCH   2   6
ENDBRANCH   1   2
BRANCH   1   8
ATOM      8  C   UNL     1      -5.083  -8.860   2.067  1.00  0.00     0.171 C 
BRANCH   8   9
ATOM      9  C   UNL     1      -4.127  -7.671   1.829  1.00  0.00     0.190 C 
BRANCH   9  10
ATOM     10  O   UNL     1      -4.846  -6.478   1.690  1.00  0.00    -0.394 OA
ATOM     11  H   UNL     1      -4.172  -5.750   1.667  1.00  0.00     0.210 HD
ENDBRANCH   9  10
ENDBRANCH   8   9
BRANCH   8  12
ATOM     12  O   UNL     1      -4.342  -9.998   2.434  1.00  0.00    -0.388 OA
ATOM     13  H   UNL     1      -3.936 -10.375   1.610  1.00  0.00     0.211 HD
ENDBRANCH   8  12
ENDBRANCH   1   8
BRANCH   1  14
ATOM     14  O   UNL     1      -5.465  -8.598  -0.304  1.00  0.00    -0.388 OA
ATOM     15  H   UNL     1      -6.230  -8.361  -0.891  1.00  0.00     0.211 HD
ENDBRANCH   1  14
TORSDOF 9
ENDMDL
MODEL 4
REMARK VINA RESULT:    -4.450      5.722      7.402
REMARK INTER + INTRA:          -6.886
REMARK INTER:                  -6.174
REMARK INTRA:                  -0.712
REMARK UNBOUND:                -0.745
REMARK SMILES OC[C@H](O)C(O)[C@@H](O)CO
REMARK SMILES IDX 5 1 7 2 9 3 10 4 8 6 3 8 2 9 1 10 4 12 6 14
REMARK H PARENT 10 5 8 7 1 11 4 13 6 15
REMARK Flexibility Score: inf
ROOT
ATOM      1  C   UNL     1      -5.301  -8.691   1.944  1.00  0.00     0.176 C 
ENDROOT
BRANCH   1   2
ATOM      2  C   UNL     1      -3.802  -8.275   1.917  1.00  0.00     0.171 C 
BRANCH   2   3
ATOM      3  C   UNL     1      -3.578  -6.761   2.136  1.00  0.00     0.190 C 
BRANCH   3   4
ATOM      4  O   UNL     1      -3.567  -6.436   3.500  1.00  0.00    -0.394 OA
ATOM      5  H   UNL     1      -2.938  -7.066   3.938  1.00  0.00     0.210 HD
ENDBRANCH   3   4
ENDBRANCH   2   3
BRANCH   2   6
ATOM      6  O   UNL     1      -3.227  -8.653   0.691  1.00  0.00    -0.388 OA
ATOM      7  H   UNL     1      -2.959  -7.822   0.215  1.00  0.00     0.211 HD
ENDBRANCH   2   6
ENDBRANCH   1   2
BRANCH   1   8
ATOM      8  C   UNL     1      -6.030  -8.609   0.572  1.00  0.00     0.171 C 
BRANCH   8   9
ATOM      9  C   UNL     1      -7.550  -8.357   0.676  1.00  0.00     0.190 C 
BRANCH   9  10
ATOM     10  O   UNL     1      -8.156  -9.318   1.495  1.00  0.00    -0.394 OA
ATOM     11  H   UNL     1      -8.765  -8.821   2.101  1.00  0.00     0.210 HD
ENDBRANCH   9  10
ENDBRANCH   8   9
BRANCH   8  12
ATOM     12  O   UNL     1      -5.794  -9.789  -0.156  1.00  0.00    -0.388 OA
ATOM     13  H   UNL     1      -4.817  -9.966  -0.139  1.00  0.00     0.211 HD
ENDBRANCH   8  12
ENDBRANCH   1   8
BRANCH   1  14
ATOM     14  O   UNL     1      -5.989  -7.901   2.882  1.00  0.00    -0.388 OA
ATOM     15  H   UNL     1      -5.694  -8.187   3.786  1.00  0.00     0.211 HD
ENDBRANCH   1  14
TORSDOF 9
ENDMDL
MODEL 5
REMARK VINA RESULT:    -4.448      4.728      7.282
REMARK INTER + INTRA:          -6.883
REMARK INTER:                  -6.275
REMARK INTRA:                  -0.608
REMARK UNBOUND:                -0.745
REMARK SMILES OC[C@H](O)C(O)[C@@H](O)CO
REMARK SMILES IDX 5 1 7 2 9 3 10 4 8 6 3 8 2 9 1 10 4 12 6 14
REMARK H PARENT 10 5 8 7 1 11 4 13 6 15
REMARK Flexibility Score: inf
ROOT
ATOM      1  C   UNL     1      -4.798  -8.694   2.351  1.00  0.00     0.176 C 
ENDROOT
BRANCH   1   2
ATOM      2  C   UNL     1      -6.168  -8.292   1.732  1.00  0.00     0.171 C 
BRANCH   2   3
ATOM      3  C   UNL     1      -6.395  -8.864   0.313  1.00  0.00     0.190 C 
BRANCH   3   4
ATOM      4  O   UNL     1      -5.324  -8.561  -0.540  1.00  0.00    -0.394 OA
ATOM      5  H   UNL     1      -5.272  -7.571  -0.591  1.00  0.00     0.210 HD
ENDBRANCH   3   4
ENDBRANCH   2   3
BRANCH   2   6
ATOM      6  O   UNL     1      -6.275  -6.891   1.687  1.00  0.00    -0.388 OA
ATOM      7  H   UNL     1      -6.263  -6.559   2.623  1.00  0.00     0.211 HD
ENDBRANCH   2   6
ENDBRANCH   1   2
BRANCH   1   8
ATOM      8  C   UNL     1      -3.643  -7.681   2.104  1.00  0.00     0.171 C 
BRANCH   8   9
ATOM      9  C   UNL     1      -2.285  -8.337   1.768  1.00  0.00     0.190 C 
BRANCH   9  10
ATOM     10  O   UNL     1      -1.778  -9.023   2.878  1.00  0.00    -0.394 OA
ATOM     11  H   UNL     1      -2.271  -8.676   3.666  1.00  0.00     0.210 HD
ENDBRANCH   9  10
ENDBRANCH   8   9
BRANCH   8  12
ATOM     12  O   UNL     1      -3.501  -6.848   3.227  1.00  0.00    -0.388 OA
ATOM     13  H   UNL     1      -2.629  -6.379   3.151  1.00  0.00     0.211 HD
ENDBRANCH   8  12
ENDBRANCH   1   8
BRANCH   1  14
ATOM     14  O   UNL     1      -4.416  -9.958   1.864  1.00  0.00    -0.388 OA
ATOM     15  H   UNL     1      -4.010  -9.822   0.968  1.00  0.00     0.211 HD
ENDBRANCH   1  14
TORSDOF 9
ENDMDL
MODEL 6
REMARK VINA RESULT:    -4.424      2.280      3.894
REMARK INTER + INTRA:          -6.849
REMARK INTER:                  -6.150
REMARK INTRA:                  -0.699
REMARK UNBOUND:                -0.745
REMARK SMILES OC[C@H](O)C(O)[C@@H](O)CO
REMARK SMILES IDX 5 1 7 2 9 3 10 4 8 6 3 8 2 9 1 10 4 12 6 14
REMARK H PARENT 10 5 8 7 1 11 4 13 6 15
REMARK Flexibility Score: inf
ROOT
ATOM      1  C   UNL     1       2.010  -7.183  -0.502  1.00  0.00     0.176 C 
ENDROOT
BRANCH   1   2
ATOM      2  C   UNL     1       2.696  -5.945  -1.149  1.00  0.00     0.171 C 
BRANCH   2   3
ATOM      3  C   UNL     1       3.406  -6.262  -2.485  1.00  0.00     0.190 C 
BRANCH   3   4
ATOM      4  O   UNL     1       2.501  -6.286  -3.555  1.00  0.00    -0.394 OA
ATOM      5  H   UNL     1       1.646  -6.641  -3.197  1.00  0.00     0.210 HD
ENDBRANCH   3   4
ENDBRANCH   2   3
BRANCH   2   6
ATOM      6  O   UNL     1       3.628  -5.396  -0.250  1.00  0.00    -0.388 OA
ATOM      7  H   UNL     1       3.303  -4.492   0.004  1.00  0.00     0.211 HD
ENDBRANCH   2   6
ENDBRANCH   1   2
BRANCH   1   8
ATOM      8  C   UNL     1       2.912  -8.444  -0.378  1.00  0.00     0.171 C 
BRANCH   8   9
ATOM      9  C   UNL     1       2.226  -9.651   0.300  1.00  0.00     0.190 C 
BRANCH   9  10
ATOM     10  O   UNL     1       1.376 -10.306  -0.599  1.00  0.00    -0.394 OA
ATOM     11  H   UNL     1       1.963 -10.830  -1.203  1.00  0.00     0.210 HD
ENDBRANCH   9  10
ENDBRANCH   8   9
BRANCH   8  12
ATOM     12  O   UNL     1       4.087  -8.114   0.320  1.00  0.00    -0.388 OA
ATOM     13  H   UNL     1       4.620  -7.504  -0.254  1.00  0.00     0.211 HD
ENDBRANCH   8  12
ENDBRANCH   1   8
BRANCH   1  14
ATOM     14  O   UNL     1       0.853  -7.512  -1.232  1.00  0.00    -0.388 OA
ATOM     15  H   UNL     1       0.460  -6.663  -1.565  1.00  0.00     0.211 HD
ENDBRANCH   1  14
TORSDOF 9
ENDMDL
MODEL 7
REMARK VINA RESULT:    -4.385      4.920      6.737
REMARK INTER + INTRA:          -6.795
REMARK INTER:                  -6.303
REMARK INTRA:                  -0.492
REMARK UNBOUND:                -0.745
REMARK SMILES OC[C@H](O)C(O)[C@@H](O)CO
REMARK SMILES IDX 5 1 7 2 9 3 10 4 8 6 3 8 2 9 1 10 4 12 6 14
REMARK H PARENT 10 5 8 7 1 11 4 13 6 15
REMARK Flexibility Score: inf
ROOT
ATOM      1  C   UNL     1      -4.696  -8.554   1.734  1.00  0.00     0.176 C 
ENDROOT
BRANCH   1   2
ATOM      2  C   UNL     1      -3.450  -7.635   1.893  1.00  0.00     0.171 C 
BRANCH   2   3
ATOM      3  C   UNL     1      -2.108  -8.376   1.693  1.00  0.00     0.190 C 
BRANCH   3   4
ATOM      4  O   UNL     1      -1.668  -8.972   2.884  1.00  0.00    -0.394 OA
ATOM      5  H   UNL     1      -0.890  -9.541   2.648  1.00  0.00     0.210 HD
ENDBRANCH   3   4
ENDBRANCH   2   3
BRANCH   2   6
ATOM      6  O   UNL     1      -3.462  -7.037   3.166  1.00  0.00    -0.388 OA
ATOM      7  H   UNL     1      -2.900  -6.219   3.118  1.00  0.00     0.211 HD
ENDBRANCH   2   6
ENDBRANCH   1   2
BRANCH   1   8
ATOM      8  C   UNL     1      -6.062  -7.860   2.001  1.00  0.00     0.171 C 
BRANCH   8   9
ATOM      9  C   UNL     1      -7.177  -8.252   1.006  1.00  0.00     0.190 C 
BRANCH   9  10
ATOM     10  O   UNL     1      -7.970  -9.279   1.530  1.00  0.00    -0.394 OA
ATOM     11  H   UNL     1      -8.893  -8.918   1.581  1.00  0.00     0.210 HD
ENDBRANCH   9  10
ENDBRANCH   8   9
BRANCH   8  12
ATOM     12  O   UNL     1      -5.889  -6.465   1.993  1.00  0.00    -0.388 OA
ATOM     13  H   UNL     1      -6.667  -6.059   2.459  1.00  0.00     0.211 HD
ENDBRANCH   8  12
ENDBRANCH   1   8
BRANCH   1  14
ATOM     14  O   UNL     1      -4.569  -9.667   2.585  1.00  0.00    -0.388 OA
ATOM     15  H   UNL     1      -5.093  -9.476   3.406  1.00  0.00     0.211 HD
ENDBRANCH   1  14
TORSDOF 9
ENDMDL
MODEL 8
REMARK VINA RESULT:    -4.330      6.369      7.998
REMARK INTER + INTRA:          -6.719
REMARK INTER:                  -5.956
REMARK INTRA:                  -0.763
REMARK UNBOUND:                -0.745
REMARK SMILES OC[C@H](O)C(O)[C@@H](O)CO
REMARK SMILES IDX 5 1 7 2 9 3 10 4 8 6 3 8 2 9 1 10 4 12 6 14
REMARK H PARENT 10 5 8 7 1 11 4 13 6 15
REMARK Flexibility Score: inf
ROOT
ATOM      1  C   UNL     1      -4.350  -6.447   2.596  1.00  0.00     0.176 C 
ENDROOT
BRANCH   1   2
ATOM      2  C   UNL     1      -4.934  -5.128   3.180  1.00  0.00     0.171 C 
BRANCH   2   3
ATOM      3  C   UNL     1      -5.697  -5.328   4.510  1.00  0.00     0.190 C 
BRANCH   3   4
ATOM      4  O   UNL     1      -4.818  -5.575   5.574  1.00  0.00    -0.394 OA
ATOM      5  H   UNL     1      -4.633  -4.699   6.001  1.00  0.00     0.210 HD
ENDBRANCH   3   4
ENDBRANCH   2   3
BRANCH   2   6
ATOM      6  O   UNL     1      -5.794  -4.534   2.240  1.00  0.00    -0.388 OA
ATOM      7  H   UNL     1      -6.435  -5.230   1.936  1.00  0.00     0.211 HD
ENDBRANCH   2   6
ENDBRANCH   1   2
BRANCH   1   8
ATOM      8  C   UNL     1      -5.345  -7.642   2.547  1.00  0.00     0.171 C 
BRANCH   8   9
ATOM      9  C   UNL     1      -4.702  -8.987   2.145  1.00  0.00     0.190 C 
BRANCH   9  10
ATOM     10  O   UNL     1      -3.652  -8.783   1.241  1.00  0.00    -0.394 OA
ATOM     11  H   UNL     1      -3.739  -9.491   0.551  1.00  0.00     0.210 HD
ENDBRANCH   9  10
ENDBRANCH   8   9
BRANCH   8  12
ATOM     12  O   UNL     1      -6.399  -7.339   1.667  1.00  0.00    -0.388 OA
ATOM     13  H   UNL     1      -6.255  -6.417   1.326  1.00  0.00     0.211 HD
ENDBRANCH   8  12
ENDBRANCH   1   8
BRANCH   1  14
ATOM     14  O   UNL     1      -3.212  -6.822   3.334  1.00  0.00    -0.388 OA
ATOM     15  H   UNL     1      -2.771  -5.989   3.645  1.00  0.00     0.211 HD
ENDBRANCH   1  14
TORSDOF 9
ENDMDL
MODEL 9
REMARK VINA RESULT:    -4.301      8.014     10.933
REMARK INTER + INTRA:          -6.680
REMARK INTER:                  -6.414
REMARK INTRA:                  -0.266
REMARK UNBOUND:                -0.745
REMARK SMILES OC[C@H](O)C(O)[C@@H](O)CO
REMARK SMILES IDX 5 1 7 2 9 3 10 4 8 6 3 8 2 9 1 10 4 12 6 14
REMARK H PARENT 10 5 8 7 1 11 4 13 6 15
REMARK Flexibility Score: inf
ROOT
ATOM      1  C   UNL     1      -9.085  -9.871  -0.393  1.00  0.00     0.176 C 
ENDROOT
BRANCH   1   2
ATOM      2  C   UNL     1      -8.775 -11.144  -1.233  1.00  0.00     0.171 C 
BRANCH   2   3
ATOM      3  C   UNL     1      -9.500 -11.174  -2.598  1.00  0.00     0.190 C 
BRANCH   3   4
ATOM      4  O   UNL     1     -10.625 -10.337  -2.600  1.00  0.00    -0.394 OA
ATOM      5  H   UNL     1     -10.355  -9.494  -2.151  1.00  0.00     0.210 HD
ENDBRANCH   3   4
ENDBRANCH   2   3
BRANCH   2   6
ATOM      6  O   UNL     1      -9.125 -12.292  -0.500  1.00  0.00    -0.388 OA
ATOM      7  H   UNL     1      -8.571 -12.301   0.325  1.00  0.00     0.211 HD
ENDBRANCH   2   6
ENDBRANCH   1   2
BRANCH   1   8
ATOM      8  C   UNL     1      -7.848  -9.211   0.281  1.00  0.00     0.171 C 
BRANCH   8   9
ATOM      9  C   UNL     1      -6.497  -9.846  -0.113  1.00  0.00     0.190 C 
BRANCH   9  10
ATOM     10  O   UNL     1      -5.581  -8.860  -0.500  1.00  0.00    -0.394 OA
ATOM     11  H   UNL     1      -6.031  -8.325  -1.204  1.00  0.00     0.210 HD
ENDBRANCH   9  10
ENDBRANCH   8   9
BRANCH   8  12
ATOM     12  O   UNL     1      -8.000  -9.250   1.679  1.00  0.00    -0.388 OA
ATOM     13  H   UNL     1      -8.082 -10.202   1.950  1.00  0.00     0.211 HD
ENDBRANCH   8  12
ENDBRANCH   1   8
BRANCH   1  14
ATOM     14  O   UNL     1     -10.039 -10.181   0.593  1.00  0.00    -0.388 OA
ATOM     15  H   UNL     1     -10.779  -9.526   0.507  1.00  0.00     0.211 HD
ENDBRANCH   1  14
TORSDOF 9
ENDMDL
