MODEL 1
REMARK VINA RESULT:    -1.870      0.000      0.000
REMARK INTER + INTRA:          -4.971
REMARK INTER:                  -3.182
REMARK INTRA:                  -1.789
REMARK UNBOUND:                -1.789
REMARK SMILES CCCCCCCCCCCCCC(=O)[O-]
REMARK SMILES IDX 8 1 9 2 10 3 11 4 12 5 13 6 14 7 15 8 16 9 7 10 6 11 5 12
REMARK SMILES IDX 4 13 3 14 2 15 1 16
REMARK H PARENT
REMARK Flexibility Score: inf
ROOT
ATOM      1  C   UNL     1     -33.688 -32.796  14.561  1.00  0.00     0.000 C 
ENDROOT
BRANCH   1   2
ATOM      2  C   UNL     1     -34.441 -33.527  15.685  1.00  0.00     0.000 C 
BRANCH   2   3
ATOM      3  C   UNL     1     -34.673 -35.015  15.369  1.00  0.00     0.000 C 
BRANCH   3   4
ATOM      4  C   UNL     1     -33.968 -35.948  16.368  1.00  0.00     0.000 C 
BRANCH   4   5
ATOM      5  C   UNL     1     -32.436 -35.923  16.222  1.00  0.00     0.006 C 
BRANCH   5   6
ATOM      6  C   UNL     1     -31.740 -35.462  17.510  1.00  0.00     0.053 C 
BRANCH   6   7
ATOM      7  C   UNL     1     -30.882 -34.258  17.278  1.00  0.00     0.041 C 
ATOM      8  O   UNL     1     -30.431 -33.601  18.254  1.00  0.00    -0.550 OA
ATOM      9  O   UNL     1     -30.603 -33.842  15.982  1.00  0.00    -0.550 OA
ENDBRANCH   6   7
ENDBRANCH   5   6
ENDBRANCH   4   5
ENDBRANCH   3   4
ENDBRANCH   2   3
ENDBRANCH   1   2
BRANCH   1  10
ATOM     10  C   UNL     1     -34.626 -32.028  13.619  1.00  0.00     0.000 C 
BRANCH  10  11
ATOM     11  C   UNL     1     -34.638 -32.661  12.222  1.00  0.00    -0.000 C 
BRANCH  11  12
ATOM     12  C   UNL     1     -33.382 -33.509  11.989  1.00  0.00    -0.000 C 
BRANCH  12  13
ATOM     13  C   UNL     1     -33.736 -34.999  11.880  1.00  0.00    -0.000 C 
BRANCH  13  14
ATOM     14  C   UNL     1     -32.641 -35.911  12.453  1.00  0.00    -0.000 C 
BRANCH  14  15
ATOM     15  C   UNL     1     -31.337 -35.157  12.752  1.00  0.00    -0.003 C 
ATOM     16  C   UNL     1     -30.226 -36.118  13.162  1.00  0.00     0.004 C 
ENDBRANCH  14  15
ENDBRANCH  13  14
ENDBRANCH  12  13
ENDBRANCH  11  12
ENDBRANCH  10  11
ENDBRANCH   1  10
TORSDOF 12
ENDMDL
MODEL 2
REMARK VINA RESULT:    -1.767      2.079      3.260
REMARK INTER + INTRA:          -4.796
REMARK INTER:                  -2.762
REMARK INTRA:                  -2.035
REMARK UNBOUND:                -1.789
REMARK SMILES CCCCCCCCCCCCCC(=O)[O-]
REMARK SMILES IDX 8 1 9 2 10 3 11 4 12 5 13 6 14 7 15 8 16 9 7 10 6 11 5 12
REMARK SMILES IDX 4 13 3 14 2 15 1 16
REMARK H PARENT
REMARK Flexibility Score: inf
ROOT
ATOM      1  C   UNL     1     -33.486 -35.814  15.844  1.00  0.00     0.000 C 
ENDROOT
BRANCH   1   2
ATOM      2  C   UNL     1     -32.076 -35.713  16.451  1.00  0.00     0.000 C 
BRANCH   2   3
ATOM      3  C   UNL     1     -31.452 -34.319  16.263  1.00  0.00     0.000 C 
BRANCH   3   4
ATOM      4  C   UNL     1     -29.984 -34.264  16.718  1.00  0.00     0.000 C 
BRANCH   4   5
ATOM      5  C   UNL     1     -29.126 -33.334  15.843  1.00  0.00     0.006 C 
BRANCH   5   6
ATOM      6  C   UNL     1     -29.976 -32.515  14.862  1.00  0.00     0.053 C 
BRANCH   6   7
ATOM      7  C   UNL     1     -29.950 -31.054  15.188  1.00  0.00     0.041 C 
ATOM      8  O   UNL     1     -29.981 -30.197  14.266  1.00  0.00    -0.550 OA
ATOM      9  O   UNL     1     -29.861 -30.639  16.511  1.00  0.00    -0.550 OA
ENDBRANCH   6   7
ENDBRANCH   5   6
ENDBRANCH   4   5
ENDBRANCH   3   4
ENDBRANCH   2   3
ENDBRANCH   1   2
BRANCH   1  10
ATOM     10  C   UNL     1     -33.948 -34.503  15.191  1.00  0.00     0.000 C 
BRANCH  10  11
ATOM     11  C   UNL     1     -34.600 -34.769  13.829  1.00  0.00    -0.000 C 
BRANCH  11  12
ATOM     12  C   UNL     1     -33.681 -35.606  12.931  1.00  0.00    -0.000 C 
BRANCH  12  13
ATOM     13  C   UNL     1     -32.854 -34.707  12.001  1.00  0.00    -0.000 C 
BRANCH  13  14
ATOM     14  C   UNL     1     -31.343 -34.827  12.251  1.00  0.00    -0.000 C 
BRANCH  14  15
ATOM     15  C   UNL     1     -30.965 -36.121  12.989  1.00  0.00    -0.003 C 
ATOM     16  C   UNL     1     -29.498 -36.108  13.406  1.00  0.00     0.004 C 
ENDBRANCH  14  15
ENDBRANCH  13  14
ENDBRANCH  12  13
ENDBRANCH  11  12
ENDBRANCH  10  11
ENDBRANCH   1  10
TORSDOF 12
ENDMDL
MODEL 3
REMARK VINA RESULT:    -1.696      1.690      4.272
REMARK INTER + INTRA:          -4.676
REMARK INTER:                  -2.785
REMARK INTRA:                  -1.890
REMARK UNBOUND:                -1.789
REMARK SMILES CCCCCCCCCCCCCC(=O)[O-]
REMARK SMILES IDX 8 1 9 2 10 3 11 4 12 5 13 6 14 7 15 8 16 9 7 10 6 11 5 12
REMARK SMILES IDX 4 13 3 14 2 15 1 16
REMARK H PARENT
REMARK Flexibility Score: inf
ROOT
ATOM      1  C   UNL     1     -33.791 -36.125  14.752  1.00  0.00     0.000 C 
ENDROOT
BRANCH   1   2
ATOM      2  C   UNL     1     -34.556 -35.186  13.803  1.00  0.00     0.000 C 
BRANCH   2   3
ATOM      3  C   UNL     1     -33.849 -35.014  12.447  1.00  0.00     0.000 C 
BRANCH   3   4
ATOM      4  C   UNL     1     -32.571 -35.863  12.336  1.00  0.00     0.000 C 
BRANCH   4   5
ATOM      5  C   UNL     1     -31.291 -35.010  12.343  1.00  0.00     0.006 C 
BRANCH   5   6
ATOM      6  C   UNL     1     -30.146 -35.690  13.106  1.00  0.00     0.053 C 
BRANCH   6   7
ATOM      7  C   UNL     1     -29.269 -34.694  13.798  1.00  0.00     0.041 C 
ATOM      8  O   UNL     1     -28.938 -34.866  15.001  1.00  0.00    -0.550 OA
ATOM      9  O   UNL     1     -28.838 -33.559  13.122  1.00  0.00    -0.550 OA
ENDBRANCH   6   7
ENDBRANCH   5   6
ENDBRANCH   4   5
ENDBRANCH   3   4
ENDBRANCH   2   3
ENDBRANCH   1   2
BRANCH   1  10
ATOM     10  C   UNL     1     -34.283 -36.032  16.204  1.00  0.00     0.000 C 
BRANCH  10  11
ATOM     11  C   UNL     1     -33.283 -35.258  17.072  1.00  0.00    -0.000 C 
BRANCH  11  12
ATOM     12  C   UNL     1     -32.237 -34.545  16.207  1.00  0.00    -0.000 C 
BRANCH  12  13
ATOM     13  C   UNL     1     -32.495 -33.031  16.168  1.00  0.00    -0.000 C 
BRANCH  13  14
ATOM     14  C   UNL     1     -31.451 -32.274  15.332  1.00  0.00    -0.000 C 
BRANCH  14  15
ATOM     15  C   UNL     1     -32.004 -31.807  13.977  1.00  0.00    -0.003 C 
ATOM     16  C   UNL     1     -33.509 -31.571  14.048  1.00  0.00     0.004 C 
ENDBRANCH  14  15
ENDBRANCH  13  14
ENDBRANCH  12  13
ENDBRANCH  11  12
ENDBRANCH  10  11
ENDBRANCH   1  10
TORSDOF 12
ENDMDL
MODEL 4
REMARK VINA RESULT:    -1.680      2.006      4.049
REMARK INTER + INTRA:          -4.648
REMARK INTER:                  -3.012
REMARK INTRA:                  -1.636
REMARK UNBOUND:                -1.789
REMARK SMILES CCCCCCCCCCCCCC(=O)[O-]
REMARK SMILES IDX 8 1 9 2 10 3 11 4 12 5 13 6 14 7 15 8 16 9 7 10 6 11 5 12
REMARK SMILES IDX 4 13 3 14 2 15 1 16
REMARK H PARENT
REMARK Flexibility Score: inf
ROOT
ATOM      1  C   UNL     1     -32.483 -34.659  11.904  1.00  0.00     0.000 C 
ENDROOT
BRANCH   1   2
ATOM      2  C   UNL     1     -34.019 -34.691  11.977  1.00  0.00     0.000 C 
BRANCH   2   3
ATOM      3  C   UNL     1     -34.582 -33.688  13.000  1.00  0.00     0.000 C 
BRANCH   3   4
ATOM      4  C   UNL     1     -34.257 -34.080  14.451  1.00  0.00     0.000 C 
BRANCH   4   5
ATOM      5  C   UNL     1     -34.700 -35.514  14.791  1.00  0.00     0.006 C 
BRANCH   5   6
ATOM      6  C   UNL     1     -33.863 -36.124  15.924  1.00  0.00     0.053 C 
BRANCH   6   7
ATOM      7  C   UNL     1     -33.997 -35.347  17.196  1.00  0.00     0.041 C 
ATOM      8  O   UNL     1     -33.081 -34.564  17.563  1.00  0.00    -0.550 OA
ATOM      9  O   UNL     1     -35.124 -35.508  17.994  1.00  0.00    -0.550 OA
ENDBRANCH   6   7
ENDBRANCH   5   6
ENDBRANCH   4   5
ENDBRANCH   3   4
ENDBRANCH   2   3
ENDBRANCH   1   2
BRANCH   1  10
ATOM     10  C   UNL     1     -31.841 -35.987  12.332  1.00  0.00     0.000 C 
BRANCH  10  11
ATOM     11  C   UNL     1     -30.841 -35.769  13.475  1.00  0.00    -0.000 C 
BRANCH  11  12
ATOM     12  C   UNL     1     -30.485 -34.284  13.621  1.00  0.00    -0.000 C 
BRANCH  12  13
ATOM     13  C   UNL     1     -30.628 -33.826  15.080  1.00  0.00    -0.000 C 
BRANCH  13  14
ATOM     14  C   UNL     1     -29.499 -32.879  15.516  1.00  0.00    -0.000 C 
BRANCH  14  15
ATOM     15  C   UNL     1     -28.786 -33.356  16.791  1.00  0.00    -0.003 C 
ATOM     16  C   UNL     1     -29.487 -34.569  17.392  1.00  0.00     0.004 C 
ENDBRANCH  14  15
ENDBRANCH  13  14
ENDBRANCH  12  13
ENDBRANCH  11  12
ENDBRANCH  10  11
ENDBRANCH   1  10
TORSDOF 12
ENDMDL
MODEL 5
REMARK VINA RESULT:    -1.647     22.747     25.125
REMARK INTER + INTRA:          -4.592
REMARK INTER:                  -2.698
REMARK INTRA:                  -1.894
REMARK UNBOUND:                -1.789
REMARK SMILES CCCCCCCCCCCCCC(=O)[O-]
REMARK SMILES IDX 8 1 9 2 10 3 11 4 12 5 13 6 14 7 15 8 16 9 7 10 6 11 5 12
REMARK SMILES IDX 4 13 3 14 2 15 1 16
REMARK H PARENT
REMARK Flexibility Score: inf
ROOT
ATOM      1  C   UNL     1     -16.063 -23.037  31.700  1.00  0.00     0.000 C 
ENDROOT
BRANCH   1   2
ATOM      2  C   UNL     1     -17.389 -23.755  31.396  1.00  0.00     0.000 C 
BRANCH   2   3
ATOM      3  C   UNL     1     -18.593 -22.797  31.397  1.00  0.00     0.000 C 
BRANCH   3   4
ATOM      4  C   UNL     1     -18.190 -21.345  31.708  1.00  0.00     0.000 C 
BRANCH   4   5
ATOM      5  C   UNL     1     -19.402 -20.443  32.001  1.00  0.00     0.006 C 
BRANCH   5   6
ATOM      6  C   UNL     1     -20.721 -21.079  31.541  1.00  0.00     0.053 C 
BRANCH   6   7
ATOM      7  C   UNL     1     -21.776 -20.049  31.286  1.00  0.00     0.041 C 
ATOM      8  O   UNL     1     -22.866 -20.376  30.745  1.00  0.00    -0.550 OA
ATOM      9  O   UNL     1     -21.546 -18.720  31.619  1.00  0.00    -0.550 OA
ENDBRANCH   6   7
ENDBRANCH   5   6
ENDBRANCH   4   5
ENDBRANCH   3   4
ENDBRANCH   2   3
ENDBRANCH   1   2
BRANCH   1  10
ATOM     10  C   UNL     1     -14.876 -23.626  30.923  1.00  0.00     0.000 C 
BRANCH  10  11
ATOM     11  C   UNL     1     -14.876 -23.137  29.470  1.00  0.00    -0.000 C 
BRANCH  11  12
ATOM     12  C   UNL     1     -15.366 -21.687  29.375  1.00  0.00    -0.000 C 
BRANCH  12  13
ATOM     13  C   UNL     1     -16.435 -21.538  28.282  1.00  0.00    -0.000 C 
BRANCH  13  14
ATOM     14  C   UNL     1     -16.952 -22.891  27.771  1.00  0.00    -0.000 C 
BRANCH  14  15
ATOM     15  C   UNL     1     -18.484 -22.947  27.688  1.00  0.00    -0.003 C 
ATOM     16  C   UNL     1     -19.101 -21.580  27.966  1.00  0.00     0.004 C 
ENDBRANCH  14  15
ENDBRANCH  13  14
ENDBRANCH  12  13
ENDBRANCH  11  12
ENDBRANCH  10  11
ENDBRANCH   1  10
TORSDOF 12
ENDMDL
MODEL 6
REMARK VINA RESULT:    -1.614     22.905     24.686
REMARK INTER + INTRA:          -4.536
REMARK INTER:                  -2.678
REMARK INTRA:                  -1.858
REMARK UNBOUND:                -1.789
REMARK SMILES CCCCCCCCCCCCCC(=O)[O-]
REMARK SMILES IDX 8 1 9 2 10 3 11 4 12 5 13 6 14 7 15 8 16 9 7 10 6 11 5 12
REMARK SMILES IDX 4 13 3 14 2 15 1 16
REMARK H PARENT
REMARK Flexibility Score: inf
ROOT
ATOM      1  C   UNL     1     -18.151 -25.044  29.516  1.00  0.00     0.000 C 
ENDROOT
BRANCH   1   2
ATOM      2  C   UNL     1     -19.008 -25.566  30.681  1.00  0.00     0.000 C 
BRANCH   2   3
ATOM      3  C   UNL     1     -19.805 -24.448  31.375  1.00  0.00     0.000 C 
BRANCH   3   4
ATOM      4  C   UNL     1     -19.554 -23.067  30.745  1.00  0.00     0.000 C 
BRANCH   4   5
ATOM      5  C   UNL     1     -19.816 -21.911  31.726  1.00  0.00     0.006 C 
BRANCH   5   6
ATOM      6  C   UNL     1     -20.510 -20.723  31.047  1.00  0.00     0.053 C 
BRANCH   6   7
ATOM      7  C   UNL     1     -21.372 -21.160  29.904  1.00  0.00     0.041 C 
ATOM      8  O   UNL     1     -22.480 -21.718  30.122  1.00  0.00    -0.550 OA
ATOM      9  O   UNL     1     -20.939 -20.978  28.597  1.00  0.00    -0.550 OA
ENDBRANCH   6   7
ENDBRANCH   5   6
ENDBRANCH   4   5
ENDBRANCH   3   4
ENDBRANCH   2   3
ENDBRANCH   1   2
BRANCH   1  10
ATOM     10  C   UNL     1     -16.666 -25.412  29.659  1.00  0.00     0.000 C 
BRANCH  10  11
ATOM     11  C   UNL     1     -16.211 -25.297  31.119  1.00  0.00    -0.000 C 
BRANCH  11  12
ATOM     12  C   UNL     1     -15.297 -24.081  31.318  1.00  0.00    -0.000 C 
BRANCH  12  13
ATOM     13  C   UNL     1     -16.007 -22.985  32.125  1.00  0.00    -0.000 C 
BRANCH  13  14
ATOM     14  C   UNL     1     -16.236 -21.704  31.308  1.00  0.00    -0.000 C 
BRANCH  14  15
ATOM     15  C   UNL     1     -15.616 -21.777  29.905  1.00  0.00    -0.003 C 
ATOM     16  C   UNL     1     -16.663 -21.518  28.826  1.00  0.00     0.004 C 
ENDBRANCH  14  15
ENDBRANCH  13  14
ENDBRANCH  12  13
ENDBRANCH  11  12
ENDBRANCH  10  11
ENDBRANCH   1  10
TORSDOF 12
ENDMDL
MODEL 7
REMARK VINA RESULT:    -1.609      2.204      4.408
REMARK INTER + INTRA:          -4.526
REMARK INTER:                  -3.047
REMARK INTRA:                  -1.479
REMARK UNBOUND:                -1.789
REMARK SMILES CCCCCCCCCCCCCC(=O)[O-]
REMARK SMILES IDX 8 1 9 2 10 3 11 4 12 5 13 6 14 7 15 8 16 9 7 10 6 11 5 12
REMARK SMILES IDX 4 13 3 14 2 15 1 16
REMARK H PARENT
REMARK Flexibility Score: inf
ROOT
ATOM      1  C   UNL     1     -33.062 -34.526  16.085  1.00  0.00     0.000 C 
ENDROOT
BRANCH   1   2
ATOM      2  C   UNL     1     -34.577 -34.630  15.843  1.00  0.00     0.000 C 
BRANCH   2   3
ATOM      3  C   UNL     1     -34.915 -35.149  14.434  1.00  0.00     0.000 C 
BRANCH   3   4
ATOM      4  C   UNL     1     -33.855 -36.125  13.895  1.00  0.00     0.000 C 
BRANCH   4   5
ATOM      5  C   UNL     1     -33.471 -35.836  12.433  1.00  0.00     0.006 C 
BRANCH   5   6
ATOM      6  C   UNL     1     -32.093 -35.170  12.318  1.00  0.00     0.053 C 
BRANCH   6   7
ATOM      7  C   UNL     1     -32.185 -33.679  12.420  1.00  0.00     0.041 C 
ATOM      8  O   UNL     1     -33.224 -33.079  12.035  1.00  0.00    -0.550 OA
ATOM      9  O   UNL     1     -31.112 -32.948  12.914  1.00  0.00    -0.550 OA
ENDBRANCH   6   7
ENDBRANCH   5   6
ENDBRANCH   4   5
ENDBRANCH   3   4
ENDBRANCH   2   3
ENDBRANCH   1   2
BRANCH   1  10
ATOM     10  C   UNL     1     -32.586 -35.399  17.256  1.00  0.00     0.000 C 
BRANCH  10  11
ATOM     11  C   UNL     1     -31.095 -35.731  17.122  1.00  0.00    -0.000 C 
BRANCH  11  12
ATOM     12  C   UNL     1     -30.742 -36.108  15.677  1.00  0.00    -0.000 C 
BRANCH  12  13
ATOM     13  C   UNL     1     -29.498 -35.345  15.199  1.00  0.00    -0.000 C 
BRANCH  13  14
ATOM     14  C   UNL     1     -28.870 -35.965  13.941  1.00  0.00    -0.000 C 
BRANCH  14  15
ATOM     15  C   UNL     1     -28.241 -34.915  13.014  1.00  0.00    -0.003 C 
ATOM     16  C   UNL     1     -26.831 -34.553  13.469  1.00  0.00     0.004 C 
ENDBRANCH  14  15
ENDBRANCH  13  14
ENDBRANCH  12  13
ENDBRANCH  11  12
ENDBRANCH  10  11
ENDBRANCH   1  10
TORSDOF 12
ENDMDL
MODEL 8
REMARK VINA RESULT:    -1.583      2.346      5.060
REMARK INTER + INTRA:          -4.482
REMARK INTER:                  -2.835
REMARK INTRA:                  -1.647
REMARK UNBOUND:                -1.789
REMARK SMILES CCCCCCCCCCCCCC(=O)[O-]
REMARK SMILES IDX 8 1 9 2 10 3 11 4 12 5 13 6 14 7 15 8 16 9 7 10 6 11 5 12
REMARK SMILES IDX 4 13 3 14 2 15 1 16
REMARK H PARENT
REMARK Flexibility Score: inf
ROOT
ATOM      1  C   UNL     1     -30.978 -35.008  12.258  1.00  0.00     0.000 C 
ENDROOT
BRANCH   1   2
ATOM      2  C   UNL     1     -31.802 -36.125  12.920  1.00  0.00     0.000 C 
BRANCH   2   3
ATOM      3  C   UNL     1     -33.314 -35.957  12.691  1.00  0.00     0.000 C 
BRANCH   3   4
ATOM      4  C   UNL     1     -33.958 -34.986  13.695  1.00  0.00     0.000 C 
BRANCH   4   5
ATOM      5  C   UNL     1     -34.785 -33.885  13.009  1.00  0.00     0.006 C 
BRANCH   5   6
ATOM      6  C   UNL     1     -33.992 -33.167  11.908  1.00  0.00     0.053 C 
BRANCH   6   7
ATOM      7  C   UNL     1     -33.179 -32.036  12.456  1.00  0.00     0.041 C 
ATOM      8  O   UNL     1     -32.065 -31.748  11.943  1.00  0.00    -0.550 OA
ATOM      9  O   UNL     1     -33.638 -31.316  13.552  1.00  0.00    -0.550 OA
ENDBRANCH   6   7
ENDBRANCH   5   6
ENDBRANCH   4   5
ENDBRANCH   3   4
ENDBRANCH   2   3
ENDBRANCH   1   2
BRANCH   1  10
ATOM     10  C   UNL     1     -29.868 -34.468  13.171  1.00  0.00     0.000 C 
BRANCH  10  11
ATOM     11  C   UNL     1     -30.456 -33.875  14.458  1.00  0.00    -0.000 C 
BRANCH  11  12
ATOM     12  C   UNL     1     -29.985 -34.656  15.691  1.00  0.00    -0.000 C 
BRANCH  12  13
ATOM     13  C   UNL     1     -30.946 -34.452  16.871  1.00  0.00    -0.000 C 
BRANCH  13  14
ATOM     14  C   UNL     1     -32.047 -33.424  16.568  1.00  0.00    -0.000 C 
BRANCH  14  15
ATOM     15  C   UNL     1     -33.452 -33.941  16.909  1.00  0.00    -0.003 C 
ATOM     16  C   UNL     1     -33.382 -35.256  17.679  1.00  0.00     0.004 C 
ENDBRANCH  14  15
ENDBRANCH  13  14
ENDBRANCH  12  13
ENDBRANCH  11  12
ENDBRANCH  10  11
ENDBRANCH   1  10
TORSDOF 12
ENDMDL
