MODEL 1
REMARK VINA RESULT:    -1.962      0.000      0.000
REMARK INTER + INTRA:          -1.962
REMARK INTER:                  -1.962
REMARK INTRA:                   0.000
REMARK UNBOUND:                 0.000
REMARK SMILES CC(=O)[O-]
REMARK SMILES IDX 1 1 2 2 3 3 4 4
REMARK H PARENT
REMARK Flexibility Score: inf
ROOT
ATOM      1  C   UNL     1     103.037 118.278  93.278  1.00  0.00     0.063 C 
ATOM      2  C   UNL     1     103.228 118.049  94.740  1.00  0.00     0.038 C 
ATOM      3  O   UNL     1     103.304 119.028  95.527  1.00  0.00    -0.550 OA
ATOM      4  O   UNL     1     103.376 116.758  95.228  1.00  0.00    -0.550 OA
ENDROOT
TORSDOF 0
ENDMDL
MODEL 2
REMARK VINA RESULT:    -1.948      1.438      2.076
REMARK INTER + INTRA:          -1.948
REMARK INTER:                  -1.948
REMARK INTRA:                   0.000
REMARK UNBOUND:                 0.000
REMARK SMILES CC(=O)[O-]
REMARK SMILES IDX 1 1 2 2 3 3 4 4
REMARK H PARENT
REMARK Flexibility Score: inf
ROOT
ATOM      1  C   UNL     1     102.904 119.514  95.677  1.00  0.00     0.063 C 
ATOM      2  C   UNL     1     103.078 118.329  94.788  1.00  0.00     0.038 C 
ATOM      3  O   UNL     1     103.293 117.193  95.284  1.00  0.00    -0.550 OA
ATOM      4  O   UNL     1     103.056 118.486  93.408  1.00  0.00    -0.550 OA
ENDROOT
TORSDOF 0
ENDMDL
MODEL 3
REMARK VINA RESULT:    -1.904      1.365      1.669
REMARK INTER + INTRA:          -1.904
REMARK INTER:                  -1.904
REMARK INTRA:                   0.000
REMARK UNBOUND:                 0.000
REMARK SMILES CC(=O)[O-]
REMARK SMILES IDX 1 1 2 2 3 3 4 4
REMARK H PARENT
REMARK Flexibility Score: inf
ROOT
ATOM      1  C   UNL     1     102.995 119.142  95.500  1.00  0.00     0.063 C 
ATOM      2  C   UNL     1     103.292 117.964  94.636  1.00  0.00     0.038 C 
ATOM      3  O   UNL     1     103.402 118.106  93.390  1.00  0.00    -0.550 OA
ATOM      4  O   UNL     1     103.394 116.698  95.197  1.00  0.00    -0.550 OA
ENDROOT
TORSDOF 0
ENDMDL
MODEL 4
REMARK VINA RESULT:    -1.873      2.107      2.408
REMARK INTER + INTRA:          -1.873
REMARK INTER:                  -1.873
REMARK INTRA:                   0.000
REMARK UNBOUND:                 0.000
REMARK SMILES CC(=O)[O-]
REMARK SMILES IDX 1 1 2 2 3 3 4 4
REMARK H PARENT
REMARK Flexibility Score: inf
ROOT
ATOM      1  C   UNL     1     103.318 117.643  94.946  1.00  0.00     0.063 C 
ATOM      2  C   UNL     1     102.832 118.015  93.586  1.00  0.00     0.038 C 
ATOM      3  O   UNL     1     103.650 118.167  92.643  1.00  0.00    -0.550 OA
ATOM      4  O   UNL     1     101.479 118.246  93.370  1.00  0.00    -0.550 OA
ENDROOT
TORSDOF 0
ENDMDL
MODEL 5
REMARK VINA RESULT:    -1.858     21.328     21.654
REMARK INTER + INTRA:          -1.858
REMARK INTER:                  -1.858
REMARK INTRA:                   0.000
REMARK UNBOUND:                 0.000
REMARK SMILES CC(=O)[O-]
REMARK SMILES IDX 1 1 2 2 3 3 4 4
REMARK H PARENT
REMARK Flexibility Score: inf
ROOT
ATOM      1  C   UNL     1      86.454 112.228 105.083  1.00  0.00     0.063 C 
ATOM      2  C   UNL     1      85.537 111.068 104.893  1.00  0.00     0.038 C 
ATOM      3  O   UNL     1      85.835 110.153 104.082  1.00  0.00    -0.550 OA
ATOM      4  O   UNL     1      84.326 111.021 105.571  1.00  0.00    -0.550 OA
ENDROOT
TORSDOF 0
ENDMDL
MODEL 6
REMARK VINA RESULT:    -1.821     20.582     20.895
REMARK INTER + INTRA:          -1.821
REMARK INTER:                  -1.821
REMARK INTRA:                   0.000
REMARK UNBOUND:                 0.000
REMARK SMILES CC(=O)[O-]
REMARK SMILES IDX 1 1 2 2 3 3 4 4
REMARK H PARENT
REMARK Flexibility Score: inf
ROOT
ATOM      1  C   UNL     1      87.328 121.996 105.769  1.00  0.00     0.063 C 
ATOM      2  C   UNL     1      85.939 121.458 105.840  1.00  0.00     0.038 C 
ATOM      3  O   UNL     1      85.573 120.786 106.839  1.00  0.00    -0.550 OA
ATOM      4  O   UNL     1      85.064 121.652 104.780  1.00  0.00    -0.550 OA
ENDROOT
TORSDOF 0
ENDMDL
MODEL 7
REMARK VINA RESULT:    -1.762      5.910      6.361
REMARK INTER + INTRA:          -1.762
REMARK INTER:                  -1.762
REMARK INTRA:                   0.000
REMARK UNBOUND:                 0.000
REMARK SMILES CC(=O)[O-]
REMARK SMILES IDX 1 1 2 2 3 3 4 4
REMARK H PARENT
REMARK Flexibility Score: inf
ROOT
ATOM      1  C   UNL     1     100.961 122.792  94.750  1.00  0.00     0.063 C 
ATOM      2  C   UNL     1     101.773 124.004  94.440  1.00  0.00     0.038 C 
ATOM      3  O   UNL     1     101.472 124.732  93.459  1.00  0.00    -0.550 OA
ATOM      4  O   UNL     1     102.895 124.302  95.201  1.00  0.00    -0.550 OA
ENDROOT
TORSDOF 0
ENDMDL
MODEL 8
REMARK VINA RESULT:    -1.762      5.650      6.045
REMARK INTER + INTRA:          -1.762
REMARK INTER:                  -1.762
REMARK INTRA:                   0.000
REMARK UNBOUND:                 0.000
REMARK SMILES CC(=O)[O-]
REMARK SMILES IDX 1 1 2 2 3 3 4 4
REMARK H PARENT
REMARK Flexibility Score: inf
ROOT
ATOM      1  C   UNL     1     101.339 124.621  93.602  1.00  0.00     0.063 C 
ATOM      2  C   UNL     1     102.011 123.885  94.712  1.00  0.00     0.038 C 
ATOM      3  O   UNL     1     103.147 124.247  95.113  1.00  0.00    -0.550 OA
ATOM      4  O   UNL     1     101.406 122.766  95.270  1.00  0.00    -0.550 OA
ENDROOT
TORSDOF 0
ENDMDL
MODEL 9
REMARK VINA RESULT:    -1.761     20.555     20.841
REMARK INTER + INTRA:          -1.761
REMARK INTER:                  -1.761
REMARK INTRA:                   0.000
REMARK UNBOUND:                 0.000
REMARK SMILES CC(=O)[O-]
REMARK SMILES IDX 1 1 2 2 3 3 4 4
REMARK H PARENT
REMARK Flexibility Score: inf
ROOT
ATOM      1  C   UNL     1      85.377 119.916 105.612  1.00  0.00     0.063 C 
ATOM      2  C   UNL     1      85.703 121.345 105.336  1.00  0.00     0.038 C 
ATOM      3  O   UNL     1      85.005 122.007 104.526  1.00  0.00    -0.550 OA
ATOM      4  O   UNL     1      86.811 121.933 105.932  1.00  0.00    -0.550 OA
ENDROOT
TORSDOF 0
ENDMDL
