MODEL 1
REMARK VINA RESULT:    -0.889      0.000      0.000
REMARK INTER + INTRA:          -2.129
REMARK INTER:                  -1.305
REMARK INTRA:                  -0.824
REMARK UNBOUND:                -0.824
REMARK SMILES O=C([O-])CCCCCCCC(=O)[O-]
REMARK SMILES IDX 7 1 6 2 5 3 4 4 2 5 1 6 3 7 8 8 9 9 10 10 11 11 12 12 13 13
REMARK H PARENT
REMARK Flexibility Score: inf
ROOT
ATOM      1  C   UNL     1      37.037   4.371  40.898  1.00  0.00     0.000 C 
ENDROOT
BRANCH   1   2
ATOM      2  C   UNL     1      37.114   3.334  42.029  1.00  0.00     0.000 C 
BRANCH   2   3
ATOM      3  C   UNL     1      37.222   1.891  41.503  1.00  0.00     0.006 C 
BRANCH   3   4
ATOM      4  C   UNL     1      38.539   1.222  41.914  1.00  0.00     0.053 C 
BRANCH   4   5
ATOM      5  C   UNL     1      39.569   1.312  40.829  1.00  0.00     0.041 C 
ATOM      6  O   UNL     1      39.215   1.475  39.631  1.00  0.00    -0.550 OA
ATOM      7  O   UNL     1      40.920   1.249  41.144  1.00  0.00    -0.550 OA
ENDBRANCH   4   5
ENDBRANCH   3   4
ENDBRANCH   2   3
ENDBRANCH   1   2
BRANCH   1   8
ATOM      8  C   UNL     1      38.422   4.848  40.437  1.00  0.00     0.000 C 
BRANCH   8   9
ATOM      9  C   UNL     1      39.374   5.007  41.628  1.00  0.00     0.006 C 
BRANCH   9  10
ATOM     10  C   UNL     1      40.833   4.839  41.193  1.00  0.00     0.053 C 
BRANCH  10  11
ATOM     11  C   UNL     1      41.293   6.044  40.434  1.00  0.00     0.041 C 
ATOM     12  O   UNL     1      41.284   7.178  40.979  1.00  0.00    -0.550 OA
ATOM     13  O   UNL     1      41.688   5.921  39.107  1.00  0.00    -0.550 OA
ENDBRANCH  10  11
ENDBRANCH   9  10
ENDBRANCH   8   9
ENDBRANCH   1   8
TORSDOF 8
ENDMDL
MODEL 2
REMARK VINA RESULT:    -0.857      3.602      5.760
REMARK INTER + INTRA:          -2.082
REMARK INTER:                  -1.158
REMARK INTRA:                  -0.924
REMARK UNBOUND:                -0.824
REMARK SMILES O=C([O-])CCCCCCCC(=O)[O-]
REMARK SMILES IDX 7 1 6 2 5 3 4 4 2 5 1 6 3 7 8 8 9 9 10 10 11 11 12 12 13 13
REMARK H PARENT
REMARK Flexibility Score: inf
ROOT
ATOM      1  C   UNL     1      38.473   2.273  40.733  1.00  0.00     0.000 C 
ENDROOT
BRANCH   1   2
ATOM      2  C   UNL     1      38.178   2.463  39.236  1.00  0.00     0.000 C 
BRANCH   2   3
ATOM      3  C   UNL     1      37.314   3.706  38.957  1.00  0.00     0.006 C 
BRANCH   3   4
ATOM      4  C   UNL     1      37.738   4.908  39.810  1.00  0.00     0.053 C 
BRANCH   4   5
ATOM      5  C   UNL     1      36.569   5.532  40.510  1.00  0.00     0.041 C 
ATOM      6  O   UNL     1      35.603   5.990  39.844  1.00  0.00    -0.550 OA
ATOM      7  O   UNL     1      36.532   5.576  41.897  1.00  0.00    -0.550 OA
ENDBRANCH   4   5
ENDBRANCH   3   4
ENDBRANCH   2   3
ENDBRANCH   1   2
BRANCH   1   8
ATOM      8  C   UNL     1      37.496   1.301  41.410  1.00  0.00     0.000 C 
BRANCH   8   9
ATOM      9  C   UNL     1      36.372   2.059  42.124  1.00  0.00     0.006 C 
BRANCH   9  10
ATOM     10  C   UNL     1      34.998   1.615  41.613  1.00  0.00     0.053 C 
BRANCH  10  11
ATOM     11  C   UNL     1      34.193   2.799  41.180  1.00  0.00     0.041 C 
ATOM     12  O   UNL     1      33.946   2.987  39.960  1.00  0.00    -0.550 OA
ATOM     13  O   UNL     1      33.755   3.724  42.121  1.00  0.00    -0.550 OA
ENDBRANCH  10  11
ENDBRANCH   9  10
ENDBRANCH   8   9
ENDBRANCH   1   8
TORSDOF 8
ENDMDL
MODEL 3
REMARK VINA RESULT:    -0.846      3.101      4.158
REMARK INTER + INTRA:          -2.065
REMARK INTER:                  -1.338
REMARK INTRA:                  -0.727
REMARK UNBOUND:                -0.824
REMARK SMILES O=C([O-])CCCCCCCC(=O)[O-]
REMARK SMILES IDX 7 1 6 2 5 3 4 4 2 5 1 6 3 7 8 8 9 9 10 10 11 11 12 12 13 13
REMARK H PARENT
REMARK Flexibility Score: inf
ROOT
ATOM      1  C   UNL     1      37.949   0.922  40.997  1.00  0.00     0.000 C 
ENDROOT
BRANCH   1   2
ATOM      2  C   UNL     1      37.236   1.690  42.122  1.00  0.00     0.000 C 
BRANCH   2   3
ATOM      3  C   UNL     1      35.726   1.843  41.868  1.00  0.00     0.006 C 
BRANCH   3   4
ATOM      4  C   UNL     1      35.422   2.918  40.817  1.00  0.00     0.053 C 
BRANCH   4   5
ATOM      5  C   UNL     1      34.744   4.110  41.422  1.00  0.00     0.041 C 
ATOM      6  O   UNL     1      35.230   5.261  41.269  1.00  0.00    -0.550 OA
ATOM      7  O   UNL     1      33.556   3.952  42.124  1.00  0.00    -0.550 OA
ENDBRANCH   4   5
ENDBRANCH   3   4
ENDBRANCH   2   3
ENDBRANCH   1   2
BRANCH   1   8
ATOM      8  C   UNL     1      39.472   1.116  41.020  1.00  0.00     0.000 C 
BRANCH   8   9
ATOM      9  C   UNL     1      39.837   2.605  40.977  1.00  0.00     0.006 C 
BRANCH   9  10
ATOM     10  C   UNL     1      39.309   3.262  39.698  1.00  0.00     0.053 C 
BRANCH  10  11
ATOM     11  C   UNL     1      38.573   4.523  40.025  1.00  0.00     0.041 C 
ATOM     12  O   UNL     1      38.491   4.920  41.216  1.00  0.00    -0.550 OA
ATOM     13  O   UNL     1      37.933   5.236  39.017  1.00  0.00    -0.550 OA
ENDBRANCH  10  11
ENDBRANCH   9  10
ENDBRANCH   8   9
ENDBRANCH   1   8
TORSDOF 8
ENDMDL
MODEL 4
REMARK VINA RESULT:    -0.829      3.140      4.501
REMARK INTER + INTRA:          -2.041
REMARK INTER:                  -1.405
REMARK INTRA:                  -0.636
REMARK UNBOUND:                -0.824
REMARK SMILES O=C([O-])CCCCCCCC(=O)[O-]
REMARK SMILES IDX 7 1 6 2 5 3 4 4 2 5 1 6 3 7 8 8 9 9 10 10 11 11 12 12 13 13
REMARK H PARENT
REMARK Flexibility Score: inf
ROOT
ATOM      1  C   UNL     1      38.235   4.382  41.903  1.00  0.00     0.000 C 
ENDROOT
BRANCH   1   2
ATOM      2  C   UNL     1      37.925   2.882  42.022  1.00  0.00     0.000 C 
BRANCH   2   3
ATOM      3  C   UNL     1      36.413   2.590  42.036  1.00  0.00     0.006 C 
BRANCH   3   4
ATOM      4  C   UNL     1      35.634   3.530  41.108  1.00  0.00     0.053 C 
BRANCH   4   5
ATOM      5  C   UNL     1      34.500   4.201  41.822  1.00  0.00     0.041 C 
ATOM      6  O   UNL     1      34.574   5.421  42.122  1.00  0.00    -0.550 OA
ATOM      7  O   UNL     1      33.349   3.486  42.125  1.00  0.00    -0.550 OA
ENDBRANCH   4   5
ENDBRANCH   3   4
ENDBRANCH   2   3
ENDBRANCH   1   2
BRANCH   1   8
ATOM      8  C   UNL     1      39.625   4.654  41.310  1.00  0.00     0.000 C 
BRANCH   8   9
ATOM      9  C   UNL     1      40.005   3.579  40.285  1.00  0.00     0.006 C 
BRANCH   9  10
ATOM     10  C   UNL     1      39.464   3.929  38.895  1.00  0.00     0.053 C 
BRANCH  10  11
ATOM     11  C   UNL     1      38.743   2.759  38.305  1.00  0.00     0.041 C 
ATOM     12  O   UNL     1      37.486   2.759  38.232  1.00  0.00    -0.550 OA
ATOM     13  O   UNL     1      39.457   1.645  37.878  1.00  0.00    -0.550 OA
ENDBRANCH  10  11
ENDBRANCH   9  10
ENDBRANCH   8   9
ENDBRANCH   1   8
TORSDOF 8
ENDMDL
MODEL 5
REMARK VINA RESULT:    -0.813      3.017      3.841
REMARK INTER + INTRA:          -2.018
REMARK INTER:                  -1.460
REMARK INTRA:                  -0.558
REMARK UNBOUND:                -0.824
REMARK SMILES O=C([O-])CCCCCCCC(=O)[O-]
REMARK SMILES IDX 7 1 6 2 5 3 4 4 2 5 1 6 3 7 8 8 9 9 10 10 11 11 12 12 13 13
REMARK H PARENT
REMARK Flexibility Score: inf
ROOT
ATOM      1  C   UNL     1      38.162   3.650  42.124  1.00  0.00     0.000 C 
ENDROOT
BRANCH   1   2
ATOM      2  C   UNL     1      37.882   2.142  42.031  1.00  0.00     0.000 C 
BRANCH   2   3
ATOM      3  C   UNL     1      36.425   1.834  41.642  1.00  0.00     0.006 C 
BRANCH   3   4
ATOM      4  C   UNL     1      35.456   2.923  42.120  1.00  0.00     0.053 C 
BRANCH   4   5
ATOM      5  C   UNL     1      34.091   2.751  41.527  1.00  0.00     0.041 C 
ATOM      6  O   UNL     1      33.565   1.608  41.468  1.00  0.00    -0.550 OA
ATOM      7  O   UNL     1      33.387   3.857  41.070  1.00  0.00    -0.550 OA
ENDBRANCH   4   5
ENDBRANCH   3   4
ENDBRANCH   2   3
ENDBRANCH   1   2
BRANCH   1   8
ATOM      8  C   UNL     1      38.715   4.232  40.814  1.00  0.00     0.000 C 
BRANCH   8   9
ATOM      9  C   UNL     1      37.637   5.026  40.067  1.00  0.00     0.006 C 
BRANCH   9  10
ATOM     10  C   UNL     1      37.427   6.402  40.705  1.00  0.00     0.053 C 
BRANCH  10  11
ATOM     11  C   UNL     1      38.687   7.206  40.639  1.00  0.00     0.041 C 
ATOM     12  O   UNL     1      39.203   7.663  41.693  1.00  0.00    -0.550 OA
ATOM     13  O   UNL     1      39.266   7.492  39.409  1.00  0.00    -0.550 OA
ENDBRANCH  10  11
ENDBRANCH   9  10
ENDBRANCH   8   9
ENDBRANCH   1   8
TORSDOF 8
ENDMDL
MODEL 6
REMARK VINA RESULT:    -0.793      2.983      4.136
REMARK INTER + INTRA:          -1.988
REMARK INTER:                  -1.616
REMARK INTRA:                  -0.373
REMARK UNBOUND:                -0.824
REMARK SMILES O=C([O-])CCCCCCCC(=O)[O-]
REMARK SMILES IDX 7 1 6 2 5 3 4 4 2 5 1 6 3 7 8 8 9 9 10 10 11 11 12 12 13 13
REMARK H PARENT
REMARK Flexibility Score: inf
ROOT
ATOM      1  C   UNL     1      37.669   2.169  41.172  1.00  0.00     0.000 C 
ENDROOT
BRANCH   1   2
ATOM      2  C   UNL     1      36.453   1.538  41.870  1.00  0.00     0.000 C 
BRANCH   2   3
ATOM      3  C   UNL     1      35.324   2.554  42.123  1.00  0.00     0.006 C 
BRANCH   3   4
ATOM      4  C   UNL     1      35.837   3.999  42.125  1.00  0.00     0.053 C 
BRANCH   4   5
ATOM      5  C   UNL     1      34.721   4.984  41.951  1.00  0.00     0.041 C 
ATOM      6  O   UNL     1      33.524   4.595  41.973  1.00  0.00    -0.550 OA
ATOM      7  O   UNL     1      35.003   6.336  41.800  1.00  0.00    -0.550 OA
ENDBRANCH   4   5
ENDBRANCH   3   4
ENDBRANCH   2   3
ENDBRANCH   1   2
BRANCH   1   8
ATOM      8  C   UNL     1      38.962   1.372  41.401  1.00  0.00     0.000 C 
BRANCH   8   9
ATOM      9  C   UNL     1      40.168   2.096  40.791  1.00  0.00     0.006 C 
BRANCH   9  10
ATOM     10  C   UNL     1      40.080   3.606  41.027  1.00  0.00     0.053 C 
BRANCH  10  11
ATOM     11  C   UNL     1      41.329   4.283  40.559  1.00  0.00     0.041 C 
ATOM     12  O   UNL     1      41.716   4.147  39.369  1.00  0.00    -0.550 OA
ATOM     13  O   UNL     1      42.094   5.026  41.450  1.00  0.00    -0.550 OA
ENDBRANCH  10  11
ENDBRANCH   9  10
ENDBRANCH   8   9
ENDBRANCH   1   8
TORSDOF 8
ENDMDL
MODEL 7
REMARK VINA RESULT:     0.396      2.973      4.731
REMARK INTER + INTRA:          -0.243
REMARK INTER:                   0.588
REMARK INTRA:                  -0.831
REMARK UNBOUND:                -0.824
REMARK SMILES O=C([O-])CCCCCCCC(=O)[O-]
REMARK SMILES IDX 7 1 6 2 5 3 4 4 2 5 1 6 3 7 8 8 9 9 10 10 11 11 12 12 13 13
REMARK H PARENT
REMARK Flexibility Score: inf
ROOT
ATOM      1  C   UNL     1      35.883   4.797  38.679  1.00  0.00     0.000 C 
ENDROOT
BRANCH   1   2
ATOM      2  C   UNL     1      36.651   3.551  38.209  1.00  0.00     0.000 C 
BRANCH   2   3
ATOM      3  C   UNL     1      37.983   3.361  38.958  1.00  0.00     0.006 C 
BRANCH   3   4
ATOM      4  C   UNL     1      38.007   2.061  39.772  1.00  0.00     0.053 C 
BRANCH   4   5
ATOM      5  C   UNL     1      38.659   2.255  41.107  1.00  0.00     0.041 C 
ATOM      6  O   UNL     1      38.579   1.357  41.987  1.00  0.00    -0.550 OA
ATOM      7  O   UNL     1      39.383   3.411  41.368  1.00  0.00    -0.550 OA
ENDBRANCH   4   5
ENDBRANCH   3   4
ENDBRANCH   2   3
ENDBRANCH   1   2
BRANCH   1   8
ATOM      8  C   UNL     1      36.485   5.421  39.947  1.00  0.00     0.000 C 
BRANCH   8   9
ATOM      9  C   UNL     1      35.467   5.423  41.094  1.00  0.00     0.006 C 
BRANCH   9  10
ATOM     10  C   UNL     1      35.791   4.331  42.118  1.00  0.00     0.053 C 
BRANCH  10  11
ATOM     11  C   UNL     1      34.789   3.224  42.036  1.00  0.00     0.041 C 
ATOM     12  O   UNL     1      33.558   3.474  42.125  1.00  0.00    -0.550 OA
ATOM     13  O   UNL     1      35.216   1.907  41.911  1.00  0.00    -0.550 OA
ENDBRANCH  10  11
ENDBRANCH   9  10
ENDBRANCH   8   9
ENDBRANCH   1   8
TORSDOF 8
ENDMDL
MODEL 8
REMARK VINA RESULT:     0.413      3.546      5.338
REMARK INTER + INTRA:          -0.218
REMARK INTER:                   0.212
REMARK INTRA:                  -0.430
REMARK UNBOUND:                -0.824
REMARK SMILES O=C([O-])CCCCCCCC(=O)[O-]
REMARK SMILES IDX 7 1 6 2 5 3 4 4 2 5 1 6 3 7 8 8 9 9 10 10 11 11 12 12 13 13
REMARK H PARENT
REMARK Flexibility Score: inf
ROOT
ATOM      1  C   UNL     1      37.113   3.870  40.658  1.00  0.00     0.000 C 
ENDROOT
BRANCH   1   2
ATOM      2  C   UNL     1      37.833   3.213  41.846  1.00  0.00     0.000 C 
BRANCH   2   3
ATOM      3  C   UNL     1      37.922   1.683  41.712  1.00  0.00     0.006 C 
BRANCH   3   4
ATOM      4  C   UNL     1      39.340   1.215  41.360  1.00  0.00     0.053 C 
BRANCH   4   5
ATOM      5  C   UNL     1      39.552   1.151  39.878  1.00  0.00     0.041 C 
ATOM      6  O   UNL     1      38.575   0.961  39.106  1.00  0.00    -0.550 OA
ATOM      7  O   UNL     1      40.822   1.336  39.347  1.00  0.00    -0.550 OA
ENDBRANCH   4   5
ENDBRANCH   3   4
ENDBRANCH   2   3
ENDBRANCH   1   2
BRANCH   1   8
ATOM      8  C   UNL     1      35.843   4.625  41.078  1.00  0.00     0.000 C 
BRANCH   8   9
ATOM      9  C   UNL     1      35.053   3.830  42.125  1.00  0.00     0.006 C 
BRANCH   9  10
ATOM     10  C   UNL     1      34.088   2.847  41.455  1.00  0.00     0.053 C 
BRANCH  10  11
ATOM     11  C   UNL     1      32.685   3.364  41.521  1.00  0.00     0.041 C 
ATOM     12  O   UNL     1      32.469   4.585  41.735  1.00  0.00    -0.550 OA
ATOM     13  O   UNL     1      31.615   2.488  41.392  1.00  0.00    -0.550 OA
ENDBRANCH  10  11
ENDBRANCH   9  10
ENDBRANCH   8   9
ENDBRANCH   1   8
TORSDOF 8
ENDMDL
