MODEL 1
REMARK VINA RESULT:    -4.785      0.000      0.000
REMARK INTER + INTRA:          -5.584
REMARK INTER:                  -5.344
REMARK INTRA:                  -0.240
REMARK UNBOUND:                -0.240
REMARK SMILES COc1cc(C)ccc1C(C)C
REMARK SMILES IDX 6 1 5 2 4 3 3 4 9 5 8 6 7 7 2 8 1 9 10 10 11 11 12 12
REMARK H PARENT
REMARK Flexibility Score: inf
ROOT
ATOM      1  C   UNL     1      14.804 -18.608  21.110  1.00  0.00     0.044 C 
ATOM      2  C   UNL     1      13.475 -18.716  20.421  1.00  0.00    -0.047 A 
ATOM      3  C   UNL     1      12.540 -19.671  20.840  1.00  0.00     0.050 A 
ATOM      4  C   UNL     1      11.303 -19.808  20.178  1.00  0.00     0.122 A 
ATOM      5  C   UNL     1      11.011 -18.978  19.071  1.00  0.00    -0.003 A 
ATOM      6  C   UNL     1      11.969 -18.037  18.649  1.00  0.00     0.008 A 
ATOM      7  C   UNL     1      13.190 -17.912  19.313  1.00  0.00     0.004 A 
ENDROOT
BRANCH   4   8
ATOM      8  O   UNL     1      10.352 -20.756  20.595  1.00  0.00    -0.496 OA
ATOM      9  C   UNL     1      10.316 -21.359  21.885  1.00  0.00     0.278 C 
ENDBRANCH   4   8
BRANCH   5  10
ATOM     10  C   UNL     1       9.686 -19.094  18.329  1.00  0.00     0.017 C 
ATOM     11  C   UNL     1       9.909 -19.403  16.844  1.00  0.00     0.012 C 
ATOM     12  C   UNL     1       8.837 -17.828  18.508  1.00  0.00     0.012 C 
ENDBRANCH   5  10
TORSDOF 2
ENDMDL
MODEL 2
REMARK VINA RESULT:    -4.671      1.856      4.279
REMARK INTER + INTRA:          -5.458
REMARK INTER:                  -5.211
REMARK INTRA:                  -0.247
REMARK UNBOUND:                -0.240
REMARK SMILES COc1cc(C)ccc1C(C)C
REMARK SMILES IDX 6 1 5 2 4 3 3 4 9 5 8 6 7 7 2 8 1 9 10 10 11 11 12 12
REMARK H PARENT
REMARK Flexibility Score: inf
ROOT
ATOM      1  C   UNL     1       6.858 -18.021  18.828  1.00  0.00     0.044 C 
ATOM      2  C   UNL     1       8.324 -18.082  19.147  1.00  0.00    -0.047 A 
ATOM      3  C   UNL     1       8.778 -17.772  20.435  1.00  0.00     0.050 A 
ATOM      4  C   UNL     1      10.155 -17.789  20.738  1.00  0.00     0.122 A 
ATOM      5  C   UNL     1      11.086 -18.111  19.724  1.00  0.00    -0.003 A 
ATOM      6  C   UNL     1      10.615 -18.400  18.428  1.00  0.00     0.008 A 
ATOM      7  C   UNL     1       9.250 -18.379  18.143  1.00  0.00     0.004 A 
ENDROOT
BRANCH   4   8
ATOM      8  O   UNL     1      10.623 -17.488  22.029  1.00  0.00    -0.496 OA
ATOM      9  C   UNL     1      10.473 -18.334  23.166  1.00  0.00     0.278 C 
ENDBRANCH   4   8
BRANCH   5  10
ATOM     10  C   UNL     1      12.582 -18.141  20.010  1.00  0.00     0.017 C 
ATOM     11  C   UNL     1      13.393 -17.847  18.742  1.00  0.00     0.012 C 
ATOM     12  C   UNL     1      13.000 -19.478  20.635  1.00  0.00     0.012 C 
ENDBRANCH   5  10
TORSDOF 2
ENDMDL
MODEL 3
REMARK VINA RESULT:    -4.603      5.296      8.406
REMARK INTER + INTRA:          -5.381
REMARK INTER:                  -5.113
REMARK INTRA:                  -0.268
REMARK UNBOUND:                -0.240
REMARK SMILES COc1cc(C)ccc1C(C)C
REMARK SMILES IDX 6 1 5 2 4 3 3 4 9 5 8 6 7 7 2 8 1 9 10 10 11 11 12 12
REMARK H PARENT
REMARK Flexibility Score: inf
ROOT
ATOM      1  C   UNL     1       5.062 -26.125  24.419  1.00  0.00     0.044 C 
ATOM      2  C   UNL     1       6.215 -25.173  24.287  1.00  0.00    -0.047 A 
ATOM      3  C   UNL     1       6.271 -24.019  25.080  1.00  0.00     0.050 A 
ATOM      4  C   UNL     1       7.329 -23.099  24.941  1.00  0.00     0.122 A 
ATOM      5  C   UNL     1       8.338 -23.339  23.979  1.00  0.00    -0.003 A 
ATOM      6  C   UNL     1       8.257 -24.492  23.175  1.00  0.00     0.008 A 
ATOM      7  C   UNL     1       7.203 -25.395  23.323  1.00  0.00     0.004 A 
ENDROOT
BRANCH   4   8
ATOM      8  O   UNL     1       7.402 -21.942  25.737  1.00  0.00    -0.496 OA
ATOM      9  C   UNL     1       7.753 -21.927  27.118  1.00  0.00     0.278 C 
ENDBRANCH   4   8
BRANCH   5  10
ATOM     10  C   UNL     1       9.498 -22.369  23.797  1.00  0.00     0.017 C 
ATOM     11  C   UNL     1       9.999 -22.372  22.348  1.00  0.00     0.012 C 
ATOM     12  C   UNL     1      10.639 -22.680  24.775  1.00  0.00     0.012 C 
ENDBRANCH   5  10
TORSDOF 2
ENDMDL
MODEL 4
REMARK VINA RESULT:    -4.589      1.805      3.748
REMARK INTER + INTRA:          -5.366
REMARK INTER:                  -5.097
REMARK INTRA:                  -0.269
REMARK UNBOUND:                -0.240
REMARK SMILES COc1cc(C)ccc1C(C)C
REMARK SMILES IDX 6 1 5 2 4 3 3 4 9 5 8 6 7 7 2 8 1 9 10 10 11 11 12 12
REMARK H PARENT
REMARK Flexibility Score: inf
ROOT
ATOM      1  C   UNL     1       9.971 -22.465  22.929  1.00  0.00     0.044 C 
ATOM      2  C   UNL     1      10.387 -21.301  22.079  1.00  0.00    -0.047 A 
ATOM      3  C   UNL     1      11.052 -20.210  22.654  1.00  0.00     0.050 A 
ATOM      4  C   UNL     1      11.416 -19.094  21.874  1.00  0.00     0.122 A 
ATOM      5  C   UNL     1      11.093 -19.072  20.497  1.00  0.00    -0.003 A 
ATOM      6  C   UNL     1      10.406 -20.167  19.938  1.00  0.00     0.008 A 
ATOM      7  C   UNL     1      10.052 -21.265  20.722  1.00  0.00     0.004 A 
ENDROOT
BRANCH   4   8
ATOM      8  O   UNL     1      12.092 -17.997  22.437  1.00  0.00    -0.496 OA
ATOM      9  C   UNL     1      13.462 -17.999  22.827  1.00  0.00     0.278 C 
ENDBRANCH   4   8
BRANCH   5  10
ATOM     10  C   UNL     1      11.469 -17.885  19.620  1.00  0.00     0.017 C 
ATOM     11  C   UNL     1      10.457 -17.696  18.483  1.00  0.00     0.012 C 
ATOM     12  C   UNL     1      12.894 -18.031  19.071  1.00  0.00     0.012 C 
ENDBRANCH   5  10
TORSDOF 2
ENDMDL
MODEL 5
REMARK VINA RESULT:    -4.512      2.135      4.125
REMARK INTER + INTRA:          -5.280
REMARK INTER:                  -5.062
REMARK INTRA:                  -0.218
REMARK UNBOUND:                -0.240
REMARK SMILES COc1cc(C)ccc1C(C)C
REMARK SMILES IDX 6 1 5 2 4 3 3 4 9 5 8 6 7 7 2 8 1 9 10 10 11 11 12 12
REMARK H PARENT
REMARK Flexibility Score: inf
ROOT
ATOM      1  C   UNL     1      10.354 -19.377  16.388  1.00  0.00     0.044 C 
ATOM      2  C   UNL     1      10.342 -18.882  17.804  1.00  0.00    -0.047 A 
ATOM      3  C   UNL     1      11.548 -18.664  18.485  1.00  0.00     0.050 A 
ATOM      4  C   UNL     1      11.550 -18.233  19.827  1.00  0.00     0.122 A 
ATOM      5  C   UNL     1      10.320 -18.032  20.495  1.00  0.00    -0.003 A 
ATOM      6  C   UNL     1       9.117 -18.276  19.804  1.00  0.00     0.008 A 
ATOM      7  C   UNL     1       9.130 -18.702  18.476  1.00  0.00     0.004 A 
ENDROOT
BRANCH   4   8
ATOM      8  O   UNL     1      12.752 -18.002  20.518  1.00  0.00    -0.496 OA
ATOM      9  C   UNL     1      13.942 -18.770  20.360  1.00  0.00     0.278 C 
ENDBRANCH   4   8
BRANCH   5  10
ATOM     10  C   UNL     1      10.280 -17.568  21.945  1.00  0.00     0.017 C 
ATOM     11  C   UNL     1      10.441 -18.750  22.909  1.00  0.00     0.012 C 
ATOM     12  C   UNL     1       8.993 -16.786  22.242  1.00  0.00     0.012 C 
ENDBRANCH   5  10
TORSDOF 2
ENDMDL
MODEL 6
REMARK VINA RESULT:    -4.511      1.761      3.739
REMARK INTER + INTRA:          -5.279
REMARK INTER:                  -5.062
REMARK INTRA:                  -0.217
REMARK UNBOUND:                -0.240
REMARK SMILES COc1cc(C)ccc1C(C)C
REMARK SMILES IDX 6 1 5 2 4 3 3 4 9 5 8 6 7 7 2 8 1 9 10 10 11 11 12 12
REMARK H PARENT
REMARK Flexibility Score: inf
ROOT
ATOM      1  C   UNL     1       9.634 -22.689  22.570  1.00  0.00     0.044 C 
ATOM      2  C   UNL     1       9.910 -21.453  21.764  1.00  0.00    -0.047 A 
ATOM      3  C   UNL     1       8.910 -20.487  21.592  1.00  0.00     0.050 A 
ATOM      4  C   UNL     1       9.143 -19.339  20.807  1.00  0.00     0.122 A 
ATOM      5  C   UNL     1      10.398 -19.170  20.178  1.00  0.00    -0.003 A 
ATOM      6  C   UNL     1      11.386 -20.161  20.343  1.00  0.00     0.008 A 
ATOM      7  C   UNL     1      11.141 -21.292  21.122  1.00  0.00     0.004 A 
ENDROOT
BRANCH   4   8
ATOM      8  O   UNL     1       8.151 -18.358  20.634  1.00  0.00    -0.496 OA
ATOM      9  C   UNL     1       7.038 -18.474  19.753  1.00  0.00     0.278 C 
ENDBRANCH   4   8
BRANCH   5  10
ATOM     10  C   UNL     1      10.691 -17.945  19.322  1.00  0.00     0.017 C 
ATOM     11  C   UNL     1      10.150 -18.123  17.898  1.00  0.00     0.012 C 
ATOM     12  C   UNL     1      12.191 -17.624  19.307  1.00  0.00     0.012 C 
ENDBRANCH   5  10
TORSDOF 2
ENDMDL
MODEL 7
REMARK VINA RESULT:    -4.417      1.384      3.886
REMARK INTER + INTRA:          -5.174
REMARK INTER:                  -4.920
REMARK INTRA:                  -0.254
REMARK UNBOUND:                -0.240
REMARK SMILES COc1cc(C)ccc1C(C)C
REMARK SMILES IDX 6 1 5 2 4 3 3 4 9 5 8 6 7 7 2 8 1 9 10 10 11 11 12 12
REMARK H PARENT
REMARK Flexibility Score: inf
ROOT
ATOM      1  C   UNL     1       9.599 -19.403  17.029  1.00  0.00     0.044 C 
ATOM      2  C   UNL     1      10.372 -19.140  18.289  1.00  0.00    -0.047 A 
ATOM      3  C   UNL     1      10.537 -20.156  19.240  1.00  0.00     0.050 A 
ATOM      4  C   UNL     1      11.229 -19.911  20.443  1.00  0.00     0.122 A 
ATOM      5  C   UNL     1      11.751 -18.621  20.696  1.00  0.00    -0.003 A 
ATOM      6  C   UNL     1      11.558 -17.605  19.740  1.00  0.00     0.008 A 
ATOM      7  C   UNL     1      10.871 -17.861  18.553  1.00  0.00     0.004 A 
ENDROOT
BRANCH   4   8
ATOM      8  O   UNL     1      11.409 -20.924  21.402  1.00  0.00    -0.496 OA
ATOM      9  C   UNL     1      10.356 -21.678  21.996  1.00  0.00     0.278 C 
ENDBRANCH   4   8
BRANCH   5  10
ATOM     10  C   UNL     1      12.504 -18.316  21.984  1.00  0.00     0.017 C 
ATOM     11  C   UNL     1      11.991 -17.025  22.632  1.00  0.00     0.012 C 
ATOM     12  C   UNL     1      14.017 -18.246  21.737  1.00  0.00     0.012 C 
ENDBRANCH   5  10
TORSDOF 2
ENDMDL
MODEL 8
REMARK VINA RESULT:    -4.406      2.373      3.050
REMARK INTER + INTRA:          -5.161
REMARK INTER:                  -5.049
REMARK INTRA:                  -0.112
REMARK UNBOUND:                -0.240
REMARK SMILES COc1cc(C)ccc1C(C)C
REMARK SMILES IDX 6 1 5 2 4 3 3 4 9 5 8 6 7 7 2 8 1 9 10 10 11 11 12 12
REMARK H PARENT
REMARK Flexibility Score: inf
ROOT
ATOM      1  C   UNL     1      13.468 -17.913  18.960  1.00  0.00     0.044 C 
ATOM      2  C   UNL     1      12.004 -17.914  19.289  1.00  0.00    -0.047 A 
ATOM      3  C   UNL     1      11.580 -17.765  20.617  1.00  0.00     0.050 A 
ATOM      4  C   UNL     1      10.210 -17.801  20.945  1.00  0.00     0.122 A 
ATOM      5  C   UNL     1       9.255 -18.004  19.921  1.00  0.00    -0.003 A 
ATOM      6  C   UNL     1       9.698 -18.174  18.595  1.00  0.00     0.008 A 
ATOM      7  C   UNL     1      11.057 -18.136  18.285  1.00  0.00     0.004 A 
ENDROOT
BRANCH   4   8
ATOM      8  O   UNL     1       9.771 -17.643  22.271  1.00  0.00    -0.496 OA
ATOM      9  C   UNL     1       9.693 -16.397  22.959  1.00  0.00     0.278 C 
ENDBRANCH   4   8
BRANCH   5  10
ATOM     10  C   UNL     1       7.765 -18.049  20.234  1.00  0.00     0.017 C 
ATOM     11  C   UNL     1       7.394 -19.344  20.967  1.00  0.00     0.012 C 
ATOM     12  C   UNL     1       6.926 -17.876  18.962  1.00  0.00     0.012 C 
ENDBRANCH   5  10
TORSDOF 2
ENDMDL
MODEL 9
REMARK VINA RESULT:    -4.372      2.795      4.681
REMARK INTER + INTRA:          -5.123
REMARK INTER:                  -4.883
REMARK INTRA:                  -0.240
REMARK UNBOUND:                -0.240
REMARK SMILES COc1cc(C)ccc1C(C)C
REMARK SMILES IDX 6 1 5 2 4 3 3 4 9 5 8 6 7 7 2 8 1 9 10 10 11 11 12 12
REMARK H PARENT
REMARK Flexibility Score: inf
ROOT
ATOM      1  C   UNL     1       9.627 -18.469  17.749  1.00  0.00     0.044 C 
ATOM      2  C   UNL     1      10.077 -18.125  19.139  1.00  0.00    -0.047 A 
ATOM      3  C   UNL     1      11.412 -18.320  19.515  1.00  0.00     0.050 A 
ATOM      4  C   UNL     1      11.840 -18.036  20.828  1.00  0.00     0.122 A 
ATOM      5  C   UNL     1      10.906 -17.561  21.777  1.00  0.00    -0.003 A 
ATOM      6  C   UNL     1       9.562 -17.391  21.389  1.00  0.00     0.008 A 
ATOM      7  C   UNL     1       9.153 -17.676  20.086  1.00  0.00     0.004 A 
ENDROOT
BRANCH   4   8
ATOM      8  O   UNL     1      13.180 -18.218  21.215  1.00  0.00    -0.496 OA
ATOM      9  C   UNL     1      14.213 -18.708  20.366  1.00  0.00     0.278 C 
ENDBRANCH   4   8
BRANCH   5  10
ATOM     10  C   UNL     1      11.328 -17.242  23.205  1.00  0.00     0.017 C 
ATOM     11  C   UNL     1      10.245 -17.660  24.208  1.00  0.00     0.012 C 
ATOM     12  C   UNL     1      11.680 -15.757  23.361  1.00  0.00     0.012 C 
ENDBRANCH   5  10
TORSDOF 2
ENDMDL
