MODEL 1
REMARK VINA RESULT:    -5.200      0.000      0.000
REMARK INTER + INTRA:          -6.818
REMARK INTER:                  -6.415
REMARK INTRA:                  -0.403
REMARK UNBOUND:                -0.403
REMARK SMILES COC(=O)c1ccccc1C(=O)OC
REMARK SMILES IDX 5 1 6 2 7 3 8 4 9 5 10 6 3 7 4 8 2 9 1 10 11 11 12 12 13 13
REMARK SMILES IDX 14 14
REMARK H PARENT
REMARK Flexibility Score: inf
ROOT
ATOM      1  C   UNL     1       1.787 -20.006  -6.412  1.00  0.00     0.074 A 
ATOM      2  C   UNL     1       1.880 -20.614  -7.678  1.00  0.00     0.016 A 
ATOM      3  C   UNL     1       1.231 -21.821  -7.939  1.00  0.00     0.001 A 
ATOM      4  C   UNL     1       0.479 -22.440  -6.944  1.00  0.00     0.001 A 
ATOM      5  C   UNL     1       0.392 -21.867  -5.675  1.00  0.00     0.016 A 
ATOM      6  C   UNL     1       1.055 -20.662  -5.381  1.00  0.00     0.074 A 
ENDROOT
BRANCH   1   7
ATOM      7  C   UNL     1       2.405 -18.672  -6.239  1.00  0.00     0.338 C 
ATOM      8  O   UNL     1       1.681 -17.651  -6.072  1.00  0.00    -0.246 OA
BRANCH   7   9
ATOM      9  O   UNL     1       3.794 -18.541  -6.318  1.00  0.00    -0.465 OA
ATOM     10  C   UNL     1       4.685 -19.314  -5.522  1.00  0.00     0.282 C 
ENDBRANCH   7   9
ENDBRANCH   1   7
BRANCH   6  11
ATOM     11  C   UNL     1       1.013 -20.172  -3.984  1.00  0.00     0.338 C 
ATOM     12  O   UNL     1      -0.030 -19.623  -3.533  1.00  0.00    -0.246 OA
BRANCH  11  13
ATOM     13  O   UNL     1       2.157 -20.267  -3.186  1.00  0.00    -0.465 OA
ATOM     14  C   UNL     1       2.610 -19.199  -2.363  1.00  0.00     0.282 C 
ENDBRANCH  11  13
ENDBRANCH   6  11
TORSDOF 4
ENDMDL
MODEL 2
REMARK VINA RESULT:    -5.179      0.648      3.127
REMARK INTER + INTRA:          -6.793
REMARK INTER:                  -6.381
REMARK INTRA:                  -0.412
REMARK UNBOUND:                -0.403
REMARK SMILES COC(=O)c1ccccc1C(=O)OC
REMARK SMILES IDX 5 1 6 2 7 3 8 4 9 5 10 6 3 7 4 8 2 9 1 10 11 11 12 12 13 13
REMARK SMILES IDX 14 14
REMARK H PARENT
REMARK Flexibility Score: inf
ROOT
ATOM      1  C   UNL     1       1.073 -20.641  -5.373  1.00  0.00     0.074 A 
ATOM      2  C   UNL     1       0.364 -21.824  -5.650  1.00  0.00     0.016 A 
ATOM      3  C   UNL     1       0.431 -22.418  -6.910  1.00  0.00     0.001 A 
ATOM      4  C   UNL     1       1.207 -21.842  -7.913  1.00  0.00     0.001 A 
ATOM      5  C   UNL     1       1.900 -20.656  -7.668  1.00  0.00     0.016 A 
ATOM      6  C   UNL     1       1.830 -20.028  -6.412  1.00  0.00     0.074 A 
ENDROOT
BRANCH   1   7
ATOM      7  C   UNL     1       1.048 -20.129  -3.983  1.00  0.00     0.338 C 
ATOM      8  O   UNL     1       0.017 -19.557  -3.533  1.00  0.00    -0.246 OA
BRANCH   7   9
ATOM      9  O   UNL     1       2.195 -20.232  -3.191  1.00  0.00    -0.465 OA
ATOM     10  C   UNL     1       2.656 -19.168  -2.366  1.00  0.00     0.282 C 
ENDBRANCH   7   9
ENDBRANCH   1   7
BRANCH   6  11
ATOM     11  C   UNL     1       2.497 -18.715  -6.256  1.00  0.00     0.338 C 
ATOM     12  O   UNL     1       3.757 -18.641  -6.224  1.00  0.00    -0.246 OA
BRANCH  11  13
ATOM     13  O   UNL     1       1.722 -17.564  -6.087  1.00  0.00    -0.465 OA
ATOM     14  C   UNL     1       1.958 -16.627  -5.043  1.00  0.00     0.282 C 
ENDBRANCH  11  13
ENDBRANCH   6  11
TORSDOF 4
ENDMDL
MODEL 3
REMARK VINA RESULT:    -5.178      0.670      1.366
REMARK INTER + INTRA:          -6.792
REMARK INTER:                  -6.362
REMARK INTRA:                  -0.430
REMARK UNBOUND:                -0.403
REMARK SMILES COC(=O)c1ccccc1C(=O)OC
REMARK SMILES IDX 5 1 6 2 7 3 8 4 9 5 10 6 3 7 4 8 2 9 1 10 11 11 12 12 13 13
REMARK SMILES IDX 14 14
REMARK H PARENT
REMARK Flexibility Score: inf
ROOT
ATOM      1  C   UNL     1       1.893 -19.980  -6.406  1.00  0.00     0.074 A 
ATOM      2  C   UNL     1       1.999 -20.565  -7.681  1.00  0.00     0.016 A 
ATOM      3  C   UNL     1       1.314 -21.741  -7.985  1.00  0.00     0.001 A 
ATOM      4  C   UNL     1       0.514 -22.353  -7.024  1.00  0.00     0.001 A 
ATOM      5  C   UNL     1       0.412 -21.803  -5.745  1.00  0.00     0.016 A 
ATOM      6  C   UNL     1       1.111 -20.629  -5.409  1.00  0.00     0.074 A 
ENDROOT
BRANCH   1   7
ATOM      7  C   UNL     1       2.553 -18.672  -6.188  1.00  0.00     0.338 C 
ATOM      8  O   UNL     1       3.806 -18.606  -6.049  1.00  0.00    -0.246 OA
BRANCH   7   9
ATOM      9  O   UNL     1       1.773 -17.517  -6.079  1.00  0.00    -0.465 OA
ATOM     10  C   UNL     1       1.883 -16.617  -4.982  1.00  0.00     0.282 C 
ENDBRANCH   7   9
ENDBRANCH   1   7
BRANCH   6  11
ATOM     11  C   UNL     1       1.048 -20.166  -4.004  1.00  0.00     0.338 C 
ATOM     12  O   UNL     1      -0.006 -19.637  -3.554  1.00  0.00    -0.246 OA
BRANCH  11  13
ATOM     13  O   UNL     1       2.183 -20.265  -3.194  1.00  0.00    -0.465 OA
ATOM     14  C   UNL     1       2.598 -19.220  -2.323  1.00  0.00     0.282 C 
ENDBRANCH  11  13
ENDBRANCH   6  11
TORSDOF 4
ENDMDL
MODEL 4
REMARK VINA RESULT:    -4.832      1.165      3.481
REMARK INTER + INTRA:          -6.365
REMARK INTER:                  -6.088
REMARK INTRA:                  -0.277
REMARK UNBOUND:                -0.403
REMARK SMILES COC(=O)c1ccccc1C(=O)OC
REMARK SMILES IDX 5 1 6 2 7 3 8 4 9 5 10 6 3 7 4 8 2 9 1 10 11 11 12 12 13 13
REMARK SMILES IDX 14 14
REMARK H PARENT
REMARK Flexibility Score: inf
ROOT
ATOM      1  C   UNL     1       1.396 -20.586  -5.217  1.00  0.00     0.074 A 
ATOM      2  C   UNL     1       0.347 -21.522  -5.266  1.00  0.00     0.016 A 
ATOM      3  C   UNL     1       0.121 -22.282  -6.414  1.00  0.00     0.001 A 
ATOM      4  C   UNL     1       0.937 -22.120  -7.531  1.00  0.00     0.001 A 
ATOM      5  C   UNL     1       1.969 -21.180  -7.513  1.00  0.00     0.016 A 
ATOM      6  C   UNL     1       2.201 -20.388  -6.374  1.00  0.00     0.074 A 
ENDROOT
BRANCH   1   7
ATOM      7  C   UNL     1       1.649 -19.898  -3.930  1.00  0.00     0.338 C 
ATOM      8  O   UNL     1       2.569 -20.297  -3.165  1.00  0.00    -0.246 OA
BRANCH   7   9
ATOM      9  O   UNL     1       0.825 -18.838  -3.542  1.00  0.00    -0.465 OA
ATOM     10  C   UNL     1       1.318 -17.520  -3.331  1.00  0.00     0.282 C 
ENDBRANCH   7   9
ENDBRANCH   1   7
BRANCH   6  11
ATOM     11  C   UNL     1       3.238 -19.334  -6.465  1.00  0.00     0.338 C 
ATOM     12  O   UNL     1       2.913 -18.116  -6.418  1.00  0.00    -0.246 OA
BRANCH  11  13
ATOM     13  O   UNL     1       4.573 -19.697  -6.662  1.00  0.00    -0.465 OA
ATOM     14  C   UNL     1       5.339 -19.234  -7.768  1.00  0.00     0.282 C 
ENDBRANCH  11  13
ENDBRANCH   6  11
TORSDOF 4
ENDMDL
MODEL 5
REMARK VINA RESULT:    -4.715     10.580     12.318
REMARK INTER + INTRA:          -6.221
REMARK INTER:                  -5.935
REMARK INTRA:                  -0.285
REMARK UNBOUND:                -0.403
REMARK SMILES COC(=O)c1ccccc1C(=O)OC
REMARK SMILES IDX 5 1 6 2 7 3 8 4 9 5 10 6 3 7 4 8 2 9 1 10 11 11 12 12 13 13
REMARK SMILES IDX 14 14
REMARK H PARENT
REMARK Flexibility Score: inf
ROOT
ATOM      1  C   UNL     1      -7.100 -26.623  -2.686  1.00  0.00     0.074 A 
ATOM      2  C   UNL     1      -5.729 -26.908  -2.541  1.00  0.00     0.016 A 
ATOM      3  C   UNL     1      -5.155 -28.001  -3.190  1.00  0.00     0.001 A 
ATOM      4  C   UNL     1      -5.937 -28.826  -3.994  1.00  0.00     0.001 A 
ATOM      5  C   UNL     1      -7.303 -28.576  -4.134  1.00  0.00     0.016 A 
ATOM      6  C   UNL     1      -7.908 -27.493  -3.472  1.00  0.00     0.074 A 
ENDROOT
BRANCH   1   7
ATOM      7  C   UNL     1      -7.618 -25.383  -2.063  1.00  0.00     0.338 C 
ATOM      8  O   UNL     1      -8.324 -25.442  -1.019  1.00  0.00    -0.246 OA
BRANCH   7   9
ATOM      9  O   UNL     1      -7.367 -24.150  -2.672  1.00  0.00    -0.465 OA
ATOM     10  C   UNL     1      -7.441 -22.916  -1.966  1.00  0.00     0.282 C 
ENDBRANCH   7   9
ENDBRANCH   1   7
BRANCH   6  11
ATOM     11  C   UNL     1      -9.379 -27.354  -3.574  1.00  0.00     0.338 C 
ATOM     12  O   UNL     1     -10.138 -28.180  -2.998  1.00  0.00    -0.246 OA
BRANCH  11  13
ATOM     13  O   UNL     1      -9.921 -26.334  -4.363  1.00  0.00    -0.465 OA
ATOM     14  C   UNL     1     -10.903 -25.427  -3.876  1.00  0.00     0.282 C 
ENDBRANCH  11  13
ENDBRANCH   6  11
TORSDOF 4
ENDMDL
MODEL 6
REMARK VINA RESULT:    -4.675     10.643     12.493
REMARK INTER + INTRA:          -6.171
REMARK INTER:                  -5.847
REMARK INTRA:                  -0.325
REMARK UNBOUND:                -0.403
REMARK SMILES COC(=O)c1ccccc1C(=O)OC
REMARK SMILES IDX 5 1 6 2 7 3 8 4 9 5 10 6 3 7 4 8 2 9 1 10 11 11 12 12 13 13
REMARK SMILES IDX 14 14
REMARK H PARENT
REMARK Flexibility Score: inf
ROOT
ATOM      1  C   UNL     1      -7.885 -27.401  -3.519  1.00  0.00     0.074 A 
ATOM      2  C   UNL     1      -7.342 -28.547  -4.129  1.00  0.00     0.016 A 
ATOM      3  C   UNL     1      -5.994 -28.869  -3.969  1.00  0.00     0.001 A 
ATOM      4  C   UNL     1      -5.167 -28.054  -3.200  1.00  0.00     0.001 A 
ATOM      5  C   UNL     1      -5.679 -26.900  -2.605  1.00  0.00     0.016 A 
ATOM      6  C   UNL     1      -7.030 -26.544  -2.770  1.00  0.00     0.074 A 
ENDROOT
BRANCH   1   7
ATOM      7  C   UNL     1      -9.346 -27.183  -3.635  1.00  0.00     0.338 C 
ATOM      8  O   UNL     1     -10.153 -27.941  -3.031  1.00  0.00    -0.246 OA
BRANCH   7   9
ATOM      9  O   UNL     1      -9.826 -26.165  -4.465  1.00  0.00    -0.465 OA
ATOM     10  C   UNL     1     -11.083 -25.533  -4.255  1.00  0.00     0.282 C 
ENDBRANCH   7   9
ENDBRANCH   1   7
BRANCH   6  11
ATOM     11  C   UNL     1      -7.478 -25.250  -2.207  1.00  0.00     0.338 C 
ATOM     12  O   UNL     1      -7.056 -24.164  -2.692  1.00  0.00    -0.246 OA
BRANCH  11  13
ATOM     13  O   UNL     1      -8.325 -25.239  -1.095  1.00  0.00    -0.465 OA
ATOM     14  C   UNL     1      -9.489 -24.424  -1.025  1.00  0.00     0.282 C 
ENDBRANCH  11  13
ENDBRANCH   6  11
TORSDOF 4
ENDMDL
MODEL 7
REMARK VINA RESULT:    -4.507     10.719     12.871
REMARK INTER + INTRA:          -5.964
REMARK INTER:                  -5.751
REMARK INTRA:                  -0.213
REMARK UNBOUND:                -0.403
REMARK SMILES COC(=O)c1ccccc1C(=O)OC
REMARK SMILES IDX 5 1 6 2 7 3 8 4 9 5 10 6 3 7 4 8 2 9 1 10 11 11 12 12 13 13
REMARK SMILES IDX 14 14
REMARK H PARENT
REMARK Flexibility Score: inf
ROOT
ATOM      1  C   UNL     1      -7.923 -28.001  -3.186  1.00  0.00     0.074 A 
ATOM      2  C   UNL     1      -7.370 -29.101  -3.866  1.00  0.00     0.016 A 
ATOM      3  C   UNL     1      -5.987 -29.264  -3.953  1.00  0.00     0.001 A 
ATOM      4  C   UNL     1      -5.135 -28.334  -3.364  1.00  0.00     0.001 A 
ATOM      5  C   UNL     1      -5.662 -27.223  -2.703  1.00  0.00     0.016 A 
ATOM      6  C   UNL     1      -7.052 -27.026  -2.622  1.00  0.00     0.074 A 
ENDROOT
BRANCH   1   7
ATOM      7  C   UNL     1      -9.396 -27.951  -3.033  1.00  0.00     0.338 C 
ATOM      8  O   UNL     1     -10.095 -27.259  -3.823  1.00  0.00    -0.246 OA
BRANCH   7   9
ATOM      9  O   UNL     1     -10.001 -28.632  -1.972  1.00  0.00    -0.465 OA
ATOM     10  C   UNL     1     -10.640 -29.893  -2.135  1.00  0.00     0.282 C 
ENDBRANCH   7   9
ENDBRANCH   1   7
BRANCH   6  11
ATOM     11  C   UNL     1      -7.537 -25.769  -2.007  1.00  0.00     0.338 C 
ATOM     12  O   UNL     1      -8.143 -25.794  -0.900  1.00  0.00    -0.246 OA
BRANCH  11  13
ATOM     13  O   UNL     1      -7.372 -24.560  -2.689  1.00  0.00    -0.465 OA
ATOM     14  C   UNL     1      -7.468 -23.296  -2.044  1.00  0.00     0.282 C 
ENDBRANCH  11  13
ENDBRANCH   6  11
TORSDOF 4
ENDMDL
MODEL 8
REMARK VINA RESULT:    -4.494      1.822      3.542
REMARK INTER + INTRA:          -5.948
REMARK INTER:                  -5.564
REMARK INTRA:                  -0.384
REMARK UNBOUND:                -0.403
REMARK SMILES COC(=O)c1ccccc1C(=O)OC
REMARK SMILES IDX 5 1 6 2 7 3 8 4 9 5 10 6 3 7 4 8 2 9 1 10 11 11 12 12 13 13
REMARK SMILES IDX 14 14
REMARK H PARENT
REMARK Flexibility Score: inf
ROOT
ATOM      1  C   UNL     1       2.155 -20.581  -5.383  1.00  0.00     0.074 A 
ATOM      2  C   UNL     1       0.831 -20.987  -5.132  1.00  0.00     0.016 A 
ATOM      3  C   UNL     1       0.129 -21.747  -6.067  1.00  0.00     0.001 A 
ATOM      4  C   UNL     1       0.735 -22.116  -7.265  1.00  0.00     0.001 A 
ATOM      5  C   UNL     1       2.039 -21.707  -7.544  1.00  0.00     0.016 A 
ATOM      6  C   UNL     1       2.759 -20.921  -6.627  1.00  0.00     0.074 A 
ENDROOT
BRANCH   1   7
ATOM      7  C   UNL     1       2.879 -19.875  -4.300  1.00  0.00     0.338 C 
ATOM      8  O   UNL     1       2.913 -18.614  -4.273  1.00  0.00    -0.246 OA
BRANCH   7   9
ATOM      9  O   UNL     1       3.574 -20.616  -3.340  1.00  0.00    -0.465 OA
ATOM     10  C   UNL     1       4.986 -20.788  -3.377  1.00  0.00     0.282 C 
ENDBRANCH   7   9
ENDBRANCH   1   7
BRANCH   6  11
ATOM     11  C   UNL     1       4.094 -20.427  -7.037  1.00  0.00     0.338 C 
ATOM     12  O   UNL     1       4.217 -19.288  -7.566  1.00  0.00    -0.246 OA
BRANCH  11  13
ATOM     13  O   UNL     1       5.210 -21.255  -6.887  1.00  0.00    -0.465 OA
ATOM     14  C   UNL     1       6.519 -20.858  -7.278  1.00  0.00     0.282 C 
ENDBRANCH  11  13
ENDBRANCH   6  11
TORSDOF 4
ENDMDL
MODEL 9
REMARK VINA RESULT:    -4.457      1.629      2.267
REMARK INTER + INTRA:          -5.902
REMARK INTER:                  -5.522
REMARK INTRA:                  -0.380
REMARK UNBOUND:                -0.403
REMARK SMILES COC(=O)c1ccccc1C(=O)OC
REMARK SMILES IDX 5 1 6 2 7 3 8 4 9 5 10 6 3 7 4 8 2 9 1 10 11 11 12 12 13 13
REMARK SMILES IDX 14 14
REMARK H PARENT
REMARK Flexibility Score: inf
ROOT
ATOM      1  C   UNL     1       2.684 -21.021  -6.609  1.00  0.00     0.074 A 
ATOM      2  C   UNL     1       1.908 -21.805  -7.483  1.00  0.00     0.016 A 
ATOM      3  C   UNL     1       0.594 -22.145  -7.160  1.00  0.00     0.001 A 
ATOM      4  C   UNL     1       0.033 -21.709  -5.963  1.00  0.00     0.001 A 
ATOM      5  C   UNL     1       0.792 -20.949  -5.071  1.00  0.00     0.016 A 
ATOM      6  C   UNL     1       2.125 -20.613  -5.365  1.00  0.00     0.074 A 
ENDROOT
BRANCH   1   7
ATOM      7  C   UNL     1       4.029 -20.603  -7.066  1.00  0.00     0.338 C 
ATOM      8  O   UNL     1       4.997 -21.411  -7.022  1.00  0.00    -0.246 OA
BRANCH   7   9
ATOM      9  O   UNL     1       4.232 -19.287  -7.493  1.00  0.00    -0.465 OA
ATOM     10  C   UNL     1       5.279 -18.468  -6.984  1.00  0.00     0.282 C 
ENDBRANCH   7   9
ENDBRANCH   1   7
BRANCH   6  11
ATOM     11  C   UNL     1       2.905 -19.904  -4.324  1.00  0.00     0.338 C 
ATOM     12  O   UNL     1       3.663 -20.547  -3.547  1.00  0.00    -0.246 OA
BRANCH  11  13
ATOM     13  O   UNL     1       2.752 -18.523  -4.171  1.00  0.00    -0.465 OA
ATOM     14  C   UNL     1       2.150 -17.940  -3.021  1.00  0.00     0.282 C 
ENDBRANCH  11  13
ENDBRANCH   6  11
TORSDOF 4
ENDMDL
