MODEL 1
REMARK VINA RESULT:    -3.506      0.000      0.000
REMARK INTER + INTRA:          -4.247
REMARK INTER:                  -4.121
REMARK INTRA:                  -0.126
REMARK UNBOUND:                -0.126
REMARK SMILES O=C([O-])C=Cc1ccc(O)c(O)c1
REMARK SMILES IDX 6 1 13 2 7 3 11 4 8 5 9 6 5 7 4 8 2 9 1 10 3 11 12 12 10 14
REMARK H PARENT 12 13 10 15
REMARK Flexibility Score: inf
ROOT
ATOM      1  C   UNL     1       8.231 -20.599  11.898  1.00  0.00    -0.022 A 
ATOM      2  C   UNL     1       7.468 -21.655  12.438  1.00  0.00     0.058 A 
ATOM      3  C   UNL     1       8.841 -19.688  12.775  1.00  0.00     0.012 A 
ATOM      4  C   UNL     1       7.301 -21.780  13.822  1.00  0.00     0.157 A 
ATOM      5  C   UNL     1       8.675 -19.809  14.157  1.00  0.00     0.051 A 
ATOM      6  C   UNL     1       7.904 -20.851  14.687  1.00  0.00     0.157 A 
ENDROOT
BRANCH   1   7
ATOM      7  C   UNL     1       8.446 -20.434  10.439  1.00  0.00     0.010 C 
ATOM      8  C   UNL     1       8.842 -21.425   9.628  1.00  0.00     0.025 C 
BRANCH   8   9
ATOM      9  C   UNL     1       9.031 -21.218   8.183  1.00  0.00     0.064 C 
ATOM     10  O   UNL     1       9.124 -22.215   7.421  1.00  0.00    -0.545 OA
ATOM     11  O   UNL     1       9.111 -19.938   7.646  1.00  0.00    -0.545 OA
ENDBRANCH   8   9
ENDBRANCH   1   7
BRANCH   4  12
ATOM     12  O   UNL     1       6.537 -22.835  14.319  1.00  0.00    -0.504 OA
ATOM     13  H   UNL     1       5.574 -22.981  14.040  1.00  0.00     0.293 HD
ENDBRANCH   4  12
BRANCH   6  14
ATOM     14  O   UNL     1       7.737 -20.969  16.065  1.00  0.00    -0.504 OA
ATOM     15  H   UNL     1       7.687 -20.153  16.665  1.00  0.00     0.293 HD
ENDBRANCH   6  14
TORSDOF 4
ENDMDL
MODEL 2
REMARK VINA RESULT:    -3.458      0.941      1.929
REMARK INTER + INTRA:          -4.190
REMARK INTER:                  -4.064
REMARK INTRA:                  -0.126
REMARK UNBOUND:                -0.126
REMARK SMILES O=C([O-])C=Cc1ccc(O)c(O)c1
REMARK SMILES IDX 6 1 13 2 7 3 11 4 8 5 9 6 5 7 4 8 2 9 1 10 3 11 12 12 10 14
REMARK H PARENT 12 13 10 15
REMARK Flexibility Score: inf
ROOT
ATOM      1  C   UNL     1       8.156 -21.453  11.912  1.00  0.00    -0.022 A 
ATOM      2  C   UNL     1       8.727 -20.373  12.616  1.00  0.00     0.058 A 
ATOM      3  C   UNL     1       7.377 -22.384  12.617  1.00  0.00     0.012 A 
ATOM      4  C   UNL     1       8.542 -20.244  13.997  1.00  0.00     0.157 A 
ATOM      5  C   UNL     1       7.192 -22.258  13.996  1.00  0.00     0.051 A 
ATOM      6  C   UNL     1       7.774 -21.192  14.693  1.00  0.00     0.157 A 
ENDROOT
BRANCH   1   7
ATOM      7  C   UNL     1       8.315 -21.625  10.446  1.00  0.00     0.010 C 
ATOM      8  C   UNL     1       8.849 -20.696   9.642  1.00  0.00     0.025 C 
BRANCH   8   9
ATOM      9  C   UNL     1       8.998 -20.915   8.194  1.00  0.00     0.064 C 
ATOM     10  O   UNL     1       9.014 -22.089   7.742  1.00  0.00    -0.545 OA
ATOM     11  O   UNL     1       9.125 -19.844   7.316  1.00  0.00    -0.545 OA
ENDBRANCH   8   9
ENDBRANCH   1   7
BRANCH   4  12
ATOM     12  O   UNL     1       9.125 -19.164  14.660  1.00  0.00    -0.504 OA
ATOM     13  H   UNL     1       9.982 -19.258  15.191  1.00  0.00     0.293 HD
ENDBRANCH   4  12
BRANCH   6  14
ATOM     14  O   UNL     1       7.589 -21.070  16.069  1.00  0.00    -0.504 OA
ATOM     15  H   UNL     1       7.304 -20.193  16.490  1.00  0.00     0.293 HD
ENDBRANCH   6  14
TORSDOF 4
ENDMDL
MODEL 3
REMARK VINA RESULT:    -3.423     20.345     21.559
REMARK INTER + INTRA:          -4.149
REMARK INTER:                  -3.999
REMARK INTRA:                  -0.151
REMARK UNBOUND:                -0.126
REMARK SMILES O=C([O-])C=Cc1ccc(O)c(O)c1
REMARK SMILES IDX 6 1 13 2 7 3 11 4 8 5 9 6 5 7 4 8 2 9 1 10 3 11 12 12 10 14
REMARK H PARENT 12 13 10 15
REMARK Flexibility Score: inf
ROOT
ATOM      1  C   UNL     1     -10.427 -20.108  21.120  1.00  0.00    -0.022 A 
ATOM      2  C   UNL     1     -10.624 -18.714  21.028  1.00  0.00     0.058 A 
ATOM      3  C   UNL     1     -10.445 -20.873  19.943  1.00  0.00     0.012 A 
ATOM      4  C   UNL     1     -10.857 -18.108  19.788  1.00  0.00     0.157 A 
ATOM      5  C   UNL     1     -10.679 -20.271  18.705  1.00  0.00     0.051 A 
ATOM      6  C   UNL     1     -10.888 -18.888  18.620  1.00  0.00     0.157 A 
ENDROOT
BRANCH   1   7
ATOM      7  C   UNL     1     -10.165 -20.793  22.410  1.00  0.00     0.010 C 
ATOM      8  C   UNL     1      -9.975 -22.115  22.525  1.00  0.00     0.025 C 
BRANCH   8   9
ATOM      9  C   UNL     1      -9.704 -22.751  23.824  1.00  0.00     0.064 C 
ATOM     10  O   UNL     1     -10.655 -22.965  24.621  1.00  0.00    -0.545 OA
ATOM     11  O   UNL     1      -8.414 -23.118  24.188  1.00  0.00    -0.545 OA
ENDBRANCH   8   9
ENDBRANCH   1   7
BRANCH   4  12
ATOM     12  O   UNL     1     -11.051 -16.728  19.736  1.00  0.00    -0.504 OA
ATOM     13  H   UNL     1     -10.318 -16.072  19.979  1.00  0.00     0.293 HD
ENDBRANCH   4  12
BRANCH   6  14
ATOM     14  O   UNL     1     -11.124 -18.290  17.385  1.00  0.00    -0.504 OA
ATOM     15  H   UNL     1     -12.059 -18.217  17.000  1.00  0.00     0.293 HD
ENDBRANCH   6  14
TORSDOF 4
ENDMDL
MODEL 4
REMARK VINA RESULT:    -3.375      1.498      5.839
REMARK INTER + INTRA:          -4.093
REMARK INTER:                  -3.944
REMARK INTRA:                  -0.149
REMARK UNBOUND:                -0.126
REMARK SMILES O=C([O-])C=Cc1ccc(O)c(O)c1
REMARK SMILES IDX 6 1 13 2 7 3 11 4 8 5 9 6 5 7 4 8 2 9 1 10 3 11 12 12 10 14
REMARK H PARENT 12 13 10 15
REMARK Flexibility Score: inf
ROOT
ATOM      1  C   UNL     1       7.727 -21.508  12.616  1.00  0.00    -0.022 A 
ATOM      2  C   UNL     1       7.688 -22.399  11.524  1.00  0.00     0.058 A 
ATOM      3  C   UNL     1       8.102 -20.174  12.389  1.00  0.00     0.012 A 
ATOM      4  C   UNL     1       8.040 -21.969  10.240  1.00  0.00     0.157 A 
ATOM      5  C   UNL     1       8.456 -19.743  11.108  1.00  0.00     0.051 A 
ATOM      6  C   UNL     1       8.430 -20.636  10.029  1.00  0.00     0.157 A 
ENDROOT
BRANCH   1   7
ATOM      7  C   UNL     1       7.351 -21.915  13.993  1.00  0.00     0.010 C 
ATOM      8  C   UNL     1       7.673 -21.216  15.090  1.00  0.00     0.025 C 
BRANCH   8   9
ATOM      9  C   UNL     1       7.267 -21.652  16.436  1.00  0.00     0.064 C 
ATOM     10  O   UNL     1       7.853 -22.625  16.977  1.00  0.00    -0.545 OA
ATOM     11  O   UNL     1       6.244 -21.006  17.120  1.00  0.00    -0.545 OA
ENDBRANCH   8   9
ENDBRANCH   1   7
BRANCH   4  12
ATOM     12  O   UNL     1       7.992 -22.879   9.184  1.00  0.00    -0.504 OA
ATOM     13  H   UNL     1       8.819 -23.362   8.853  1.00  0.00     0.293 HD
ENDBRANCH   4  12
BRANCH   6  14
ATOM     14  O   UNL     1       8.785 -20.203   8.753  1.00  0.00    -0.504 OA
ATOM     15  H   UNL     1       8.099 -20.114   8.013  1.00  0.00     0.293 HD
ENDBRANCH   6  14
TORSDOF 4
ENDMDL
MODEL 5
REMARK VINA RESULT:    -3.280     18.877     20.706
REMARK INTER + INTRA:          -3.981
REMARK INTER:                  -3.853
REMARK INTRA:                  -0.128
REMARK UNBOUND:                -0.126
REMARK SMILES O=C([O-])C=Cc1ccc(O)c(O)c1
REMARK SMILES IDX 6 1 13 2 7 3 11 4 8 5 9 6 5 7 4 8 2 9 1 10 3 11 12 12 10 14
REMARK H PARENT 12 13 10 15
REMARK Flexibility Score: inf
ROOT
ATOM      1  C   UNL     1     -10.451 -19.637  19.331  1.00  0.00    -0.022 A 
ATOM      2  C   UNL     1      -9.745 -20.800  18.959  1.00  0.00     0.058 A 
ATOM      3  C   UNL     1     -11.125 -18.908  18.338  1.00  0.00     0.012 A 
ATOM      4  C   UNL     1      -9.696 -21.206  17.620  1.00  0.00     0.157 A 
ATOM      5  C   UNL     1     -11.076 -19.310  17.002  1.00  0.00     0.051 A 
ATOM      6  C   UNL     1     -10.361 -20.457  16.635  1.00  0.00     0.157 A 
ENDROOT
BRANCH   1   7
ATOM      7  C   UNL     1     -10.542 -19.174  20.738  1.00  0.00     0.010 C 
ATOM      8  C   UNL     1      -9.636 -18.375  21.319  1.00  0.00     0.025 C 
BRANCH   8   9
ATOM      9  C   UNL     1      -9.773 -17.930  22.715  1.00  0.00     0.064 C 
ATOM     10  O   UNL     1      -8.832 -17.298  23.260  1.00  0.00    -0.545 OA
ATOM     11  O   UNL     1     -10.926 -18.200  23.443  1.00  0.00    -0.545 OA
ENDBRANCH   8   9
ENDBRANCH   1   7
BRANCH   4  12
ATOM     12  O   UNL     1      -8.985 -22.359  17.289  1.00  0.00    -0.504 OA
ATOM     13  H   UNL     1      -8.577 -22.962  17.995  1.00  0.00     0.293 HD
ENDBRANCH   4  12
BRANCH   6  14
ATOM     14  O   UNL     1     -10.311 -20.856  15.301  1.00  0.00    -0.504 OA
ATOM     15  H   UNL     1      -9.629 -21.531  14.974  1.00  0.00     0.293 HD
ENDBRANCH   6  14
TORSDOF 4
ENDMDL
MODEL 6
REMARK VINA RESULT:    -3.000     18.463     19.847
REMARK INTER + INTRA:          -3.652
REMARK INTER:                  -3.526
REMARK INTRA:                  -0.125
REMARK UNBOUND:                -0.126
REMARK SMILES O=C([O-])C=Cc1ccc(O)c(O)c1
REMARK SMILES IDX 6 1 13 2 7 3 11 4 8 5 9 6 5 7 4 8 2 9 1 10 3 11 12 12 10 14
REMARK H PARENT 12 13 10 15
REMARK Flexibility Score: inf
ROOT
ATOM      1  C   UNL     1     -10.090 -20.899  18.837  1.00  0.00    -0.022 A 
ATOM      2  C   UNL     1     -10.312 -19.631  19.413  1.00  0.00     0.058 A 
ATOM      3  C   UNL     1     -10.072 -22.028  19.672  1.00  0.00     0.012 A 
ATOM      4  C   UNL     1     -10.486 -19.496  20.795  1.00  0.00     0.157 A 
ATOM      5  C   UNL     1     -10.243 -21.895  21.052  1.00  0.00     0.051 A 
ATOM      6  C   UNL     1     -10.448 -20.632  21.621  1.00  0.00     0.157 A 
ENDROOT
BRANCH   1   7
ATOM      7  C   UNL     1      -9.913 -21.093  17.376  1.00  0.00     0.010 C 
ATOM      8  C   UNL     1     -10.251 -20.178  16.458  1.00  0.00     0.025 C 
BRANCH   8   9
ATOM      9  C   UNL     1     -10.045 -20.409  15.019  1.00  0.00     0.064 C 
ATOM     10  O   UNL     1      -8.875 -20.491  14.564  1.00  0.00    -0.545 OA
ATOM     11  O   UNL     1     -11.125 -20.533  14.151  1.00  0.00    -0.545 OA
ENDBRANCH   8   9
ENDBRANCH   1   7
BRANCH   4  12
ATOM     12  O   UNL     1     -10.699 -18.226  21.329  1.00  0.00    -0.504 OA
ATOM     13  H   UNL     1     -10.032 -17.784  21.951  1.00  0.00     0.293 HD
ENDBRANCH   4  12
BRANCH   6  14
ATOM     14  O   UNL     1     -10.617 -20.502  22.998  1.00  0.00    -0.504 OA
ATOM     15  H   UNL     1      -9.836 -20.298  23.611  1.00  0.00     0.293 HD
ENDBRANCH   6  14
TORSDOF 4
ENDMDL
MODEL 7
REMARK VINA RESULT:    -2.799     16.128     18.712
REMARK INTER + INTRA:          -3.415
REMARK INTER:                  -3.267
REMARK INTRA:                  -0.148
REMARK UNBOUND:                -0.126
REMARK SMILES O=C([O-])C=Cc1ccc(O)c(O)c1
REMARK SMILES IDX 6 1 13 2 7 3 11 4 8 5 9 6 5 7 4 8 2 9 1 10 3 11 12 12 10 14
REMARK H PARENT 12 13 10 15
REMARK Flexibility Score: inf
ROOT
ATOM      1  C   UNL     1      -7.936 -22.700  19.113  1.00  0.00    -0.022 A 
ATOM      2  C   UNL     1      -8.174 -22.194  17.819  1.00  0.00     0.058 A 
ATOM      3  C   UNL     1      -6.640 -23.125  19.445  1.00  0.00     0.012 A 
ATOM      4  C   UNL     1      -7.144 -22.139  16.873  1.00  0.00     0.157 A 
ATOM      5  C   UNL     1      -5.610 -23.073  18.503  1.00  0.00     0.051 A 
ATOM      6  C   UNL     1      -5.855 -22.583  17.214  1.00  0.00     0.157 A 
ENDROOT
BRANCH   1   7
ATOM      7  C   UNL     1      -8.994 -22.767  20.152  1.00  0.00     0.010 C 
ATOM      8  C   UNL     1      -8.773 -22.537  21.454  1.00  0.00     0.025 C 
BRANCH   8   9
ATOM      9  C   UNL     1      -9.856 -22.602  22.449  1.00  0.00     0.064 C 
ATOM     10  O   UNL     1     -11.016 -22.923  22.084  1.00  0.00    -0.545 OA
ATOM     11  O   UNL     1      -9.618 -22.309  23.787  1.00  0.00    -0.545 OA
ENDBRANCH   8   9
ENDBRANCH   1   7
BRANCH   4  12
ATOM     12  O   UNL     1      -7.418 -21.636  15.602  1.00  0.00    -0.504 OA
ATOM     13  H   UNL     1      -6.686 -21.305  14.985  1.00  0.00     0.293 HD
ENDBRANCH   4  12
BRANCH   6  14
ATOM     14  O   UNL     1      -4.827 -22.534  16.275  1.00  0.00    -0.504 OA
ATOM     15  H   UNL     1      -4.842 -21.874  15.506  1.00  0.00     0.293 HD
ENDBRANCH   6  14
TORSDOF 4
ENDMDL
MODEL 8
REMARK VINA RESULT:    -0.833     19.883     20.659
REMARK INTER + INTRA:          -1.105
REMARK INTER:                  -0.982
REMARK INTRA:                  -0.123
REMARK UNBOUND:                -0.126
REMARK SMILES O=C([O-])C=Cc1ccc(O)c(O)c1
REMARK SMILES IDX 6 1 13 2 7 3 11 4 8 5 9 6 5 7 4 8 2 9 1 10 3 11 12 12 10 14
REMARK H PARENT 12 13 10 15
REMARK Flexibility Score: inf
ROOT
ATOM      1  C   UNL     1     -10.716 -19.815  20.435  1.00  0.00    -0.022 A 
ATOM      2  C   UNL     1      -9.969 -18.627  20.293  1.00  0.00     0.058 A 
ATOM      3  C   UNL     1     -11.121 -20.210  21.720  1.00  0.00     0.012 A 
ATOM      4  C   UNL     1      -9.615 -17.869  21.415  1.00  0.00     0.157 A 
ATOM      5  C   UNL     1     -10.767 -19.456  22.841  1.00  0.00     0.051 A 
ATOM      6  C   UNL     1     -10.012 -18.286  22.697  1.00  0.00     0.157 A 
ENDROOT
BRANCH   1   7
ATOM      7  C   UNL     1     -11.125 -20.645  19.274  1.00  0.00     0.010 C 
ATOM      8  C   UNL     1     -10.468 -20.665  18.106  1.00  0.00     0.025 C 
BRANCH   8   9
ATOM      9  C   UNL     1     -10.903 -21.514  16.985  1.00  0.00     0.064 C 
ATOM     10  O   UNL     1     -11.098 -22.743  17.176  1.00  0.00    -0.545 OA
ATOM     11  O   UNL     1     -11.100 -20.981  15.717  1.00  0.00    -0.545 OA
ENDBRANCH   8   9
ENDBRANCH   1   7
BRANCH   4  12
ATOM     12  O   UNL     1      -8.872 -16.702  21.236  1.00  0.00    -0.504 OA
ATOM     13  H   UNL     1      -8.419 -16.482  20.357  1.00  0.00     0.293 HD
ENDBRANCH   4  12
BRANCH   6  14
ATOM     14  O   UNL     1      -9.659 -17.536  23.817  1.00  0.00    -0.504 OA
ATOM     15  H   UNL     1      -8.693 -17.297  24.012  1.00  0.00     0.293 HD
ENDBRANCH   6  14
TORSDOF 4
ENDMDL
