MODEL 1
REMARK VINA RESULT:    -3.171      0.000      0.000
REMARK INTER + INTRA:          -4.997
REMARK INTER:                  -4.283
REMARK INTRA:                  -0.714
REMARK UNBOUND:                -0.714
REMARK SMILES O=C[C@@H](O)[C@@H](O)[C@@H](O)CO
REMARK SMILES IDX 7 1 9 2 10 3 5 5 3 6 2 7 1 8 4 9 6 11 8 13
REMARK H PARENT 10 4 4 10 6 12 8 14
REMARK Flexibility Score: inf
ROOT
ATOM      1  C   UNL     1       2.525  23.926  20.297  1.00  0.00     0.171 C 
ENDROOT
BRANCH   1   2
ATOM      2  C   UNL     1       1.014  24.224  20.279  1.00  0.00     0.190 C 
BRANCH   2   3
ATOM      3  O   UNL     1       0.354  23.425  19.333  1.00  0.00    -0.394 OA
ATOM      4  H   UNL     1       1.056  22.982  18.788  1.00  0.00     0.210 HD
ENDBRANCH   2   3
ENDBRANCH   1   2
BRANCH   1   5
ATOM      5  C   UNL     1       3.362  24.788  19.308  1.00  0.00     0.181 C 
BRANCH   5   6
ATOM      6  C   UNL     1       4.759  24.198  18.972  1.00  0.00     0.209 C 
BRANCH   6   7
ATOM      7  C   UNL     1       5.854  24.992  19.637  1.00  0.00     0.258 C 
ATOM      8  O   UNL     1       5.637  25.604  20.672  1.00  0.00    -0.300 OA
ENDBRANCH   6   7
BRANCH   6   9
ATOM      9  O   UNL     1       4.835  22.870  19.421  1.00  0.00    -0.383 OA
ATOM     10  H   UNL     1       5.684  22.786  19.931  1.00  0.00     0.211 HD
ENDBRANCH   6   9
ENDBRANCH   5   6
BRANCH   5  11
ATOM     11  O   UNL     1       2.615  24.991  18.132  1.00  0.00    -0.387 OA
ATOM     12  H   UNL     1       3.088  25.673  17.588  1.00  0.00     0.211 HD
ENDBRANCH   5  11
ENDBRANCH   1   5
BRANCH   1  13
ATOM     13  O   UNL     1       3.020  24.079  21.603  1.00  0.00    -0.388 OA
ATOM     14  H   UNL     1       2.614  23.359  22.154  1.00  0.00     0.211 HD
ENDBRANCH   1  13
TORSDOF 8
ENDMDL
MODEL 2
REMARK VINA RESULT:    -3.058      1.153      1.930
REMARK INTER + INTRA:          -4.844
REMARK INTER:                  -4.197
REMARK INTRA:                  -0.648
REMARK UNBOUND:                -0.714
REMARK SMILES O=C[C@@H](O)[C@@H](O)[C@@H](O)CO
REMARK SMILES IDX 7 1 9 2 10 3 5 5 3 6 2 7 1 8 4 9 6 11 8 13
REMARK H PARENT 10 4 4 10 6 12 8 14
REMARK Flexibility Score: inf
ROOT
ATOM      1  C   UNL     1       2.244  24.525  20.179  1.00  0.00     0.171 C 
ENDROOT
BRANCH   1   2
ATOM      2  C   UNL     1       1.406  24.212  21.432  1.00  0.00     0.190 C 
BRANCH   2   3
ATOM      3  O   UNL     1       2.230  23.969  22.542  1.00  0.00    -0.394 OA
ATOM      4  H   UNL     1       2.269  22.984  22.663  1.00  0.00     0.210 HD
ENDBRANCH   2   3
ENDBRANCH   1   2
BRANCH   1   5
ATOM      5  C   UNL     1       3.776  24.618  20.438  1.00  0.00     0.181 C 
BRANCH   5   6
ATOM      6  C   UNL     1       4.655  24.191  19.229  1.00  0.00     0.209 C 
BRANCH   6   7
ATOM      7  C   UNL     1       5.949  24.962  19.205  1.00  0.00     0.258 C 
ATOM      8  O   UNL     1       6.700  24.947  20.168  1.00  0.00    -0.300 OA
ENDBRANCH   6   7
BRANCH   6   9
ATOM      9  O   UNL     1       4.952  22.822  19.317  1.00  0.00    -0.383 OA
ATOM     10  H   UNL     1       5.835  22.747  19.767  1.00  0.00     0.211 HD
ENDBRANCH   6   9
ENDBRANCH   5   6
BRANCH   5  11
ATOM     11  O   UNL     1       4.094  25.929  20.841  1.00  0.00    -0.387 OA
ATOM     12  H   UNL     1       4.575  26.367  20.090  1.00  0.00     0.211 HD
ENDBRANCH   5  11
ENDBRANCH   1   5
BRANCH   1  13
ATOM     13  O   UNL     1       1.984  23.567  19.185  1.00  0.00    -0.388 OA
ATOM     14  H   UNL     1       1.922  22.686  19.640  1.00  0.00     0.211 HD
ENDBRANCH   1  13
TORSDOF 8
ENDMDL
MODEL 3
REMARK VINA RESULT:    -3.040      1.197      4.131
REMARK INTER + INTRA:          -4.820
REMARK INTER:                  -4.086
REMARK INTRA:                  -0.734
REMARK UNBOUND:                -0.714
REMARK SMILES O=C[C@@H](O)[C@@H](O)[C@@H](O)CO
REMARK SMILES IDX 7 1 9 2 10 3 5 5 3 6 2 7 1 8 4 9 6 11 8 13
REMARK H PARENT 10 4 4 10 6 12 8 14
REMARK Flexibility Score: inf
ROOT
ATOM      1  C   UNL     1       2.957  24.166  19.167  1.00  0.00     0.171 C 
ENDROOT
BRANCH   1   2
ATOM      2  C   UNL     1       4.493  24.066  19.218  1.00  0.00     0.190 C 
BRANCH   2   3
ATOM      3  O   UNL     1       4.904  22.758  19.515  1.00  0.00    -0.394 OA
ATOM      4  H   UNL     1       4.447  22.495  20.357  1.00  0.00     0.210 HD
ENDBRANCH   2   3
ENDBRANCH   1   2
BRANCH   1   5
ATOM      5  C   UNL     1       2.292  24.531  20.526  1.00  0.00     0.181 C 
BRANCH   5   6
ATOM      6  C   UNL     1       0.771  24.218  20.596  1.00  0.00     0.209 C 
BRANCH   6   7
ATOM      7  C   UNL     1      -0.042  25.487  20.565  1.00  0.00     0.258 C 
ATOM      8  O   UNL     1       0.155  26.330  19.703  1.00  0.00    -0.300 OA
ENDBRANCH   6   7
BRANCH   6   9
ATOM      9  O   UNL     1       0.398  23.422  19.503  1.00  0.00    -0.383 OA
ATOM     10  H   UNL     1       0.837  23.809  18.700  1.00  0.00     0.211 HD
ENDBRANCH   6   9
ENDBRANCH   5   6
BRANCH   5  11
ATOM     11  O   UNL     1       2.981  23.876  21.563  1.00  0.00    -0.387 OA
ATOM     12  H   UNL     1       3.302  24.570  22.198  1.00  0.00     0.211 HD
ENDBRANCH   5  11
ENDBRANCH   1   5
BRANCH   1  13
ATOM     13  O   UNL     1       2.576  25.093  18.182  1.00  0.00    -0.388 OA
ATOM     14  H   UNL     1       1.622  24.916  17.970  1.00  0.00     0.211 HD
ENDBRANCH   1  13
TORSDOF 8
ENDMDL
MODEL 4
REMARK VINA RESULT:    -2.960      3.212      5.616
REMARK INTER + INTRA:          -4.712
REMARK INTER:                  -4.209
REMARK INTRA:                  -0.503
REMARK UNBOUND:                -0.714
REMARK SMILES O=C[C@@H](O)[C@@H](O)[C@@H](O)CO
REMARK SMILES IDX 7 1 9 2 10 3 5 5 3 6 2 7 1 8 4 9 6 11 8 13
REMARK H PARENT 10 4 4 10 6 12 8 14
REMARK Flexibility Score: inf
ROOT
ATOM      1  C   UNL     1       8.086  25.668  20.680  1.00  0.00     0.171 C 
ENDROOT
BRANCH   1   2
ATOM      2  C   UNL     1       9.330  26.576  20.689  1.00  0.00     0.190 C 
BRANCH   2   3
ATOM      3  O   UNL     1      10.508  25.816  20.608  1.00  0.00    -0.394 OA
ATOM      4  H   UNL     1      11.145  26.329  20.044  1.00  0.00     0.210 HD
ENDBRANCH   2   3
ENDBRANCH   1   2
BRANCH   1   5
ATOM      5  C   UNL     1       7.391  25.544  19.292  1.00  0.00     0.181 C 
BRANCH   5   6
ATOM      6  C   UNL     1       5.881  25.187  19.365  1.00  0.00     0.209 C 
BRANCH   6   7
ATOM      7  C   UNL     1       5.285  25.084  17.984  1.00  0.00     0.258 C 
ATOM      8  O   UNL     1       6.005  24.976  17.003  1.00  0.00    -0.300 OA
ENDBRANCH   6   7
BRANCH   6   9
ATOM      9  O   UNL     1       5.714  23.956  20.016  1.00  0.00    -0.383 OA
ATOM     10  H   UNL     1       5.955  23.247  19.362  1.00  0.00     0.211 HD
ENDBRANCH   6   9
ENDBRANCH   5   6
BRANCH   5  11
ATOM     11  O   UNL     1       7.583  26.741  18.576  1.00  0.00    -0.387 OA
ATOM     12  H   UNL     1       8.066  27.374  19.170  1.00  0.00     0.211 HD
ENDBRANCH   5  11
ENDBRANCH   1   5
BRANCH   1  13
ATOM     13  O   UNL     1       8.427  24.393  21.160  1.00  0.00    -0.388 OA
ATOM     14  H   UNL     1       9.400  24.272  20.998  1.00  0.00     0.211 HD
ENDBRANCH   1  13
TORSDOF 8
ENDMDL
MODEL 5
REMARK VINA RESULT:    -2.912      1.167      3.573
REMARK INTER + INTRA:          -4.647
REMARK INTER:                  -4.009
REMARK INTRA:                  -0.638
REMARK UNBOUND:                -0.714
REMARK SMILES O=C[C@@H](O)[C@@H](O)[C@@H](O)CO
REMARK SMILES IDX 7 1 9 2 10 3 5 5 3 6 2 7 1 8 4 9 6 11 8 13
REMARK H PARENT 10 4 4 10 6 12 8 14
REMARK Flexibility Score: inf
ROOT
ATOM      1  C   UNL     1       4.998  24.325  19.254  1.00  0.00     0.171 C 
ENDROOT
BRANCH   1   2
ATOM      2  C   UNL     1       5.038  24.762  17.777  1.00  0.00     0.190 C 
BRANCH   2   3
ATOM      3  O   UNL     1       3.843  25.399  17.407  1.00  0.00    -0.394 OA
ATOM      4  H   UNL     1       3.933  26.354  17.663  1.00  0.00     0.210 HD
ENDBRANCH   2   3
ENDBRANCH   1   2
BRANCH   1   5
ATOM      5  C   UNL     1       3.820  24.932  20.071  1.00  0.00     0.181 C 
BRANCH   5   6
ATOM      6  C   UNL     1       2.704  23.913  20.433  1.00  0.00     0.209 C 
BRANCH   6   7
ATOM      7  C   UNL     1       1.899  24.393  21.614  1.00  0.00     0.258 C 
ATOM      8  O   UNL     1       2.276  24.169  22.755  1.00  0.00    -0.300 OA
ENDBRANCH   6   7
BRANCH   6   9
ATOM      9  O   UNL     1       1.838  23.747  19.342  1.00  0.00    -0.383 OA
ATOM     10  H   UNL     1       1.310  24.585  19.261  1.00  0.00     0.211 HD
ENDBRANCH   6   9
ENDBRANCH   5   6
BRANCH   5  11
ATOM     11  O   UNL     1       4.333  25.537  21.233  1.00  0.00    -0.387 OA
ATOM     12  H   UNL     1       4.106  24.952  22.003  1.00  0.00     0.211 HD
ENDBRANCH   5  11
ENDBRANCH   1   5
BRANCH   1  13
ATOM     13  O   UNL     1       4.962  22.923  19.331  1.00  0.00    -0.388 OA
ATOM     14  H   UNL     1       4.499  22.598  18.514  1.00  0.00     0.211 HD
ENDBRANCH   1  13
TORSDOF 8
ENDMDL
MODEL 6
REMARK VINA RESULT:    -2.887      1.576      2.362
REMARK INTER + INTRA:          -4.614
REMARK INTER:                  -3.919
REMARK INTRA:                  -0.694
REMARK UNBOUND:                -0.714
REMARK SMILES O=C[C@@H](O)[C@@H](O)[C@@H](O)CO
REMARK SMILES IDX 7 1 9 2 10 3 5 5 3 6 2 7 1 8 4 9 6 11 8 13
REMARK H PARENT 10 4 4 10 6 12 8 14
REMARK Flexibility Score: inf
ROOT
ATOM      1  C   UNL     1       4.187  24.110  19.275  1.00  0.00     0.171 C 
ENDROOT
BRANCH   1   2
ATOM      2  C   UNL     1       2.659  23.917  19.320  1.00  0.00     0.190 C 
BRANCH   2   3
ATOM      3  O   UNL     1       2.179  24.001  20.636  1.00  0.00    -0.394 OA
ATOM      4  H   UNL     1       2.769  24.637  21.119  1.00  0.00     0.210 HD
ENDBRANCH   2   3
ENDBRANCH   1   2
BRANCH   1   5
ATOM      5  C   UNL     1       4.736  25.130  20.315  1.00  0.00     0.181 C 
BRANCH   5   6
ATOM      6  C   UNL     1       6.226  25.517  20.102  1.00  0.00     0.209 C 
BRANCH   6   7
ATOM      7  C   UNL     1       6.626  26.643  21.022  1.00  0.00     0.258 C 
ATOM      8  O   UNL     1       6.243  26.663  22.182  1.00  0.00    -0.300 OA
ENDBRANCH   6   7
BRANCH   6   9
ATOM      9  O   UNL     1       7.047  24.411  20.368  1.00  0.00    -0.383 OA
ATOM     10  H   UNL     1       6.737  24.019  21.226  1.00  0.00     0.211 HD
ENDBRANCH   6   9
ENDBRANCH   5   6
BRANCH   5  11
ATOM     11  O   UNL     1       3.920  26.277  20.305  1.00  0.00    -0.387 OA
ATOM     12  H   UNL     1       4.514  27.069  20.384  1.00  0.00     0.211 HD
ENDBRANCH   5  11
ENDBRANCH   1   5
BRANCH   1  13
ATOM     13  O   UNL     1       4.825  22.869  19.439  1.00  0.00    -0.388 OA
ATOM     14  H   UNL     1       5.771  22.990  19.161  1.00  0.00     0.211 HD
ENDBRANCH   1  13
TORSDOF 8
ENDMDL
MODEL 7
REMARK VINA RESULT:    -2.858      9.986     11.414
REMARK INTER + INTRA:          -4.574
REMARK INTER:                  -4.065
REMARK INTRA:                  -0.509
REMARK UNBOUND:                -0.714
REMARK SMILES O=C[C@@H](O)[C@@H](O)[C@@H](O)CO
REMARK SMILES IDX 7 1 9 2 10 3 5 5 3 6 2 7 1 8 4 9 6 11 8 13
REMARK H PARENT 10 4 4 10 6 12 8 14
REMARK Flexibility Score: inf
ROOT
ATOM      1  C   UNL     1       0.361  26.141  28.964  1.00  0.00     0.171 C 
ENDROOT
BRANCH   1   2
ATOM      2  C   UNL     1      -0.803  25.816  28.010  1.00  0.00     0.190 C 
BRANCH   2   3
ATOM      3  O   UNL     1      -1.323  24.537  28.266  1.00  0.00    -0.394 OA
ATOM      4  H   UNL     1      -0.563  23.900  28.215  1.00  0.00     0.210 HD
ENDBRANCH   2   3
ENDBRANCH   1   2
BRANCH   1   5
ATOM      5  C   UNL     1       0.039  25.916  30.470  1.00  0.00     0.181 C 
BRANCH   5   6
ATOM      6  C   UNL     1       0.943  26.722  31.443  1.00  0.00     0.209 C 
BRANCH   6   7
ATOM      7  C   UNL     1       0.905  26.131  32.829  1.00  0.00     0.258 C 
ATOM      8  O   UNL     1       1.166  24.951  33.009  1.00  0.00    -0.300 OA
ENDBRANCH   6   7
BRANCH   6   9
ATOM      9  O   UNL     1       2.270  26.702  30.987  1.00  0.00    -0.383 OA
ATOM     10  H   UNL     1       2.526  27.643  30.799  1.00  0.00     0.211 HD
ENDBRANCH   6   9
ENDBRANCH   5   6
BRANCH   5  11
ATOM     11  O   UNL     1      -1.318  26.212  30.697  1.00  0.00    -0.387 OA
ATOM     12  H   UNL     1      -1.561  25.848  31.588  1.00  0.00     0.211 HD
ENDBRANCH   5  11
ENDBRANCH   1   5
BRANCH   1  13
ATOM     13  O   UNL     1       1.494  25.393  28.600  1.00  0.00    -0.388 OA
ATOM     14  H   UNL     1       2.268  26.015  28.609  1.00  0.00     0.211 HD
ENDBRANCH   1  13
TORSDOF 8
ENDMDL
MODEL 8
REMARK VINA RESULT:    -2.857      1.181      1.926
REMARK INTER + INTRA:          -4.573
REMARK INTER:                  -4.071
REMARK INTRA:                  -0.502
REMARK UNBOUND:                -0.714
REMARK SMILES O=C[C@@H](O)[C@@H](O)[C@@H](O)CO
REMARK SMILES IDX 7 1 9 2 10 3 5 5 3 6 2 7 1 8 4 9 6 11 8 13
REMARK H PARENT 10 4 4 10 6 12 8 14
REMARK Flexibility Score: inf
ROOT
ATOM      1  C   UNL     1       2.802  23.923  20.224  1.00  0.00     0.171 C 
ENDROOT
BRANCH   1   2
ATOM      2  C   UNL     1       1.557  24.424  19.469  1.00  0.00     0.190 C 
BRANCH   2   3
ATOM      3  O   UNL     1       0.645  23.379  19.252  1.00  0.00    -0.394 OA
ATOM      4  H   UNL     1       0.851  22.673  19.919  1.00  0.00     0.210 HD
ENDBRANCH   2   3
ENDBRANCH   1   2
BRANCH   1   5
ATOM      5  C   UNL     1       4.143  24.134  19.462  1.00  0.00     0.181 C 
BRANCH   5   6
ATOM      6  C   UNL     1       5.062  25.226  20.078  1.00  0.00     0.209 C 
BRANCH   6   7
ATOM      7  C   UNL     1       6.327  25.381  19.274  1.00  0.00     0.258 C 
ATOM      8  O   UNL     1       6.318  25.214  18.063  1.00  0.00    -0.300 OA
ENDBRANCH   6   7
BRANCH   6   9
ATOM      9  O   UNL     1       4.390  26.458  20.096  1.00  0.00    -0.383 OA
ATOM     10  H   UNL     1       5.071  27.161  19.921  1.00  0.00     0.211 HD
ENDBRANCH   6   9
ENDBRANCH   5   6
BRANCH   5  11
ATOM     11  O   UNL     1       4.822  22.904  19.382  1.00  0.00    -0.387 OA
ATOM     12  H   UNL     1       4.993  22.593  20.309  1.00  0.00     0.211 HD
ENDBRANCH   5  11
ENDBRANCH   1   5
BRANCH   1  13
ATOM     13  O   UNL     1       2.867  24.537  21.486  1.00  0.00    -0.388 OA
ATOM     14  H   UNL     1       2.032  25.063  21.597  1.00  0.00     0.211 HD
ENDBRANCH   1  13
TORSDOF 8
ENDMDL
MODEL 9
REMARK VINA RESULT:    -2.849      1.171      3.591
REMARK INTER + INTRA:          -4.562
REMARK INTER:                  -3.723
REMARK INTRA:                  -0.839
REMARK UNBOUND:                -0.714
REMARK SMILES O=C[C@@H](O)[C@@H](O)[C@@H](O)CO
REMARK SMILES IDX 7 1 9 2 10 3 5 5 3 6 2 7 1 8 4 9 6 11 8 13
REMARK H PARENT 10 4 4 10 6 12 8 14
REMARK Flexibility Score: inf
ROOT
ATOM      1  C   UNL     1       4.120  23.972  19.837  1.00  0.00     0.171 C 
ENDROOT
BRANCH   1   2
ATOM      2  C   UNL     1       5.052  25.196  19.772  1.00  0.00     0.190 C 
BRANCH   2   3
ATOM      3  O   UNL     1       4.572  26.239  20.579  1.00  0.00    -0.394 OA
ATOM      4  H   UNL     1       3.598  26.315  20.403  1.00  0.00     0.210 HD
ENDBRANCH   2   3
ENDBRANCH   1   2
BRANCH   1   5
ATOM      5  C   UNL     1       2.781  24.142  19.061  1.00  0.00     0.181 C 
BRANCH   5   6
ATOM      6  C   UNL     1       1.514  24.110  19.961  1.00  0.00     0.209 C 
BRANCH   6   7
ATOM      7  C   UNL     1       1.014  25.505  20.236  1.00  0.00     0.258 C 
ATOM      8  O   UNL     1       1.699  26.298  20.864  1.00  0.00    -0.300 OA
ENDBRANCH   6   7
BRANCH   6   9
ATOM      9  O   UNL     1       0.495  23.389  19.321  1.00  0.00    -0.383 OA
ATOM     10  H   UNL     1       0.151  23.964  18.587  1.00  0.00     0.211 HD
ENDBRANCH   6   9
ENDBRANCH   5   6
BRANCH   5  11
ATOM     11  O   UNL     1       2.831  25.337  18.320  1.00  0.00    -0.387 OA
ATOM     12  H   UNL     1       2.333  26.029  18.829  1.00  0.00     0.211 HD
ENDBRANCH   5  11
ENDBRANCH   1   5
BRANCH   1  13
ATOM     13  O   UNL     1       4.801  22.834  19.373  1.00  0.00    -0.388 OA
ATOM     14  H   UNL     1       4.162  22.322  18.810  1.00  0.00     0.211 HD
ENDBRANCH   1  13
TORSDOF 8
ENDMDL
