MODEL 1
REMARK VINA RESULT:     0.770      0.000      0.000
REMARK INTER + INTRA:           0.793
REMARK INTER:                   0.793
REMARK INTRA:                   0.000
REMARK UNBOUND:                 0.000
REMARK SMILES Cc1ccccc1O
REMARK SMILES IDX 1 1 2 2 3 3 4 4 5 5 6 6 7 7 8 8
REMARK H PARENT 8 9
REMARK Flexibility Score: inf
ROOT
ATOM      1  C   UNL     1      -2.767  61.124  21.611  1.00  0.00     0.048 C 
ATOM      2  C   UNL     1      -2.866  59.832  22.373  1.00  0.00    -0.009 A 
ATOM      3  C   UNL     1      -2.795  58.603  21.696  1.00  0.00     0.007 A 
ATOM      4  C   UNL     1      -2.887  57.401  22.403  1.00  0.00     0.001 A 
ATOM      5  C   UNL     1      -3.050  57.416  23.791  1.00  0.00     0.004 A 
ATOM      6  C   UNL     1      -3.122  58.633  24.473  1.00  0.00     0.046 A 
ATOM      7  C   UNL     1      -3.031  59.844  23.771  1.00  0.00     0.118 A 
ENDROOT
BRANCH   7   8
ATOM      8  O   UNL     1      -3.103  61.056  24.456  1.00  0.00    -0.508 OA
ATOM      9  H   UNL     1      -3.003  61.104  25.463  1.00  0.00     0.293 HD
ENDBRANCH   7   8
TORSDOF 1
ENDMDL
MODEL 2
REMARK VINA RESULT:     1.938     18.063     19.305
REMARK INTER + INTRA:           1.995
REMARK INTER:                   1.995
REMARK INTRA:                   0.000
REMARK UNBOUND:                 0.000
REMARK SMILES Cc1ccccc1O
REMARK SMILES IDX 1 1 2 2 3 3 4 4 5 5 6 6 7 7 8 8
REMARK H PARENT 8 9
REMARK Flexibility Score: inf
ROOT
ATOM      1  C   UNL     1       8.244  41.995  24.243  1.00  0.00     0.048 C 
ATOM      2  C   UNL     1       6.755  41.994  24.442  1.00  0.00    -0.009 A 
ATOM      3  C   UNL     1       6.116  40.878  25.007  1.00  0.00     0.007 A 
ATOM      4  C   UNL     1       4.730  40.876  25.192  1.00  0.00     0.001 A 
ATOM      5  C   UNL     1       3.973  41.989  24.818  1.00  0.00     0.004 A 
ATOM      6  C   UNL     1       4.599  43.104  24.256  1.00  0.00     0.046 A 
ATOM      7  C   UNL     1       5.989  43.113  24.066  1.00  0.00     0.118 A 
ENDROOT
BRANCH   7   8
ATOM      8  O   UNL     1       6.610  44.229  23.504  1.00  0.00    -0.508 OA
ATOM      9  H   UNL     1       6.092  44.903  22.953  1.00  0.00     0.293 HD
ENDBRANCH   7   8
TORSDOF 1
ENDMDL
MODEL 3
REMARK VINA RESULT:     2.116     18.041     19.207
REMARK INTER + INTRA:           2.178
REMARK INTER:                   2.178
REMARK INTRA:                   0.000
REMARK UNBOUND:                 0.000
REMARK SMILES Cc1ccccc1O
REMARK SMILES IDX 1 1 2 2 3 3 4 4 5 5 6 6 7 7 8 8
REMARK H PARENT 8 9
REMARK Flexibility Score: inf
ROOT
ATOM      1  C   UNL     1       6.252  44.390  23.132  1.00  0.00     0.048 C 
ATOM      2  C   UNL     1       5.858  43.164  23.906  1.00  0.00    -0.009 A 
ATOM      3  C   UNL     1       4.520  42.967  24.289  1.00  0.00     0.007 A 
ATOM      4  C   UNL     1       4.152  41.828  25.010  1.00  0.00     0.001 A 
ATOM      5  C   UNL     1       5.115  40.875  25.353  1.00  0.00     0.004 A 
ATOM      6  C   UNL     1       6.448  41.061  24.977  1.00  0.00     0.046 A 
ATOM      7  C   UNL     1       6.825  42.203  24.254  1.00  0.00     0.118 A 
ENDROOT
BRANCH   7   8
ATOM      8  O   UNL     1       8.157  42.385  23.880  1.00  0.00    -0.508 OA
ATOM      9  H   UNL     1       8.423  42.517  22.912  1.00  0.00     0.293 HD
ENDBRANCH   7   8
TORSDOF 1
ENDMDL
MODEL 4
REMARK VINA RESULT:     2.346     17.847     19.017
REMARK INTER + INTRA:           2.415
REMARK INTER:                   2.415
REMARK INTRA:                   0.000
REMARK UNBOUND:                 0.000
REMARK SMILES Cc1ccccc1O
REMARK SMILES IDX 1 1 2 2 3 3 4 4 5 5 6 6 7 7 8 8
REMARK H PARENT 8 9
REMARK Flexibility Score: inf
ROOT
ATOM      1  C   UNL     1       5.778  44.486  23.231  1.00  0.00     0.048 C 
ATOM      2  C   UNL     1       5.891  43.227  24.042  1.00  0.00    -0.009 A 
ATOM      3  C   UNL     1       7.119  42.863  24.620  1.00  0.00     0.007 A 
ATOM      4  C   UNL     1       7.225  41.692  25.374  1.00  0.00     0.001 A 
ATOM      5  C   UNL     1       6.107  40.875  25.561  1.00  0.00     0.004 A 
ATOM      6  C   UNL     1       4.881  41.227  24.991  1.00  0.00     0.046 A 
ATOM      7  C   UNL     1       4.766  42.402  24.232  1.00  0.00     0.118 A 
ENDROOT
BRANCH   7   8
ATOM      8  O   UNL     1       3.540  42.750  23.665  1.00  0.00    -0.508 OA
ATOM      9  H   UNL     1       3.257  42.401  22.757  1.00  0.00     0.293 HD
ENDBRANCH   7   8
TORSDOF 1
ENDMDL
