MODEL 1
REMARK VINA RESULT:    -4.182      0.000      0.000
REMARK INTER + INTRA:          -6.614
REMARK INTER:                  -6.137
REMARK INTRA:                  -0.477
REMARK UNBOUND:                -0.477
REMARK SMILES O=C([O-])CCCCCCCC(=O)[O-]
REMARK SMILES IDX 7 1 6 2 5 3 4 4 2 5 1 6 3 7 8 8 9 9 10 10 11 11 12 12 13 13
REMARK H PARENT
REMARK Flexibility Score: inf
ROOT
ATOM      1  C   UNL     1      13.247  49.798  97.555  1.00  0.00     0.000 C 
ENDROOT
BRANCH   1   2
ATOM      2  C   UNL     1      12.306  49.200  96.498  1.00  0.00     0.000 C 
BRANCH   2   3
ATOM      3  C   UNL     1      11.143  48.412  97.116  1.00  0.00     0.006 C 
BRANCH   3   4
ATOM      4  C   UNL     1       9.810  48.806  96.472  1.00  0.00     0.053 C 
BRANCH   4   5
ATOM      5  C   UNL     1       8.959  49.558  97.444  1.00  0.00     0.041 C 
ATOM      6  O   UNL     1       7.707  49.567  97.316  1.00  0.00    -0.550 OA
ATOM      7  O   UNL     1       9.545  50.209  98.523  1.00  0.00    -0.550 OA
ENDBRANCH   4   5
ENDBRANCH   3   4
ENDBRANCH   2   3
ENDBRANCH   1   2
BRANCH   1   8
ATOM      8  C   UNL     1      14.140  50.914  96.992  1.00  0.00     0.000 C 
BRANCH   8   9
ATOM      9  C   UNL     1      14.157  50.881  95.459  1.00  0.00     0.006 C 
BRANCH   9  10
ATOM     10  C   UNL     1      15.578  50.672  94.930  1.00  0.00     0.053 C 
BRANCH  10  11
ATOM     11  C   UNL     1      15.822  49.226  94.637  1.00  0.00     0.041 C 
ATOM     12  O   UNL     1      16.116  48.432  95.570  1.00  0.00    -0.550 OA
ATOM     13  O   UNL     1      15.675  48.743  93.343  1.00  0.00    -0.550 OA
ENDBRANCH  10  11
ENDBRANCH   9  10
ENDBRANCH   8   9
ENDBRANCH   1   8
TORSDOF 8
ENDMDL
MODEL 2
REMARK VINA RESULT:    -4.121      1.647      2.555
REMARK INTER + INTRA:          -6.526
REMARK INTER:                  -6.077
REMARK INTRA:                  -0.449
REMARK UNBOUND:                -0.477
REMARK SMILES O=C([O-])CCCCCCCC(=O)[O-]
REMARK SMILES IDX 7 1 6 2 5 3 4 4 2 5 1 6 3 7 8 8 9 9 10 10 11 11 12 12 13 13
REMARK H PARENT
REMARK Flexibility Score: inf
ROOT
ATOM      1  C   UNL     1      14.300  51.104  95.560  1.00  0.00     0.000 C 
ENDROOT
BRANCH   1   2
ATOM      2  C   UNL     1      13.810  50.812  96.987  1.00  0.00     0.000 C 
BRANCH   2   3
ATOM      3  C   UNL     1      13.448  49.335  97.199  1.00  0.00     0.006 C 
BRANCH   3   4
ATOM      4  C   UNL     1      12.192  48.960  96.406  1.00  0.00     0.053 C 
BRANCH   4   5
ATOM      5  C   UNL     1      11.021  48.800  97.322  1.00  0.00     0.041 C 
ATOM      6  O   UNL     1      10.150  47.922  97.089  1.00  0.00    -0.550 OA
ATOM      7  O   UNL     1      10.917  49.589  98.461  1.00  0.00    -0.550 OA
ENDBRANCH   4   5
ENDBRANCH   3   4
ENDBRANCH   2   3
ENDBRANCH   1   2
BRANCH   1   8
ATOM      8  C   UNL     1      15.640  50.424  95.242  1.00  0.00     0.000 C 
BRANCH   8   9
ATOM      9  C   UNL     1      15.477  49.388  94.124  1.00  0.00     0.006 C 
BRANCH   9  10
ATOM     10  C   UNL     1      16.437  48.212  94.320  1.00  0.00     0.053 C 
BRANCH  10  11
ATOM     11  C   UNL     1      16.614  47.459  93.040  1.00  0.00     0.041 C 
ATOM     12  O   UNL     1      15.617  47.203  92.313  1.00  0.00    -0.550 OA
ATOM     13  O   UNL     1      17.884  47.083  92.622  1.00  0.00    -0.550 OA
ENDBRANCH  10  11
ENDBRANCH   9  10
ENDBRANCH   8   9
ENDBRANCH   1   8
TORSDOF 8
ENDMDL
MODEL 3
REMARK VINA RESULT:    -3.941      0.928      6.615
REMARK INTER + INTRA:          -6.261
REMARK INTER:                  -5.975
REMARK INTRA:                  -0.286
REMARK UNBOUND:                -0.477
REMARK SMILES O=C([O-])CCCCCCCC(=O)[O-]
REMARK SMILES IDX 7 1 6 2 5 3 4 4 2 5 1 6 3 7 8 8 9 9 10 10 11 11 12 12 13 13
REMARK H PARENT
REMARK Flexibility Score: inf
ROOT
ATOM      1  C   UNL     1      13.383  49.617  97.423  1.00  0.00     0.000 C 
ENDROOT
BRANCH   1   2
ATOM      2  C   UNL     1      13.899  50.783  96.565  1.00  0.00     0.000 C 
BRANCH   2   3
ATOM      3  C   UNL     1      15.271  50.496  95.938  1.00  0.00     0.006 C 
BRANCH   3   4
ATOM      4  C   UNL     1      15.135  50.162  94.450  1.00  0.00     0.053 C 
BRANCH   4   5
ATOM      5  C   UNL     1      15.815  48.868  94.138  1.00  0.00     0.041 C 
ATOM      6  O   UNL     1      16.450  48.253  95.034  1.00  0.00    -0.550 OA
ATOM      7  O   UNL     1      15.706  48.314  92.868  1.00  0.00    -0.550 OA
ENDBRANCH   4   5
ENDBRANCH   3   4
ENDBRANCH   2   3
ENDBRANCH   1   2
BRANCH   1   8
ATOM      8  C   UNL     1      12.060  49.037  96.900  1.00  0.00     0.000 C 
BRANCH   8   9
ATOM      9  C   UNL     1      10.954  49.157  97.955  1.00  0.00     0.006 C 
BRANCH   9  10
ATOM     10  C   UNL     1       9.772  48.243  97.618  1.00  0.00     0.053 C 
BRANCH  10  11
ATOM     11  C   UNL     1       8.500  49.028  97.572  1.00  0.00     0.041 C 
ATOM     12  O   UNL     1       8.505  50.221  97.169  1.00  0.00    -0.550 OA
ATOM     13  O   UNL     1       7.298  48.428  97.926  1.00  0.00    -0.550 OA
ENDBRANCH  10  11
ENDBRANCH   9  10
ENDBRANCH   8   9
ENDBRANCH   1   8
TORSDOF 8
ENDMDL
MODEL 4
REMARK VINA RESULT:    -3.887      1.721      6.971
REMARK INTER + INTRA:          -6.182
REMARK INTER:                  -5.971
REMARK INTRA:                  -0.211
REMARK UNBOUND:                -0.477
REMARK SMILES O=C([O-])CCCCCCCC(=O)[O-]
REMARK SMILES IDX 7 1 6 2 5 3 4 4 2 5 1 6 3 7 8 8 9 9 10 10 11 11 12 12 13 13
REMARK H PARENT
REMARK Flexibility Score: inf
ROOT
ATOM      1  C   UNL     1      11.015  49.097  98.007  1.00  0.00     0.000 C 
ENDROOT
BRANCH   1   2
ATOM      2  C   UNL     1      12.115  49.217  96.941  1.00  0.00     0.000 C 
BRANCH   2   3
ATOM      3  C   UNL     1      13.459  49.677  97.524  1.00  0.00     0.006 C 
BRANCH   3   4
ATOM      4  C   UNL     1      14.102  50.750  96.641  1.00  0.00     0.053 C 
BRANCH   4   5
ATOM      5  C   UNL     1      15.179  50.154  95.792  1.00  0.00     0.041 C 
ATOM      6  O   UNL     1      15.444  48.926  95.873  1.00  0.00    -0.550 OA
ATOM      7  O   UNL     1      15.858  50.946  94.873  1.00  0.00    -0.550 OA
ENDBRANCH   4   5
ENDBRANCH   3   4
ENDBRANCH   2   3
ENDBRANCH   1   2
BRANCH   1   8
ATOM      8  C   UNL     1       9.650  48.721  97.411  1.00  0.00     0.000 C 
BRANCH   8   9
ATOM      9  C   UNL     1       8.554  49.671  97.910  1.00  0.00     0.006 C 
BRANCH   9  10
ATOM     10  C   UNL     1       7.788  50.290  96.738  1.00  0.00     0.053 C 
BRANCH  10  11
ATOM     11  C   UNL     1       7.030  51.498  97.186  1.00  0.00     0.041 C 
ATOM     12  O   UNL     1       6.653  52.358  96.346  1.00  0.00    -0.550 OA
ATOM     13  O   UNL     1       6.695  51.653  98.525  1.00  0.00    -0.550 OA
ENDBRANCH  10  11
ENDBRANCH   9  10
ENDBRANCH   8   9
ENDBRANCH   1   8
TORSDOF 8
ENDMDL
MODEL 5
REMARK VINA RESULT:    -3.881      1.756      2.596
REMARK INTER + INTRA:          -6.172
REMARK INTER:                  -5.811
REMARK INTRA:                  -0.362
REMARK UNBOUND:                -0.477
REMARK SMILES O=C([O-])CCCCCCCC(=O)[O-]
REMARK SMILES IDX 7 1 6 2 5 3 4 4 2 5 1 6 3 7 8 8 9 9 10 10 11 11 12 12 13 13
REMARK H PARENT
REMARK Flexibility Score: inf
ROOT
ATOM      1  C   UNL     1      11.261  48.525  96.900  1.00  0.00     0.000 C 
ENDROOT
BRANCH   1   2
ATOM      2  C   UNL     1       9.883  48.329  97.550  1.00  0.00     0.000 C 
BRANCH   2   3
ATOM      3  C   UNL     1       9.295  49.636  98.099  1.00  0.00     0.006 C 
BRANCH   3   4
ATOM      4  C   UNL     1       7.816  49.772  97.725  1.00  0.00     0.053 C 
BRANCH   4   5
ATOM      5  C   UNL     1       7.629  50.846  96.702  1.00  0.00     0.041 C 
ATOM      6  O   UNL     1       7.148  51.961  97.035  1.00  0.00    -0.550 OA
ATOM      7  O   UNL     1       8.032  50.635  95.389  1.00  0.00    -0.550 OA
ENDBRANCH   4   5
ENDBRANCH   3   4
ENDBRANCH   2   3
ENDBRANCH   1   2
BRANCH   1   8
ATOM      8  C   UNL     1      12.132  49.543  97.652  1.00  0.00     0.000 C 
BRANCH   8   9
ATOM      9  C   UNL     1      13.606  49.403  97.254  1.00  0.00     0.006 C 
BRANCH   9  10
ATOM     10  C   UNL     1      14.217  50.767  96.920  1.00  0.00     0.053 C 
BRANCH  10  11
ATOM     11  C   UNL     1      14.575  50.841  95.470  1.00  0.00     0.041 C 
ATOM     12  O   UNL     1      15.784  50.858  95.117  1.00  0.00    -0.550 OA
ATOM     13  O   UNL     1      13.577  50.840  94.505  1.00  0.00    -0.550 OA
ENDBRANCH  10  11
ENDBRANCH   9  10
ENDBRANCH   8   9
ENDBRANCH   1   8
TORSDOF 8
ENDMDL
MODEL 6
REMARK VINA RESULT:    -3.787      2.004      2.293
REMARK INTER + INTRA:          -6.035
REMARK INTER:                  -5.583
REMARK INTRA:                  -0.452
REMARK UNBOUND:                -0.477
REMARK SMILES O=C([O-])CCCCCCCC(=O)[O-]
REMARK SMILES IDX 7 1 6 2 5 3 4 4 2 5 1 6 3 7 8 8 9 9 10 10 11 11 12 12 13 13
REMARK H PARENT
REMARK Flexibility Score: inf
ROOT
ATOM      1  C   UNL     1      12.567  49.278  96.982  1.00  0.00     0.000 C 
ENDROOT
BRANCH   1   2
ATOM      2  C   UNL     1      11.383  49.369  97.957  1.00  0.00     0.000 C 
BRANCH   2   3
ATOM      3  C   UNL     1      10.255  48.384  97.614  1.00  0.00     0.006 C 
BRANCH   3   4
ATOM      4  C   UNL     1      10.135  48.194  96.100  1.00  0.00     0.053 C 
BRANCH   4   5
ATOM      5  C   UNL     1       9.922  46.752  95.767  1.00  0.00     0.041 C 
ATOM      6  O   UNL     1      10.314  46.291  94.663  1.00  0.00    -0.550 OA
ATOM      7  O   UNL     1       9.333  45.903  96.698  1.00  0.00    -0.550 OA
ENDBRANCH   4   5
ENDBRANCH   3   4
ENDBRANCH   2   3
ENDBRANCH   1   2
BRANCH   1   8
ATOM      8  C   UNL     1      13.657  50.320  97.274  1.00  0.00     0.000 C 
BRANCH   8   9
ATOM      9  C   UNL     1      14.295  50.825  95.975  1.00  0.00     0.006 C 
BRANCH   9  10
ATOM     10  C   UNL     1      14.040  49.848  94.823  1.00  0.00     0.053 C 
BRANCH  10  11
ATOM     11  C   UNL     1      15.304  49.143  94.444  1.00  0.00     0.041 C 
ATOM     12  O   UNL     1      16.070  48.692  95.336  1.00  0.00    -0.550 OA
ATOM     13  O   UNL     1      15.613  48.939  93.105  1.00  0.00    -0.550 OA
ENDBRANCH  10  11
ENDBRANCH   9  10
ENDBRANCH   8   9
ENDBRANCH   1   8
TORSDOF 8
ENDMDL
MODEL 7
REMARK VINA RESULT:    -3.767      2.275      6.435
REMARK INTER + INTRA:          -6.005
REMARK INTER:                  -5.546
REMARK INTRA:                  -0.459
REMARK UNBOUND:                -0.477
REMARK SMILES O=C([O-])CCCCCCCC(=O)[O-]
REMARK SMILES IDX 7 1 6 2 5 3 4 4 2 5 1 6 3 7 8 8 9 9 10 10 11 11 12 12 13 13
REMARK H PARENT
REMARK Flexibility Score: inf
ROOT
ATOM      1  C   UNL     1      10.527  49.476  98.329  1.00  0.00     0.000 C 
ENDROOT
BRANCH   1   2
ATOM      2  C   UNL     1      11.352  48.886  97.175  1.00  0.00     0.000 C 
BRANCH   2   3
ATOM      3  C   UNL     1      12.851  49.198  97.296  1.00  0.00     0.006 C 
BRANCH   3   4
ATOM      4  C   UNL     1      13.448  49.558  95.933  1.00  0.00     0.053 C 
BRANCH   4   5
ATOM      5  C   UNL     1      14.457  50.652  96.074  1.00  0.00     0.041 C 
ATOM      6  O   UNL     1      14.414  51.431  97.062  1.00  0.00    -0.550 OA
ATOM      7  O   UNL     1      15.477  50.782  95.139  1.00  0.00    -0.550 OA
ENDBRANCH   4   5
ENDBRANCH   3   4
ENDBRANCH   2   3
ENDBRANCH   1   2
BRANCH   1   8
ATOM      8  C   UNL     1       9.046  49.660  97.965  1.00  0.00     0.000 C 
BRANCH   8   9
ATOM      9  C   UNL     1       8.706  48.924  96.664  1.00  0.00     0.006 C 
BRANCH   9  10
ATOM     10  C   UNL     1       7.459  48.051  96.836  1.00  0.00     0.053 C 
BRANCH  10  11
ATOM     11  C   UNL     1       7.796  46.797  97.578  1.00  0.00     0.041 C 
ATOM     12  O   UNL     1       6.959  46.285  98.369  1.00  0.00    -0.550 OA
ATOM     13  O   UNL     1       9.013  46.165  97.361  1.00  0.00    -0.550 OA
ENDBRANCH  10  11
ENDBRANCH   9  10
ENDBRANCH   8   9
ENDBRANCH   1   8
TORSDOF 8
ENDMDL
MODEL 8
REMARK VINA RESULT:    -3.763      2.090      6.710
REMARK INTER + INTRA:          -5.999
REMARK INTER:                  -5.634
REMARK INTRA:                  -0.365
REMARK UNBOUND:                -0.477
REMARK SMILES O=C([O-])CCCCCCCC(=O)[O-]
REMARK SMILES IDX 7 1 6 2 5 3 4 4 2 5 1 6 3 7 8 8 9 9 10 10 11 11 12 12 13 13
REMARK H PARENT
REMARK Flexibility Score: inf
ROOT
ATOM      1  C   UNL     1      14.117  49.561  94.676  1.00  0.00     0.000 C 
ENDROOT
BRANCH   1   2
ATOM      2  C   UNL     1      15.519  49.262  94.123  1.00  0.00     0.000 C 
BRANCH   2   3
ATOM      3  C   UNL     1      16.397  48.489  95.118  1.00  0.00     0.006 C 
BRANCH   3   4
ATOM      4  C   UNL     1      17.039  47.269  94.450  1.00  0.00     0.053 C 
BRANCH   4   5
ATOM      5  C   UNL     1      18.033  46.631  95.368  1.00  0.00     0.041 C 
ATOM      6  O   UNL     1      17.728  46.396  96.567  1.00  0.00    -0.550 OA
ATOM      7  O   UNL     1      19.279  46.251  94.887  1.00  0.00    -0.550 OA
ENDBRANCH   4   5
ENDBRANCH   3   4
ENDBRANCH   2   3
ENDBRANCH   1   2
BRANCH   1   8
ATOM      8  C   UNL     1      14.142  50.003  96.147  1.00  0.00     0.000 C 
BRANCH   8   9
ATOM      9  C   UNL     1      13.057  49.281  96.954  1.00  0.00     0.006 C 
BRANCH   9  10
ATOM     10  C   UNL     1      11.931  48.787  96.042  1.00  0.00     0.053 C 
BRANCH  10  11
ATOM     11  C   UNL     1      10.656  48.646  96.812  1.00  0.00     0.041 C 
ATOM     12  O   UNL     1      10.685  48.354  98.037  1.00  0.00    -0.550 OA
ATOM     13  O   UNL     1       9.437  48.885  96.191  1.00  0.00    -0.550 OA
ENDBRANCH  10  11
ENDBRANCH   9  10
ENDBRANCH   8   9
ENDBRANCH   1   8
TORSDOF 8
ENDMDL
MODEL 9
REMARK VINA RESULT:    -3.656      1.741      2.776
REMARK INTER + INTRA:          -5.842
REMARK INTER:                  -5.465
REMARK INTRA:                  -0.378
REMARK UNBOUND:                -0.477
REMARK SMILES O=C([O-])CCCCCCCC(=O)[O-]
REMARK SMILES IDX 7 1 6 2 5 3 4 4 2 5 1 6 3 7 8 8 9 9 10 10 11 11 12 12 13 13
REMARK H PARENT
REMARK Flexibility Score: inf
ROOT
ATOM      1  C   UNL     1      11.018  48.540  97.550  1.00  0.00     0.000 C 
ENDROOT
BRANCH   1   2
ATOM      2  C   UNL     1       9.997  49.582  98.035  1.00  0.00     0.000 C 
BRANCH   2   3
ATOM      3  C   UNL     1       8.747  49.646  97.145  1.00  0.00     0.006 C 
BRANCH   3   4
ATOM      4  C   UNL     1       7.551  48.980  97.832  1.00  0.00     0.053 C 
BRANCH   4   5
ATOM      5  C   UNL     1       7.466  47.536  97.454  1.00  0.00     0.041 C 
ATOM      6  O   UNL     1       6.924  46.708  98.232  1.00  0.00    -0.550 OA
ATOM      7  O   UNL     1       7.943  47.110  96.220  1.00  0.00    -0.550 OA
ENDBRANCH   4   5
ENDBRANCH   3   4
ENDBRANCH   2   3
ENDBRANCH   1   2
BRANCH   1   8
ATOM      8  C   UNL     1      12.139  49.160  96.701  1.00  0.00     0.000 C 
BRANCH   8   9
ATOM      9  C   UNL     1      13.293  49.643  97.587  1.00  0.00     0.006 C 
BRANCH   9  10
ATOM     10  C   UNL     1      14.095  50.747  96.891  1.00  0.00     0.053 C 
BRANCH  10  11
ATOM     11  C   UNL     1      14.725  50.227  95.639  1.00  0.00     0.041 C 
ATOM     12  O   UNL     1      14.559  50.833  94.547  1.00  0.00    -0.550 OA
ATOM     13  O   UNL     1      15.537  49.101  95.683  1.00  0.00    -0.550 OA
ENDBRANCH  10  11
ENDBRANCH   9  10
ENDBRANCH   8   9
ENDBRANCH   1   8
TORSDOF 8
ENDMDL
