MODEL 1
REMARK VINA RESULT:    -6.561      0.000      0.000
REMARK INTER + INTRA:          -6.561
REMARK INTER:                  -6.561
REMARK INTRA:                   0.000
REMARK UNBOUND:                 0.000
REMARK SMILES O=c1ccc2ccccc2o1
REMARK SMILES IDX 7 1 8 2 9 3 10 4 5 5 6 6 4 7 3 8 2 9 1 10 11 11
REMARK H PARENT
REMARK Flexibility Score: inf
ROOT
ATOM      1  C   UNL     1     -14.518 -24.750 -13.383  1.00  0.00     0.001 A 
ATOM      2  C   UNL     1     -13.814 -25.174 -14.516  1.00  0.00     0.004 A 
ATOM      3  C   UNL     1     -13.401 -26.506 -14.630  1.00  0.00     0.048 A 
ATOM      4  C   UNL     1     -13.691 -27.419 -13.610  1.00  0.00     0.138 A 
ATOM      5  C   UNL     1     -14.402 -26.992 -12.466  1.00  0.00     0.018 A 
ATOM      6  C   UNL     1     -14.813 -25.655 -12.359  1.00  0.00     0.012 A 
ATOM      7  C   UNL     1     -14.677 -27.926 -11.464  1.00  0.00     0.019 A 
ATOM      8  C   UNL     1     -14.246 -29.244 -11.620  1.00  0.00     0.094 A 
ATOM      9  C   UNL     1     -13.547 -29.595 -12.780  1.00  0.00     0.336 A 
ATOM     10  O   UNL     1     -13.149 -30.779 -12.939  1.00  0.00    -0.246 OA
ATOM     11  O   UNL     1     -13.299 -28.686 -13.720  1.00  0.00    -0.423 OA
ENDROOT
TORSDOF 0
ENDMDL
MODEL 2
REMARK VINA RESULT:    -6.464      1.397      2.213
REMARK INTER + INTRA:          -6.464
REMARK INTER:                  -6.464
REMARK INTRA:                   0.000
REMARK UNBOUND:                 0.000
REMARK SMILES O=c1ccc2ccccc2o1
REMARK SMILES IDX 7 1 8 2 9 3 10 4 5 5 6 6 4 7 3 8 2 9 1 10 11 11
REMARK H PARENT
REMARK Flexibility Score: inf
ROOT
ATOM      1  C   UNL     1     -13.861 -25.278 -14.501  1.00  0.00     0.001 A 
ATOM      2  C   UNL     1     -14.494 -24.758 -13.368  1.00  0.00     0.004 A 
ATOM      3  C   UNL     1     -14.744 -25.578 -12.262  1.00  0.00     0.048 A 
ATOM      4  C   UNL     1     -14.363 -26.924 -12.288  1.00  0.00     0.138 A 
ATOM      5  C   UNL     1     -13.723 -27.451 -13.433  1.00  0.00     0.018 A 
ATOM      6  C   UNL     1     -13.474 -26.622 -14.537  1.00  0.00     0.012 A 
ATOM      7  C   UNL     1     -13.353 -28.798 -13.430  1.00  0.00     0.019 A 
ATOM      8  C   UNL     1     -13.623 -29.579 -12.305  1.00  0.00     0.094 A 
ATOM      9  C   UNL     1     -14.260 -28.990 -11.208  1.00  0.00     0.336 A 
ATOM     10  O   UNL     1     -14.512 -29.679 -10.184  1.00  0.00    -0.246 OA
ATOM     11  O   UNL     1     -14.601 -27.704 -11.236  1.00  0.00    -0.423 OA
ENDROOT
TORSDOF 0
ENDMDL
MODEL 3
REMARK VINA RESULT:    -6.254      1.223      1.223
REMARK INTER + INTRA:          -6.254
REMARK INTER:                  -6.254
REMARK INTRA:                   0.000
REMARK UNBOUND:                 0.000
REMARK SMILES O=c1ccc2ccccc2o1
REMARK SMILES IDX 7 1 8 2 9 3 10 4 5 5 6 6 4 7 3 8 2 9 1 10 11 11
REMARK H PARENT
REMARK Flexibility Score: inf
ROOT
ATOM      1  C   UNL     1     -14.203 -24.697 -13.739  1.00  0.00     0.001 A 
ATOM      2  C   UNL     1     -12.878 -24.904 -14.138  1.00  0.00     0.004 A 
ATOM      3  C   UNL     1     -12.184 -26.040 -13.706  1.00  0.00     0.048 A 
ATOM      4  C   UNL     1     -12.813 -26.972 -12.873  1.00  0.00     0.138 A 
ATOM      5  C   UNL     1     -14.151 -26.762 -12.470  1.00  0.00     0.018 A 
ATOM      6  C   UNL     1     -14.842 -25.622 -12.908  1.00  0.00     0.012 A 
ATOM      7  C   UNL     1     -14.753 -27.710 -11.638  1.00  0.00     0.019 A 
ATOM      8  C   UNL     1     -14.022 -28.827 -11.233  1.00  0.00     0.094 A 
ATOM      9  C   UNL     1     -12.701 -28.968 -11.671  1.00  0.00     0.336 A 
ATOM     10  O   UNL     1     -12.025 -29.969 -11.315  1.00  0.00    -0.246 OA
ATOM     11  O   UNL     1     -12.151 -28.051 -12.463  1.00  0.00    -0.423 OA
ENDROOT
TORSDOF 0
ENDMDL
MODEL 4
REMARK VINA RESULT:    -6.233      1.561      3.824
REMARK INTER + INTRA:          -6.233
REMARK INTER:                  -6.233
REMARK INTRA:                   0.000
REMARK UNBOUND:                 0.000
REMARK SMILES O=c1ccc2ccccc2o1
REMARK SMILES IDX 7 1 8 2 9 3 10 4 5 5 6 6 4 7 3 8 2 9 1 10 11 11
REMARK H PARENT
REMARK Flexibility Score: inf
ROOT
ATOM      1  C   UNL     1     -13.924 -30.107 -11.471  1.00  0.00     0.001 A 
ATOM      2  C   UNL     1     -13.376 -30.280 -12.747  1.00  0.00     0.004 A 
ATOM      3  C   UNL     1     -13.309 -29.202 -13.636  1.00  0.00     0.048 A 
ATOM      4  C   UNL     1     -13.790 -27.945 -13.251  1.00  0.00     0.138 A 
ATOM      5  C   UNL     1     -14.344 -27.770 -11.963  1.00  0.00     0.018 A 
ATOM      6  C   UNL     1     -14.408 -28.856 -11.076  1.00  0.00     0.012 A 
ATOM      7  C   UNL     1     -14.817 -26.504 -11.607  1.00  0.00     0.019 A 
ATOM      8  C   UNL     1     -14.730 -25.458 -12.526  1.00  0.00     0.094 A 
ATOM      9  C   UNL     1     -14.169 -25.705 -13.783  1.00  0.00     0.336 A 
ATOM     10  O   UNL     1     -14.082 -24.774 -14.626  1.00  0.00    -0.246 OA
ATOM     11  O   UNL     1     -13.726 -26.920 -14.097  1.00  0.00    -0.423 OA
ENDROOT
TORSDOF 0
ENDMDL
MODEL 5
REMARK VINA RESULT:    -6.215      1.705      2.236
REMARK INTER + INTRA:          -6.215
REMARK INTER:                  -6.215
REMARK INTRA:                   0.000
REMARK UNBOUND:                 0.000
REMARK SMILES O=c1ccc2ccccc2o1
REMARK SMILES IDX 7 1 8 2 9 3 10 4 5 5 6 6 4 7 3 8 2 9 1 10 11 11
REMARK H PARENT
REMARK Flexibility Score: inf
ROOT
ATOM      1  C   UNL     1     -12.990 -24.825 -14.059  1.00  0.00     0.001 A 
ATOM      2  C   UNL     1     -14.336 -24.732 -13.690  1.00  0.00     0.004 A 
ATOM      3  C   UNL     1     -14.905 -25.699 -12.855  1.00  0.00     0.048 A 
ATOM      4  C   UNL     1     -14.129 -26.765 -12.386  1.00  0.00     0.138 A 
ATOM      5  C   UNL     1     -12.769 -26.860 -12.759  1.00  0.00     0.018 A 
ATOM      6  C   UNL     1     -12.204 -25.886 -13.596  1.00  0.00     0.012 A 
ATOM      7  C   UNL     1     -12.019 -27.935 -12.275  1.00  0.00     0.019 A 
ATOM      8  C   UNL     1     -12.628 -28.876 -11.445  1.00  0.00     0.094 A 
ATOM      9  C   UNL     1     -13.979 -28.718 -11.118  1.00  0.00     0.336 A 
ATOM     10  O   UNL     1     -14.547 -29.557 -10.370  1.00  0.00    -0.246 OA
ATOM     11  O   UNL     1     -14.671 -27.684 -11.591  1.00  0.00    -0.423 OA
ENDROOT
TORSDOF 0
ENDMDL
MODEL 6
REMARK VINA RESULT:    -6.024      2.073      4.295
REMARK INTER + INTRA:          -6.024
REMARK INTER:                  -6.024
REMARK INTRA:                   0.000
REMARK UNBOUND:                 0.000
REMARK SMILES O=c1ccc2ccccc2o1
REMARK SMILES IDX 7 1 8 2 9 3 10 4 5 5 6 6 4 7 3 8 2 9 1 10 11 11
REMARK H PARENT
REMARK Flexibility Score: inf
ROOT
ATOM      1  C   UNL     1     -12.717 -29.305 -11.181  1.00  0.00     0.001 A 
ATOM      2  C   UNL     1     -14.107 -29.224 -11.038  1.00  0.00     0.004 A 
ATOM      3  C   UNL     1     -14.812 -28.161 -11.613  1.00  0.00     0.048 A 
ATOM      4  C   UNL     1     -14.129 -27.175 -12.335  1.00  0.00     0.138 A 
ATOM      5  C   UNL     1     -12.726 -27.257 -12.479  1.00  0.00     0.018 A 
ATOM      6  C   UNL     1     -12.025 -28.325 -11.900  1.00  0.00     0.012 A 
ATOM      7  C   UNL     1     -12.072 -26.258 -13.205  1.00  0.00     0.019 A 
ATOM      8  C   UNL     1     -12.816 -25.218 -13.762  1.00  0.00     0.094 A 
ATOM      9  C   UNL     1     -14.203 -25.202 -13.577  1.00  0.00     0.336 A 
ATOM     10  O   UNL     1     -14.891 -24.271 -14.072  1.00  0.00    -0.246 OA
ATOM     11  O   UNL     1     -14.802 -26.166 -12.882  1.00  0.00    -0.423 OA
ENDROOT
TORSDOF 0
ENDMDL
MODEL 7
REMARK VINA RESULT:    -6.018      1.972      4.023
REMARK INTER + INTRA:          -6.018
REMARK INTER:                  -6.018
REMARK INTRA:                   0.000
REMARK UNBOUND:                 0.000
REMARK SMILES O=c1ccc2ccccc2o1
REMARK SMILES IDX 7 1 8 2 9 3 10 4 5 5 6 6 4 7 3 8 2 9 1 10 11 11
REMARK H PARENT
REMARK Flexibility Score: inf
ROOT
ATOM      1  C   UNL     1     -13.561 -29.729 -10.635  1.00  0.00     0.001 A 
ATOM      2  C   UNL     1     -12.199 -29.499 -10.854  1.00  0.00     0.004 A 
ATOM      3  C   UNL     1     -11.785 -28.398 -11.612  1.00  0.00     0.048 A 
ATOM      4  C   UNL     1     -12.734 -27.523 -12.154  1.00  0.00     0.138 A 
ATOM      5  C   UNL     1     -14.110 -27.756 -11.933  1.00  0.00     0.018 A 
ATOM      6  C   UNL     1     -14.518 -28.861 -11.171  1.00  0.00     0.012 A 
ATOM      7  C   UNL     1     -15.034 -26.866 -12.486  1.00  0.00     0.019 A 
ATOM      8  C   UNL     1     -14.575 -25.782 -13.235  1.00  0.00     0.094 A 
ATOM      9  C   UNL     1     -13.198 -25.615 -13.413  1.00  0.00     0.336 A 
ATOM     10  O   UNL     1     -12.765 -24.643 -14.086  1.00  0.00    -0.246 OA
ATOM     11  O   UNL     1     -12.339 -26.477 -12.874  1.00  0.00    -0.423 OA
ENDROOT
TORSDOF 0
ENDMDL
MODEL 8
REMARK VINA RESULT:    -5.585      2.259      2.926
REMARK INTER + INTRA:          -5.585
REMARK INTER:                  -5.585
REMARK INTRA:                   0.000
REMARK UNBOUND:                 0.000
REMARK SMILES O=c1ccc2ccccc2o1
REMARK SMILES IDX 7 1 8 2 9 3 10 4 5 5 6 6 4 7 3 8 2 9 1 10 11 11
REMARK H PARENT
REMARK Flexibility Score: inf
ROOT
ATOM      1  C   UNL     1     -15.036 -26.613 -12.637  1.00  0.00     0.001 A 
ATOM      2  C   UNL     1     -15.456 -27.946 -12.586  1.00  0.00     0.004 A 
ATOM      3  C   UNL     1     -14.562 -28.950 -12.196  1.00  0.00     0.048 A 
ATOM      4  C   UNL     1     -13.245 -28.623 -11.857  1.00  0.00     0.138 A 
ATOM      5  C   UNL     1     -12.821 -27.276 -11.909  1.00  0.00     0.018 A 
ATOM      6  C   UNL     1     -13.722 -26.274 -12.300  1.00  0.00     0.012 A 
ATOM      7  C   UNL     1     -11.499 -26.979 -11.564  1.00  0.00     0.019 A 
ATOM      8  C   UNL     1     -10.644 -28.012 -11.181  1.00  0.00     0.094 A 
ATOM      9  C   UNL     1     -11.133 -29.323 -11.153  1.00  0.00     0.336 A 
ATOM     10  O   UNL     1     -10.376 -30.269 -10.811  1.00  0.00    -0.246 OA
ATOM     11  O   UNL     1     -12.397 -29.578 -11.486  1.00  0.00    -0.423 OA
ENDROOT
TORSDOF 0
ENDMDL
MODEL 9
REMARK VINA RESULT:    -5.370      2.598      3.355
REMARK INTER + INTRA:          -5.370
REMARK INTER:                  -5.370
REMARK INTRA:                   0.000
REMARK UNBOUND:                 0.000
REMARK SMILES O=c1ccc2ccccc2o1
REMARK SMILES IDX 7 1 8 2 9 3 10 4 5 5 6 6 4 7 3 8 2 9 1 10 11 11
REMARK H PARENT
REMARK Flexibility Score: inf
ROOT
ATOM      1  C   UNL     1     -15.483 -28.069 -12.552  1.00  0.00     0.001 A 
ATOM      2  C   UNL     1     -15.220 -26.697 -12.624  1.00  0.00     0.004 A 
ATOM      3  C   UNL     1     -13.961 -26.203 -12.266  1.00  0.00     0.048 A 
ATOM      4  C   UNL     1     -12.960 -27.080 -11.835  1.00  0.00     0.138 A 
ATOM      5  C   UNL     1     -13.225 -28.466 -11.761  1.00  0.00     0.018 A 
ATOM      6  C   UNL     1     -14.489 -28.955 -12.122  1.00  0.00     0.012 A 
ATOM      7  C   UNL     1     -12.206 -29.318 -11.327  1.00  0.00     0.019 A 
ATOM      8  C   UNL     1     -10.966 -28.780 -10.981  1.00  0.00     0.094 A 
ATOM      9  C   UNL     1     -10.776 -27.398 -11.078  1.00  0.00     0.336 A 
ATOM     10  O   UNL     1      -9.663 -26.894 -10.769  1.00  0.00    -0.246 OA
ATOM     11  O   UNL     1     -11.763 -26.608 -11.495  1.00  0.00    -0.423 OA
ENDROOT
TORSDOF 0
ENDMDL
