MODEL 1
REMARK VINA RESULT:     3.566      0.000      0.000
REMARK INTER + INTRA:           5.143
REMARK INTER:                   5.234
REMARK INTRA:                  -0.090
REMARK UNBOUND:                -0.090
REMARK SMILES O=C([O-])CCCCCCCC(=O)[O-]
REMARK SMILES IDX 7 1 6 2 5 3 4 4 2 5 1 6 3 7 8 8 9 9 10 10 11 11 12 12 13 13
REMARK H PARENT
REMARK Flexibility Score: inf
ROOT
ATOM      1  C   UNL     1     -34.736  16.195  16.647  1.00  0.00     0.000 C 
ENDROOT
BRANCH   1   2
ATOM      2  C   UNL     1     -34.330  14.978  17.499  1.00  0.00     0.000 C 
BRANCH   2   3
ATOM      3  C   UNL     1     -33.529  13.893  16.749  1.00  0.00     0.006 C 
BRANCH   3   4
ATOM      4  C   UNL     1     -33.505  12.524  17.443  1.00  0.00     0.053 C 
BRANCH   4   5
ATOM      5  C   UNL     1     -32.752  12.563  18.738  1.00  0.00     0.041 C 
ATOM      6  O   UNL     1     -31.519  12.815  18.745  1.00  0.00    -0.550 OA
ATOM      7  O   UNL     1     -33.407  12.287  19.931  1.00  0.00    -0.550 OA
ENDBRANCH   4   5
ENDBRANCH   3   4
ENDBRANCH   2   3
ENDBRANCH   1   2
BRANCH   1   8
ATOM      8  C   UNL     1     -35.131  17.449  17.450  1.00  0.00     0.000 C 
BRANCH   8   9
ATOM      9  C   UNL     1     -36.638  17.533  17.772  1.00  0.00     0.006 C 
BRANCH   9  10
ATOM     10  C   UNL     1     -37.367  16.206  17.525  1.00  0.00     0.053 C 
BRANCH  10  11
ATOM     11  C   UNL     1     -38.708  16.214  18.188  1.00  0.00     0.041 C 
ATOM     12  O   UNL     1     -38.921  15.489  19.195  1.00  0.00    -0.550 OA
ATOM     13  O   UNL     1     -39.739  16.984  17.663  1.00  0.00    -0.550 OA
ENDBRANCH  10  11
ENDBRANCH   9  10
ENDBRANCH   8   9
ENDBRANCH   1   8
TORSDOF 8
ENDMDL
MODEL 2
REMARK VINA RESULT:     3.671      0.072      6.064
REMARK INTER + INTRA:           5.298
REMARK INTER:                   5.468
REMARK INTRA:                  -0.170
REMARK UNBOUND:                -0.090
REMARK SMILES O=C([O-])CCCCCCCC(=O)[O-]
REMARK SMILES IDX 7 1 6 2 5 3 4 4 2 5 1 6 3 7 8 8 9 9 10 10 11 11 12 12 13 13
REMARK H PARENT
REMARK Flexibility Score: inf
ROOT
ATOM      1  C   UNL     1     -34.736  16.131  16.642  1.00  0.00     0.000 C 
ENDROOT
BRANCH   1   2
ATOM      2  C   UNL     1     -35.135  17.400  17.416  1.00  0.00     0.000 C 
BRANCH   2   3
ATOM      3  C   UNL     1     -36.629  17.493  17.793  1.00  0.00     0.006 C 
BRANCH   3   4
ATOM      4  C   UNL     1     -37.451  16.241  17.454  1.00  0.00     0.053 C 
BRANCH   4   5
ATOM      5  C   UNL     1     -38.766  16.220  18.172  1.00  0.00     0.041 C 
ATOM      6  O   UNL     1     -38.909  15.524  19.211  1.00  0.00    -0.550 OA
ATOM      7  O   UNL     1     -39.841  16.945  17.673  1.00  0.00    -0.550 OA
ENDBRANCH   4   5
ENDBRANCH   3   4
ENDBRANCH   2   3
ENDBRANCH   1   2
BRANCH   1   8
ATOM      8  C   UNL     1     -34.332  14.932  17.522  1.00  0.00     0.000 C 
BRANCH   8   9
ATOM      9  C   UNL     1     -33.444  13.899  16.796  1.00  0.00     0.006 C 
BRANCH   9  10
ATOM     10  C   UNL     1     -33.491  12.516  17.457  1.00  0.00     0.053 C 
BRANCH  10  11
ATOM     11  C   UNL     1     -32.774  12.538  18.769  1.00  0.00     0.041 C 
ATOM     12  O   UNL     1     -31.543  12.802  18.814  1.00  0.00    -0.550 OA
ATOM     13  O   UNL     1     -33.453  12.216  19.938  1.00  0.00    -0.550 OA
ENDBRANCH  10  11
ENDBRANCH   9  10
ENDBRANCH   8   9
ENDBRANCH   1   8
TORSDOF 8
ENDMDL
MODEL 3
REMARK VINA RESULT:     4.349      1.380      5.966
REMARK INTER + INTRA:           6.292
REMARK INTER:                   6.543
REMARK INTRA:                  -0.251
REMARK UNBOUND:                -0.090
REMARK SMILES O=C([O-])CCCCCCCC(=O)[O-]
REMARK SMILES IDX 7 1 6 2 5 3 4 4 2 5 1 6 3 7 8 8 9 9 10 10 11 11 12 12 13 13
REMARK H PARENT
REMARK Flexibility Score: inf
ROOT
ATOM      1  C   UNL     1     -34.318  14.312  16.731  1.00  0.00     0.000 C 
ENDROOT
BRANCH   1   2
ATOM      2  C   UNL     1     -34.631  15.561  17.575  1.00  0.00     0.000 C 
BRANCH   2   3
ATOM      3  C   UNL     1     -35.493  16.629  16.868  1.00  0.00     0.006 C 
BRANCH   3   4
ATOM      4  C   UNL     1     -36.449  17.392  17.796  1.00  0.00     0.053 C 
BRANCH   4   5
ATOM      5  C   UNL     1     -37.801  16.750  17.862  1.00  0.00     0.041 C 
ATOM      6  O   UNL     1     -37.943  15.629  18.418  1.00  0.00    -0.550 OA
ATOM      7  O   UNL     1     -38.897  17.375  17.281  1.00  0.00    -0.550 OA
ENDBRANCH   4   5
ENDBRANCH   3   4
ENDBRANCH   2   3
ENDBRANCH   1   2
BRANCH   1   8
ATOM      8  C   UNL     1     -33.045  13.549  17.145  1.00  0.00     0.000 C 
BRANCH   8   9
ATOM      9  C   UNL     1     -33.318  12.332  18.054  1.00  0.00     0.006 C 
BRANCH   9  10
ATOM     10  C   UNL     1     -32.724  12.502  19.458  1.00  0.00     0.053 C 
BRANCH  10  11
ATOM     11  C   UNL     1     -33.649  11.937  20.489  1.00  0.00     0.041 C 
ATOM     12  O   UNL     1     -34.097  10.767  20.365  1.00  0.00    -0.550 OA
ATOM     13  O   UNL     1     -34.056  12.721  21.562  1.00  0.00    -0.550 OA
ENDBRANCH  10  11
ENDBRANCH   9  10
ENDBRANCH   8   9
ENDBRANCH   1   8
TORSDOF 8
ENDMDL
MODEL 4
REMARK VINA RESULT:     4.651      1.253      2.159
REMARK INTER + INTRA:           6.736
REMARK INTER:                   7.015
REMARK INTRA:                  -0.278
REMARK UNBOUND:                -0.090
REMARK SMILES O=C([O-])CCCCCCCC(=O)[O-]
REMARK SMILES IDX 7 1 6 2 5 3 4 4 2 5 1 6 3 7 8 8 9 9 10 10 11 11 12 12 13 13
REMARK H PARENT
REMARK Flexibility Score: inf
ROOT
ATOM      1  C   UNL     1     -33.919  14.457  16.576  1.00  0.00     0.000 C 
ENDROOT
BRANCH   1   2
ATOM      2  C   UNL     1     -33.569  13.051  17.097  1.00  0.00     0.000 C 
BRANCH   2   3
ATOM      3  C   UNL     1     -32.871  13.019  18.474  1.00  0.00     0.006 C 
BRANCH   3   4
ATOM      4  C   UNL     1     -32.847  11.638  19.145  1.00  0.00     0.053 C 
BRANCH   4   5
ATOM      5  C   UNL     1     -33.652  11.613  20.408  1.00  0.00     0.041 C 
ATOM      6  O   UNL     1     -33.923  12.687  21.007  1.00  0.00    -0.550 OA
ATOM      7  O   UNL     1     -34.071  10.401  20.941  1.00  0.00    -0.550 OA
ENDBRANCH   4   5
ENDBRANCH   3   4
ENDBRANCH   2   3
ENDBRANCH   1   2
BRANCH   1   8
ATOM      8  C   UNL     1     -34.720  15.333  17.558  1.00  0.00     0.000 C 
BRANCH   8   9
ATOM      9  C   UNL     1     -35.553  16.436  16.869  1.00  0.00     0.006 C 
BRANCH   9  10
ATOM     10  C   UNL     1     -36.413  17.229  17.861  1.00  0.00     0.053 C 
BRANCH  10  11
ATOM     11  C   UNL     1     -37.815  16.707  17.873  1.00  0.00     0.041 C 
ATOM     12  O   UNL     1     -38.708  17.274  17.191  1.00  0.00    -0.550 OA
ATOM     13  O   UNL     1     -38.146  15.624  18.678  1.00  0.00    -0.550 OA
ENDBRANCH  10  11
ENDBRANCH   9  10
ENDBRANCH   8   9
ENDBRANCH   1   8
TORSDOF 8
ENDMDL
