MODEL 1
REMARK VINA RESULT:    -1.985      0.000      0.000
REMARK INTER + INTRA:          -3.238
REMARK INTER:                  -3.029
REMARK INTRA:                  -0.209
REMARK UNBOUND:                -0.209
REMARK SMILES CC1=CCC[C@H](C)C(=O)C[C@H](C(C)C)C(=O)C1
REMARK SMILES IDX 8 1 9 2 6 3 7 4 5 5 4 6 3 7 2 8 1 9 10 11 11 12 15 13 16 14
REMARK SMILES IDX 17 15 12 17 13 18 14 19
REMARK H PARENT
REMARK Flexibility Score: 70.00
ROOT
ATOM      1  C   UNL     1     153.626 155.237 143.041  1.00  0.00     0.136 C 
ATOM      2  O   UNL     1     152.832 156.107 142.714  1.00  0.00    -0.299 OA
ENDROOT
BRANCH   1   3
ATOM      3  C   UNL     1     154.220 155.244 144.434  1.00  0.00     0.053 C 
ATOM      4  C   UNL     1     153.844 156.550 145.142  1.00  0.00     0.016 C 
BRANCH   3   5
ATOM      5  C   UNL     1     153.761 154.030 145.276  1.00  0.00     0.015 C 
BRANCH   5   6
ATOM      6  C   UNL     1     154.784 152.887 145.328  1.00  0.00     0.028 C 
BRANCH   6   7
ATOM      7  C   UNL     1     156.190 153.398 145.130  1.00  0.00    -0.028 C 
ATOM      8  C   UNL     1     156.927 153.227 144.009  1.00  0.00    -0.070 CG0
ATOM      9  C   UNL     1     158.320 153.802 143.981  1.00  0.00     0.039 C 
ATOM     10  G   UNL     1     156.415 152.476 142.793  1.00  0.00     0.000 G0
ENDBRANCH   6   7
ENDBRANCH   5   6
ENDBRANCH   3   5
ENDBRANCH   1   3
BRANCH   1  11
ATOM     11  C   UNL     1     154.047 154.204 142.025  1.00  0.00     0.087 C 
BRANCH  11  12
ATOM     12  C   UNL     1     155.418 154.498 141.359  1.00  0.00     0.066 C 
BRANCH  12  13
ATOM     13  C   UNL     1     156.348 153.296 141.506  1.00  0.00     0.140 C 
ATOM     14  O   UNL     1     157.118 153.035 140.594  1.00  0.00    -0.299 OA
BRANCH  13  15
ATOM     15  C   UNL     1     156.433 152.462 142.770  1.00  0.00     0.106 CG0
ATOM     16  G   UNL     1     156.907 153.227 143.993  1.00  0.00     0.000 G0
ENDBRANCH  13  15
ENDBRANCH  12  13
BRANCH  12  17
ATOM     17  C   UNL     1     155.253 154.873 139.851  1.00  0.00    -0.006 C 
ATOM     18  C   UNL     1     155.486 156.376 139.614  1.00  0.00     0.008 C 
ATOM     19  C   UNL     1     153.861 154.498 139.307  1.00  0.00     0.008 C 
ENDBRANCH  12  17
ENDBRANCH  11  12
ENDBRANCH   1  11
TORSDOF 1
ENDMDL
MODEL 2
REMARK VINA RESULT:    -1.984      2.326      4.146
REMARK INTER + INTRA:          -3.237
REMARK INTER:                  -2.811
REMARK INTRA:                  -0.426
REMARK UNBOUND:                -0.209
REMARK SMILES CC1=CCC[C@H](C)C(=O)C[C@H](C(C)C)C(=O)C1
REMARK SMILES IDX 8 1 9 2 6 3 7 4 5 5 4 6 3 7 2 8 1 9 10 11 11 12 15 13 16 14
REMARK SMILES IDX 17 15 12 17 13 18 14 19
REMARK H PARENT
REMARK Flexibility Score: 70.00
ROOT
ATOM      1  C   UNL     1     159.042 155.446 143.803  1.00  0.00     0.136 C 
ATOM      2  O   UNL     1     158.783 155.789 144.947  1.00  0.00    -0.299 OA
ENDROOT
BRANCH   1   3
ATOM      3  C   UNL     1     160.265 154.598 143.528  1.00  0.00     0.053 C 
ATOM      4  C   UNL     1     161.527 155.442 143.733  1.00  0.00     0.016 C 
BRANCH   3   5
ATOM      5  C   UNL     1     160.318 153.334 144.420  1.00  0.00     0.015 C 
BRANCH   5   6
ATOM      6  C   UNL     1     159.388 152.205 143.953  1.00  0.00     0.028 C 
BRANCH   6   7
ATOM      7  C   UNL     1     158.118 152.167 144.768  1.00  0.00    -0.028 C 
ATOM      8  C   UNL     1     156.872 152.334 144.270  1.00  0.00    -0.070 CG0
ATOM      9  C   UNL     1     155.710 152.268 145.228  1.00  0.00     0.039 C 
ATOM     10  G   UNL     1     156.600 152.594 142.800  1.00  0.00     0.000 G0
ENDBRANCH   6   7
ENDBRANCH   5   6
ENDBRANCH   3   5
ENDBRANCH   1   3
BRANCH   1  11
ATOM     11  C   UNL     1     158.165 155.930 142.673  1.00  0.00     0.087 C 
BRANCH  11  12
ATOM     12  C   UNL     1     157.658 154.796 141.740  1.00  0.00     0.066 C 
BRANCH  12  13
ATOM     13  C   UNL     1     156.500 154.049 142.395  1.00  0.00     0.140 C 
ATOM     14  O   UNL     1     155.433 154.627 142.536  1.00  0.00    -0.299 OA
BRANCH  13  15
ATOM     15  C   UNL     1     156.575 152.588 142.796  1.00  0.00     0.106 CG0
ATOM     16  G   UNL     1     156.892 152.357 144.262  1.00  0.00     0.000 G0
ENDBRANCH  13  15
ENDBRANCH  12  13
BRANCH  12  17
ATOM     17  C   UNL     1     157.225 155.354 140.347  1.00  0.00    -0.006 C 
ATOM     18  C   UNL     1     156.992 154.221 139.332  1.00  0.00     0.008 C 
ATOM     19  C   UNL     1     158.260 156.335 139.764  1.00  0.00     0.008 C 
ENDBRANCH  12  17
ENDBRANCH  11  12
ENDBRANCH   1  11
TORSDOF 1
ENDMDL
MODEL 3
REMARK VINA RESULT:    -1.973     20.638     22.047
REMARK INTER + INTRA:          -3.221
REMARK INTER:                  -3.051
REMARK INTRA:                  -0.170
REMARK UNBOUND:                -0.209
REMARK SMILES CC1=CCC[C@H](C)C(=O)C[C@H](C(C)C)C(=O)C1
REMARK SMILES IDX 8 1 9 2 6 3 7 4 5 5 4 6 3 7 2 8 1 9 10 11 11 12 15 13 16 14
REMARK SMILES IDX 17 15 12 17 13 18 14 19
REMARK H PARENT
REMARK Flexibility Score: 70.00
ROOT
ATOM      1  C   UNL     1     169.900 168.343 146.365  1.00  0.00     0.136 C 
ATOM      2  O   UNL     1     170.421 167.243 146.255  1.00  0.00    -0.299 OA
ENDROOT
BRANCH   1   3
ATOM      3  C   UNL     1     170.113 169.388 145.289  1.00  0.00     0.053 C 
ATOM      4  C   UNL     1     171.048 168.827 144.213  1.00  0.00     0.016 C 
BRANCH   3   5
ATOM      5  C   UNL     1     168.784 169.855 144.650  1.00  0.00     0.015 C 
BRANCH   5   6
ATOM      6  C   UNL     1     168.397 171.298 145.004  1.00  0.00     0.028 C 
BRANCH   6   7
ATOM      7  C   UNL     1     166.978 171.378 145.512  1.00  0.00    -0.028 C 
ATOM      8  C   UNL     1     166.625 171.692 146.779  1.00  0.00    -0.070 CG0
ATOM      9  C   UNL     1     165.157 171.724 147.120  1.00  0.00     0.039 C 
ATOM     10  G   UNL     1     167.640 171.998 147.866  1.00  0.00     0.000 G0
ENDBRANCH   6   7
ENDBRANCH   5   6
ENDBRANCH   3   5
ENDBRANCH   1   3
BRANCH   1  11
ATOM     11  C   UNL     1     169.101 168.661 147.605  1.00  0.00     0.087 C 
BRANCH  11  12
ATOM     12  C   UNL     1     169.441 170.038 148.238  1.00  0.00     0.066 C 
BRANCH  12  13
ATOM     13  C   UNL     1     168.162 170.773 148.627  1.00  0.00     0.140 C 
ATOM     14  O   UNL     1     167.562 170.416 149.630  1.00  0.00    -0.299 OA
BRANCH  13  15
ATOM     15  C   UNL     1     167.646 171.991 147.886  1.00  0.00     0.106 CG0
ATOM     16  G   UNL     1     166.627 171.679 146.804  1.00  0.00     0.000 G0
ENDBRANCH  13  15
ENDBRANCH  12  13
BRANCH  12  17
ATOM     17  C   UNL     1     170.375 169.880 149.480  1.00  0.00    -0.006 C 
ATOM     18  C   UNL     1     171.003 171.225 149.889  1.00  0.00     0.008 C 
ATOM     19  C   UNL     1     171.505 168.862 149.235  1.00  0.00     0.008 C 
ENDBRANCH  12  17
ENDBRANCH  11  12
ENDBRANCH   1  11
TORSDOF 1
ENDMDL
MODEL 4
REMARK VINA RESULT:    -1.886      2.307      4.300
REMARK INTER + INTRA:          -3.088
REMARK INTER:                  -2.697
REMARK INTRA:                  -0.391
REMARK UNBOUND:                -0.209
REMARK SMILES CC1=CCC[C@H](C)C(=O)C[C@H](C(C)C)C(=O)C1
REMARK SMILES IDX 8 1 9 2 6 3 7 4 5 5 4 6 3 7 2 8 1 9 10 11 11 12 15 13 16 14
REMARK SMILES IDX 17 15 12 17 13 18 14 19
REMARK H PARENT
REMARK Flexibility Score: 70.00
ROOT
ATOM      1  C   UNL     1     157.627 154.763 144.349  1.00  0.00     0.136 C 
ATOM      2  O   UNL     1     158.475 155.603 144.084  1.00  0.00    -0.299 OA
ENDROOT
BRANCH   1   3
ATOM      3  C   UNL     1     158.037 153.323 144.577  1.00  0.00     0.053 C 
ATOM      4  C   UNL     1     159.236 152.988 143.684  1.00  0.00     0.016 C 
BRANCH   3   5
ATOM      5  C   UNL     1     158.379 153.035 146.059  1.00  0.00     0.015 C 
BRANCH   5   6
ATOM      6  C   UNL     1     157.431 152.032 146.731  1.00  0.00     0.028 C 
BRANCH   6   7
ATOM      7  C   UNL     1     156.458 152.726 147.652  1.00  0.00    -0.028 C 
ATOM      8  C   UNL     1     155.159 152.969 147.366  1.00  0.00    -0.070 CG0
ATOM      9  C   UNL     1     154.325 153.679 148.402  1.00  0.00     0.039 C 
ATOM     10  G   UNL     1     154.515 152.570 146.051  1.00  0.00     0.000 G0
ENDBRANCH   6   7
ENDBRANCH   5   6
ENDBRANCH   3   5
ENDBRANCH   1   3
BRANCH   1  11
ATOM     11  C   UNL     1     156.173 155.169 144.385  1.00  0.00     0.087 C 
BRANCH  11  12
ATOM     12  C   UNL     1     155.196 154.049 143.936  1.00  0.00     0.066 C 
BRANCH  12  13
ATOM     13  C   UNL     1     154.245 153.688 145.073  1.00  0.00     0.140 C 
ATOM     14  O   UNL     1     153.181 154.284 145.161  1.00  0.00    -0.299 OA
BRANCH  13  15
ATOM     15  C   UNL     1     154.508 152.557 146.048  1.00  0.00     0.106 CG0
ATOM     16  G   UNL     1     155.146 152.994 147.354  1.00  0.00     0.000 G0
ENDBRANCH  13  15
ENDBRANCH  12  13
BRANCH  12  17
ATOM     17  C   UNL     1     154.388 154.472 142.667  1.00  0.00    -0.006 C 
ATOM     18  C   UNL     1     154.954 153.819 141.393  1.00  0.00     0.008 C 
ATOM     19  C   UNL     1     154.367 156.000 142.472  1.00  0.00     0.008 C 
ENDBRANCH  12  17
ENDBRANCH  11  12
ENDBRANCH   1  11
TORSDOF 1
ENDMDL
MODEL 5
REMARK VINA RESULT:    -1.885     18.518     19.869
REMARK INTER + INTRA:          -3.086
REMARK INTER:                  -2.591
REMARK INTRA:                  -0.496
REMARK UNBOUND:                -0.209
REMARK SMILES CC1=CCC[C@H](C)C(=O)C[C@H](C(C)C)C(=O)C1
REMARK SMILES IDX 8 1 9 2 6 3 7 4 5 5 4 6 3 7 2 8 1 9 10 11 11 12 15 13 16 14
REMARK SMILES IDX 17 15 12 17 13 18 14 19
REMARK H PARENT
REMARK Flexibility Score: 70.00
ROOT
ATOM      1  C   UNL     1     166.829 167.371 142.623  1.00  0.00     0.136 C 
ATOM      2  O   UNL     1     166.505 166.526 143.444  1.00  0.00    -0.299 OA
ENDROOT
BRANCH   1   3
ATOM      3  C   UNL     1     165.765 168.191 141.924  1.00  0.00     0.053 C 
ATOM      4  C   UNL     1     164.687 167.256 141.366  1.00  0.00     0.016 C 
BRANCH   3   5
ATOM      5  C   UNL     1     165.124 169.245 142.859  1.00  0.00     0.015 C 
BRANCH   5   6
ATOM      6  C   UNL     1     165.750 170.642 142.741  1.00  0.00     0.028 C 
BRANCH   6   7
ATOM      7  C   UNL     1     166.642 170.947 143.920  1.00  0.00    -0.028 C 
ATOM      8  C   UNL     1     167.970 171.189 143.846  1.00  0.00    -0.070 CG0
ATOM      9  C   UNL     1     168.712 171.474 145.126  1.00  0.00     0.039 C 
ATOM     10  G   UNL     1     168.739 171.172 142.537  1.00  0.00     0.000 G0
ENDBRANCH   6   7
ENDBRANCH   5   6
ENDBRANCH   3   5
ENDBRANCH   1   3
BRANCH   1  11
ATOM     11  C   UNL     1     168.289 167.540 142.275  1.00  0.00     0.087 C 
BRANCH  11  12
ATOM     12  C   UNL     1     168.583 168.771 141.376  1.00  0.00     0.066 C 
BRANCH  12  13
ATOM     13  C   UNL     1     169.346 169.832 142.163  1.00  0.00     0.140 C 
ATOM     14  O   UNL     1     170.518 169.628 142.442  1.00  0.00    -0.299 OA
BRANCH  13  15
ATOM     15  C   UNL     1     168.750 171.176 142.538  1.00  0.00     0.106 CG0
ATOM     16  G   UNL     1     167.962 171.171 143.835  1.00  0.00     0.000 G0
ENDBRANCH  13  15
ENDBRANCH  12  13
BRANCH  12  17
ATOM     17  C   UNL     1     169.385 168.365 140.097  1.00  0.00    -0.006 C 
ATOM     18  C   UNL     1     169.365 169.483 139.040  1.00  0.00     0.008 C 
ATOM     19  C   UNL     1     168.846 167.071 139.458  1.00  0.00     0.008 C 
ENDBRANCH  12  17
ENDBRANCH  11  12
ENDBRANCH   1  11
TORSDOF 1
ENDMDL
MODEL 6
REMARK VINA RESULT:    -1.806      3.879      6.147
REMARK INTER + INTRA:          -2.966
REMARK INTER:                  -2.746
REMARK INTRA:                  -0.220
REMARK UNBOUND:                -0.209
REMARK SMILES CC1=CCC[C@H](C)C(=O)C[C@H](C(C)C)C(=O)C1
REMARK SMILES IDX 8 1 9 2 6 3 7 4 5 5 4 6 3 7 2 8 1 9 10 11 11 12 15 13 16 14
REMARK SMILES IDX 17 15 12 17 13 18 14 19
REMARK H PARENT
REMARK Flexibility Score: 70.00
ROOT
ATOM      1  C   UNL     1     154.791 156.057 147.229  1.00  0.00     0.136 C 
ATOM      2  O   UNL     1     154.743 157.273 147.108  1.00  0.00    -0.299 OA
ENDROOT
BRANCH   1   3
ATOM      3  C   UNL     1     154.410 155.168 146.064  1.00  0.00     0.053 C 
ATOM      4  C   UNL     1     153.391 155.895 145.181  1.00  0.00     0.016 C 
BRANCH   3   5
ATOM      5  C   UNL     1     155.637 154.741 145.223  1.00  0.00     0.015 C 
BRANCH   5   6
ATOM      6  C   UNL     1     155.928 153.235 145.268  1.00  0.00     0.028 C 
BRANCH   6   7
ATOM      7  C   UNL     1     157.355 152.962 145.678  1.00  0.00    -0.028 C 
ATOM      8  C   UNL     1     157.733 152.425 146.860  1.00  0.00    -0.070 CG0
ATOM      9  C   UNL     1     159.206 152.223 147.108  1.00  0.00     0.039 C 
ATOM     10  G   UNL     1     156.743 152.034 147.942  1.00  0.00     0.000 G0
ENDBRANCH   6   7
ENDBRANCH   5   6
ENDBRANCH   3   5
ENDBRANCH   1   3
BRANCH   1  11
ATOM     11  C   UNL     1     155.173 155.464 148.564  1.00  0.00     0.087 C 
BRANCH  11  12
ATOM     12  C   UNL     1     154.969 153.928 148.651  1.00  0.00     0.066 C 
BRANCH  12  13
ATOM     13  C   UNL     1     156.311 153.222 148.818  1.00  0.00     0.140 C 
ATOM     14  O   UNL     1     157.041 153.559 149.739  1.00  0.00    -0.299 OA
BRANCH  13  15
ATOM     15  C   UNL     1     156.749 152.055 147.955  1.00  0.00     0.106 CG0
ATOM     16  G   UNL     1     157.735 152.421 146.861  1.00  0.00     0.000 G0
ENDBRANCH  13  15
ENDBRANCH  12  13
BRANCH  12  17
ATOM     17  C   UNL     1     154.007 153.546 149.822  1.00  0.00    -0.006 C 
ATOM     18  C   UNL     1     153.295 152.207 149.555  1.00  0.00     0.008 C 
ATOM     19  C   UNL     1     152.942 154.629 150.079  1.00  0.00     0.008 C 
ENDBRANCH  12  17
ENDBRANCH  11  12
ENDBRANCH   1  11
TORSDOF 1
ENDMDL
MODEL 7
REMARK VINA RESULT:    -1.800     18.283     19.704
REMARK INTER + INTRA:          -2.957
REMARK INTER:                  -2.508
REMARK INTRA:                  -0.449
REMARK UNBOUND:                -0.209
REMARK SMILES CC1=CCC[C@H](C)C(=O)C[C@H](C(C)C)C(=O)C1
REMARK SMILES IDX 8 1 9 2 6 3 7 4 5 5 4 6 3 7 2 8 1 9 10 11 11 12 15 13 16 14
REMARK SMILES IDX 17 15 12 17 13 18 14 19
REMARK H PARENT
REMARK Flexibility Score: 70.00
ROOT
ATOM      1  C   UNL     1     168.470 167.129 142.798  1.00  0.00     0.136 C 
ATOM      2  O   UNL     1     169.209 166.226 143.160  1.00  0.00    -0.299 OA
ENDROOT
BRANCH   1   3
ATOM      3  C   UNL     1     167.034 166.825 142.427  1.00  0.00     0.053 C 
ATOM      4  C   UNL     1     166.916 165.355 142.013  1.00  0.00     0.016 C 
BRANCH   3   5
ATOM      5  C   UNL     1     166.049 167.135 143.579  1.00  0.00     0.015 C 
BRANCH   5   6
ATOM      6  C   UNL     1     165.246 168.428 143.379  1.00  0.00     0.028 C 
BRANCH   6   7
ATOM      7  C   UNL     1     165.697 169.509 144.333  1.00  0.00    -0.028 C 
ATOM      8  C   UNL     1     166.272 170.676 143.966  1.00  0.00    -0.070 CG0
ATOM      9  C   UNL     1     166.666 171.645 145.052  1.00  0.00     0.039 C 
ATOM     10  G   UNL     1     166.546 171.041 142.518  1.00  0.00     0.000 G0
ENDBRANCH   6   7
ENDBRANCH   5   6
ENDBRANCH   3   5
ENDBRANCH   1   3
BRANCH   1  11
ATOM     11  C   UNL     1     169.024 168.528 142.669  1.00  0.00     0.087 C 
BRANCH  11  12
ATOM     12  C   UNL     1     168.372 169.360 141.532  1.00  0.00     0.066 C 
BRANCH  12  13
ATOM     13  C   UNL     1     167.953 170.732 142.052  1.00  0.00     0.140 C 
ATOM     14  O   UNL     1     168.763 171.647 142.017  1.00  0.00    -0.299 OA
BRANCH  13  15
ATOM     15  C   UNL     1     166.547 171.046 142.526  1.00  0.00     0.106 CG0
ATOM     16  G   UNL     1     166.269 170.653 143.965  1.00  0.00     0.000 G0
ENDBRANCH  13  15
ENDBRANCH  12  13
BRANCH  12  17
ATOM     17  C   UNL     1     169.338 169.515 140.313  1.00  0.00    -0.006 C 
ATOM     18  C   UNL     1     168.829 168.738 139.086  1.00  0.00     0.008 C 
ATOM     19  C   UNL     1     170.768 169.043 140.639  1.00  0.00     0.008 C 
ENDBRANCH  12  17
ENDBRANCH  11  12
ENDBRANCH   1  11
TORSDOF 1
ENDMDL
MODEL 8
REMARK VINA RESULT:    -1.773     18.883     20.307
REMARK INTER + INTRA:          -2.915
REMARK INTER:                  -2.634
REMARK INTRA:                  -0.281
REMARK UNBOUND:                -0.209
REMARK SMILES CC1=CCC[C@H](C)C(=O)C[C@H](C(C)C)C(=O)C1
REMARK SMILES IDX 8 1 9 2 6 3 7 4 5 5 4 6 3 7 2 8 1 9 10 11 11 12 15 13 16 14
REMARK SMILES IDX 17 15 12 17 13 18 14 19
REMARK H PARENT
REMARK Flexibility Score: 70.00
ROOT
ATOM      1  C   UNL     1     167.119 168.511 141.302  1.00  0.00     0.136 C 
ATOM      2  O   UNL     1     165.958 168.285 141.611  1.00  0.00    -0.299 OA
ENDROOT
BRANCH   1   3
ATOM      3  C   UNL     1     167.455 169.742 140.486  1.00  0.00     0.053 C 
ATOM      4  C   UNL     1     166.944 169.559 139.053  1.00  0.00     0.016 C 
BRANCH   3   5
ATOM      5  C   UNL     1     166.868 171.035 141.100  1.00  0.00     0.015 C 
BRANCH   5   6
ATOM      6  C   UNL     1     167.765 171.679 142.167  1.00  0.00     0.028 C 
BRANCH   6   7
ATOM      7  C   UNL     1     167.165 171.543 143.545  1.00  0.00    -0.028 C 
ATOM      8  C   UNL     1     167.693 170.812 144.553  1.00  0.00    -0.070 CG0
ATOM      9  C   UNL     1     166.959 170.783 145.869  1.00  0.00     0.039 C 
ATOM     10  G   UNL     1     168.978 170.016 144.408  1.00  0.00     0.000 G0
ENDBRANCH   6   7
ENDBRANCH   5   6
ENDBRANCH   3   5
ENDBRANCH   1   3
BRANCH   1  11
ATOM     11  C   UNL     1     168.191 167.522 141.690  1.00  0.00     0.087 C 
BRANCH  11  12
ATOM     12  C   UNL     1     169.336 168.137 142.539  1.00  0.00     0.066 C 
BRANCH  12  13
ATOM     13  C   UNL     1     168.803 168.603 143.891  1.00  0.00     0.140 C 
ATOM     14  O   UNL     1     168.270 167.784 144.625  1.00  0.00    -0.299 OA
BRANCH  13  15
ATOM     15  C   UNL     1     168.985 170.015 144.414  1.00  0.00     0.106 CG0
ATOM     16  G   UNL     1     167.695 170.803 144.549  1.00  0.00     0.000 G0
ENDBRANCH  13  15
ENDBRANCH  12  13
BRANCH  12  17
ATOM     17  C   UNL     1     170.507 167.122 142.739  1.00  0.00    -0.006 C 
ATOM     18  C   UNL     1     171.654 167.737 143.562  1.00  0.00     0.008 C 
ATOM     19  C   UNL     1     171.076 166.617 141.400  1.00  0.00     0.008 C 
ENDBRANCH  12  17
ENDBRANCH  11  12
ENDBRANCH   1  11
TORSDOF 1
ENDMDL
MODEL 9
REMARK VINA RESULT:    -1.752      5.610      7.866
REMARK INTER + INTRA:          -2.883
REMARK INTER:                  -2.417
REMARK INTRA:                  -0.466
REMARK UNBOUND:                -0.209
REMARK SMILES CC1=CCC[C@H](C)C(=O)C[C@H](C(C)C)C(=O)C1
REMARK SMILES IDX 8 1 9 2 6 3 7 4 5 5 4 6 3 7 2 8 1 9 10 11 11 12 15 13 16 14
REMARK SMILES IDX 17 15 12 17 13 18 14 19
REMARK H PARENT
REMARK Flexibility Score: 70.00
ROOT
ATOM      1  C   UNL     1     156.711 155.353 148.254  1.00  0.00     0.136 C 
ATOM      2  O   UNL     1     157.100 156.465 147.926  1.00  0.00    -0.299 OA
ENDROOT
BRANCH   1   3
ATOM      3  C   UNL     1     157.194 154.133 147.499  1.00  0.00     0.053 C 
ATOM      4  C   UNL     1     156.982 154.347 145.996  1.00  0.00     0.016 C 
BRANCH   3   5
ATOM      5  C   UNL     1     158.679 153.810 147.787  1.00  0.00     0.015 C 
BRANCH   5   6
ATOM      6  C   UNL     1     158.885 152.587 148.692  1.00  0.00     0.028 C 
BRANCH   6   7
ATOM      7  C   UNL     1     159.146 152.998 150.121  1.00  0.00    -0.028 C 
ATOM      8  C   UNL     1     158.275 152.843 151.143  1.00  0.00    -0.070 CG0
ATOM      9  C   UNL     1     158.697 153.313 152.512  1.00  0.00     0.039 C 
ATOM     10  G   UNL     1     156.896 152.233 150.966  1.00  0.00     0.000 G0
ENDBRANCH   6   7
ENDBRANCH   5   6
ENDBRANCH   3   5
ENDBRANCH   1   3
BRANCH   1  11
ATOM     11  C   UNL     1     155.706 155.224 149.372  1.00  0.00     0.087 C 
BRANCH  11  12
ATOM     12  C   UNL     1     155.202 153.774 149.602  1.00  0.00     0.066 C 
BRANCH  12  13
ATOM     13  C   UNL     1     155.757 153.221 150.912  1.00  0.00     0.140 C 
ATOM     14  O   UNL     1     155.208 153.530 151.959  1.00  0.00    -0.299 OA
BRANCH  13  15
ATOM     15  C   UNL     1     156.900 152.226 150.976  1.00  0.00     0.106 CG0
ATOM     16  G   UNL     1     158.271 152.859 151.130  1.00  0.00     0.000 G0
ENDBRANCH  13  15
ENDBRANCH  12  13
BRANCH  12  17
ATOM     17  C   UNL     1     153.641 153.704 149.602  1.00  0.00    -0.006 C 
ATOM     18  C   UNL     1     153.141 152.250 149.541  1.00  0.00     0.008 C 
ATOM     19  C   UNL     1     153.023 154.490 148.431  1.00  0.00     0.008 C 
ENDBRANCH  12  17
ENDBRANCH  11  12
ENDBRANCH   1  11
TORSDOF 1
ENDMDL
