MODEL 1
REMARK VINA RESULT:    -5.452      0.000      0.000
REMARK INTER + INTRA:          -6.854
REMARK INTER:                  -6.568
REMARK INTRA:                  -0.286
REMARK UNBOUND:                -0.286
REMARK SMILES O=c1c(O)c(-c2ccc(O)c(O)c2)oc2cc(O)cc(O)c12
REMARK SMILES IDX 5 1 3 2 2 3 1 4 22 5 20 6 19 7 17 8 16 9 15 10 14 11 6 12
REMARK SMILES IDX 7 13 8 14 9 15 13 16 11 17 10 18 12 20 4 22 21 24 18 26
REMARK H PARENT 10 19 12 21 4 23 21 25 18 27
REMARK Flexibility Score: inf
ROOT
ATOM      1  C   UNL     1      18.032   6.432  35.094  1.00  0.00     0.180 A 
ATOM      2  C   UNL     1      18.273   5.687  33.927  1.00  0.00     0.208 A 
ATOM      3  C   UNL     1      19.248   6.136  33.022  1.00  0.00     0.238 A 
ATOM      4  O   UNL     1      19.421   5.494  31.953  1.00  0.00    -0.285 OA
ATOM      5  C   UNL     1      19.982   7.313  33.303  1.00  0.00     0.111 A 
ATOM      6  C   UNL     1      21.022   7.838  32.477  1.00  0.00     0.134 A 
ATOM      7  C   UNL     1      21.589   9.080  32.786  1.00  0.00     0.093 A 
ATOM      8  C   UNL     1      21.200   9.785  33.929  1.00  0.00     0.123 A 
ATOM      9  C   UNL     1      20.229   9.253  34.773  1.00  0.00     0.094 A 
ATOM     10  C   UNL     1      19.618   8.033  34.471  1.00  0.00     0.146 A 
ATOM     11  O   UNL     1      18.690   7.568  35.298  1.00  0.00    -0.452 OA
ENDROOT
BRANCH   1  12
ATOM     12  C   UNL     1      17.037   6.010  36.107  1.00  0.00     0.025 A 
ATOM     13  C   UNL     1      15.757   6.588  36.161  1.00  0.00     0.016 A 
ATOM     14  C   UNL     1      14.826   6.157  37.110  1.00  0.00     0.051 A 
ATOM     15  C   UNL     1      15.155   5.134  38.009  1.00  0.00     0.157 A 
ATOM     16  C   UNL     1      17.355   4.970  36.996  1.00  0.00     0.062 A 
ATOM     17  C   UNL     1      16.426   4.537  37.949  1.00  0.00     0.158 A 
BRANCH  15  18
ATOM     18  O   UNL     1      14.226   4.706  38.956  1.00  0.00    -0.504 OA
ATOM     19  H   UNL     1      13.229   4.774  38.788  1.00  0.00     0.293 HD
ENDBRANCH  15  18
BRANCH  17  20
ATOM     20  O   UNL     1      16.782   3.511  38.825  1.00  0.00    -0.504 OA
ATOM     21  H   UNL     1      17.414   2.768  38.554  1.00  0.00     0.293 HD
ENDBRANCH  17  20
ENDBRANCH   1  12
BRANCH   2  22
ATOM     22  O   UNL     1      17.522   4.539  33.658  1.00  0.00    -0.502 OA
ATOM     23  H   UNL     1      17.820   3.615  33.947  1.00  0.00     0.293 HD
ENDBRANCH   2  22
BRANCH   6  24
ATOM     24  O   UNL     1      21.547   7.170  31.367  1.00  0.00    -0.507 OA
ATOM     25  H   UNL     1      21.974   6.257  31.394  1.00  0.00     0.293 HD
ENDBRANCH   6  24
BRANCH   8  26
ATOM     26  O   UNL     1      21.781  11.013  34.237  1.00  0.00    -0.508 OA
ATOM     27  H   UNL     1      22.570  11.373  33.712  1.00  0.00     0.293 HD
ENDBRANCH   8  26
TORSDOF 6
ENDMDL
MODEL 2
REMARK VINA RESULT:    -5.312      4.176      7.893
REMARK INTER + INTRA:          -6.685
REMARK INTER:                  -6.382
REMARK INTRA:                  -0.302
REMARK UNBOUND:                -0.286
REMARK SMILES O=c1c(O)c(-c2ccc(O)c(O)c2)oc2cc(O)cc(O)c12
REMARK SMILES IDX 5 1 3 2 2 3 1 4 22 5 20 6 19 7 17 8 16 9 15 10 14 11 6 12
REMARK SMILES IDX 7 13 8 14 9 15 13 16 11 17 10 18 12 20 4 22 21 24 18 26
REMARK H PARENT 10 19 12 21 4 23 21 25 18 27
REMARK Flexibility Score: inf
ROOT
ATOM      1  C   UNL     1      14.021   6.371  37.693  1.00  0.00     0.180 A 
ATOM      2  C   UNL     1      12.852   5.979  37.018  1.00  0.00     0.208 A 
ATOM      3  C   UNL     1      11.659   6.678  37.261  1.00  0.00     0.238 A 
ATOM      4  O   UNL     1      10.605   6.287  36.695  1.00  0.00    -0.285 OA
ATOM      5  C   UNL     1      11.653   7.770  38.161  1.00  0.00     0.111 A 
ATOM      6  C   UNL     1      10.510   8.575  38.452  1.00  0.00     0.134 A 
ATOM      7  C   UNL     1      10.587   9.546  39.457  1.00  0.00     0.093 A 
ATOM      8  C   UNL     1      11.785   9.786  40.137  1.00  0.00     0.123 A 
ATOM      9  C   UNL     1      12.921   9.046  39.818  1.00  0.00     0.094 A 
ATOM     10  C   UNL     1      12.865   8.045  38.845  1.00  0.00     0.146 A 
ATOM     11  O   UNL     1      13.969   7.358  38.581  1.00  0.00    -0.452 OA
ENDROOT
BRANCH   1  12
ATOM     12  C   UNL     1      15.322   5.699  37.470  1.00  0.00     0.025 A 
ATOM     13  C   UNL     1      16.103   5.974  36.334  1.00  0.00     0.016 A 
ATOM     14  C   UNL     1      17.339   5.345  36.157  1.00  0.00     0.051 A 
ATOM     15  C   UNL     1      17.818   4.446  37.119  1.00  0.00     0.157 A 
ATOM     16  C   UNL     1      15.817   4.813  38.441  1.00  0.00     0.062 A 
ATOM     17  C   UNL     1      17.054   4.181  38.266  1.00  0.00     0.158 A 
BRANCH  15  18
ATOM     18  O   UNL     1      19.051   3.820  36.939  1.00  0.00    -0.504 OA
ATOM     19  H   UNL     1      19.909   4.352  36.850  1.00  0.00     0.293 HD
ENDBRANCH  15  18
BRANCH  17  20
ATOM     20  O   UNL     1      17.506   3.296  39.245  1.00  0.00    -0.504 OA
ATOM     21  H   UNL     1      17.790   2.350  39.024  1.00  0.00     0.293 HD
ENDBRANCH  17  20
ENDBRANCH   1  12
BRANCH   2  22
ATOM     22  O   UNL     1      12.876   4.884  36.149  1.00  0.00    -0.502 OA
ATOM     23  H   UNL     1      13.118   4.972  35.170  1.00  0.00     0.293 HD
ENDBRANCH   2  22
BRANCH   6  24
ATOM     24  O   UNL     1       9.295   8.479  37.769  1.00  0.00    -0.507 OA
ATOM     25  H   UNL     1       8.832   7.613  37.536  1.00  0.00     0.293 HD
ENDBRANCH   6  24
BRANCH   8  26
ATOM     26  O   UNL     1      11.857  10.766  41.125  1.00  0.00    -0.508 OA
ATOM     27  H   UNL     1      12.732  10.997  41.580  1.00  0.00     0.293 HD
ENDBRANCH   8  26
TORSDOF 6
ENDMDL
MODEL 3
REMARK VINA RESULT:    -5.295     11.418     14.002
REMARK INTER + INTRA:          -6.664
REMARK INTER:                  -6.341
REMARK INTRA:                  -0.323
REMARK UNBOUND:                -0.286
REMARK SMILES O=c1c(O)c(-c2ccc(O)c(O)c2)oc2cc(O)cc(O)c12
REMARK SMILES IDX 5 1 3 2 2 3 1 4 22 5 20 6 19 7 17 8 16 9 15 10 14 11 6 12
REMARK SMILES IDX 7 13 8 14 9 15 13 16 11 17 10 18 12 20 4 22 21 24 18 26
REMARK H PARENT 10 19 12 21 4 23 21 25 18 27
REMARK Flexibility Score: inf
ROOT
ATOM      1  C   UNL     1      11.344  -4.279  38.661  1.00  0.00     0.180 A 
ATOM      2  C   UNL     1      10.743  -3.062  39.026  1.00  0.00     0.208 A 
ATOM      3  C   UNL     1      11.501  -2.113  39.730  1.00  0.00     0.238 A 
ATOM      4  O   UNL     1      10.941  -1.048  40.101  1.00  0.00    -0.285 OA
ATOM      5  C   UNL     1      12.854  -2.384  40.045  1.00  0.00     0.111 A 
ATOM      6  C   UNL     1      13.727  -1.477  40.718  1.00  0.00     0.134 A 
ATOM      7  C   UNL     1      15.008  -1.902  41.094  1.00  0.00     0.093 A 
ATOM      8  C   UNL     1      15.469  -3.179  40.761  1.00  0.00     0.123 A 
ATOM      9  C   UNL     1      14.645  -4.049  40.052  1.00  0.00     0.094 A 
ATOM     10  C   UNL     1      13.350  -3.667  39.695  1.00  0.00     0.146 A 
ATOM     11  O   UNL     1      12.595  -4.531  39.029  1.00  0.00    -0.452 OA
ENDROOT
BRANCH   1  12
ATOM     12  C   UNL     1      10.617  -5.319  37.897  1.00  0.00     0.025 A 
ATOM     13  C   UNL     1       9.858  -6.308  38.547  1.00  0.00     0.016 A 
ATOM     14  C   UNL     1       9.161  -7.265  37.804  1.00  0.00     0.051 A 
ATOM     15  C   UNL     1       9.199  -7.239  36.404  1.00  0.00     0.157 A 
ATOM     16  C   UNL     1      10.635  -5.285  36.493  1.00  0.00     0.062 A 
ATOM     17  C   UNL     1       9.939  -6.242  35.746  1.00  0.00     0.158 A 
BRANCH  15  18
ATOM     18  O   UNL     1       8.504  -8.195  35.666  1.00  0.00    -0.504 OA
ATOM     19  H   UNL     1       8.531  -9.178  35.912  1.00  0.00     0.293 HD
ENDBRANCH  15  18
BRANCH  17  20
ATOM     20  O   UNL     1       9.992  -6.185  34.354  1.00  0.00    -0.504 OA
ATOM     21  H   UNL     1      10.782  -5.786  33.862  1.00  0.00     0.293 HD
ENDBRANCH  17  20
ENDBRANCH   1  12
BRANCH   2  22
ATOM     22  O   UNL     1       9.399  -2.823  38.724  1.00  0.00    -0.502 OA
ATOM     23  H   UNL     1       8.682  -2.773  39.438  1.00  0.00     0.293 HD
ENDBRANCH   2  22
BRANCH   6  24
ATOM     24  O   UNL     1      13.397  -0.152  41.015  1.00  0.00    -0.507 OA
ATOM     25  H   UNL     1      13.591   0.307  41.892  1.00  0.00     0.293 HD
ENDBRANCH   6  24
BRANCH   8  26
ATOM     26  O   UNL     1      16.750  -3.588  41.125  1.00  0.00    -0.508 OA
ATOM     27  H   UNL     1      17.486  -3.703  40.437  1.00  0.00     0.293 HD
ENDBRANCH   8  26
TORSDOF 6
ENDMDL
MODEL 4
REMARK VINA RESULT:    -5.266     13.256     15.599
REMARK INTER + INTRA:          -6.629
REMARK INTER:                  -6.307
REMARK INTRA:                  -0.322
REMARK UNBOUND:                -0.286
REMARK SMILES O=c1c(O)c(-c2ccc(O)c(O)c2)oc2cc(O)cc(O)c12
REMARK SMILES IDX 5 1 3 2 2 3 1 4 22 5 20 6 19 7 17 8 16 9 15 10 14 11 6 12
REMARK SMILES IDX 7 13 8 14 9 15 13 16 11 17 10 18 12 20 4 22 21 24 18 26
REMARK H PARENT 10 19 12 21 4 23 21 25 18 27
REMARK Flexibility Score: inf
ROOT
ATOM      1  C   UNL     1       7.973   6.110  25.929  1.00  0.00     0.180 A 
ATOM      2  C   UNL     1       7.377   4.883  26.272  1.00  0.00     0.208 A 
ATOM      3  C   UNL     1       6.090   4.884  26.832  1.00  0.00     0.238 A 
ATOM      4  O   UNL     1       5.585   3.787  27.186  1.00  0.00    -0.285 OA
ATOM      5  C   UNL     1       5.407   6.109  27.027  1.00  0.00     0.111 A 
ATOM      6  C   UNL     1       4.083   6.225  27.549  1.00  0.00     0.134 A 
ATOM      7  C   UNL     1       3.558   7.494  27.821  1.00  0.00     0.093 A 
ATOM      8  C   UNL     1       4.283   8.652  27.529  1.00  0.00     0.123 A 
ATOM      9  C   UNL     1       5.552   8.549  26.965  1.00  0.00     0.094 A 
ATOM     10  C   UNL     1       6.118   7.297  26.715  1.00  0.00     0.146 A 
ATOM     11  O   UNL     1       7.334   7.246  26.186  1.00  0.00    -0.452 OA
ENDROOT
BRANCH   1  12
ATOM     12  C   UNL     1       9.316   6.188  25.312  1.00  0.00     0.025 A 
ATOM     13  C   UNL     1      10.481   6.233  26.098  1.00  0.00     0.016 A 
ATOM     14  C   UNL     1      11.740   6.282  25.493  1.00  0.00     0.051 A 
ATOM     15  C   UNL     1      11.855   6.273  24.097  1.00  0.00     0.157 A 
ATOM     16  C   UNL     1       9.438   6.158  23.913  1.00  0.00     0.062 A 
ATOM     17  C   UNL     1      10.697   6.209  23.304  1.00  0.00     0.158 A 
BRANCH  15  18
ATOM     18  O   UNL     1      13.112   6.324  23.496  1.00  0.00    -0.504 OA
ATOM     19  H   UNL     1      13.422   5.605  22.853  1.00  0.00     0.293 HD
ENDBRANCH  15  18
BRANCH  17  20
ATOM     20  O   UNL     1      10.777   6.192  21.911  1.00  0.00    -0.504 OA
ATOM     21  H   UNL     1       9.956   6.277  21.325  1.00  0.00     0.293 HD
ENDBRANCH  17  20
ENDBRANCH   1  12
BRANCH   2  22
ATOM     22  O   UNL     1       8.078   3.687  26.090  1.00  0.00    -0.502 OA
ATOM     23  H   UNL     1       8.725   3.547  25.324  1.00  0.00     0.293 HD
ENDBRANCH   2  22
BRANCH   6  24
ATOM     24  O   UNL     1       3.242   5.135  27.789  1.00  0.00    -0.507 OA
ATOM     25  H   UNL     1       2.603   5.062  28.566  1.00  0.00     0.293 HD
ENDBRANCH   6  24
BRANCH   8  26
ATOM     26  O   UNL     1       3.745   9.911  27.789  1.00  0.00    -0.508 OA
ATOM     27  H   UNL     1       3.515  10.204  28.731  1.00  0.00     0.293 HD
ENDBRANCH   8  26
TORSDOF 6
ENDMDL
MODEL 5
REMARK VINA RESULT:    -5.209      1.744      2.045
REMARK INTER + INTRA:          -6.560
REMARK INTER:                  -6.248
REMARK INTRA:                  -0.312
REMARK UNBOUND:                -0.286
REMARK SMILES O=c1c(O)c(-c2ccc(O)c(O)c2)oc2cc(O)cc(O)c12
REMARK SMILES IDX 5 1 3 2 2 3 1 4 22 5 20 6 19 7 17 8 16 9 15 10 14 11 6 12
REMARK SMILES IDX 7 13 8 14 9 15 13 16 11 17 10 18 12 20 4 22 21 24 18 26
REMARK H PARENT 10 19 12 21 4 23 21 25 18 27
REMARK Flexibility Score: inf
ROOT
ATOM      1  C   UNL     1      17.255   6.222  35.883  1.00  0.00     0.180 A 
ATOM      2  C   UNL     1      17.862   5.016  35.491  1.00  0.00     0.208 A 
ATOM      3  C   UNL     1      19.146   5.052  34.926  1.00  0.00     0.238 A 
ATOM      4  O   UNL     1      19.661   3.975  34.528  1.00  0.00    -0.285 OA
ATOM      5  C   UNL     1      19.816   6.290  34.776  1.00  0.00     0.111 A 
ATOM      6  C   UNL     1      21.136   6.440  34.254  1.00  0.00     0.134 A 
ATOM      7  C   UNL     1      21.648   7.723  34.028  1.00  0.00     0.093 A 
ATOM      8  C   UNL     1      20.911   8.862  34.367  1.00  0.00     0.123 A 
ATOM      9  C   UNL     1      19.647   8.725  34.932  1.00  0.00     0.094 A 
ATOM     10  C   UNL     1      19.094   7.458  35.136  1.00  0.00     0.146 A 
ATOM     11  O   UNL     1      17.881   7.374  35.668  1.00  0.00    -0.452 OA
ENDROOT
BRANCH   1  12
ATOM     12  C   UNL     1      15.913   6.263  36.508  1.00  0.00     0.025 A 
ATOM     13  C   UNL     1      14.743   6.257  35.729  1.00  0.00     0.016 A 
ATOM     14  C   UNL     1      13.487   6.272  36.342  1.00  0.00     0.051 A 
ATOM     15  C   UNL     1      13.381   6.277  37.739  1.00  0.00     0.157 A 
ATOM     16  C   UNL     1      15.802   6.247  37.908  1.00  0.00     0.062 A 
ATOM     17  C   UNL     1      14.545   6.263  38.525  1.00  0.00     0.158 A 
BRANCH  15  18
ATOM     18  O   UNL     1      12.127   6.293  38.347  1.00  0.00    -0.504 OA
ATOM     19  H   UNL     1      11.993   5.961  39.295  1.00  0.00     0.293 HD
ENDBRANCH  15  18
BRANCH  17  20
ATOM     20  O   UNL     1      14.475   6.262  39.918  1.00  0.00    -0.504 OA
ATOM     21  H   UNL     1      13.594   6.188  40.412  1.00  0.00     0.293 HD
ENDBRANCH  17  20
ENDBRANCH   1  12
BRANCH   2  22
ATOM     22  O   UNL     1      17.174   3.806  35.629  1.00  0.00    -0.502 OA
ATOM     23  H   UNL     1      16.716   3.537  36.491  1.00  0.00     0.293 HD
ENDBRANCH   2  22
BRANCH   6  24
ATOM     24  O   UNL     1      21.988   5.369  33.969  1.00  0.00    -0.507 OA
ATOM     25  H   UNL     1      22.100   4.950  33.058  1.00  0.00     0.293 HD
ENDBRANCH   6  24
BRANCH   8  26
ATOM     26  O   UNL     1      21.435  10.136  34.153  1.00  0.00    -0.508 OA
ATOM     27  H   UNL     1      21.942  10.365  33.307  1.00  0.00     0.293 HD
ENDBRANCH   8  26
TORSDOF 6
ENDMDL
MODEL 6
REMARK VINA RESULT:    -5.124     15.913     17.670
REMARK INTER + INTRA:          -6.459
REMARK INTER:                  -6.222
REMARK INTRA:                  -0.236
REMARK UNBOUND:                -0.286
REMARK SMILES O=c1c(O)c(-c2ccc(O)c(O)c2)oc2cc(O)cc(O)c12
REMARK SMILES IDX 5 1 3 2 2 3 1 4 22 5 20 6 19 7 17 8 16 9 15 10 14 11 6 12
REMARK SMILES IDX 7 13 8 14 9 15 13 16 11 17 10 18 12 20 4 22 21 24 18 26
REMARK H PARENT 10 19 12 21 4 23 21 25 18 27
REMARK Flexibility Score: inf
ROOT
ATOM      1  C   UNL     1      13.603  -4.585  23.634  1.00  0.00     0.180 A 
ATOM      2  C   UNL     1      14.055  -3.307  23.262  1.00  0.00     0.208 A 
ATOM      3  C   UNL     1      13.216  -2.486  22.491  1.00  0.00     0.238 A 
ATOM      4  O   UNL     1      13.647  -1.365  22.115  1.00  0.00    -0.285 OA
ATOM      5  C   UNL     1      11.930  -2.946  22.117  1.00  0.00     0.111 A 
ATOM      6  C   UNL     1      10.981  -2.183  21.371  1.00  0.00     0.134 A 
ATOM      7  C   UNL     1       9.792  -2.786  20.946  1.00  0.00     0.093 A 
ATOM      8  C   UNL     1       9.488  -4.105  21.295  1.00  0.00     0.123 A 
ATOM      9  C   UNL     1      10.381  -4.838  22.072  1.00  0.00     0.094 A 
ATOM     10  C   UNL     1      11.592  -4.275  22.481  1.00  0.00     0.146 A 
ATOM     11  O   UNL     1      12.418  -5.013  23.212  1.00  0.00    -0.452 OA
ENDROOT
BRANCH   1  12
ATOM     12  C   UNL     1      14.420  -5.497  24.466  1.00  0.00     0.025 A 
ATOM     13  C   UNL     1      15.557  -6.140  23.947  1.00  0.00     0.016 A 
ATOM     14  C   UNL     1      16.327  -6.979  24.758  1.00  0.00     0.051 A 
ATOM     15  C   UNL     1      15.981  -7.175  26.101  1.00  0.00     0.157 A 
ATOM     16  C   UNL     1      14.089  -5.682  25.819  1.00  0.00     0.062 A 
ATOM     17  C   UNL     1      14.857  -6.521  26.634  1.00  0.00     0.158 A 
BRANCH  15  18
ATOM     18  O   UNL     1      16.749  -8.013  26.908  1.00  0.00    -0.504 OA
ATOM     19  H   UNL     1      16.784  -7.896  27.914  1.00  0.00     0.293 HD
ENDBRANCH  15  18
BRANCH  17  20
ATOM     20  O   UNL     1      14.490  -6.691  27.969  1.00  0.00    -0.504 OA
ATOM     21  H   UNL     1      13.596  -6.376  28.324  1.00  0.00     0.293 HD
ENDBRANCH  17  20
ENDBRANCH   1  12
BRANCH   2  22
ATOM     22  O   UNL     1      15.336  -2.881  23.623  1.00  0.00    -0.502 OA
ATOM     23  H   UNL     1      15.516  -1.959  24.002  1.00  0.00     0.293 HD
ENDBRANCH   2  22
BRANCH   6  24
ATOM     24  O   UNL     1      11.146  -0.832  21.050  1.00  0.00    -0.507 OA
ATOM     25  H   UNL     1      10.493  -0.285  20.510  1.00  0.00     0.293 HD
ENDBRANCH   6  24
BRANCH   8  26
ATOM     26  O   UNL     1       8.294  -4.692  20.880  1.00  0.00    -0.508 OA
ATOM     27  H   UNL     1       7.598  -4.168  20.363  1.00  0.00     0.293 HD
ENDBRANCH   8  26
TORSDOF 6
ENDMDL
MODEL 7
REMARK VINA RESULT:    -5.110     14.569     16.437
REMARK INTER + INTRA:          -6.442
REMARK INTER:                  -6.121
REMARK INTRA:                  -0.320
REMARK UNBOUND:                -0.286
REMARK SMILES O=c1c(O)c(-c2ccc(O)c(O)c2)oc2cc(O)cc(O)c12
REMARK SMILES IDX 5 1 3 2 2 3 1 4 22 5 20 6 19 7 17 8 16 9 15 10 14 11 6 12
REMARK SMILES IDX 7 13 8 14 9 15 13 16 11 17 10 18 12 20 4 22 21 24 18 26
REMARK H PARENT 10 19 12 21 4 23 21 25 18 27
REMARK Flexibility Score: inf
ROOT
ATOM      1  C   UNL     1      13.755  -4.148  23.822  1.00  0.00     0.180 A 
ATOM      2  C   UNL     1      12.587  -4.441  23.096  1.00  0.00     0.208 A 
ATOM      3  C   UNL     1      11.925  -3.402  22.423  1.00  0.00     0.238 A 
ATOM      4  O   UNL     1      10.851  -3.661  21.820  1.00  0.00    -0.285 OA
ATOM      5  C   UNL     1      12.447  -2.087  22.469  1.00  0.00     0.111 A 
ATOM      6  C   UNL     1      11.881  -0.966  21.791  1.00  0.00     0.134 A 
ATOM      7  C   UNL     1      12.406   0.313  22.014  1.00  0.00     0.093 A 
ATOM      8  C   UNL     1      13.518   0.501  22.840  1.00  0.00     0.123 A 
ATOM      9  C   UNL     1      14.114  -0.595  23.458  1.00  0.00     0.094 A 
ATOM     10  C   UNL     1      13.590  -1.878  23.284  1.00  0.00     0.146 A 
ATOM     11  O   UNL     1      14.183  -2.893  23.901  1.00  0.00    -0.452 OA
ENDROOT
BRANCH   1  12
ATOM     12  C   UNL     1      14.522  -5.194  24.536  1.00  0.00     0.025 A 
ATOM     13  C   UNL     1      15.626  -5.828  23.941  1.00  0.00     0.016 A 
ATOM     14  C   UNL     1      16.350  -6.795  24.644  1.00  0.00     0.051 A 
ATOM     15  C   UNL     1      15.990  -7.133  25.955  1.00  0.00     0.157 A 
ATOM     16  C   UNL     1      14.178  -5.522  25.858  1.00  0.00     0.062 A 
ATOM     17  C   UNL     1      14.900  -6.491  26.565  1.00  0.00     0.158 A 
BRANCH  15  18
ATOM     18  O   UNL     1      16.712  -8.100  26.653  1.00  0.00    -0.504 OA
ATOM     19  H   UNL     1      16.835  -9.037  26.287  1.00  0.00     0.293 HD
ENDBRANCH  15  18
BRANCH  17  20
ATOM     20  O   UNL     1      14.519  -6.800  27.871  1.00  0.00    -0.504 OA
ATOM     21  H   UNL     1      13.579  -7.094  28.102  1.00  0.00     0.293 HD
ENDBRANCH  17  20
ENDBRANCH   1  12
BRANCH   2  22
ATOM     22  O   UNL     1      12.077  -5.743  23.081  1.00  0.00    -0.502 OA
ATOM     23  H   UNL     1      11.505  -6.111  23.830  1.00  0.00     0.293 HD
ENDBRANCH   2  22
BRANCH   6  24
ATOM     24  O   UNL     1      10.830  -1.058  20.875  1.00  0.00    -0.507 OA
ATOM     25  H   UNL     1       9.879  -0.775  21.060  1.00  0.00     0.293 HD
ENDBRANCH   6  24
BRANCH   8  26
ATOM     26  O   UNL     1      14.044   1.775  23.044  1.00  0.00    -0.508 OA
ATOM     27  H   UNL     1      13.917   2.516  22.364  1.00  0.00     0.293 HD
ENDBRANCH   8  26
TORSDOF 6
ENDMDL
MODEL 8
REMARK VINA RESULT:    -5.000     12.615     15.130
REMARK INTER + INTRA:          -6.308
REMARK INTER:                  -5.991
REMARK INTRA:                  -0.317
REMARK UNBOUND:                -0.286
REMARK SMILES O=c1c(O)c(-c2ccc(O)c(O)c2)oc2cc(O)cc(O)c12
REMARK SMILES IDX 5 1 3 2 2 3 1 4 22 5 20 6 19 7 17 8 16 9 15 10 14 11 6 12
REMARK SMILES IDX 7 13 8 14 9 15 13 16 11 17 10 18 12 20 4 22 21 24 18 26
REMARK H PARENT 10 19 12 21 4 23 21 25 18 27
REMARK Flexibility Score: inf
ROOT
ATOM      1  C   UNL     1      11.062   5.755  23.856  1.00  0.00     0.180 A 
ATOM      2  C   UNL     1       9.696   5.777  24.186  1.00  0.00     0.208 A 
ATOM      3  C   UNL     1       9.026   4.561  24.392  1.00  0.00     0.238 A 
ATOM      4  O   UNL     1       7.791   4.586  24.634  1.00  0.00    -0.285 OA
ATOM      5  C   UNL     1       9.732   3.339  24.284  1.00  0.00     0.111 A 
ATOM      6  C   UNL     1       9.163   2.050  24.513  1.00  0.00     0.134 A 
ATOM      7  C   UNL     1       9.923   0.903  24.249  1.00  0.00     0.093 A 
ATOM      8  C   UNL     1      11.252   1.001  23.828  1.00  0.00     0.123 A 
ATOM      9  C   UNL     1      11.834   2.254  23.660  1.00  0.00     0.094 A 
ATOM     10  C   UNL     1      11.090   3.417  23.880  1.00  0.00     0.146 A 
ATOM     11  O   UNL     1      11.682   4.591  23.697  1.00  0.00    -0.452 OA
ENDROOT
BRANCH   1  12
ATOM     12  C   UNL     1      11.843   6.996  23.648  1.00  0.00     0.025 A 
ATOM     13  C   UNL     1      12.612   7.559  24.681  1.00  0.00     0.016 A 
ATOM     14  C   UNL     1      13.360   8.718  24.454  1.00  0.00     0.051 A 
ATOM     15  C   UNL     1      13.361   9.322  23.190  1.00  0.00     0.157 A 
ATOM     16  C   UNL     1      11.864   7.594  22.377  1.00  0.00     0.062 A 
ATOM     17  C   UNL     1      12.611   8.755  22.147  1.00  0.00     0.158 A 
BRANCH  15  18
ATOM     18  O   UNL     1      14.107  10.479  22.967  1.00  0.00    -0.504 OA
ATOM     19  H   UNL     1      15.063  10.564  23.290  1.00  0.00     0.293 HD
ENDBRANCH  15  18
BRANCH  17  20
ATOM     20  O   UNL     1      12.596   9.329  20.875  1.00  0.00    -0.504 OA
ATOM     21  H   UNL     1      12.174   8.865  20.081  1.00  0.00     0.293 HD
ENDBRANCH  17  20
ENDBRANCH   1  12
BRANCH   2  22
ATOM     22  O   UNL     1       9.012   6.994  24.267  1.00  0.00    -0.502 OA
ATOM     23  H   UNL     1       8.506   7.386  23.482  1.00  0.00     0.293 HD
ENDBRANCH   2  22
BRANCH   6  24
ATOM     24  O   UNL     1       7.877   1.844  25.020  1.00  0.00    -0.507 OA
ATOM     25  H   UNL     1       7.107   2.486  24.912  1.00  0.00     0.293 HD
ENDBRANCH   6  24
BRANCH   8  26
ATOM     26  O   UNL     1      12.005  -0.146  23.583  1.00  0.00    -0.508 OA
ATOM     27  H   UNL     1      11.565  -1.030  23.357  1.00  0.00     0.293 HD
ENDBRANCH   8  26
TORSDOF 6
ENDMDL
MODEL 9
REMARK VINA RESULT:    -4.979      2.825      8.066
REMARK INTER + INTRA:          -6.283
REMARK INTER:                  -5.981
REMARK INTRA:                  -0.303
REMARK UNBOUND:                -0.286
REMARK SMILES O=c1c(O)c(-c2ccc(O)c(O)c2)oc2cc(O)cc(O)c12
REMARK SMILES IDX 5 1 3 2 2 3 1 4 22 5 20 6 19 7 17 8 16 9 15 10 14 11 6 12
REMARK SMILES IDX 7 13 8 14 9 15 13 16 11 17 10 18 12 20 4 22 21 24 18 26
REMARK H PARENT 10 19 12 21 4 23 21 25 18 27
REMARK Flexibility Score: inf
ROOT
ATOM      1  C   UNL     1      15.097   6.014  36.972  1.00  0.00     0.180 A 
ATOM      2  C   UNL     1      14.875   6.006  38.360  1.00  0.00     0.208 A 
ATOM      3  C   UNL     1      13.559   6.102  38.839  1.00  0.00     0.238 A 
ATOM      4  O   UNL     1      13.371   6.148  40.083  1.00  0.00    -0.285 OA
ATOM      5  C   UNL     1      12.481   6.188  37.926  1.00  0.00     0.111 A 
ATOM      6  C   UNL     1      11.104   6.248  38.300  1.00  0.00     0.134 A 
ATOM      7  C   UNL     1      10.130   6.463  37.317  1.00  0.00     0.093 A 
ATOM      8  C   UNL     1      10.478   6.555  35.966  1.00  0.00     0.123 A 
ATOM      9  C   UNL     1      11.813   6.438  35.587  1.00  0.00     0.094 A 
ATOM     10  C   UNL     1      12.811   6.259  36.548  1.00  0.00     0.146 A 
ATOM     11  O   UNL     1      14.071   6.163  36.142  1.00  0.00    -0.452 OA
ENDROOT
BRANCH   1  12
ATOM     12  C   UNL     1      16.453   5.892  36.391  1.00  0.00     0.025 A 
ATOM     13  C   UNL     1      17.104   4.649  36.306  1.00  0.00     0.016 A 
ATOM     14  C   UNL     1      18.375   4.554  35.731  1.00  0.00     0.051 A 
ATOM     15  C   UNL     1      19.007   5.695  35.221  1.00  0.00     0.157 A 
ATOM     16  C   UNL     1      17.083   7.030  35.859  1.00  0.00     0.062 A 
ATOM     17  C   UNL     1      18.356   6.938  35.284  1.00  0.00     0.158 A 
BRANCH  15  18
ATOM     18  O   UNL     1      20.275   5.598  34.650  1.00  0.00    -0.504 OA
ATOM     19  H   UNL     1      20.677   6.362  34.119  1.00  0.00     0.293 HD
ENDBRANCH  15  18
BRANCH  17  20
ATOM     20  O   UNL     1      18.955   8.093  34.779  1.00  0.00    -0.504 OA
ATOM     21  H   UNL     1      19.519   8.702  35.357  1.00  0.00     0.293 HD
ENDBRANCH  17  20
ENDBRANCH   1  12
BRANCH   2  22
ATOM     22  O   UNL     1      15.955   5.941  39.245  1.00  0.00    -0.502 OA
ATOM     23  H   UNL     1      15.880   6.216  40.217  1.00  0.00     0.293 HD
ENDBRANCH   2  22
BRANCH   6  24
ATOM     24  O   UNL     1      10.643   6.075  39.608  1.00  0.00    -0.507 OA
ATOM     25  H   UNL     1       9.705   5.800  39.856  1.00  0.00     0.293 HD
ENDBRANCH   6  24
BRANCH   8  26
ATOM     26  O   UNL     1       9.501   6.754  34.993  1.00  0.00    -0.508 OA
ATOM     27  H   UNL     1       9.597   6.372  34.059  1.00  0.00     0.293 HD
ENDBRANCH   8  26
TORSDOF 6
ENDMDL
