MODEL 1
REMARK VINA RESULT:    -5.434      0.000      0.000
REMARK INTER + INTRA:          -5.983
REMARK INTER:                  -5.752
REMARK INTRA:                  -0.231
REMARK UNBOUND:                -0.231
REMARK SMILES O=c1cc(-c2ccccc2)oc2ccccc12
REMARK SMILES IDX 4 1 3 2 2 3 1 4 17 5 16 6 15 7 14 8 13 9 12 10 11 11 5 12
REMARK SMILES IDX 8 13 7 14 9 15 6 16 10 17
REMARK H PARENT
REMARK Flexibility Score: inf
ROOT
ATOM      1  C   UNL     1       6.681  36.373  23.594  1.00  0.00     0.138 A 
ATOM      2  C   UNL     1       6.134  35.185  23.066  1.00  0.00     0.100 A 
ATOM      3  C   UNL     1       6.983  34.209  22.540  1.00  0.00     0.193 A 
ATOM      4  O   UNL     1       6.494  33.147  22.069  1.00  0.00    -0.289 OA
ATOM      5  C   UNL     1       8.369  34.425  22.544  1.00  0.00     0.065 A 
ATOM      6  C   UNL     1       9.280  33.484  22.029  1.00  0.00     0.016 A 
ATOM      7  C   UNL     1      10.652  33.750  22.059  1.00  0.00     0.001 A 
ATOM      8  C   UNL     1      11.124  34.951  22.597  1.00  0.00     0.004 A 
ATOM      9  C   UNL     1      10.227  35.891  23.110  1.00  0.00     0.048 A 
ATOM     10  C   UNL     1       8.851  35.635  23.086  1.00  0.00     0.138 A 
ATOM     11  O   UNL     1       8.006  36.536  23.576  1.00  0.00    -0.456 OA
ENDROOT
BRANCH   1  12
ATOM     12  C   UNL     1       5.844  37.466  24.175  1.00  0.00     0.017 A 
ATOM     13  C   UNL     1       4.231  39.469  25.340  1.00  0.00     0.000 A 
ATOM     14  C   UNL     1       4.259  38.187  25.889  1.00  0.00     0.001 A 
ATOM     15  C   UNL     1       5.001  39.760  24.214  1.00  0.00     0.001 A 
ATOM     16  C   UNL     1       5.057  37.194  25.315  1.00  0.00     0.012 A 
ATOM     17  C   UNL     1       5.802  38.771  23.632  1.00  0.00     0.012 A 
ENDBRANCH   1  12
TORSDOF 1
ENDMDL
MODEL 2
REMARK VINA RESULT:    -5.408      3.265      5.735
REMARK INTER + INTRA:          -5.955
REMARK INTER:                  -5.697
REMARK INTRA:                  -0.258
REMARK UNBOUND:                -0.231
REMARK SMILES O=c1cc(-c2ccccc2)oc2ccccc12
REMARK SMILES IDX 4 1 3 2 2 3 1 4 17 5 16 6 15 7 14 8 13 9 12 10 11 11 5 12
REMARK SMILES IDX 8 13 7 14 9 15 6 16 10 17
REMARK H PARENT
REMARK Flexibility Score: inf
ROOT
ATOM      1  C   UNL     1       7.911  36.717  24.789  1.00  0.00     0.138 A 
ATOM      2  C   UNL     1       6.835  37.542  25.177  1.00  0.00     0.100 A 
ATOM      3  C   UNL     1       7.027  38.503  26.172  1.00  0.00     0.193 A 
ATOM      4  O   UNL     1       6.065  39.241  26.518  1.00  0.00    -0.289 OA
ATOM      5  C   UNL     1       8.288  38.635  26.770  1.00  0.00     0.065 A 
ATOM      6  C   UNL     1       8.550  39.582  27.777  1.00  0.00     0.016 A 
ATOM      7  C   UNL     1       9.826  39.670  28.340  1.00  0.00     0.001 A 
ATOM      8  C   UNL     1      10.847  38.819  27.906  1.00  0.00     0.004 A 
ATOM      9  C   UNL     1      10.597  37.875  26.907  1.00  0.00     0.048 A 
ATOM     10  C   UNL     1       9.322  37.778  26.336  1.00  0.00     0.138 A 
ATOM     11  O   UNL     1       9.094  36.877  25.386  1.00  0.00    -0.456 OA
ENDROOT
BRANCH   1  12
ATOM     12  C   UNL     1       7.791  35.664  23.735  1.00  0.00     0.017 A 
ATOM     13  C   UNL     1       7.659  33.686  21.725  1.00  0.00     0.000 A 
ATOM     14  C   UNL     1       8.875  34.302  22.020  1.00  0.00     0.001 A 
ATOM     15  C   UNL     1       6.508  34.049  22.423  1.00  0.00     0.001 A 
ATOM     16  C   UNL     1       8.944  35.282  23.015  1.00  0.00     0.012 A 
ATOM     17  C   UNL     1       6.567  35.029  23.420  1.00  0.00     0.012 A 
ENDBRANCH   1  12
TORSDOF 1
ENDMDL
MODEL 3
REMARK VINA RESULT:    -5.389      3.839      4.823
REMARK INTER + INTRA:          -5.935
REMARK INTER:                  -5.701
REMARK INTRA:                  -0.235
REMARK UNBOUND:                -0.231
REMARK SMILES O=c1cc(-c2ccccc2)oc2ccccc12
REMARK SMILES IDX 4 1 3 2 2 3 1 4 17 5 16 6 15 7 14 8 13 9 12 10 11 11 5 12
REMARK SMILES IDX 8 13 7 14 9 15 6 16 10 17
REMARK H PARENT
REMARK Flexibility Score: inf
ROOT
ATOM      1  C   UNL     1       8.169  38.026  26.259  1.00  0.00     0.138 A 
ATOM      2  C   UNL     1       6.780  38.264  26.286  1.00  0.00     0.100 A 
ATOM      3  C   UNL     1       5.944  37.565  25.412  1.00  0.00     0.193 A 
ATOM      4  O   UNL     1       4.701  37.778  25.435  1.00  0.00    -0.289 OA
ATOM      5  C   UNL     1       6.500  36.636  24.520  1.00  0.00     0.065 A 
ATOM      6  C   UNL     1       5.716  35.899  23.614  1.00  0.00     0.016 A 
ATOM      7  C   UNL     1       6.322  34.985  22.747  1.00  0.00     0.001 A 
ATOM      8  C   UNL     1       7.708  34.801  22.775  1.00  0.00     0.004 A 
ATOM      9  C   UNL     1       8.494  35.528  23.672  1.00  0.00     0.048 A 
ATOM     10  C   UNL     1       7.898  36.446  24.545  1.00  0.00     0.138 A 
ATOM     11  O   UNL     1       8.655  37.133  25.394  1.00  0.00    -0.456 OA
ENDROOT
BRANCH   1  12
ATOM     12  C   UNL     1       9.133  38.731  27.159  1.00  0.00     0.017 A 
ATOM     13  C   UNL     1      10.900  40.030  28.937  1.00  0.00     0.000 A 
ATOM     14  C   UNL     1       9.826  39.293  29.434  1.00  0.00     0.001 A 
ATOM     15  C   UNL     1      11.100  40.125  27.559  1.00  0.00     0.001 A 
ATOM     16  C   UNL     1       8.949  38.648  28.557  1.00  0.00     0.012 A 
ATOM     17  C   UNL     1      10.227  39.483  26.674  1.00  0.00     0.012 A 
ENDBRANCH   1  12
TORSDOF 1
ENDMDL
MODEL 4
REMARK VINA RESULT:    -5.372     16.839     19.528
REMARK INTER + INTRA:          -5.917
REMARK INTER:                  -5.659
REMARK INTRA:                  -0.258
REMARK UNBOUND:                -0.231
REMARK SMILES O=c1cc(-c2ccccc2)oc2ccccc12
REMARK SMILES IDX 4 1 3 2 2 3 1 4 17 5 16 6 15 7 14 8 13 9 12 10 11 11 5 12
REMARK SMILES IDX 8 13 7 14 9 15 6 16 10 17
REMARK H PARENT
REMARK Flexibility Score: inf
ROOT
ATOM      1  C   UNL     1      -8.247  34.718  34.299  1.00  0.00     0.138 A 
ATOM      2  C   UNL     1      -8.715  35.212  35.535  1.00  0.00     0.100 A 
ATOM      3  C   UNL     1      -8.707  34.381  36.657  1.00  0.00     0.193 A 
ATOM      4  O   UNL     1      -9.125  34.823  37.761  1.00  0.00    -0.289 OA
ATOM      5  C   UNL     1      -8.233  33.067  36.539  1.00  0.00     0.065 A 
ATOM      6  C   UNL     1      -8.197  32.178  37.629  1.00  0.00     0.016 A 
ATOM      7  C   UNL     1      -7.714  30.877  37.455  1.00  0.00     0.001 A 
ATOM      8  C   UNL     1      -7.266  30.454  36.201  1.00  0.00     0.004 A 
ATOM      9  C   UNL     1      -7.298  31.330  35.112  1.00  0.00     0.048 A 
ATOM     10  C   UNL     1      -7.779  32.635  35.275  1.00  0.00     0.138 A 
ATOM     11  O   UNL     1      -7.805  33.460  34.233  1.00  0.00    -0.456 OA
ENDROOT
BRANCH   1  12
ATOM     12  C   UNL     1      -8.222  35.540  33.051  1.00  0.00     0.017 A 
ATOM     13  C   UNL     1      -8.099  37.038  30.661  1.00  0.00     0.000 A 
ATOM     14  C   UNL     1      -7.215  35.980  30.868  1.00  0.00     0.001 A 
ATOM     15  C   UNL     1      -9.045  37.356  31.637  1.00  0.00     0.001 A 
ATOM     16  C   UNL     1      -7.273  35.236  32.050  1.00  0.00     0.012 A 
ATOM     17  C   UNL     1      -9.110  36.617  32.823  1.00  0.00     0.012 A 
ENDBRANCH   1  12
TORSDOF 1
ENDMDL
MODEL 5
REMARK VINA RESULT:    -5.189      3.064      3.998
REMARK INTER + INTRA:          -5.724
REMARK INTER:                  -5.476
REMARK INTRA:                  -0.248
REMARK UNBOUND:                -0.231
REMARK SMILES O=c1cc(-c2ccccc2)oc2ccccc12
REMARK SMILES IDX 4 1 3 2 2 3 1 4 17 5 16 6 15 7 14 8 13 9 12 10 11 11 5 12
REMARK SMILES IDX 8 13 7 14 9 15 6 16 10 17
REMARK H PARENT
REMARK Flexibility Score: inf
ROOT
ATOM      1  C   UNL     1       8.947  37.083  25.065  1.00  0.00     0.138 A 
ATOM      2  C   UNL     1      10.095  36.602  24.403  1.00  0.00     0.100 A 
ATOM      3  C   UNL     1       9.960  35.644  23.397  1.00  0.00     0.193 A 
ATOM      4  O   UNL     1      10.987  35.213  22.805  1.00  0.00    -0.289 OA
ATOM      5  C   UNL     1       8.683  35.175  23.057  1.00  0.00     0.065 A 
ATOM      6  C   UNL     1       8.475  34.211  22.054  1.00  0.00     0.016 A 
ATOM      7  C   UNL     1       7.180  33.779  21.755  1.00  0.00     0.001 A 
ATOM      8  C   UNL     1       6.086  34.300  22.453  1.00  0.00     0.004 A 
ATOM      9  C   UNL     1       6.282  35.257  23.451  1.00  0.00     0.048 A 
ATOM     10  C   UNL     1       7.575  35.698  23.758  1.00  0.00     0.138 A 
ATOM     11  O   UNL     1       7.751  36.609  24.710  1.00  0.00    -0.456 OA
ENDROOT
BRANCH   1  12
ATOM     12  C   UNL     1       9.004  38.107  26.153  1.00  0.00     0.017 A 
ATOM     13  C   UNL     1       9.190  39.993  28.245  1.00  0.00     0.000 A 
ATOM     14  C   UNL     1      10.115  38.953  28.158  1.00  0.00     0.001 A 
ATOM     15  C   UNL     1       8.172  40.100  27.297  1.00  0.00     0.001 A 
ATOM     16  C   UNL     1      10.026  38.018  27.124  1.00  0.00     0.012 A 
ATOM     17  C   UNL     1       8.075  39.168  26.259  1.00  0.00     0.012 A 
ENDBRANCH   1  12
TORSDOF 1
ENDMDL
MODEL 6
REMARK VINA RESULT:    -4.768      2.440      6.221
REMARK INTER + INTRA:          -5.278
REMARK INTER:                  -5.030
REMARK INTRA:                  -0.248
REMARK UNBOUND:                -0.231
REMARK SMILES O=c1cc(-c2ccccc2)oc2ccccc12
REMARK SMILES IDX 4 1 3 2 2 3 1 4 17 5 16 6 15 7 14 8 13 9 12 10 11 11 5 12
REMARK SMILES IDX 8 13 7 14 9 15 6 16 10 17
REMARK H PARENT
REMARK Flexibility Score: inf
ROOT
ATOM      1  C   UNL     1       8.547  37.743  24.239  1.00  0.00     0.138 A 
ATOM      2  C   UNL     1       8.780  38.770  25.176  1.00  0.00     0.100 A 
ATOM      3  C   UNL     1       7.896  38.943  26.244  1.00  0.00     0.193 A 
ATOM      4  O   UNL     1       8.105  39.861  27.082  1.00  0.00    -0.289 OA
ATOM      5  C   UNL     1       6.790  38.090  26.369  1.00  0.00     0.065 A 
ATOM      6  C   UNL     1       5.862  38.209  27.419  1.00  0.00     0.016 A 
ATOM      7  C   UNL     1       4.776  37.331  27.496  1.00  0.00     0.001 A 
ATOM      8  C   UNL     1       4.607  36.334  26.531  1.00  0.00     0.004 A 
ATOM      9  C   UNL     1       5.524  36.209  25.483  1.00  0.00     0.048 A 
ATOM     10  C   UNL     1       6.615  37.082  25.397  1.00  0.00     0.138 A 
ATOM     11  O   UNL     1       7.481  36.955  24.397  1.00  0.00    -0.456 OA
ENDROOT
BRANCH   1  12
ATOM     12  C   UNL     1       9.442  37.491  23.068  1.00  0.00     0.017 A 
ATOM     13  C   UNL     1      11.125  36.919  20.875  1.00  0.00     0.000 A 
ATOM     14  C   UNL     1      10.605  35.880  21.646  1.00  0.00     0.001 A 
ATOM     15  C   UNL     1      10.812  38.242  21.189  1.00  0.00     0.001 A 
ATOM     16  C   UNL     1       9.771  36.160  22.732  1.00  0.00     0.012 A 
ATOM     17  C   UNL     1       9.979  38.531  22.275  1.00  0.00     0.012 A 
ENDBRANCH   1  12
TORSDOF 1
ENDMDL
MODEL 7
REMARK VINA RESULT:    -4.735      2.247      3.371
REMARK INTER + INTRA:          -5.243
REMARK INTER:                  -5.007
REMARK INTRA:                  -0.236
REMARK UNBOUND:                -0.231
REMARK SMILES O=c1cc(-c2ccccc2)oc2ccccc12
REMARK SMILES IDX 4 1 3 2 2 3 1 4 17 5 16 6 15 7 14 8 13 9 12 10 11 11 5 12
REMARK SMILES IDX 8 13 7 14 9 15 6 16 10 17
REMARK H PARENT
REMARK Flexibility Score: inf
ROOT
ATOM      1  C   UNL     1       7.606  37.667  24.472  1.00  0.00     0.138 A 
ATOM      2  C   UNL     1       7.789  38.896  23.806  1.00  0.00     0.100 A 
ATOM      3  C   UNL     1       8.720  38.986  22.769  1.00  0.00     0.193 A 
ATOM      4  O   UNL     1       8.884  40.086  22.173  1.00  0.00    -0.289 OA
ATOM      5  C   UNL     1       9.459  37.852  22.404  1.00  0.00     0.065 A 
ATOM      6  C   UNL     1      10.412  37.874  21.370  1.00  0.00     0.016 A 
ATOM      7  C   UNL     1      11.121  36.713  21.047  1.00  0.00     0.001 A 
ATOM      8  C   UNL     1      10.888  35.527  21.751  1.00  0.00     0.004 A 
ATOM      9  C   UNL     1       9.944  35.496  22.780  1.00  0.00     0.048 A 
ATOM     10  C   UNL     1       9.227  36.653  23.111  1.00  0.00     0.138 A 
ATOM     11  O   UNL     1       8.331  36.613  24.092  1.00  0.00    -0.456 OA
ENDROOT
BRANCH   1  12
ATOM     12  C   UNL     1       6.632  37.485  25.591  1.00  0.00     0.017 A 
ATOM     13  C   UNL     1       4.749  37.070  27.653  1.00  0.00     0.000 A 
ATOM     14  C   UNL     1       4.701  36.292  26.497  1.00  0.00     0.001 A 
ATOM     15  C   UNL     1       5.728  38.055  27.789  1.00  0.00     0.001 A 
ATOM     16  C   UNL     1       5.632  36.495  25.475  1.00  0.00     0.012 A 
ATOM     17  C   UNL     1       6.664  38.264  26.770  1.00  0.00     0.012 A 
ENDBRANCH   1  12
TORSDOF 1
ENDMDL
MODEL 8
REMARK VINA RESULT:    -4.704     17.107     19.201
REMARK INTER + INTRA:          -5.210
REMARK INTER:                  -4.945
REMARK INTRA:                  -0.265
REMARK UNBOUND:                -0.231
REMARK SMILES O=c1cc(-c2ccccc2)oc2ccccc12
REMARK SMILES IDX 4 1 3 2 2 3 1 4 17 5 16 6 15 7 14 8 13 9 12 10 11 11 5 12
REMARK SMILES IDX 8 13 7 14 9 15 6 16 10 17
REMARK H PARENT
REMARK Flexibility Score: inf
ROOT
ATOM      1  C   UNL     1      -8.246  35.498  33.759  1.00  0.00     0.138 A 
ATOM      2  C   UNL     1      -7.729  35.225  32.476  1.00  0.00     0.100 A 
ATOM      3  C   UNL     1      -7.681  36.243  31.521  1.00  0.00     0.193 A 
ATOM      4  O   UNL     1      -7.218  35.998  30.374  1.00  0.00    -0.289 OA
ATOM      5  C   UNL     1      -8.146  37.523  31.854  1.00  0.00     0.065 A 
ATOM      6  C   UNL     1      -8.125  38.593  30.940  1.00  0.00     0.016 A 
ATOM      7  C   UNL     1      -8.601  39.850  31.324  1.00  0.00     0.001 A 
ATOM      8  C   UNL     1      -9.100  40.049  32.615  1.00  0.00     0.004 A 
ATOM      9  C   UNL     1      -9.125  38.993  33.529  1.00  0.00     0.048 A 
ATOM     10  C   UNL     1      -8.650  37.729  33.155  1.00  0.00     0.138 A 
ATOM     11  O   UNL     1      -8.678  36.731  34.032  1.00  0.00    -0.456 OA
ENDROOT
BRANCH   1  12
ATOM     12  C   UNL     1      -8.335  34.466  34.837  1.00  0.00     0.017 A 
ATOM     13  C   UNL     1      -8.447  32.458  36.818  1.00  0.00     0.000 A 
ATOM     14  C   UNL     1      -7.724  32.242  35.646  1.00  0.00     0.001 A 
ATOM     15  C   UNL     1      -9.115  33.667  37.011  1.00  0.00     0.001 A 
ATOM     16  C   UNL     1      -7.666  33.234  34.663  1.00  0.00     0.012 A 
ATOM     17  C   UNL     1      -9.063  34.665  36.033  1.00  0.00     0.012 A 
ENDBRANCH   1  12
TORSDOF 1
ENDMDL
MODEL 9
REMARK VINA RESULT:    -4.644     19.356     21.345
REMARK INTER + INTRA:          -5.147
REMARK INTER:                  -4.918
REMARK INTRA:                  -0.229
REMARK UNBOUND:                -0.231
REMARK SMILES O=c1cc(-c2ccccc2)oc2ccccc12
REMARK SMILES IDX 4 1 3 2 2 3 1 4 17 5 16 6 15 7 14 8 13 9 12 10 11 11 5 12
REMARK SMILES IDX 8 13 7 14 9 15 6 16 10 17
REMARK H PARENT
REMARK Flexibility Score: inf
ROOT
ATOM      1  C   UNL     1      -7.629  30.329  36.916  1.00  0.00     0.138 A 
ATOM      2  C   UNL     1      -6.832  30.104  38.057  1.00  0.00     0.100 A 
ATOM      3  C   UNL     1      -6.590  28.796  38.482  1.00  0.00     0.193 A 
ATOM      4  O   UNL     1      -5.877  28.595  39.502  1.00  0.00    -0.289 OA
ATOM      5  C   UNL     1      -7.144  27.724  37.767  1.00  0.00     0.065 A 
ATOM      6  C   UNL     1      -6.941  26.383  38.140  1.00  0.00     0.016 A 
ATOM      7  C   UNL     1      -7.517  25.353  37.391  1.00  0.00     0.001 A 
ATOM      8  C   UNL     1      -8.298  25.650  36.270  1.00  0.00     0.004 A 
ATOM      9  C   UNL     1      -8.506  26.979  35.892  1.00  0.00     0.048 A 
ATOM     10  C   UNL     1      -7.933  28.019  36.634  1.00  0.00     0.138 A 
ATOM     11  O   UNL     1      -8.137  29.279  36.266  1.00  0.00    -0.456 OA
ENDROOT
BRANCH   1  12
ATOM     12  C   UNL     1      -7.937  31.696  36.395  1.00  0.00     0.017 A 
ATOM     13  C   UNL     1      -8.464  34.257  35.331  1.00  0.00     0.000 A 
ATOM     14  C   UNL     1      -7.681  33.352  34.616  1.00  0.00     0.001 A 
ATOM     15  C   UNL     1      -8.987  33.896  36.573  1.00  0.00     0.001 A 
ATOM     16  C   UNL     1      -7.418  32.083  35.140  1.00  0.00     0.012 A 
ATOM     17  C   UNL     1      -8.728  32.628  37.105  1.00  0.00     0.012 A 
ENDBRANCH   1  12
TORSDOF 1
ENDMDL
