MODEL 1
REMARK VINA RESULT:    -4.672      0.000      0.000
REMARK INTER + INTRA:          -5.614
REMARK INTER:                  -5.492
REMARK INTRA:                  -0.122
REMARK UNBOUND:                -0.122
REMARK SMILES O=C([O-])CCC(=O)[O-]
REMARK SMILES IDX 4 1 2 2 1 3 3 4 5 5 6 6 7 7 8 8
REMARK H PARENT
REMARK Flexibility Score: inf
ROOT
ATOM      1  C   UNL     1       8.034  33.238  36.689  1.00  0.00     0.059 C 
ENDROOT
BRANCH   1   2
ATOM      2  C   UNL     1       7.543  32.185  37.632  1.00  0.00     0.042 C 
ATOM      3  O   UNL     1       6.831  32.501  38.621  1.00  0.00    -0.550 OA
ATOM      4  O   UNL     1       7.830  30.848  37.390  1.00  0.00    -0.550 OA
ENDBRANCH   1   2
BRANCH   1   5
ATOM      5  C   UNL     1       6.892  33.734  35.800  1.00  0.00     0.059 C 
BRANCH   5   6
ATOM      6  C   UNL     1       6.893  33.006  34.493  1.00  0.00     0.042 C 
ATOM      7  O   UNL     1       5.932  33.142  33.691  1.00  0.00    -0.550 OA
ATOM      8  O   UNL     1       7.979  32.215  34.139  1.00  0.00    -0.550 OA
ENDBRANCH   5   6
ENDBRANCH   1   5
TORSDOF 3
ENDMDL
MODEL 2
REMARK VINA RESULT:    -4.669      0.037      3.586
REMARK INTER + INTRA:          -5.609
REMARK INTER:                  -5.488
REMARK INTRA:                  -0.122
REMARK UNBOUND:                -0.122
REMARK SMILES O=C([O-])CCC(=O)[O-]
REMARK SMILES IDX 4 1 2 2 1 3 3 4 5 5 6 6 7 7 8 8
REMARK H PARENT
REMARK Flexibility Score: inf
ROOT
ATOM      1  C   UNL     1       6.890  33.714  35.787  1.00  0.00     0.059 C 
ENDROOT
BRANCH   1   2
ATOM      2  C   UNL     1       6.885  32.987  34.480  1.00  0.00     0.042 C 
ATOM      3  O   UNL     1       5.911  33.108  33.690  1.00  0.00    -0.550 OA
ATOM      4  O   UNL     1       7.978  32.215  34.109  1.00  0.00    -0.550 OA
ENDBRANCH   1   2
BRANCH   1   5
ATOM      5  C   UNL     1       8.048  33.231  36.663  1.00  0.00     0.059 C 
BRANCH   5   6
ATOM      6  C   UNL     1       7.574  32.190  37.628  1.00  0.00     0.042 C 
ATOM      7  O   UNL     1       6.851  32.516  38.606  1.00  0.00    -0.550 OA
ATOM      8  O   UNL     1       7.890  30.853  37.420  1.00  0.00    -0.550 OA
ENDBRANCH   5   6
ENDBRANCH   1   5
TORSDOF 3
ENDMDL
MODEL 3
REMARK VINA RESULT:    -4.261      1.715      2.245
REMARK INTER + INTRA:          -5.130
REMARK INTER:                  -5.097
REMARK INTRA:                  -0.033
REMARK UNBOUND:                -0.122
REMARK SMILES O=C([O-])CCC(=O)[O-]
REMARK SMILES IDX 4 1 2 2 1 3 3 4 5 5 6 6 7 7 8 8
REMARK H PARENT
REMARK Flexibility Score: inf
ROOT
ATOM      1  C   UNL     1       7.342  32.343  34.884  1.00  0.00     0.059 C 
ENDROOT
BRANCH   1   2
ATOM      2  C   UNL     1       7.647  32.774  36.283  1.00  0.00     0.042 C 
ATOM      3  O   UNL     1       8.650  32.308  36.887  1.00  0.00    -0.550 OA
ATOM      4  O   UNL     1       6.854  33.730  36.905  1.00  0.00    -0.550 OA
ENDBRANCH   1   2
BRANCH   1   5
ATOM      5  C   UNL     1       6.268  33.243  34.269  1.00  0.00     0.059 C 
BRANCH   5   6
ATOM      6  C   UNL     1       5.705  32.614  33.033  1.00  0.00     0.042 C 
ATOM      7  O   UNL     1       4.541  32.133  33.042  1.00  0.00    -0.550 OA
ATOM      8  O   UNL     1       6.446  32.604  31.859  1.00  0.00    -0.550 OA
ENDBRANCH   5   6
ENDBRANCH   1   5
TORSDOF 3
ENDMDL
MODEL 4
REMARK VINA RESULT:    -4.170      5.227      5.910
REMARK INTER + INTRA:          -5.023
REMARK INTER:                  -4.935
REMARK INTRA:                  -0.088
REMARK UNBOUND:                -0.122
REMARK SMILES O=C([O-])CCC(=O)[O-]
REMARK SMILES IDX 4 1 2 2 1 3 3 4 5 5 6 6 7 7 8 8
REMARK H PARENT
REMARK Flexibility Score: inf
ROOT
ATOM      1  C   UNL     1      10.081  30.863  30.411  1.00  0.00     0.059 C 
ENDROOT
BRANCH   1   2
ATOM      2  C   UNL     1      10.054  30.511  31.865  1.00  0.00     0.042 C 
ATOM      3  O   UNL     1      10.238  29.321  32.234  1.00  0.00    -0.550 OA
ATOM      4  O   UNL     1       9.875  31.506  32.818  1.00  0.00    -0.550 OA
ENDBRANCH   1   2
BRANCH   1   5
ATOM      5  C   UNL     1       8.661  30.896  29.842  1.00  0.00     0.059 C 
BRANCH   5   6
ATOM      6  C   UNL     1       8.012  32.213  30.134  1.00  0.00     0.042 C 
ATOM      7  O   UNL     1       7.043  32.277  30.935  1.00  0.00    -0.550 OA
ATOM      8  O   UNL     1       8.508  33.375  29.557  1.00  0.00    -0.550 OA
ENDBRANCH   5   6
ENDBRANCH   1   5
TORSDOF 3
ENDMDL
MODEL 5
REMARK VINA RESULT:    -4.166      5.207      6.615
REMARK INTER + INTRA:          -5.019
REMARK INTER:                  -4.945
REMARK INTRA:                  -0.074
REMARK UNBOUND:                -0.122
REMARK SMILES O=C([O-])CCC(=O)[O-]
REMARK SMILES IDX 4 1 2 2 1 3 3 4 5 5 6 6 7 7 8 8
REMARK H PARENT
REMARK Flexibility Score: inf
ROOT
ATOM      1  C   UNL     1       8.796  30.936  29.880  1.00  0.00     0.059 C 
ENDROOT
BRANCH   1   2
ATOM      2  C   UNL     1       8.070  32.218  30.141  1.00  0.00     0.042 C 
ATOM      3  O   UNL     1       7.094  32.244  30.936  1.00  0.00    -0.550 OA
ATOM      4  O   UNL     1       8.502  33.395  29.543  1.00  0.00    -0.550 OA
ENDBRANCH   1   2
BRANCH   1   5
ATOM      5  C   UNL     1      10.211  30.996  30.457  1.00  0.00     0.059 C 
BRANCH   5   6
ATOM      6  C   UNL     1      10.206  30.587  31.897  1.00  0.00     0.042 C 
ATOM      7  O   UNL     1      10.592  29.436  32.229  1.00  0.00    -0.550 OA
ATOM      8  O   UNL     1       9.821  31.495  32.875  1.00  0.00    -0.550 OA
ENDBRANCH   5   6
ENDBRANCH   1   5
TORSDOF 3
ENDMDL
MODEL 6
REMARK VINA RESULT:    -4.076     18.383     19.622
REMARK INTER + INTRA:          -4.913
REMARK INTER:                  -4.798
REMARK INTRA:                  -0.114
REMARK UNBOUND:                -0.122
REMARK SMILES O=C([O-])CCC(=O)[O-]
REMARK SMILES IDX 4 1 2 2 1 3 3 4 5 5 6 6 7 7 8 8
REMARK H PARENT
REMARK Flexibility Score: inf
ROOT
ATOM      1  C   UNL     1      14.345  13.952  36.006  1.00  0.00     0.059 C 
ENDROOT
BRANCH   1   2
ATOM      2  C   UNL     1      14.702  14.154  34.567  1.00  0.00     0.042 C 
ATOM      3  O   UNL     1      15.859  13.875  34.156  1.00  0.00    -0.550 OA
ATOM      4  O   UNL     1      13.742  14.601  33.668  1.00  0.00    -0.550 OA
ENDBRANCH   1   2
BRANCH   1   5
ATOM      5  C   UNL     1      15.509  14.365  36.909  1.00  0.00     0.059 C 
BRANCH   5   6
ATOM      6  C   UNL     1      15.437  15.827  37.218  1.00  0.00     0.042 C 
ATOM      7  O   UNL     1      14.350  16.344  37.587  1.00  0.00    -0.550 OA
ATOM      8  O   UNL     1      16.583  16.610  37.146  1.00  0.00    -0.550 OA
ENDBRANCH   5   6
ENDBRANCH   1   5
TORSDOF 3
ENDMDL
MODEL 7
REMARK VINA RESULT:    -3.935      4.997      7.053
REMARK INTER + INTRA:          -4.747
REMARK INTER:                  -4.628
REMARK INTRA:                  -0.119
REMARK UNBOUND:                -0.122
REMARK SMILES O=C([O-])CCC(=O)[O-]
REMARK SMILES IDX 4 1 2 2 1 3 3 4 5 5 6 6 7 7 8 8
REMARK H PARENT
REMARK Flexibility Score: inf
ROOT
ATOM      1  C   UNL     1       9.999  31.592  29.602  1.00  0.00     0.059 C 
ENDROOT
BRANCH   1   2
ATOM      2  C   UNL     1       9.495  32.977  29.348  1.00  0.00     0.042 C 
ATOM      3  O   UNL     1       8.350  33.319  29.745  1.00  0.00    -0.550 OA
ATOM      4  O   UNL     1      10.311  33.908  28.717  1.00  0.00    -0.550 OA
ENDBRANCH   1   2
BRANCH   1   5
ATOM      5  C   UNL     1       9.059  30.846  30.552  1.00  0.00     0.059 C 
BRANCH   5   6
ATOM      6  C   UNL     1       9.625  30.825  31.937  1.00  0.00     0.042 C 
ATOM      7  O   UNL     1      10.454  29.938  32.268  1.00  0.00    -0.550 OA
ATOM      8  O   UNL     1       9.272  31.813  32.847  1.00  0.00    -0.550 OA
ENDBRANCH   5   6
ENDBRANCH   1   5
TORSDOF 3
ENDMDL
MODEL 8
REMARK VINA RESULT:    -3.917      5.116      6.227
REMARK INTER + INTRA:          -4.726
REMARK INTER:                  -4.608
REMARK INTRA:                  -0.119
REMARK UNBOUND:                -0.122
REMARK SMILES O=C([O-])CCC(=O)[O-]
REMARK SMILES IDX 4 1 2 2 1 3 3 4 5 5 6 6 7 7 8 8
REMARK H PARENT
REMARK Flexibility Score: inf
ROOT
ATOM      1  C   UNL     1       9.180  30.841  30.445  1.00  0.00     0.059 C 
ENDROOT
BRANCH   1   2
ATOM      2  C   UNL     1       9.657  30.762  31.860  1.00  0.00     0.042 C 
ATOM      3  O   UNL     1       9.321  31.644  32.694  1.00  0.00    -0.550 OA
ATOM      4  O   UNL     1      10.431  29.685  32.273  1.00  0.00    -0.550 OA
ENDBRANCH   1   2
BRANCH   1   5
ATOM      5  C   UNL     1      10.137  31.689  29.605  1.00  0.00     0.059 C 
BRANCH   5   6
ATOM      6  C   UNL     1       9.523  33.017  29.293  1.00  0.00     0.042 C 
ATOM      7  O   UNL     1       8.381  33.307  29.738  1.00  0.00    -0.550 OA
ATOM      8  O   UNL     1      10.231  33.954  28.551  1.00  0.00    -0.550 OA
ENDBRANCH   5   6
ENDBRANCH   1   5
TORSDOF 3
ENDMDL
