MODEL 1
REMARK VINA RESULT:    -4.229      0.000      0.000
REMARK INTER + INTRA:          -4.493
REMARK INTER:                  -4.477
REMARK INTRA:                  -0.016
REMARK UNBOUND:                -0.016
REMARK SMILES O=C([O-])c1cccnc1
REMARK SMILES IDX 4 1 5 2 9 3 6 4 8 5 7 6 2 7 1 8 3 9
REMARK H PARENT
REMARK Flexibility Score: inf
ROOT
ATOM      1  C   UNL     1     -17.529   0.206 -23.390  1.00  0.00     0.016 A 
ATOM      2  C   UNL     1     -16.758  -0.647 -22.583  1.00  0.00     0.013 A 
ATOM      3  C   UNL     1     -17.859   1.479 -22.892  1.00  0.00     0.120 A 
ATOM      4  C   UNL     1     -16.339  -0.226 -21.319  1.00  0.00     0.021 A 
ATOM      5  N   UNL     1     -17.438   1.864 -21.659  1.00  0.00    -0.264 NA
ATOM      6  C   UNL     1     -16.692   1.047 -20.869  1.00  0.00     0.111 A 
ENDROOT
BRANCH   1   7
ATOM      7  C   UNL     1     -17.979  -0.228 -24.729  1.00  0.00     0.073 C 
ATOM      8  O   UNL     1     -19.162  -0.624 -24.911  1.00  0.00    -0.545 OA
ATOM      9  O   UNL     1     -17.103  -0.205 -25.809  1.00  0.00    -0.545 OA
ENDBRANCH   1   7
TORSDOF 1
ENDMDL
MODEL 2
REMARK VINA RESULT:    -4.202      2.454      3.003
REMARK INTER + INTRA:          -4.464
REMARK INTER:                  -4.448
REMARK INTRA:                  -0.016
REMARK UNBOUND:                -0.016
REMARK SMILES O=C([O-])c1cccnc1
REMARK SMILES IDX 4 1 5 2 9 3 6 4 8 5 7 6 2 7 1 8 3 9
REMARK H PARENT
REMARK Flexibility Score: inf
ROOT
ATOM      1  C   UNL     1     -16.941  -0.199 -21.526  1.00  0.00     0.016 A 
ATOM      2  C   UNL     1     -16.417   0.894 -20.816  1.00  0.00     0.013 A 
ATOM      3  C   UNL     1     -18.276  -0.137 -21.959  1.00  0.00     0.120 A 
ATOM      4  C   UNL     1     -17.218   2.008 -20.555  1.00  0.00     0.021 A 
ATOM      5  N   UNL     1     -19.034   0.959 -21.692  1.00  0.00    -0.264 NA
ATOM      6  C   UNL     1     -18.539   2.022 -21.006  1.00  0.00     0.111 A 
ENDROOT
BRANCH   1   7
ATOM      7  C   UNL     1     -16.103  -1.385 -21.807  1.00  0.00     0.073 C 
ATOM      8  O   UNL     1     -16.124  -2.382 -21.037  1.00  0.00    -0.545 OA
ATOM      9  O   UNL     1     -15.280  -1.415 -22.928  1.00  0.00    -0.545 OA
ENDBRANCH   1   7
TORSDOF 1
ENDMDL
MODEL 3
REMARK VINA RESULT:    -3.988      8.191      8.640
REMARK INTER + INTRA:          -4.237
REMARK INTER:                  -4.221
REMARK INTRA:                  -0.017
REMARK UNBOUND:                -0.016
REMARK SMILES O=C([O-])c1cccnc1
REMARK SMILES IDX 4 1 5 2 9 3 6 4 8 5 7 6 2 7 1 8 3 9
REMARK H PARENT
REMARK Flexibility Score: inf
ROOT
ATOM      1  C   UNL     1     -16.754  -7.328 -19.211  1.00  0.00     0.016 A 
ATOM      2  C   UNL     1     -15.411  -6.958 -19.029  1.00  0.00     0.013 A 
ATOM      3  C   UNL     1     -17.737  -6.676 -18.447  1.00  0.00     0.120 A 
ATOM      4  C   UNL     1     -15.078  -5.963 -18.107  1.00  0.00     0.021 A 
ATOM      5  N   UNL     1     -17.385  -5.711 -17.555  1.00  0.00    -0.264 NA
ATOM      6  C   UNL     1     -16.089  -5.345 -17.371  1.00  0.00     0.111 A 
ENDROOT
BRANCH   1   7
ATOM      7  C   UNL     1     -17.120  -8.379 -20.184  1.00  0.00     0.073 C 
ATOM      8  O   UNL     1     -17.710  -8.082 -21.257  1.00  0.00    -0.545 OA
ATOM      9  O   UNL     1     -16.818  -9.712 -19.928  1.00  0.00    -0.545 OA
ENDBRANCH   1   7
TORSDOF 1
ENDMDL
MODEL 4
REMARK VINA RESULT:    -3.976     11.285     11.904
REMARK INTER + INTRA:          -4.225
REMARK INTER:                  -4.204
REMARK INTRA:                  -0.021
REMARK UNBOUND:                -0.016
REMARK SMILES O=C([O-])c1cccnc1
REMARK SMILES IDX 4 1 5 2 9 3 6 4 8 5 7 6 2 7 1 8 3 9
REMARK H PARENT
REMARK Flexibility Score: inf
ROOT
ATOM      1  C   UNL     1      -6.745  -0.880 -26.330  1.00  0.00     0.016 A 
ATOM      2  C   UNL     1      -6.876  -2.088 -27.035  1.00  0.00     0.013 A 
ATOM      3  C   UNL     1      -6.145   0.212 -26.980  1.00  0.00     0.120 A 
ATOM      4  C   UNL     1      -6.416  -2.185 -28.350  1.00  0.00     0.021 A 
ATOM      5  N   UNL     1      -5.705   0.091 -28.260  1.00  0.00    -0.264 NA
ATOM      6  C   UNL     1      -5.826  -1.073 -28.952  1.00  0.00     0.111 A 
ENDROOT
BRANCH   1   7
ATOM      7  C   UNL     1      -7.228  -0.765 -24.937  1.00  0.00     0.073 C 
ATOM      8  O   UNL     1      -8.313  -1.304 -24.589  1.00  0.00    -0.545 OA
ATOM      9  O   UNL     1      -6.491  -0.061 -23.992  1.00  0.00    -0.545 OA
ENDBRANCH   1   7
TORSDOF 1
ENDMDL
MODEL 5
REMARK VINA RESULT:    -3.963      2.929      3.749
REMARK INTER + INTRA:          -4.211
REMARK INTER:                  -4.194
REMARK INTRA:                  -0.017
REMARK UNBOUND:                -0.016
REMARK SMILES O=C([O-])c1cccnc1
REMARK SMILES IDX 4 1 5 2 9 3 6 4 8 5 7 6 2 7 1 8 3 9
REMARK H PARENT
REMARK Flexibility Score: inf
ROOT
ATOM      1  C   UNL     1     -17.567  -0.484 -22.667  1.00  0.00     0.016 A 
ATOM      2  C   UNL     1     -18.914  -0.361 -22.291  1.00  0.00     0.013 A 
ATOM      3  C   UNL     1     -17.240  -0.373 -24.029  1.00  0.00     0.120 A 
ATOM      4  C   UNL     1     -19.894  -0.133 -23.260  1.00  0.00     0.021 A 
ATOM      5  N   UNL     1     -18.212  -0.152 -24.953  1.00  0.00    -0.264 NA
ATOM      6  C   UNL     1     -19.519  -0.030 -24.600  1.00  0.00     0.111 A 
ENDROOT
BRANCH   1   7
ATOM      7  C   UNL     1     -16.521  -0.726 -21.650  1.00  0.00     0.073 C 
ATOM      8  O   UNL     1     -16.168   0.192 -20.862  1.00  0.00    -0.545 OA
ATOM      9  O   UNL     1     -15.911  -1.972 -21.549  1.00  0.00    -0.545 OA
ENDBRANCH   1   7
TORSDOF 1
ENDMDL
MODEL 6
REMARK VINA RESULT:    -3.932      7.060      7.899
REMARK INTER + INTRA:          -4.178
REMARK INTER:                  -4.162
REMARK INTRA:                  -0.016
REMARK UNBOUND:                -0.016
REMARK SMILES O=C([O-])c1cccnc1
REMARK SMILES IDX 4 1 5 2 9 3 6 4 8 5 7 6 2 7 1 8 3 9
REMARK H PARENT
REMARK Flexibility Score: inf
ROOT
ATOM      1  C   UNL     1     -15.764  -5.314 -18.481  1.00  0.00     0.016 A 
ATOM      2  C   UNL     1     -14.547  -5.727 -17.915  1.00  0.00     0.013 A 
ATOM      3  C   UNL     1     -15.729  -4.562 -19.667  1.00  0.00     0.120 A 
ATOM      4  C   UNL     1     -13.339  -5.390 -18.530  1.00  0.00     0.021 A 
ATOM      5  N   UNL     1     -14.540  -4.247 -20.246  1.00  0.00    -0.264 NA
ATOM      6  C   UNL     1     -13.356  -4.641 -19.707  1.00  0.00     0.111 A 
ENDROOT
BRANCH   1   7
ATOM      7  C   UNL     1     -17.050  -5.664 -17.839  1.00  0.00     0.073 C 
ATOM      8  O   UNL     1     -17.445  -5.044 -16.816  1.00  0.00    -0.545 OA
ATOM      9  O   UNL     1     -17.840  -6.684 -18.357  1.00  0.00    -0.545 OA
ENDBRANCH   1   7
TORSDOF 1
ENDMDL
MODEL 7
REMARK VINA RESULT:    -3.924      1.677      2.114
REMARK INTER + INTRA:          -4.170
REMARK INTER:                  -4.152
REMARK INTRA:                  -0.018
REMARK UNBOUND:                -0.016
REMARK SMILES O=C([O-])c1cccnc1
REMARK SMILES IDX 4 1 5 2 9 3 6 4 8 5 7 6 2 7 1 8 3 9
REMARK H PARENT
REMARK Flexibility Score: inf
ROOT
ATOM      1  C   UNL     1     -18.457   0.324 -24.276  1.00  0.00     0.016 A 
ATOM      2  C   UNL     1     -19.349  -0.522 -23.596  1.00  0.00     0.013 A 
ATOM      3  C   UNL     1     -17.774   1.306 -23.539  1.00  0.00     0.120 A 
ATOM      4  C   UNL     1     -19.541  -0.377 -22.221  1.00  0.00     0.021 A 
ATOM      5  N   UNL     1     -17.980   1.427 -22.201  1.00  0.00    -0.264 NA
ATOM      6  C   UNL     1     -18.840   0.615 -21.533  1.00  0.00     0.111 A 
ENDROOT
BRANCH   1   7
ATOM      7  C   UNL     1     -18.246   0.180 -25.733  1.00  0.00     0.073 C 
ATOM      8  O   UNL     1     -17.102  -0.086 -26.191  1.00  0.00    -0.545 OA
ATOM      9  O   UNL     1     -19.306   0.337 -26.617  1.00  0.00    -0.545 OA
ENDBRANCH   1   7
TORSDOF 1
ENDMDL
MODEL 8
REMARK VINA RESULT:    -3.872      8.232      8.699
REMARK INTER + INTRA:          -4.115
REMARK INTER:                  -4.098
REMARK INTRA:                  -0.017
REMARK UNBOUND:                -0.016
REMARK SMILES O=C([O-])c1cccnc1
REMARK SMILES IDX 4 1 5 2 9 3 6 4 8 5 7 6 2 7 1 8 3 9
REMARK H PARENT
REMARK Flexibility Score: inf
ROOT
ATOM      1  C   UNL     1     -16.747  -7.295 -19.199  1.00  0.00     0.016 A 
ATOM      2  C   UNL     1     -17.714  -6.631 -18.426  1.00  0.00     0.013 A 
ATOM      3  C   UNL     1     -15.394  -6.967 -19.004  1.00  0.00     0.120 A 
ATOM      4  C   UNL     1     -17.323  -5.669 -17.492  1.00  0.00     0.021 A 
ATOM      5  N   UNL     1     -15.041  -6.027 -18.088  1.00  0.00    -0.264 NA
ATOM      6  C   UNL     1     -15.967  -5.378 -17.335  1.00  0.00     0.111 A 
ENDROOT
BRANCH   1   7
ATOM      7  C   UNL     1     -17.148  -8.315 -20.192  1.00  0.00     0.073 C 
ATOM      8  O   UNL     1     -17.743  -7.980 -21.251  1.00  0.00    -0.545 OA
ATOM      9  O   UNL     1     -16.872  -9.660 -19.971  1.00  0.00    -0.545 OA
ENDBRANCH   1   7
TORSDOF 1
ENDMDL
MODEL 9
REMARK VINA RESULT:    -3.786      8.265      9.172
REMARK INTER + INTRA:          -4.024
REMARK INTER:                  -4.008
REMARK INTRA:                  -0.016
REMARK UNBOUND:                -0.016
REMARK SMILES O=C([O-])c1cccnc1
REMARK SMILES IDX 4 1 5 2 9 3 6 4 8 5 7 6 2 7 1 8 3 9
REMARK H PARENT
REMARK Flexibility Score: inf
ROOT
ATOM      1  C   UNL     1     -16.881  -6.953 -19.370  1.00  0.00     0.016 A 
ATOM      2  C   UNL     1     -17.756  -6.778 -20.455  1.00  0.00     0.013 A 
ATOM      3  C   UNL     1     -16.417  -8.249 -19.088  1.00  0.00     0.120 A 
ATOM      4  C   UNL     1     -18.144  -7.876 -21.226  1.00  0.00     0.021 A 
ATOM      5  N   UNL     1     -16.811  -9.301 -19.853  1.00  0.00    -0.264 NA
ATOM      6  C   UNL     1     -17.657  -9.143 -20.906  1.00  0.00     0.111 A 
ENDROOT
BRANCH   1   7
ATOM      7  C   UNL     1     -16.462  -5.798 -18.546  1.00  0.00     0.073 C 
ATOM      8  O   UNL     1     -15.468  -5.100 -18.880  1.00  0.00    -0.545 OA
ATOM      9  O   UNL     1     -17.161  -5.467 -17.391  1.00  0.00    -0.545 OA
ENDBRANCH   1   7
TORSDOF 1
ENDMDL
