MODEL 1
REMARK VINA RESULT:    -4.235      0.000      0.000
REMARK INTER + INTRA:          -8.544
REMARK INTER:                  -7.702
REMARK INTRA:                  -0.842
REMARK UNBOUND:                -0.842
REMARK SMILES CCCCCC=CCC=CCCCCCCCC(=O)[O-]
REMARK SMILES IDX 11 1 12 2 13 3 14 4 15 5 16 6 17 7 18 8 19 9 20 10 10 11
REMARK SMILES IDX 9 12 8 13 7 14 6 15 5 16 4 17 3 18 2 19 1 20
REMARK H PARENT
REMARK Flexibility Score: inf
ROOT
ATOM      1  C   UNL     1      -2.929 -51.236   0.589  1.00  0.00     0.027 C 
ENDROOT
BRANCH   1   2
ATOM      2  C   UNL     1      -4.417 -50.879   0.707  1.00  0.00     0.004 C 
BRANCH   2   3
ATOM      3  C   UNL     1      -5.243 -51.422  -0.472  1.00  0.00     0.000 C 
BRANCH   3   4
ATOM      4  C   UNL     1      -6.537 -52.125  -0.012  1.00  0.00     0.000 C 
BRANCH   4   5
ATOM      5  C   UNL     1      -6.865 -51.914   1.478  1.00  0.00     0.000 C 
BRANCH   5   6
ATOM      6  C   UNL     1      -8.222 -51.250   1.755  1.00  0.00     0.006 C 
BRANCH   6   7
ATOM      7  C   UNL     1      -8.783 -51.599   3.141  1.00  0.00     0.053 C 
BRANCH   7   8
ATOM      8  C   UNL     1      -8.437 -50.533   4.131  1.00  0.00     0.041 C 
ATOM      9  O   UNL     1      -8.806 -49.344   3.938  1.00  0.00    -0.550 OA
ATOM     10  O   UNL     1      -7.739 -50.859   5.289  1.00  0.00    -0.550 OA
ENDBRANCH   7   8
ENDBRANCH   6   7
ENDBRANCH   5   6
ENDBRANCH   4   5
ENDBRANCH   3   4
ENDBRANCH   2   3
ENDBRANCH   1   2
BRANCH   1  11
ATOM     11  C   UNL     1      -2.172 -50.861   1.835  1.00  0.00    -0.031 C 
ATOM     12  C   UNL     1      -1.567 -51.785   2.598  1.00  0.00    -0.027 C 
BRANCH  12  13
ATOM     13  C   UNL     1      -0.877 -51.411   3.881  1.00  0.00     0.054 C 
BRANCH  13  14
ATOM     14  C   UNL     1      -1.577 -52.010   5.068  1.00  0.00    -0.027 C 
ATOM     15  C   UNL     1      -1.608 -51.384   6.255  1.00  0.00    -0.031 C 
BRANCH  15  16
ATOM     16  C   UNL     1      -2.313 -51.980   7.442  1.00  0.00     0.027 C 
BRANCH  16  17
ATOM     17  C   UNL     1      -3.336 -51.001   8.031  1.00  0.00     0.004 C 
BRANCH  17  18
ATOM     18  C   UNL     1      -4.201 -51.686   9.099  1.00  0.00     0.000 C 
BRANCH  18  19
ATOM     19  C   UNL     1      -5.693 -51.697   8.734  1.00  0.00    -0.003 C 
ATOM     20  C   UNL     1      -6.463 -50.525   9.345  1.00  0.00     0.004 C 
ENDBRANCH  18  19
ENDBRANCH  17  18
ENDBRANCH  16  17
ENDBRANCH  15  16
ENDBRANCH  13  14
ENDBRANCH  12  13
ENDBRANCH   1  11
TORSDOF 14
ENDMDL
MODEL 2
REMARK VINA RESULT:    -3.756      1.575      5.996
REMARK INTER + INTRA:          -7.671
REMARK INTER:                  -6.477
REMARK INTRA:                  -1.194
REMARK UNBOUND:                -0.842
REMARK SMILES CCCCCC=CCC=CCCCCCCCC(=O)[O-]
REMARK SMILES IDX 11 1 12 2 13 3 14 4 15 5 16 6 17 7 18 8 19 9 20 10 10 11
REMARK SMILES IDX 9 12 8 13 7 14 6 15 5 16 4 17 3 18 2 19 1 20
REMARK H PARENT
REMARK Flexibility Score: inf
ROOT
ATOM      1  C   UNL     1      -1.573 -51.100   3.105  1.00  0.00     0.027 C 
ENDROOT
BRANCH   1   2
ATOM      2  C   UNL     1      -2.468 -51.880   4.078  1.00  0.00     0.004 C 
BRANCH   2   3
ATOM      3  C   UNL     1      -2.095 -51.620   5.549  1.00  0.00     0.000 C 
BRANCH   3   4
ATOM      4  C   UNL     1      -3.301 -51.771   6.499  1.00  0.00     0.000 C 
BRANCH   4   5
ATOM      5  C   UNL     1      -3.012 -51.332   7.947  1.00  0.00     0.000 C 
BRANCH   5   6
ATOM      6  C   UNL     1      -4.049 -51.792   8.982  1.00  0.00     0.006 C 
BRANCH   6   7
ATOM      7  C   UNL     1      -5.002 -50.667   9.412  1.00  0.00     0.053 C 
BRANCH   7   8
ATOM      8  C   UNL     1      -6.372 -50.901   8.861  1.00  0.00     0.041 C 
ATOM      9  O   UNL     1      -6.544 -51.705   7.906  1.00  0.00    -0.550 OA
ATOM     10  O   UNL     1      -7.469 -50.259   9.427  1.00  0.00    -0.550 OA
ENDBRANCH   7   8
ENDBRANCH   6   7
ENDBRANCH   5   6
ENDBRANCH   4   5
ENDBRANCH   3   4
ENDBRANCH   2   3
ENDBRANCH   1   2
BRANCH   1  11
ATOM     11  C   UNL     1      -2.252 -50.896   1.776  1.00  0.00    -0.031 C 
ATOM     12  C   UNL     1      -2.693 -51.931   1.043  1.00  0.00    -0.027 C 
BRANCH  12  13
ATOM     13  C   UNL     1      -3.301 -51.723  -0.317  1.00  0.00     0.054 C 
BRANCH  13  14
ATOM     14  C   UNL     1      -4.749 -52.125  -0.331  1.00  0.00    -0.027 C 
ATOM     15  C   UNL     1      -5.651 -51.527   0.462  1.00  0.00    -0.031 C 
BRANCH  15  16
ATOM     16  C   UNL     1      -7.101 -51.924   0.446  1.00  0.00     0.027 C 
BRANCH  16  17
ATOM     17  C   UNL     1      -7.729 -51.791   1.839  1.00  0.00     0.004 C 
BRANCH  17  18
ATOM     18  C   UNL     1      -6.650 -51.813   2.933  1.00  0.00     0.000 C 
BRANCH  18  19
ATOM     19  C   UNL     1      -7.191 -51.384   4.305  1.00  0.00    -0.003 C 
ATOM     20  C   UNL     1      -8.719 -51.371   4.365  1.00  0.00     0.004 C 
ENDBRANCH  18  19
ENDBRANCH  17  18
ENDBRANCH  16  17
ENDBRANCH  15  16
ENDBRANCH  13  14
ENDBRANCH  12  13
ENDBRANCH   1  11
TORSDOF 14
ENDMDL
MODEL 3
REMARK VINA RESULT:    -3.656      1.033      1.587
REMARK INTER + INTRA:          -7.489
REMARK INTER:                  -6.814
REMARK INTRA:                  -0.676
REMARK UNBOUND:                -0.842
REMARK SMILES CCCCCC=CCC=CCCCCCCCC(=O)[O-]
REMARK SMILES IDX 11 1 12 2 13 3 14 4 15 5 16 6 17 7 18 8 19 9 20 10 10 11
REMARK SMILES IDX 9 12 8 13 7 14 6 15 5 16 4 17 3 18 2 19 1 20
REMARK H PARENT
REMARK Flexibility Score: inf
ROOT
ATOM      1  C   UNL     1      -1.780 -50.794   1.641  1.00  0.00     0.027 C 
ENDROOT
BRANCH   1   2
ATOM      2  C   UNL     1      -3.131 -50.336   1.076  1.00  0.00     0.004 C 
BRANCH   2   3
ATOM      3  C   UNL     1      -4.087 -51.515   0.820  1.00  0.00     0.000 C 
BRANCH   3   4
ATOM      4  C   UNL     1      -5.325 -51.104  -0.003  1.00  0.00     0.000 C 
BRANCH   4   5
ATOM      5  C   UNL     1      -6.514 -52.072   0.134  1.00  0.00     0.000 C 
BRANCH   5   6
ATOM      6  C   UNL     1      -7.490 -51.742   1.274  1.00  0.00     0.006 C 
BRANCH   6   7
ATOM      7  C   UNL     1      -6.837 -51.828   2.661  1.00  0.00     0.053 C 
BRANCH   7   8
ATOM      8  C   UNL     1      -7.797 -51.391   3.721  1.00  0.00     0.041 C 
ATOM      9  O   UNL     1      -7.501 -50.440   4.492  1.00  0.00    -0.550 OA
ATOM     10  O   UNL     1      -9.037 -52.010   3.834  1.00  0.00    -0.550 OA
ENDBRANCH   7   8
ENDBRANCH   6   7
ENDBRANCH   5   6
ENDBRANCH   4   5
ENDBRANCH   3   4
ENDBRANCH   2   3
ENDBRANCH   1   2
BRANCH   1  11
ATOM     11  C   UNL     1      -1.944 -51.477   2.974  1.00  0.00    -0.031 C 
ATOM     12  C   UNL     1      -1.014 -51.379   3.936  1.00  0.00    -0.027 C 
BRANCH  12  13
ATOM     13  C   UNL     1      -1.149 -52.125   5.235  1.00  0.00     0.054 C 
BRANCH  13  14
ATOM     14  C   UNL     1      -2.557 -52.058   5.755  1.00  0.00    -0.027 C 
ATOM     15  C   UNL     1      -2.817 -51.914   7.064  1.00  0.00    -0.031 C 
BRANCH  15  16
ATOM     16  C   UNL     1      -4.225 -51.842   7.585  1.00  0.00     0.027 C 
BRANCH  16  17
ATOM     17  C   UNL     1      -4.327 -50.885   8.780  1.00  0.00     0.004 C 
BRANCH  17  18
ATOM     18  C   UNL     1      -5.462 -51.306   9.726  1.00  0.00     0.000 C 
BRANCH  18  19
ATOM     19  C   UNL     1      -6.846 -50.872   9.220  1.00  0.00    -0.003 C 
ATOM     20  C   UNL     1      -7.984 -51.342  10.125  1.00  0.00     0.004 C 
ENDBRANCH  18  19
ENDBRANCH  17  18
ENDBRANCH  16  17
ENDBRANCH  15  16
ENDBRANCH  13  14
ENDBRANCH  12  13
ENDBRANCH   1  11
TORSDOF 14
ENDMDL
MODEL 4
REMARK VINA RESULT:    -3.347      1.840      5.959
REMARK INTER + INTRA:          -6.929
REMARK INTER:                  -5.850
REMARK INTRA:                  -1.079
REMARK UNBOUND:                -0.842
REMARK SMILES CCCCCC=CCC=CCCCCCCCC(=O)[O-]
REMARK SMILES IDX 11 1 12 2 13 3 14 4 15 5 16 6 17 7 18 8 19 9 20 10 10 11
REMARK SMILES IDX 9 12 8 13 7 14 6 15 5 16 4 17 3 18 2 19 1 20
REMARK H PARENT
REMARK Flexibility Score: inf
ROOT
ATOM      1  C   UNL     1      -1.916 -50.454   2.347  1.00  0.00     0.027 C 
ENDROOT
BRANCH   1   2
ATOM      2  C   UNL     1      -2.068 -51.721   3.199  1.00  0.00     0.004 C 
BRANCH   2   3
ATOM      3  C   UNL     1      -3.454 -51.814   3.863  1.00  0.00     0.000 C 
BRANCH   3   4
ATOM      4  C   UNL     1      -3.365 -52.113   5.374  1.00  0.00     0.000 C 
BRANCH   4   5
ATOM      5  C   UNL     1      -2.415 -51.173   6.140  1.00  0.00     0.000 C 
BRANCH   5   6
ATOM      6  C   UNL     1      -3.017 -50.526   7.395  1.00  0.00     0.006 C 
BRANCH   6   7
ATOM      7  C   UNL     1      -3.571 -51.557   8.390  1.00  0.00     0.053 C 
BRANCH   7   8
ATOM      8  C   UNL     1      -4.918 -51.137   8.885  1.00  0.00     0.041 C 
ATOM      9  O   UNL     1      -5.961 -51.535   8.302  1.00  0.00    -0.550 OA
ATOM     10  O   UNL     1      -5.024 -50.335  10.017  1.00  0.00    -0.550 OA
ENDBRANCH   7   8
ENDBRANCH   6   7
ENDBRANCH   5   6
ENDBRANCH   4   5
ENDBRANCH   3   4
ENDBRANCH   2   3
ENDBRANCH   1   2
BRANCH   1  11
ATOM     11  C   UNL     1      -3.117 -50.236   1.464  1.00  0.00    -0.031 C 
ATOM     12  C   UNL     1      -3.366 -51.024   0.406  1.00  0.00    -0.027 C 
BRANCH  12  13
ATOM     13  C   UNL     1      -4.525 -50.754  -0.515  1.00  0.00     0.054 C 
BRANCH  13  14
ATOM     14  C   UNL     1      -5.710 -51.606  -0.160  1.00  0.00    -0.027 C 
ATOM     15  C   UNL     1      -6.576 -51.240   0.797  1.00  0.00    -0.031 C 
BRANCH  15  16
ATOM     16  C   UNL     1      -7.766 -52.089   1.151  1.00  0.00     0.027 C 
BRANCH  16  17
ATOM     17  C   UNL     1      -8.842 -51.266   1.871  1.00  0.00     0.004 C 
BRANCH  17  18
ATOM     18  C   UNL     1      -8.769 -51.476   3.391  1.00  0.00     0.000 C 
BRANCH  18  19
ATOM     19  C   UNL     1      -7.328 -51.444   3.924  1.00  0.00    -0.003 C 
ATOM     20  C   UNL     1      -7.197 -52.056   5.319  1.00  0.00     0.004 C 
ENDBRANCH  18  19
ENDBRANCH  17  18
ENDBRANCH  16  17
ENDBRANCH  15  16
ENDBRANCH  13  14
ENDBRANCH  12  13
ENDBRANCH   1  11
TORSDOF 14
ENDMDL
MODEL 5
REMARK VINA RESULT:    -3.117      1.768      2.793
REMARK INTER + INTRA:          -6.510
REMARK INTER:                  -6.076
REMARK INTRA:                  -0.434
REMARK UNBOUND:                -0.842
REMARK SMILES CCCCCC=CCC=CCCCCCCCC(=O)[O-]
REMARK SMILES IDX 11 1 12 2 13 3 14 4 15 5 16 6 17 7 18 8 19 9 20 10 10 11
REMARK SMILES IDX 9 12 8 13 7 14 6 15 5 16 4 17 3 18 2 19 1 20
REMARK H PARENT
REMARK Flexibility Score: inf
ROOT
ATOM      1  C   UNL     1      -1.219 -51.425   2.673  1.00  0.00     0.027 C 
ENDROOT
BRANCH   1   2
ATOM      2  C   UNL     1      -2.649 -50.961   2.361  1.00  0.00     0.004 C 
BRANCH   2   3
ATOM      3  C   UNL     1      -3.695 -52.045   2.676  1.00  0.00     0.000 C 
BRANCH   3   4
ATOM      4  C   UNL     1      -4.485 -51.746   3.967  1.00  0.00     0.000 C 
BRANCH   4   5
ATOM      5  C   UNL     1      -5.975 -52.125   3.887  1.00  0.00     0.000 C 
BRANCH   5   6
ATOM      6  C   UNL     1      -6.641 -51.854   2.530  1.00  0.00     0.006 C 
BRANCH   6   7
ATOM      7  C   UNL     1      -8.175 -51.861   2.607  1.00  0.00     0.053 C 
BRANCH   7   8
ATOM      8  C   UNL     1      -8.763 -51.171   1.417  1.00  0.00     0.041 C 
ATOM      9  O   UNL     1      -9.125 -51.838   0.411  1.00  0.00    -0.550 OA
ATOM     10  O   UNL     1      -8.948 -49.793   1.434  1.00  0.00    -0.550 OA
ENDBRANCH   7   8
ENDBRANCH   6   7
ENDBRANCH   5   6
ENDBRANCH   4   5
ENDBRANCH   3   4
ENDBRANCH   2   3
ENDBRANCH   1   2
BRANCH   1  11
ATOM     11  C   UNL     1      -0.866 -51.190   4.118  1.00  0.00    -0.031 C 
ATOM     12  C   UNL     1      -1.505 -51.826   5.112  1.00  0.00    -0.027 C 
BRANCH  12  13
ATOM     13  C   UNL     1      -1.198 -51.530   6.555  1.00  0.00     0.054 C 
BRANCH  13  14
ATOM     14  C   UNL     1      -2.389 -51.805   7.430  1.00  0.00    -0.027 C 
ATOM     15  C   UNL     1      -2.303 -51.756   8.768  1.00  0.00    -0.031 C 
BRANCH  15  16
ATOM     16  C   UNL     1      -3.495 -52.025   9.645  1.00  0.00     0.027 C 
BRANCH  16  17
ATOM     17  C   UNL     1      -4.546 -50.916   9.510  1.00  0.00     0.004 C 
BRANCH  17  18
ATOM     18  C   UNL     1      -5.965 -51.483   9.669  1.00  0.00     0.000 C 
BRANCH  18  19
ATOM     19  C   UNL     1      -7.053 -50.470   9.276  1.00  0.00    -0.003 C 
ATOM     20  C   UNL     1      -8.370 -50.695  10.020  1.00  0.00     0.004 C 
ENDBRANCH  18  19
ENDBRANCH  17  18
ENDBRANCH  16  17
ENDBRANCH  15  16
ENDBRANCH  13  14
ENDBRANCH  12  13
ENDBRANCH   1  11
TORSDOF 14
ENDMDL
MODEL 6
REMARK VINA RESULT:    -3.113      1.663      6.693
REMARK INTER + INTRA:          -6.502
REMARK INTER:                  -5.618
REMARK INTRA:                  -0.885
REMARK UNBOUND:                -0.842
REMARK SMILES CCCCCC=CCC=CCCCCCCCC(=O)[O-]
REMARK SMILES IDX 11 1 12 2 13 3 14 4 15 5 16 6 17 7 18 8 19 9 20 10 10 11
REMARK SMILES IDX 9 12 8 13 7 14 6 15 5 16 4 17 3 18 2 19 1 20
REMARK H PARENT
REMARK Flexibility Score: inf
ROOT
ATOM      1  C   UNL     1      -2.834 -51.997   4.928  1.00  0.00     0.027 C 
ENDROOT
BRANCH   1   2
ATOM      2  C   UNL     1      -2.463 -51.086   6.107  1.00  0.00     0.004 C 
BRANCH   2   3
ATOM      3  C   UNL     1      -1.907 -51.879   7.304  1.00  0.00     0.000 C 
BRANCH   3   4
ATOM      4  C   UNL     1      -2.188 -51.185   8.653  1.00  0.00     0.000 C 
BRANCH   4   5
ATOM      5  C   UNL     1      -2.774 -52.121   9.725  1.00  0.00     0.000 C 
BRANCH   5   6
ATOM      6  C   UNL     1      -4.307 -52.124   9.815  1.00  0.00     0.006 C 
BRANCH   6   7
ATOM      7  C   UNL     1      -4.932 -50.793   9.373  1.00  0.00     0.053 C 
BRANCH   7   8
ATOM      8  C   UNL     1      -6.401 -50.952   9.145  1.00  0.00     0.041 C 
ATOM      9  O   UNL     1      -7.198 -50.957  10.122  1.00  0.00    -0.550 OA
ATOM     10  O   UNL     1      -6.897 -51.058   7.850  1.00  0.00    -0.550 OA
ENDBRANCH   7   8
ENDBRANCH   6   7
ENDBRANCH   5   6
ENDBRANCH   4   5
ENDBRANCH   3   4
ENDBRANCH   2   3
ENDBRANCH   1   2
BRANCH   1  11
ATOM     11  C   UNL     1      -3.349 -51.201   3.758  1.00  0.00    -0.031 C 
ATOM     12  C   UNL     1      -3.398 -51.717   2.520  1.00  0.00    -0.027 C 
BRANCH  12  13
ATOM     13  C   UNL     1      -3.842 -50.892   1.344  1.00  0.00     0.054 C 
BRANCH  13  14
ATOM     14  C   UNL     1      -5.030 -51.512   0.664  1.00  0.00    -0.027 C 
ATOM     15  C   UNL     1      -6.245 -51.509   1.233  1.00  0.00    -0.031 C 
BRANCH  15  16
ATOM     16  C   UNL     1      -7.436 -52.125   0.552  1.00  0.00     0.027 C 
BRANCH  16  17
ATOM     17  C   UNL     1      -8.749 -51.560   1.110  1.00  0.00     0.004 C 
BRANCH  17  18
ATOM     18  C   UNL     1      -8.535 -50.945   2.501  1.00  0.00     0.000 C 
BRANCH  18  19
ATOM     19  C   UNL     1      -8.935 -51.900   3.637  1.00  0.00    -0.003 C 
ATOM     20  C   UNL     1      -8.229 -51.583   4.956  1.00  0.00     0.004 C 
ENDBRANCH  18  19
ENDBRANCH  17  18
ENDBRANCH  16  17
ENDBRANCH  15  16
ENDBRANCH  13  14
ENDBRANCH  12  13
ENDBRANCH   1  11
TORSDOF 14
ENDMDL
MODEL 7
REMARK VINA RESULT:    -2.992      1.913      7.308
REMARK INTER + INTRA:          -6.282
REMARK INTER:                  -5.497
REMARK INTRA:                  -0.785
REMARK UNBOUND:                -0.842
REMARK SMILES CCCCCC=CCC=CCCCCCCCC(=O)[O-]
REMARK SMILES IDX 11 1 12 2 13 3 14 4 15 5 16 6 17 7 18 8 19 9 20 10 10 11
REMARK SMILES IDX 9 12 8 13 7 14 6 15 5 16 4 17 3 18 2 19 1 20
REMARK H PARENT
REMARK Flexibility Score: inf
ROOT
ATOM      1  C   UNL     1      -3.554 -51.377   4.683  1.00  0.00     0.027 C 
ENDROOT
BRANCH   1   2
ATOM      2  C   UNL     1      -3.537 -51.945   6.109  1.00  0.00     0.004 C 
BRANCH   2   3
ATOM      3  C   UNL     1      -2.156 -51.811   6.774  1.00  0.00     0.000 C 
BRANCH   3   4
ATOM      4  C   UNL     1      -2.251 -51.648   8.306  1.00  0.00     0.000 C 
BRANCH   4   5
ATOM      5  C   UNL     1      -3.378 -50.703   8.762  1.00  0.00     0.000 C 
BRANCH   5   6
ATOM      6  C   UNL     1      -4.133 -51.156  10.021  1.00  0.00     0.006 C 
BRANCH   6   7
ATOM      7  C   UNL     1      -5.322 -52.075   9.704  1.00  0.00     0.053 C 
BRANCH   7   8
ATOM      8  C   UNL     1      -6.445 -51.292   9.102  1.00  0.00     0.041 C 
ATOM      9  O   UNL     1      -7.204 -50.604   9.836  1.00  0.00    -0.550 OA
ATOM     10  O   UNL     1      -6.631 -51.289   7.723  1.00  0.00    -0.550 OA
ENDBRANCH   7   8
ENDBRANCH   6   7
ENDBRANCH   5   6
ENDBRANCH   4   5
ENDBRANCH   3   4
ENDBRANCH   2   3
ENDBRANCH   1   2
BRANCH   1  11
ATOM     11  C   UNL     1      -4.649 -51.997   3.856  1.00  0.00    -0.031 C 
ATOM     12  C   UNL     1      -5.870 -51.446   3.777  1.00  0.00    -0.027 C 
BRANCH  12  13
ATOM     13  C   UNL     1      -6.980 -52.111   3.010  1.00  0.00     0.054 C 
BRANCH  13  14
ATOM     14  C   UNL     1      -6.727 -52.055   1.530  1.00  0.00    -0.027 C 
ATOM     15  C   UNL     1      -5.485 -52.125   1.027  1.00  0.00    -0.031 C 
BRANCH  15  16
ATOM     16  C   UNL     1      -5.230 -52.074  -0.454  1.00  0.00     0.027 C 
BRANCH  16  17
ATOM     17  C   UNL     1      -3.738 -51.882  -0.755  1.00  0.00     0.004 C 
BRANCH  17  18
ATOM     18  C   UNL     1      -3.106 -50.877   0.221  1.00  0.00     0.000 C 
BRANCH  18  19
ATOM     19  C   UNL     1      -1.766 -51.369   0.791  1.00  0.00    -0.003 C 
ATOM     20  C   UNL     1      -0.752 -51.723  -0.297  1.00  0.00     0.004 C 
ENDBRANCH  18  19
ENDBRANCH  17  18
ENDBRANCH  16  17
ENDBRANCH  15  16
ENDBRANCH  13  14
ENDBRANCH  12  13
ENDBRANCH   1  11
TORSDOF 14
ENDMDL
MODEL 8
REMARK VINA RESULT:    -2.739      3.593      5.827
REMARK INTER + INTRA:          -5.823
REMARK INTER:                  -5.084
REMARK INTRA:                  -0.739
REMARK UNBOUND:                -0.842
REMARK SMILES CCCCCC=CCC=CCCCCCCCC(=O)[O-]
REMARK SMILES IDX 11 1 12 2 13 3 14 4 15 5 16 6 17 7 18 8 19 9 20 10 10 11
REMARK SMILES IDX 9 12 8 13 7 14 6 15 5 16 4 17 3 18 2 19 1 20
REMARK H PARENT
REMARK Flexibility Score: inf
ROOT
ATOM      1  C   UNL     1      -8.867 -51.078   2.525  1.00  0.00     0.027 C 
ENDROOT
BRANCH   1   2
ATOM      2  C   UNL     1      -7.950 -50.502   1.438  1.00  0.00     0.004 C 
BRANCH   2   3
ATOM      3  C   UNL     1      -7.514 -51.568   0.417  1.00  0.00     0.000 C 
BRANCH   3   4
ATOM      4  C   UNL     1      -6.104 -52.122   0.708  1.00  0.00     0.000 C 
BRANCH   4   5
ATOM      5  C   UNL     1      -4.973 -51.108   0.460  1.00  0.00     0.000 C 
BRANCH   5   6
ATOM      6  C   UNL     1      -3.562 -51.615   0.797  1.00  0.00     0.006 C 
BRANCH   6   7
ATOM      7  C   UNL     1      -2.492 -51.085  -0.168  1.00  0.00     0.053 C 
BRANCH   7   8
ATOM      8  C   UNL     1      -1.122 -51.402   0.340  1.00  0.00     0.041 C 
ATOM      9  O   UNL     1      -0.151 -51.480  -0.458  1.00  0.00    -0.550 OA
ATOM     10  O   UNL     1      -0.910 -51.575   1.704  1.00  0.00    -0.550 OA
ENDBRANCH   7   8
ENDBRANCH   6   7
ENDBRANCH   5   6
ENDBRANCH   4   5
ENDBRANCH   3   4
ENDBRANCH   2   3
ENDBRANCH   1   2
BRANCH   1  11
ATOM     11  C   UNL     1      -8.084 -51.851   3.553  1.00  0.00    -0.031 C 
ATOM     12  C   UNL     1      -7.686 -51.289   4.706  1.00  0.00    -0.027 C 
BRANCH  12  13
ATOM     13  C   UNL     1      -6.840 -52.045   5.694  1.00  0.00     0.054 C 
BRANCH  13  14
ATOM     14  C   UNL     1      -7.511 -52.120   7.036  1.00  0.00    -0.027 C 
ATOM     15  C   UNL     1      -6.856 -51.811   8.166  1.00  0.00    -0.031 C 
BRANCH  15  16
ATOM     16  C   UNL     1      -7.527 -51.880   9.510  1.00  0.00     0.027 C 
BRANCH  16  17
ATOM     17  C   UNL     1      -8.942 -51.289   9.456  1.00  0.00     0.004 C 
BRANCH  17  18
ATOM     18  C   UNL     1      -8.985 -49.905  10.121  1.00  0.00     0.000 C 
BRANCH  18  19
ATOM     19  C   UNL     1      -8.285 -48.824   9.283  1.00  0.00    -0.003 C 
ATOM     20  C   UNL     1      -9.014 -47.481   9.318  1.00  0.00     0.004 C 
ENDBRANCH  18  19
ENDBRANCH  17  18
ENDBRANCH  16  17
ENDBRANCH  15  16
ENDBRANCH  13  14
ENDBRANCH  12  13
ENDBRANCH   1  11
TORSDOF 14
ENDMDL
MODEL 9
REMARK VINA RESULT:    -2.579      2.550      5.449
REMARK INTER + INTRA:          -5.531
REMARK INTER:                  -4.715
REMARK INTRA:                  -0.816
REMARK UNBOUND:                -0.842
REMARK SMILES CCCCCC=CCC=CCCCCCCCC(=O)[O-]
REMARK SMILES IDX 11 1 12 2 13 3 14 4 15 5 16 6 17 7 18 8 19 9 20 10 10 11
REMARK SMILES IDX 9 12 8 13 7 14 6 15 5 16 4 17 3 18 2 19 1 20
REMARK H PARENT
REMARK Flexibility Score: inf
ROOT
ATOM      1  C   UNL     1      -6.791 -51.224  -0.324  1.00  0.00     0.027 C 
ENDROOT
BRANCH   1   2
ATOM      2  C   UNL     1      -5.565 -51.972   0.216  1.00  0.00     0.004 C 
BRANCH   2   3
ATOM      3  C   UNL     1      -4.301 -51.094   0.218  1.00  0.00     0.000 C 
BRANCH   3   4
ATOM      4  C   UNL     1      -3.004 -51.926   0.142  1.00  0.00     0.000 C 
BRANCH   4   5
ATOM      5  C   UNL     1      -2.107 -51.797   1.386  1.00  0.00     0.000 C 
BRANCH   5   6
ATOM      6  C   UNL     1      -2.833 -51.352   2.665  1.00  0.00     0.006 C 
BRANCH   6   7
ATOM      7  C   UNL     1      -2.373 -52.125   3.910  1.00  0.00     0.053 C 
BRANCH   7   8
ATOM      8  C   UNL     1      -1.225 -51.427   4.567  1.00  0.00     0.041 C 
ATOM      9  O   UNL     1      -0.164 -51.208   3.924  1.00  0.00    -0.550 OA
ATOM     10  O   UNL     1      -1.340 -50.984   5.880  1.00  0.00    -0.550 OA
ENDBRANCH   7   8
ENDBRANCH   6   7
ENDBRANCH   5   6
ENDBRANCH   4   5
ENDBRANCH   3   4
ENDBRANCH   2   3
ENDBRANCH   1   2
BRANCH   1  11
ATOM     11  C   UNL     1      -7.973 -51.364   0.600  1.00  0.00    -0.031 C 
ATOM     12  C   UNL     1      -7.905 -51.007   1.892  1.00  0.00    -0.027 C 
BRANCH  12  13
ATOM     13  C   UNL     1      -9.065 -51.220   2.825  1.00  0.00     0.054 C 
BRANCH  13  14
ATOM     14  C   UNL     1      -8.634 -51.945   4.069  1.00  0.00    -0.027 C 
ATOM     15  C   UNL     1      -7.759 -51.403   4.930  1.00  0.00    -0.031 C 
BRANCH  15  16
ATOM     16  C   UNL     1      -7.330 -52.125   6.178  1.00  0.00     0.027 C 
BRANCH  16  17
ATOM     17  C   UNL     1      -7.656 -51.306   7.433  1.00  0.00     0.004 C 
BRANCH  17  18
ATOM     18  C   UNL     1      -6.871 -51.824   8.647  1.00  0.00     0.000 C 
BRANCH  18  19
ATOM     19  C   UNL     1      -5.919 -50.768   9.230  1.00  0.00    -0.003 C 
ATOM     20  C   UNL     1      -4.446 -51.142   9.067  1.00  0.00     0.004 C 
ENDBRANCH  18  19
ENDBRANCH  17  18
ENDBRANCH  16  17
ENDBRANCH  15  16
ENDBRANCH  13  14
ENDBRANCH  12  13
ENDBRANCH   1  11
TORSDOF 14
ENDMDL
