MODEL 1
REMARK VINA RESULT:    -4.503      0.000      0.000
REMARK INTER + INTRA:          -4.786
REMARK INTER:                  -4.766
REMARK INTRA:                  -0.020
REMARK UNBOUND:                -0.020
REMARK SMILES O=C([O-])c1cccnc1
REMARK SMILES IDX 4 1 5 2 9 3 6 4 8 5 7 6 2 7 1 8 3 9
REMARK H PARENT
REMARK Flexibility Score: inf
ROOT
ATOM      1  C   UNL     1      14.476  -1.156 -18.574  1.00  0.00     0.016 A 
ATOM      2  C   UNL     1      15.800  -1.598 -18.733  1.00  0.00     0.013 A 
ATOM      3  C   UNL     1      13.503  -2.090 -18.177  1.00  0.00     0.120 A 
ATOM      4  C   UNL     1      16.125  -2.935 -18.496  1.00  0.00     0.021 A 
ATOM      5  N   UNL     1      13.847  -3.387 -17.952  1.00  0.00    -0.264 NA
ATOM      6  C   UNL     1      15.125  -3.824 -18.102  1.00  0.00     0.111 A 
ENDROOT
BRANCH   1   7
ATOM      7  C   UNL     1      14.119   0.257 -18.823  1.00  0.00     0.073 C 
ATOM      8  O   UNL     1      14.568   0.863 -19.832  1.00  0.00    -0.545 OA
ATOM      9  O   UNL     1      13.281   0.937 -17.945  1.00  0.00    -0.545 OA
ENDBRANCH   1   7
TORSDOF 1
ENDMDL
MODEL 2
REMARK VINA RESULT:    -4.250      2.763      4.122
REMARK INTER + INTRA:          -4.519
REMARK INTER:                  -4.495
REMARK INTRA:                  -0.024
REMARK UNBOUND:                -0.020
REMARK SMILES O=C([O-])c1cccnc1
REMARK SMILES IDX 4 1 5 2 9 3 6 4 8 5 7 6 2 7 1 8 3 9
REMARK H PARENT
REMARK Flexibility Score: inf
ROOT
ATOM      1  C   UNL     1      14.357  -0.720 -18.461  1.00  0.00     0.016 A 
ATOM      2  C   UNL     1      13.213  -0.359 -17.729  1.00  0.00     0.013 A 
ATOM      3  C   UNL     1      15.074   0.292 -19.122  1.00  0.00     0.120 A 
ATOM      4  C   UNL     1      12.813   0.977 -17.670  1.00  0.00     0.021 A 
ATOM      5  N   UNL     1      14.663   1.587 -19.047  1.00  0.00    -0.264 NA
ATOM      6  C   UNL     1      13.559   1.946 -18.342  1.00  0.00     0.111 A 
ENDROOT
BRANCH   1   7
ATOM      7  C   UNL     1      14.791  -2.132 -18.532  1.00  0.00     0.073 C 
ATOM      8  O   UNL     1      14.020  -3.058 -18.165  1.00  0.00    -0.545 OA
ATOM      9  O   UNL     1      16.057  -2.457 -19.007  1.00  0.00    -0.545 OA
ENDBRANCH   1   7
TORSDOF 1
ENDMDL
MODEL 3
REMARK VINA RESULT:    -4.219      2.756      4.032
REMARK INTER + INTRA:          -4.486
REMARK INTER:                  -4.462
REMARK INTRA:                  -0.023
REMARK UNBOUND:                -0.020
REMARK SMILES O=C([O-])c1cccnc1
REMARK SMILES IDX 4 1 5 2 9 3 6 4 8 5 7 6 2 7 1 8 3 9
REMARK H PARENT
REMARK Flexibility Score: inf
ROOT
ATOM      1  C   UNL     1      14.305  -0.654 -18.482  1.00  0.00     0.016 A 
ATOM      2  C   UNL     1      13.172  -0.241 -17.761  1.00  0.00     0.013 A 
ATOM      3  C   UNL     1      15.068   0.323 -19.145  1.00  0.00     0.120 A 
ATOM      4  C   UNL     1      12.826   1.111 -17.715  1.00  0.00     0.021 A 
ATOM      5  N   UNL     1      14.709   1.634 -19.083  1.00  0.00    -0.264 NA
ATOM      6  C   UNL     1      13.615   2.043 -18.388  1.00  0.00     0.111 A 
ENDROOT
BRANCH   1   7
ATOM      7  C   UNL     1      14.682  -2.083 -18.539  1.00  0.00     0.073 C 
ATOM      8  O   UNL     1      15.810  -2.430 -18.977  1.00  0.00    -0.545 OA
ATOM      9  O   UNL     1      13.794  -3.063 -18.109  1.00  0.00    -0.545 OA
ENDBRANCH   1   7
TORSDOF 1
ENDMDL
MODEL 4
REMARK VINA RESULT:    -4.143      2.604      3.836
REMARK INTER + INTRA:          -4.405
REMARK INTER:                  -4.382
REMARK INTRA:                  -0.023
REMARK UNBOUND:                -0.020
REMARK SMILES O=C([O-])c1cccnc1
REMARK SMILES IDX 4 1 5 2 9 3 6 4 8 5 7 6 2 7 1 8 3 9
REMARK H PARENT
REMARK Flexibility Score: inf
ROOT
ATOM      1  C   UNL     1      14.313  -0.719 -18.461  1.00  0.00     0.016 A 
ATOM      2  C   UNL     1      15.060   0.239 -19.164  1.00  0.00     0.013 A 
ATOM      3  C   UNL     1      13.192  -0.287 -17.729  1.00  0.00     0.120 A 
ATOM      4  C   UNL     1      14.685   1.584 -19.128  1.00  0.00     0.021 A 
ATOM      5  N   UNL     1      12.849   1.029 -17.711  1.00  0.00    -0.264 NA
ATOM      6  C   UNL     1      13.565   1.963 -18.389  1.00  0.00     0.111 A 
ENDROOT
BRANCH   1   7
ATOM      7  C   UNL     1      14.700  -2.146 -18.490  1.00  0.00     0.073 C 
ATOM      8  O   UNL     1      13.911  -3.032 -18.066  1.00  0.00    -0.545 OA
ATOM      9  O   UNL     1      15.940  -2.530 -18.989  1.00  0.00    -0.545 OA
ENDBRANCH   1   7
TORSDOF 1
ENDMDL
MODEL 5
REMARK VINA RESULT:    -4.006      2.028      2.992
REMARK INTER + INTRA:          -4.260
REMARK INTER:                  -4.236
REMARK INTRA:                  -0.024
REMARK UNBOUND:                -0.020
REMARK SMILES O=C([O-])c1cccnc1
REMARK SMILES IDX 4 1 5 2 9 3 6 4 8 5 7 6 2 7 1 8 3 9
REMARK H PARENT
REMARK Flexibility Score: inf
ROOT
ATOM      1  C   UNL     1      13.824   1.029 -18.247  1.00  0.00     0.016 A 
ATOM      2  C   UNL     1      13.016   0.007 -17.724  1.00  0.00     0.013 A 
ATOM      3  C   UNL     1      15.014   0.670 -18.906  1.00  0.00     0.120 A 
ATOM      4  C   UNL     1      13.398  -1.329 -17.865  1.00  0.00     0.021 A 
ATOM      5  N   UNL     1      15.362  -0.639 -19.029  1.00  0.00    -0.264 NA
ATOM      6  C   UNL     1      14.586  -1.635 -18.527  1.00  0.00     0.111 A 
ENDROOT
BRANCH   1   7
ATOM      7  C   UNL     1      13.431   2.448 -18.104  1.00  0.00     0.073 C 
ATOM      8  O   UNL     1      12.273   2.755 -17.717  1.00  0.00    -0.545 OA
ATOM      9  O   UNL     1      14.337   3.462 -18.396  1.00  0.00    -0.545 OA
ENDBRANCH   1   7
TORSDOF 1
ENDMDL
MODEL 6
REMARK VINA RESULT:    -3.530      2.331      3.103
REMARK INTER + INTRA:          -3.757
REMARK INTER:                  -3.734
REMARK INTRA:                  -0.022
REMARK UNBOUND:                -0.020
REMARK SMILES O=C([O-])c1cccnc1
REMARK SMILES IDX 4 1 5 2 9 3 6 4 8 5 7 6 2 7 1 8 3 9
REMARK H PARENT
REMARK Flexibility Score: inf
ROOT
ATOM      1  C   UNL     1      14.283   1.549 -18.718  1.00  0.00     0.016 A 
ATOM      2  C   UNL     1      15.074   0.468 -19.141  1.00  0.00     0.013 A 
ATOM      3  C   UNL     1      13.149   1.279 -17.931  1.00  0.00     0.120 A 
ATOM      4  C   UNL     1      14.729  -0.836 -18.780  1.00  0.00     0.021 A 
ATOM      5  N   UNL     1      12.836  -0.001 -17.593  1.00  0.00    -0.264 NA
ATOM      6  C   UNL     1      13.595  -1.053 -17.997  1.00  0.00     0.111 A 
ENDROOT
BRANCH   1   7
ATOM      7  C   UNL     1      14.637   2.934 -19.093  1.00  0.00     0.073 C 
ATOM      8  O   UNL     1      14.195   3.910 -18.431  1.00  0.00    -0.545 OA
ATOM      9  O   UNL     1      15.464   3.179 -20.184  1.00  0.00    -0.545 OA
ENDBRANCH   1   7
TORSDOF 1
ENDMDL
MODEL 7
REMARK VINA RESULT:    -3.516      3.233      4.883
REMARK INTER + INTRA:          -3.742
REMARK INTER:                  -3.718
REMARK INTRA:                  -0.023
REMARK UNBOUND:                -0.020
REMARK SMILES O=C([O-])c1cccnc1
REMARK SMILES IDX 4 1 5 2 9 3 6 4 8 5 7 6 2 7 1 8 3 9
REMARK H PARENT
REMARK Flexibility Score: inf
ROOT
ATOM      1  C   UNL     1      13.842   1.377 -18.504  1.00  0.00     0.016 A 
ATOM      2  C   UNL     1      14.732   2.143 -19.275  1.00  0.00     0.013 A 
ATOM      3  C   UNL     1      12.689   2.002 -17.997  1.00  0.00     0.120 A 
ATOM      4  C   UNL     1      14.462   3.491 -19.524  1.00  0.00     0.021 A 
ATOM      5  N   UNL     1      12.450   3.316 -18.255  1.00  0.00    -0.264 NA
ATOM      6  C   UNL     1      13.304   4.065 -19.000  1.00  0.00     0.111 A 
ENDROOT
BRANCH   1   7
ATOM      7  C   UNL     1      14.117  -0.050 -18.233  1.00  0.00     0.073 C 
ATOM      8  O   UNL     1      13.231  -0.786 -17.723  1.00  0.00    -0.545 OA
ATOM      9  O   UNL     1      15.357  -0.599 -18.540  1.00  0.00    -0.545 OA
ENDBRANCH   1   7
TORSDOF 1
ENDMDL
