MODEL 1
REMARK VINA RESULT:    -3.491      0.000      0.000
REMARK INTER + INTRA:          -4.205
REMARK INTER:                  -4.103
REMARK INTRA:                  -0.102
REMARK UNBOUND:                -0.102
REMARK SMILES O=C([O-])CCC(=O)[O-]
REMARK SMILES IDX 4 1 2 2 1 3 3 4 5 5 6 6 7 7 8 8
REMARK H PARENT
REMARK Flexibility Score: inf
ROOT
ATOM      1  C   UNL     1     -10.313  -6.037  -8.020  1.00  0.00     0.059 C 
ENDROOT
BRANCH   1   2
ATOM      2  C   UNL     1     -10.610  -4.666  -8.548  1.00  0.00     0.042 C 
ATOM      3  O   UNL     1     -10.709  -3.691  -7.758  1.00  0.00    -0.550 OA
ATOM      4  O   UNL     1     -10.817  -4.475  -9.908  1.00  0.00    -0.550 OA
ENDBRANCH   1   2
BRANCH   1   5
ATOM      5  C   UNL     1      -9.411  -5.982  -6.783  1.00  0.00     0.059 C 
BRANCH   5   6
ATOM      6  C   UNL     1     -10.014  -6.723  -5.627  1.00  0.00     0.042 C 
ATOM      7  O   UNL     1     -11.161  -6.418  -5.210  1.00  0.00    -0.550 OA
ATOM      8  O   UNL     1      -9.323  -7.775  -5.039  1.00  0.00    -0.550 OA
ENDBRANCH   5   6
ENDBRANCH   1   5
TORSDOF 3
ENDMDL
MODEL 2
REMARK VINA RESULT:    -3.483      0.124      4.066
REMARK INTER + INTRA:          -4.196
REMARK INTER:                  -4.088
REMARK INTRA:                  -0.108
REMARK UNBOUND:                -0.102
REMARK SMILES O=C([O-])CCC(=O)[O-]
REMARK SMILES IDX 4 1 2 2 1 3 3 4 5 5 6 6 7 7 8 8
REMARK H PARENT
REMARK Flexibility Score: inf
ROOT
ATOM      1  C   UNL     1      -9.424  -5.964  -6.860  1.00  0.00     0.059 C 
ENDROOT
BRANCH   1   2
ATOM      2  C   UNL     1      -9.981  -6.642  -5.646  1.00  0.00     0.042 C 
ATOM      3  O   UNL     1     -11.051  -6.232  -5.126  1.00  0.00    -0.550 OA
ATOM      4  O   UNL     1      -9.295  -7.701  -5.065  1.00  0.00    -0.550 OA
ENDBRANCH   1   2
BRANCH   1   5
ATOM      5  C   UNL     1     -10.408  -6.011  -8.034  1.00  0.00     0.059 C 
BRANCH   5   6
ATOM      6  C   UNL     1     -10.719  -4.638  -8.549  1.00  0.00     0.042 C 
ATOM      7  O   UNL     1     -10.723  -3.654  -7.764  1.00  0.00    -0.550 OA
ATOM      8  O   UNL     1     -10.963  -4.441  -9.902  1.00  0.00    -0.550 OA
ENDBRANCH   5   6
ENDBRANCH   1   5
TORSDOF 3
ENDMDL
MODEL 3
REMARK VINA RESULT:    -3.431      2.076      4.130
REMARK INTER + INTRA:          -4.135
REMARK INTER:                  -4.015
REMARK INTRA:                  -0.120
REMARK UNBOUND:                -0.102
REMARK SMILES O=C([O-])CCC(=O)[O-]
REMARK SMILES IDX 4 1 2 2 1 3 3 4 5 5 6 6 7 7 8 8
REMARK H PARENT
REMARK Flexibility Score: inf
ROOT
ATOM      1  C   UNL     1     -12.641  -4.447  -6.304  1.00  0.00     0.059 C 
ENDROOT
BRANCH   1   2
ATOM      2  C   UNL     1     -12.418  -5.306  -5.097  1.00  0.00     0.042 C 
ATOM      3  O   UNL     1     -13.182  -5.209  -4.100  1.00  0.00    -0.550 OA
ATOM      4  O   UNL     1     -11.343  -6.183  -5.056  1.00  0.00    -0.550 OA
ENDBRANCH   1   2
BRANCH   1   5
ATOM      5  C   UNL     1     -11.351  -3.745  -6.742  1.00  0.00     0.059 C 
BRANCH   5   6
ATOM      6  C   UNL     1     -10.883  -4.234  -8.079  1.00  0.00     0.042 C 
ATOM      7  O   UNL     1     -11.017  -3.510  -9.100  1.00  0.00    -0.550 OA
ATOM      8  O   UNL     1     -10.262  -5.472  -8.189  1.00  0.00    -0.550 OA
ENDBRANCH   5   6
ENDBRANCH   1   5
TORSDOF 3
ENDMDL
MODEL 4
REMARK VINA RESULT:    -3.383      1.972      2.556
REMARK INTER + INTRA:          -4.078
REMARK INTER:                  -3.960
REMARK INTRA:                  -0.117
REMARK UNBOUND:                -0.102
REMARK SMILES O=C([O-])CCC(=O)[O-]
REMARK SMILES IDX 4 1 2 2 1 3 3 4 5 5 6 6 7 7 8 8
REMARK H PARENT
REMARK Flexibility Score: inf
ROOT
ATOM      1  C   UNL     1     -11.152  -3.766  -7.170  1.00  0.00     0.059 C 
ENDROOT
BRANCH   1   2
ATOM      2  C   UNL     1     -10.905  -4.351  -8.527  1.00  0.00     0.042 C 
ATOM      3  O   UNL     1     -10.412  -5.504  -8.641  1.00  0.00    -0.550 OA
ATOM      4  O   UNL     1     -11.182  -3.605  -9.666  1.00  0.00    -0.550 OA
ENDBRANCH   1   2
BRANCH   1   5
ATOM      5  C   UNL     1     -12.410  -4.355  -6.522  1.00  0.00     0.059 C 
BRANCH   5   6
ATOM      6  C   UNL     1     -12.084  -5.109  -5.268  1.00  0.00     0.042 C 
ATOM      7  O   UNL     1     -10.971  -5.684  -5.147  1.00  0.00    -0.550 OA
ATOM      8  O   UNL     1     -12.994  -5.140  -4.219  1.00  0.00    -0.550 OA
ENDBRANCH   5   6
ENDBRANCH   1   5
TORSDOF 3
ENDMDL
MODEL 5
REMARK VINA RESULT:    -3.351      2.023      2.617
REMARK INTER + INTRA:          -4.041
REMARK INTER:                  -3.929
REMARK INTRA:                  -0.112
REMARK UNBOUND:                -0.102
REMARK SMILES O=C([O-])CCC(=O)[O-]
REMARK SMILES IDX 4 1 2 2 1 3 3 4 5 5 6 6 7 7 8 8
REMARK H PARENT
REMARK Flexibility Score: inf
ROOT
ATOM      1  C   UNL     1     -11.083  -3.764  -7.324  1.00  0.00     0.059 C 
ENDROOT
BRANCH   1   2
ATOM      2  C   UNL     1     -10.887  -4.438  -8.648  1.00  0.00     0.042 C 
ATOM      3  O   UNL     1     -11.207  -3.848  -9.713  1.00  0.00    -0.550 OA
ATOM      4  O   UNL     1     -10.390  -5.734  -8.701  1.00  0.00    -0.550 OA
ENDBRANCH   1   2
BRANCH   1   5
ATOM      5  C   UNL     1     -12.358  -4.249  -6.626  1.00  0.00     0.059 C 
BRANCH   5   6
ATOM      6  C   UNL     1     -12.047  -4.978  -5.354  1.00  0.00     0.042 C 
ATOM      7  O   UNL     1     -10.874  -5.369  -5.118  1.00  0.00    -0.550 OA
ATOM      8  O   UNL     1     -13.046  -5.187  -4.411  1.00  0.00    -0.550 OA
ENDBRANCH   5   6
ENDBRANCH   1   5
TORSDOF 3
ENDMDL
MODEL 6
REMARK VINA RESULT:    -3.280      1.458      2.160
REMARK INTER + INTRA:          -3.957
REMARK INTER:                  -3.920
REMARK INTRA:                  -0.037
REMARK UNBOUND:                -0.102
REMARK SMILES O=C([O-])CCC(=O)[O-]
REMARK SMILES IDX 4 1 2 2 1 3 3 4 5 5 6 6 7 7 8 8
REMARK H PARENT
REMARK Flexibility Score: inf
ROOT
ATOM      1  C   UNL     1     -10.358  -5.115  -8.835  1.00  0.00     0.059 C 
ENDROOT
BRANCH   1   2
ATOM      2  C   UNL     1     -11.037  -4.327  -9.914  1.00  0.00     0.042 C 
ATOM      3  O   UNL     1     -10.837  -4.608 -11.125  1.00  0.00    -0.550 OA
ATOM      4  O   UNL     1     -11.857  -3.257  -9.582  1.00  0.00    -0.550 OA
ENDBRANCH   1   2
BRANCH   1   5
ATOM      5  C   UNL     1     -11.175  -5.115  -7.538  1.00  0.00     0.059 C 
BRANCH   5   6
ATOM      6  C   UNL     1     -10.392  -5.681  -6.393  1.00  0.00     0.042 C 
ATOM      7  O   UNL     1      -9.195  -6.034  -6.558  1.00  0.00    -0.550 OA
ATOM      8  O   UNL     1     -10.972  -5.781  -5.135  1.00  0.00    -0.550 OA
ENDBRANCH   5   6
ENDBRANCH   1   5
TORSDOF 3
ENDMDL
MODEL 7
REMARK VINA RESULT:    -3.158      1.196      4.232
REMARK INTER + INTRA:          -3.813
REMARK INTER:                  -3.778
REMARK INTRA:                  -0.035
REMARK UNBOUND:                -0.102
REMARK SMILES O=C([O-])CCC(=O)[O-]
REMARK SMILES IDX 4 1 2 2 1 3 3 4 5 5 6 6 7 7 8 8
REMARK H PARENT
REMARK Flexibility Score: inf
ROOT
ATOM      1  C   UNL     1     -10.255  -5.871  -5.685  1.00  0.00     0.059 C 
ENDROOT
BRANCH   1   2
ATOM      2  C   UNL     1     -10.054  -7.337  -5.451  1.00  0.00     0.042 C 
ATOM      3  O   UNL     1     -10.924  -8.164  -5.830  1.00  0.00    -0.550 OA
ATOM      4  O   UNL     1      -8.926  -7.785  -4.776  1.00  0.00    -0.550 OA
ENDBRANCH   1   2
BRANCH   1   5
ATOM      5  C   UNL     1     -10.408  -5.554  -7.176  1.00  0.00     0.059 C 
BRANCH   5   6
ATOM      6  C   UNL     1     -10.932  -4.166  -7.395  1.00  0.00     0.042 C 
ATOM      7  O   UNL     1     -10.743  -3.585  -8.495  1.00  0.00    -0.550 OA
ATOM      8  O   UNL     1     -11.662  -3.533  -6.397  1.00  0.00    -0.550 OA
ENDBRANCH   5   6
ENDBRANCH   1   5
TORSDOF 3
ENDMDL
MODEL 8
REMARK VINA RESULT:    -3.153      2.537      3.774
REMARK INTER + INTRA:          -3.808
REMARK INTER:                  -3.767
REMARK INTRA:                  -0.041
REMARK UNBOUND:                -0.102
REMARK SMILES O=C([O-])CCC(=O)[O-]
REMARK SMILES IDX 4 1 2 2 1 3 3 4 5 5 6 6 7 7 8 8
REMARK H PARENT
REMARK Flexibility Score: inf
ROOT
ATOM      1  C   UNL     1     -11.283  -7.009  -5.909  1.00  0.00     0.059 C 
ENDROOT
BRANCH   1   2
ATOM      2  C   UNL     1      -9.793  -6.884  -5.803  1.00  0.00     0.042 C 
ATOM      3  O   UNL     1      -9.177  -7.439  -4.856  1.00  0.00    -0.550 OA
ATOM      4  O   UNL     1      -9.092  -6.122  -6.728  1.00  0.00    -0.550 OA
ENDBRANCH   1   2
BRANCH   1   5
ATOM      5  C   UNL     1     -11.994  -5.780  -5.333  1.00  0.00     0.059 C 
BRANCH   5   6
ATOM      6  C   UNL     1     -13.132  -6.169  -4.439  1.00  0.00     0.042 C 
ATOM      7  O   UNL     1     -13.753  -7.246  -4.638  1.00  0.00    -0.550 OA
ATOM      8  O   UNL     1     -13.478  -5.363  -3.362  1.00  0.00    -0.550 OA
ENDBRANCH   5   6
ENDBRANCH   1   5
TORSDOF 3
ENDMDL
MODEL 9
REMARK VINA RESULT:    -3.124      2.334      3.286
REMARK INTER + INTRA:          -3.774
REMARK INTER:                  -3.641
REMARK INTRA:                  -0.132
REMARK UNBOUND:                -0.102
REMARK SMILES O=C([O-])CCC(=O)[O-]
REMARK SMILES IDX 4 1 2 2 1 3 3 4 5 5 6 6 7 7 8 8
REMARK H PARENT
REMARK Flexibility Score: inf
ROOT
ATOM      1  C   UNL     1     -12.246  -6.974  -5.464  1.00  0.00     0.059 C 
ENDROOT
BRANCH   1   2
ATOM      2  C   UNL     1     -12.688  -5.560  -5.238  1.00  0.00     0.042 C 
ATOM      3  O   UNL     1     -12.745  -4.752  -6.202  1.00  0.00    -0.550 OA
ATOM      4  O   UNL     1     -12.996  -5.125  -3.956  1.00  0.00    -0.550 OA
ENDBRANCH   1   2
BRANCH   1   5
ATOM      5  C   UNL     1     -11.201  -7.066  -6.581  1.00  0.00     0.059 C 
BRANCH   5   6
ATOM      6  C   UNL     1      -9.824  -6.755  -6.077  1.00  0.00     0.042 C 
ATOM      7  O   UNL     1      -9.180  -5.784  -6.554  1.00  0.00    -0.550 OA
ATOM      8  O   UNL     1      -9.271  -7.512  -5.052  1.00  0.00    -0.550 OA
ENDBRANCH   5   6
ENDBRANCH   1   5
TORSDOF 3
ENDMDL
