MODEL 1
REMARK VINA RESULT:    17.864      0.000      0.000
REMARK INTER + INTRA:          21.407
REMARK INTER:                  21.520
REMARK INTRA:                  -0.112
REMARK UNBOUND:                -0.112
REMARK SMILES O=c1c(O)c(-c2ccc(O)c(O)c2)oc2cc(O)cc(O)c12
REMARK SMILES IDX 5 1 3 2 2 3 1 4 22 5 20 6 19 7 17 8 16 9 15 10 14 11 6 12
REMARK SMILES IDX 7 13 8 14 9 15 13 16 11 17 10 18 12 20 4 22 21 24 18 26
REMARK H PARENT 10 19 12 21 4 23 21 25 18 27
REMARK Flexibility Score: inf
ROOT
ATOM      1  C   UNL     1      42.621  -4.064  23.469  1.00  0.00     0.180 A 
ATOM      2  C   UNL     1      42.862  -2.727  23.111  1.00  0.00     0.208 A 
ATOM      3  C   UNL     1      41.775  -1.904  22.776  1.00  0.00     0.238 A 
ATOM      4  O   UNL     1      41.993  -0.693  22.509  1.00  0.00    -0.285 OA
ATOM      5  C   UNL     1      40.462  -2.432  22.787  1.00  0.00     0.111 A 
ATOM      6  C   UNL     1      39.290  -1.700  22.428  1.00  0.00     0.134 A 
ATOM      7  C   UNL     1      38.030  -2.285  22.602  1.00  0.00     0.093 A 
ATOM      8  C   UNL     1      37.902  -3.595  23.059  1.00  0.00     0.123 A 
ATOM      9  C   UNL     1      39.043  -4.341  23.358  1.00  0.00     0.094 A 
ATOM     10  C   UNL     1      40.313  -3.773  23.229  1.00  0.00     0.146 A 
ATOM     11  O   UNL     1      41.372  -4.512  23.533  1.00  0.00    -0.452 OA
ENDROOT
BRANCH   1  12
ATOM     12  C   UNL     1      43.716  -5.000  23.809  1.00  0.00     0.025 A 
ATOM     13  C   UNL     1      43.928  -6.178  23.072  1.00  0.00     0.016 A 
ATOM     14  C   UNL     1      44.954  -7.059  23.426  1.00  0.00     0.051 A 
ATOM     15  C   UNL     1      45.773  -6.782  24.528  1.00  0.00     0.157 A 
ATOM     16  C   UNL     1      44.528  -4.738  24.925  1.00  0.00     0.062 A 
ATOM     17  C   UNL     1      45.558  -5.621  25.281  1.00  0.00     0.158 A 
BRANCH  15  18
ATOM     18  O   UNL     1      46.798  -7.657  24.884  1.00  0.00    -0.504 OA
ATOM     19  H   UNL     1      47.711  -7.318  25.164  1.00  0.00     0.293 HD
ENDBRANCH  15  18
BRANCH  17  20
ATOM     20  O   UNL     1      46.371  -5.351  26.382  1.00  0.00    -0.504 OA
ATOM     21  H   UNL     1      46.002  -5.356  27.326  1.00  0.00     0.293 HD
ENDBRANCH  17  20
ENDBRANCH   1  12
BRANCH   2  22
ATOM     22  O   UNL     1      44.165  -2.220  23.126  1.00  0.00    -0.502 OA
ATOM     23  H   UNL     1      44.488  -1.529  22.460  1.00  0.00     0.293 HD
ENDBRANCH   2  22
BRANCH   6  24
ATOM     24  O   UNL     1      39.312  -0.417  21.873  1.00  0.00    -0.507 OA
ATOM     25  H   UNL     1      39.852  -0.149  21.065  1.00  0.00     0.293 HD
ENDBRANCH   6  24
BRANCH   8  26
ATOM     26  O   UNL     1      36.632  -4.151  23.205  1.00  0.00    -0.508 OA
ATOM     27  H   UNL     1      35.808  -3.696  22.828  1.00  0.00     0.293 HD
ENDBRANCH   8  26
TORSDOF 6
ENDMDL
MODEL 2
REMARK VINA RESULT:    19.000      1.510      6.863
REMARK INTER + INTRA:          22.776
REMARK INTER:                  22.850
REMARK INTRA:                  -0.074
REMARK UNBOUND:                -0.112
REMARK SMILES O=c1c(O)c(-c2ccc(O)c(O)c2)oc2cc(O)cc(O)c12
REMARK SMILES IDX 5 1 3 2 2 3 1 4 22 5 20 6 19 7 17 8 16 9 15 10 14 11 6 12
REMARK SMILES IDX 7 13 8 14 9 15 13 16 11 17 10 18 12 20 4 22 21 24 18 26
REMARK H PARENT 10 19 12 21 4 23 21 25 18 27
REMARK Flexibility Score: inf
ROOT
ATOM      1  C   UNL     1      39.820  -3.413  22.988  1.00  0.00     0.180 A 
ATOM      2  C   UNL     1      40.280  -2.088  22.909  1.00  0.00     0.208 A 
ATOM      3  C   UNL     1      41.651  -1.831  23.069  1.00  0.00     0.238 A 
ATOM      4  O   UNL     1      42.062  -0.648  22.943  1.00  0.00    -0.285 OA
ATOM      5  C   UNL     1      42.542  -2.900  23.324  1.00  0.00     0.111 A 
ATOM      6  C   UNL     1      43.945  -2.751  23.541  1.00  0.00     0.134 A 
ATOM      7  C   UNL     1      44.751  -3.890  23.654  1.00  0.00     0.093 A 
ATOM      8  C   UNL     1      44.199  -5.169  23.621  1.00  0.00     0.123 A 
ATOM      9  C   UNL     1      42.820  -5.326  23.467  1.00  0.00     0.094 A 
ATOM     10  C   UNL     1      41.995  -4.209  23.317  1.00  0.00     0.146 A 
ATOM     11  O   UNL     1      40.690  -4.401  23.163  1.00  0.00    -0.452 OA
ENDROOT
BRANCH   1  12
ATOM     12  C   UNL     1      38.387  -3.761  22.855  1.00  0.00     0.025 A 
ATOM     13  C   UNL     1      37.707  -4.461  23.868  1.00  0.00     0.016 A 
ATOM     14  C   UNL     1      36.360  -4.799  23.710  1.00  0.00     0.051 A 
ATOM     15  C   UNL     1      35.678  -4.456  22.536  1.00  0.00     0.157 A 
ATOM     16  C   UNL     1      37.704  -3.437  21.672  1.00  0.00     0.062 A 
ATOM     17  C   UNL     1      36.352  -3.776  21.513  1.00  0.00     0.158 A 
BRANCH  15  18
ATOM     18  O   UNL     1      34.334  -4.790  22.376  1.00  0.00    -0.504 OA
ATOM     19  H   UNL     1      33.682  -4.746  23.150  1.00  0.00     0.293 HD
ENDBRANCH  15  18
BRANCH  17  20
ATOM     20  O   UNL     1      35.672  -3.442  20.343  1.00  0.00    -0.504 OA
ATOM     21  H   UNL     1      35.300  -4.153  19.725  1.00  0.00     0.293 HD
ENDBRANCH  17  20
ENDBRANCH   1  12
BRANCH   2  22
ATOM     22  O   UNL     1      39.384  -1.049  22.636  1.00  0.00    -0.502 OA
ATOM     23  H   UNL     1      39.256  -0.672  21.704  1.00  0.00     0.293 HD
ENDBRANCH   2  22
BRANCH   6  24
ATOM     24  O   UNL     1      44.586  -1.517  23.683  1.00  0.00    -0.507 OA
ATOM     25  H   UNL     1      45.292  -1.311  24.374  1.00  0.00     0.293 HD
ENDBRANCH   6  24
BRANCH   8  26
ATOM     26  O   UNL     1      45.030  -6.280  23.753  1.00  0.00    -0.508 OA
ATOM     27  H   UNL     1      45.677  -6.548  23.020  1.00  0.00     0.293 HD
ENDBRANCH   8  26
TORSDOF 6
ENDMDL
MODEL 3
REMARK VINA RESULT:    19.937      4.529      8.219
REMARK INTER + INTRA:          23.904
REMARK INTER:                  23.427
REMARK INTRA:                   0.476
REMARK UNBOUND:                -0.112
REMARK SMILES O=c1c(O)c(-c2ccc(O)c(O)c2)oc2cc(O)cc(O)c12
REMARK SMILES IDX 5 1 3 2 2 3 1 4 22 5 20 6 19 7 17 8 16 9 15 10 14 11 6 12
REMARK SMILES IDX 7 13 8 14 9 15 13 16 11 17 10 18 12 20 4 22 21 24 18 26
REMARK H PARENT 10 19 12 21 4 23 21 25 18 27
REMARK Flexibility Score: inf
ROOT
ATOM      1  C   UNL     1      38.599  -2.950  19.198  1.00  0.00     0.180 A 
ATOM      2  C   UNL     1      37.627  -3.348  20.132  1.00  0.00     0.208 A 
ATOM      3  C   UNL     1      37.887  -3.176  21.501  1.00  0.00     0.238 A 
ATOM      4  O   UNL     1      36.990  -3.483  22.329  1.00  0.00    -0.285 OA
ATOM      5  C   UNL     1      39.121  -2.623  21.920  1.00  0.00     0.111 A 
ATOM      6  C   UNL     1      39.506  -2.439  23.282  1.00  0.00     0.134 A 
ATOM      7  C   UNL     1      40.695  -1.763  23.578  1.00  0.00     0.093 A 
ATOM      8  C   UNL     1      41.544  -1.322  22.565  1.00  0.00     0.123 A 
ATOM      9  C   UNL     1      41.207  -1.548  21.229  1.00  0.00     0.094 A 
ATOM     10  C   UNL     1      40.009  -2.188  20.902  1.00  0.00     0.146 A 
ATOM     11  O   UNL     1      39.720  -2.375  19.620  1.00  0.00    -0.452 OA
ENDROOT
BRANCH   1  12
ATOM     12  C   UNL     1      38.410  -3.123  17.740  1.00  0.00     0.025 A 
ATOM     13  C   UNL     1      39.197  -2.420  16.811  1.00  0.00     0.016 A 
ATOM     14  C   UNL     1      38.985  -2.581  15.439  1.00  0.00     0.051 A 
ATOM     15  C   UNL     1      37.976  -3.435  14.976  1.00  0.00     0.157 A 
ATOM     16  C   UNL     1      37.387  -3.963  17.270  1.00  0.00     0.062 A 
ATOM     17  C   UNL     1      37.173  -4.125  15.893  1.00  0.00     0.158 A 
BRANCH  15  18
ATOM     18  O   UNL     1      37.763  -3.600  13.609  1.00  0.00    -0.504 OA
ATOM     19  H   UNL     1      38.383  -4.164  13.040  1.00  0.00     0.293 HD
ENDBRANCH  15  18
BRANCH  17  20
ATOM     20  O   UNL     1      36.166  -4.970  15.430  1.00  0.00    -0.504 OA
ATOM     21  H   UNL     1      35.714  -5.641  16.041  1.00  0.00     0.293 HD
ENDBRANCH  17  20
ENDBRANCH   1  12
BRANCH   2  22
ATOM     22  O   UNL     1      36.407  -3.872  19.695  1.00  0.00    -0.502 OA
ATOM     23  H   UNL     1      35.899  -4.575  20.219  1.00  0.00     0.293 HD
ENDBRANCH   2  22
BRANCH   6  24
ATOM     24  O   UNL     1      38.775  -2.924  24.371  1.00  0.00    -0.507 OA
ATOM     25  H   UNL     1      38.587  -2.403  25.215  1.00  0.00     0.293 HD
ENDBRANCH   6  24
BRANCH   8  26
ATOM     26  O   UNL     1      42.729  -0.667  22.897  1.00  0.00    -0.508 OA
ATOM     27  H   UNL     1      42.820  -0.142  23.759  1.00  0.00     0.293 HD
ENDBRANCH   8  26
TORSDOF 6
ENDMDL
