MODEL 1
REMARK VINA RESULT:    -9.054      0.000      0.000
REMARK INTER + INTRA:         -15.402
REMARK INTER:                 -14.347
REMARK INTRA:                  -1.056
REMARK UNBOUND:                -1.056
REMARK SMILES C[C@H]1O[C@H](O[C@H]2CC[C@@]3(C)[C@H](CC[C@@]4(C)[C@H]3C=C[C@]35OC[C@@]6(CCC(C)(C)C[C@@H]63)[C@H](O)C[C@]45C)[C@]2(C)CO)[C@@H](O)[C@@H](O[C@@H]2O[C@@H](CO)[C@@H](O)[C@H](O)[C@@H]2O)[C@@H]1O
REMARK SMILES IDX 1 1 2 2 54 3 41 4 39 5 4 6 3 7 55 8 42 10 43 11 52 12 44 13
REMARK SMILES IDX 50 14 45 15 48 16 53 17 51 19 46 21 47 22 49 24 5 26 6 27
REMARK SMILES IDX 7 28 35 29 8 30 11 31 36 32 9 33 12 34 10 35 16 36 13 37
REMARK SMILES IDX 14 38 17 39 15 40 33 41 18 42 19 43 32 44 34 45 29 46 20 47
REMARK SMILES IDX 30 48 22 49 28 50 21 51 23 52 25 53 24 54 26 55 27 56 37 57
REMARK SMILES IDX 38 58 31 60 40 62
REMARK H PARENT 55 9 53 18 51 20 47 23 49 25 38 59 31 61 40 63
REMARK Flexibility Score: inf
ROOT
ATOM      1  C   UNL     1       2.648 -36.131  44.561  1.00  0.00     0.041 C 
ATOM      2  C   UNL     1       2.989 -37.628  44.682  1.00  0.00     0.150 C 
ATOM      3  C   UNL     1       4.406 -37.917  45.249  1.00  0.00     0.175 C 
ATOM      4  C   UNL     1       5.502 -37.801  44.169  1.00  0.00     0.186 C 
ATOM      5  C   UNL     1       5.060 -38.536  42.887  1.00  0.00     0.202 C 
ATOM      6  C   UNL     1       3.659 -38.075  42.457  1.00  0.00     0.282 C 
ATOM      7  O   UNL     1       2.723 -38.352  43.486  1.00  0.00    -0.344 OA
ENDROOT
BRANCH   3   8
ATOM      8  O   UNL     1       4.438 -39.189  45.849  1.00  0.00    -0.388 OA
ATOM      9  H   UNL     1       5.037 -39.142  46.637  1.00  0.00     0.211 HD
ENDBRANCH   3   8
BRANCH   4  10
ATOM     10  O   UNL     1       5.728 -36.425  43.887  1.00  0.00    -0.341 OA
BRANCH  10  11
ATOM     11  C   UNL     1       7.108 -36.123  43.798  1.00  0.00     0.282 C 
ATOM     12  C   UNL     1       7.358 -35.050  42.726  1.00  0.00     0.202 C 
ATOM     13  O   UNL     1       7.634 -35.762  45.066  1.00  0.00    -0.341 OA
ATOM     14  C   UNL     1       6.843 -33.647  43.159  1.00  0.00     0.179 C 
ATOM     15  C   UNL     1       7.273 -34.467  45.546  1.00  0.00     0.178 C 
ATOM     16  C   UNL     1       6.338 -33.636  44.622  1.00  0.00     0.177 C 
BRANCH  12  17
ATOM     17  O   UNL     1       6.773 -35.465  41.516  1.00  0.00    -0.385 OA
ATOM     18  H   UNL     1       7.310 -36.233  41.188  1.00  0.00     0.211 HD
ENDBRANCH  12  17
BRANCH  14  19
ATOM     19  O   UNL     1       5.847 -33.166  42.286  1.00  0.00    -0.387 OA
ATOM     20  H   UNL     1       6.061 -33.514  41.377  1.00  0.00     0.211 HD
ENDBRANCH  14  19
BRANCH  15  21
ATOM     21  C   UNL     1       8.575 -33.717  45.889  1.00  0.00     0.191 C 
BRANCH  21  22
ATOM     22  O   UNL     1       8.457 -33.094  47.141  1.00  0.00    -0.394 OA
ATOM     23  H   UNL     1       7.687 -32.474  47.079  1.00  0.00     0.210 HD
ENDBRANCH  21  22
ENDBRANCH  15  21
BRANCH  16  24
ATOM     24  O   UNL     1       6.231 -32.320  45.105  1.00  0.00    -0.387 OA
ATOM     25  H   UNL     1       7.135 -31.903  45.055  1.00  0.00     0.211 HD
ENDBRANCH  16  24
ENDBRANCH  10  11
ENDBRANCH   4  10
BRANCH   6  26
ATOM     26  O   UNL     1       3.333 -38.792  41.280  1.00  0.00    -0.346 OA
BRANCH  26  27
ATOM     27  C   UNL     1       4.016 -38.427  40.082  1.00  0.00     0.130 C 
ATOM     28  C   UNL     1       4.774 -39.570  39.388  1.00  0.00     0.033 C 
ATOM     29  C   UNL     1       3.253 -37.480  39.089  1.00  0.00     0.020 C 
ATOM     30  C   UNL     1       5.842 -39.013  38.442  1.00  0.00     0.010 C 
ATOM     31  C   UNL     1       4.327 -36.894  38.046  1.00  0.00     0.006 C 
ATOM     32  C   UNL     1       2.091 -38.191  38.319  1.00  0.00     0.017 C 
ATOM     33  C   UNL     1       5.311 -37.981  37.390  1.00  0.00    -0.022 C 
ATOM     34  C   UNL     1       5.104 -35.677  38.633  1.00  0.00     0.005 C 
ATOM     35  C   UNL     1       4.515 -38.803  36.321  1.00  0.00     0.012 C 
ATOM     36  C   UNL     1       6.500 -37.280  36.574  1.00  0.00     0.024 C 
ATOM     37  C   UNL     1       6.041 -35.026  37.618  1.00  0.00     0.008 C 
ATOM     38  C   UNL     1       7.166 -35.971  37.125  1.00  0.00    -0.017 C 
ATOM     39  C   UNL     1       7.584 -38.223  36.098  1.00  0.00    -0.024 C 
ATOM     40  C   UNL     1       8.087 -36.305  38.354  1.00  0.00     0.013 C 
ATOM     41  C   UNL     1       8.028 -35.301  35.919  1.00  0.00     0.009 C 
ATOM     42  C   UNL     1       8.750 -37.795  35.583  1.00  0.00     0.005 C 
ATOM     43  C   UNL     1       9.148 -36.328  35.389  1.00  0.00     0.096 C 
ATOM     44  C   UNL     1       8.686 -33.946  36.383  1.00  0.00     0.043 C 
ATOM     45  C   UNL     1       7.126 -34.893  34.693  1.00  0.00     0.015 C 
ATOM     46  C   UNL     1      10.535 -35.982  36.011  1.00  0.00     0.037 C 
ATOM     47  O   UNL     1       9.320 -36.160  33.991  1.00  0.00    -0.369 OA
ATOM     48  C   UNL     1       9.953 -33.527  35.585  1.00  0.00     0.124 C 
ATOM     49  C   UNL     1      10.864 -34.754  35.159  1.00  0.00     0.026 C 
ATOM     50  C   UNL     1      11.581 -37.129  35.869  1.00  0.00     0.014 C 
ATOM     51  C   UNL     1      10.389 -35.262  33.787  1.00  0.00     0.171 C 
ATOM     52  C   UNL     1      12.376 -34.364  35.144  1.00  0.00     0.013 C 
ATOM     53  C   UNL     1      13.048 -36.667  36.037  1.00  0.00    -0.035 C 
ATOM     54  C   UNL     1      13.343 -35.546  35.016  1.00  0.00     0.007 C 
ATOM     55  C   UNL     1      13.322 -36.198  37.486  1.00  0.00     0.011 C 
ATOM     56  C   UNL     1      13.983 -37.859  35.738  1.00  0.00     0.011 C 
BRANCH  29  57
ATOM     57  C   UNL     1       2.571 -36.354  39.931  1.00  0.00     0.165 C 
BRANCH  57  58
ATOM     58  O   UNL     1       1.276 -36.734  40.314  1.00  0.00    -0.396 OA
ATOM     59  H   UNL     1       1.033 -37.506  39.735  1.00  0.00     0.210 HD
ENDBRANCH  57  58
ENDBRANCH  29  57
BRANCH  48  60
ATOM     60  O   UNL     1      10.677 -32.603  36.365  1.00  0.00    -0.392 OA
ATOM     61  H   UNL     1      11.156 -32.001  35.736  1.00  0.00     0.210 HD
ENDBRANCH  48  60
ENDBRANCH  26  27
ENDBRANCH   6  26
BRANCH   5  62
ATOM     62  O   UNL     1       5.982 -38.293  41.853  1.00  0.00    -0.385 OA
ATOM     63  H   UNL     1       6.089 -39.140  41.345  1.00  0.00     0.211 HD
ENDBRANCH   5  62
TORSDOF 14
ENDMDL
MODEL 2
REMARK VINA RESULT:    -8.849      5.345     10.512
REMARK INTER + INTRA:         -15.078
REMARK INTER:                 -12.974
REMARK INTRA:                  -2.104
REMARK UNBOUND:                -1.056
REMARK SMILES C[C@H]1O[C@H](O[C@H]2CC[C@@]3(C)[C@H](CC[C@@]4(C)[C@H]3C=C[C@]35OC[C@@]6(CCC(C)(C)C[C@@H]63)[C@H](O)C[C@]45C)[C@]2(C)CO)[C@@H](O)[C@@H](O[C@@H]2O[C@@H](CO)[C@@H](O)[C@H](O)[C@@H]2O)[C@@H]1O
REMARK SMILES IDX 1 1 2 2 54 3 41 4 39 5 4 6 3 7 55 8 42 10 43 11 52 12 44 13
REMARK SMILES IDX 50 14 45 15 48 16 53 17 51 19 46 21 47 22 49 24 5 26 6 27
REMARK SMILES IDX 7 28 35 29 8 30 11 31 36 32 9 33 12 34 10 35 16 36 13 37
REMARK SMILES IDX 14 38 17 39 15 40 33 41 18 42 19 43 32 44 34 45 29 46 20 47
REMARK SMILES IDX 30 48 22 49 28 50 21 51 23 52 25 53 24 54 26 55 27 56 37 57
REMARK SMILES IDX 38 58 31 60 40 62
REMARK H PARENT 55 9 53 18 51 20 47 23 49 25 38 59 31 61 40 63
REMARK Flexibility Score: inf
ROOT
ATOM      1  C   UNL     1       5.388 -26.337  40.334  1.00  0.00     0.041 C 
ATOM      2  C   UNL     1       6.406 -25.844  39.288  1.00  0.00     0.150 C 
ATOM      3  C   UNL     1       5.825 -25.683  37.857  1.00  0.00     0.175 C 
ATOM      4  C   UNL     1       5.761 -27.025  37.097  1.00  0.00     0.186 C 
ATOM      5  C   UNL     1       7.089 -27.791  37.268  1.00  0.00     0.202 C 
ATOM      6  C   UNL     1       7.466 -27.892  38.755  1.00  0.00     0.282 C 
ATOM      7  O   UNL     1       7.617 -26.592  39.303  1.00  0.00    -0.344 OA
ENDROOT
BRANCH   3   8
ATOM      8  O   UNL     1       6.576 -24.741  37.131  1.00  0.00    -0.388 OA
ATOM      9  H   UNL     1       6.086 -24.535  36.295  1.00  0.00     0.211 HD
ENDBRANCH   3   8
BRANCH   4  10
ATOM     10  O   UNL     1       4.684 -27.798  37.614  1.00  0.00    -0.341 OA
BRANCH  10  11
ATOM     11  C   UNL     1       3.982 -28.476  36.589  1.00  0.00     0.282 C 
ATOM     12  C   UNL     1       3.415 -29.806  37.113  1.00  0.00     0.202 C 
ATOM     13  O   UNL     1       2.984 -27.645  36.018  1.00  0.00    -0.341 OA
ATOM     14  C   UNL     1       2.234 -29.599  38.104  1.00  0.00     0.179 C 
ATOM     15  C   UNL     1       1.821 -27.425  36.817  1.00  0.00     0.178 C 
ATOM     16  C   UNL     1       1.815 -28.113  38.211  1.00  0.00     0.177 C 
BRANCH  12  17
ATOM     17  O   UNL     1       4.456 -30.550  37.697  1.00  0.00    -0.385 OA
ATOM     18  H   UNL     1       4.611 -31.335  37.110  1.00  0.00     0.211 HD
ENDBRANCH  12  17
BRANCH  14  19
ATOM     19  O   UNL     1       2.525 -30.127  39.378  1.00  0.00    -0.387 OA
ATOM     20  H   UNL     1       2.718 -31.097  39.256  1.00  0.00     0.211 HD
ENDBRANCH  14  19
BRANCH  15  21
ATOM     21  C   UNL     1       0.593 -27.810  35.968  1.00  0.00     0.191 C 
BRANCH  21  22
ATOM     22  O   UNL     1      -0.532 -27.085  36.392  1.00  0.00    -0.394 OA
ATOM     23  H   UNL     1      -0.197 -26.351  36.966  1.00  0.00     0.210 HD
ENDBRANCH  21  22
ENDBRANCH  15  21
BRANCH  16  24
ATOM     24  O   UNL     1       0.544 -27.992  38.801  1.00  0.00    -0.387 OA
ATOM     25  H   UNL     1      -0.136 -28.198  38.102  1.00  0.00     0.211 HD
ENDBRANCH  16  24
ENDBRANCH  10  11
ENDBRANCH   4  10
BRANCH   6  26
ATOM     26  O   UNL     1       8.686 -28.606  38.823  1.00  0.00    -0.346 OA
BRANCH  26  27
ATOM     27  C   UNL     1       8.683 -29.839  39.541  1.00  0.00     0.130 C 
ATOM     28  C   UNL     1       8.885 -31.097  38.680  1.00  0.00     0.033 C 
ATOM     29  C   UNL     1       9.465 -29.871  40.902  1.00  0.00     0.020 C 
ATOM     30  C   UNL     1       8.384 -32.342  39.418  1.00  0.00     0.010 C 
ATOM     31  C   UNL     1       9.002 -31.185  41.704  1.00  0.00     0.006 C 
ATOM     32  C   UNL     1      11.021 -29.873  40.726  1.00  0.00     0.017 C 
ATOM     33  C   UNL     1       8.991 -32.545  40.848  1.00  0.00    -0.022 C 
ATOM     34  C   UNL     1       7.660 -30.959  42.464  1.00  0.00     0.005 C 
ATOM     35  C   UNL     1      10.468 -33.023  40.641  1.00  0.00     0.012 C 
ATOM     36  C   UNL     1       8.276 -33.735  41.647  1.00  0.00     0.024 C 
ATOM     37  C   UNL     1       7.262 -32.151  43.333  1.00  0.00     0.008 C 
ATOM     38  C   UNL     1       7.006 -33.445  42.521  1.00  0.00    -0.017 C 
ATOM     39  C   UNL     1       8.040 -34.992  40.836  1.00  0.00    -0.024 C 
ATOM     40  C   UNL     1       5.758 -33.196  41.599  1.00  0.00     0.013 C 
ATOM     41  C   UNL     1       6.761 -34.726  43.494  1.00  0.00     0.009 C 
ATOM     42  C   UNL     1       7.276 -36.010  41.271  1.00  0.00     0.005 C 
ATOM     43  C   UNL     1       6.557 -36.064  42.623  1.00  0.00     0.096 C 
ATOM     44  C   UNL     1       5.528 -34.484  44.444  1.00  0.00     0.043 C 
ATOM     45  C   UNL     1       7.967 -34.968  44.478  1.00  0.00     0.015 C 
ATOM     46  C   UNL     1       5.040 -36.400  42.496  1.00  0.00     0.037 C 
ATOM     47  O   UNL     1       7.122 -37.168  43.312  1.00  0.00    -0.369 OA
ATOM     48  C   UNL     1       4.843 -35.777  44.970  1.00  0.00     0.124 C 
ATOM     49  C   UNL     1       4.814 -36.953  43.906  1.00  0.00     0.026 C 
ATOM     50  C   UNL     1       4.725 -37.432  41.371  1.00  0.00     0.014 C 
ATOM     51  C   UNL     1       6.098 -37.785  44.061  1.00  0.00     0.171 C 
ATOM     52  C   UNL     1       3.530 -37.828  44.058  1.00  0.00     0.013 C 
ATOM     53  C   UNL     1       3.352 -38.127  41.521  1.00  0.00    -0.035 C 
ATOM     54  C   UNL     1       3.281 -38.808  42.906  1.00  0.00     0.007 C 
ATOM     55  C   UNL     1       2.193 -37.119  41.328  1.00  0.00     0.011 C 
ATOM     56  C   UNL     1       3.222 -39.215  40.434  1.00  0.00     0.011 C 
BRANCH  29  57
ATOM     57  C   UNL     1       9.132 -28.556  41.677  1.00  0.00     0.165 C 
BRANCH  57  58
ATOM     58  O   UNL     1       9.899 -27.486  41.193  1.00  0.00    -0.396 OA
ATOM     59  H   UNL     1       9.617 -27.349  40.249  1.00  0.00     0.210 HD
ENDBRANCH  57  58
ENDBRANCH  29  57
BRANCH  48  60
ATOM     60  O   UNL     1       3.542 -35.443  45.395  1.00  0.00    -0.392 OA
ATOM     61  H   UNL     1       2.916 -36.063  44.937  1.00  0.00     0.210 HD
ENDBRANCH  48  60
ENDBRANCH  26  27
ENDBRANCH   6  26
BRANCH   5  62
ATOM     62  O   UNL     1       6.974 -29.080  36.717  1.00  0.00    -0.385 OA
ATOM     63  H   UNL     1       7.482 -29.700  37.303  1.00  0.00     0.211 HD
ENDBRANCH   5  62
TORSDOF 14
ENDMDL
MODEL 3
REMARK VINA RESULT:    -8.748      4.417      7.044
REMARK INTER + INTRA:         -14.918
REMARK INTER:                 -12.937
REMARK INTRA:                  -1.981
REMARK UNBOUND:                -1.056
REMARK SMILES C[C@H]1O[C@H](O[C@H]2CC[C@@]3(C)[C@H](CC[C@@]4(C)[C@H]3C=C[C@]35OC[C@@]6(CCC(C)(C)C[C@@H]63)[C@H](O)C[C@]45C)[C@]2(C)CO)[C@@H](O)[C@@H](O[C@@H]2O[C@@H](CO)[C@@H](O)[C@H](O)[C@@H]2O)[C@@H]1O
REMARK SMILES IDX 1 1 2 2 54 3 41 4 39 5 4 6 3 7 55 8 42 10 43 11 52 12 44 13
REMARK SMILES IDX 50 14 45 15 48 16 53 17 51 19 46 21 47 22 49 24 5 26 6 27
REMARK SMILES IDX 7 28 35 29 8 30 11 31 36 32 9 33 12 34 10 35 16 36 13 37
REMARK SMILES IDX 14 38 17 39 15 40 33 41 18 42 19 43 32 44 34 45 29 46 20 47
REMARK SMILES IDX 30 48 22 49 28 50 21 51 23 52 25 53 24 54 26 55 27 56 37 57
REMARK SMILES IDX 38 58 31 60 40 62
REMARK H PARENT 55 9 53 18 51 20 47 23 49 25 38 59 31 61 40 63
REMARK Flexibility Score: inf
ROOT
ATOM      1  C   UNL     1       3.768 -35.891  40.400  1.00  0.00     0.041 C 
ATOM      2  C   UNL     1       4.151 -37.242  39.768  1.00  0.00     0.150 C 
ATOM      3  C   UNL     1       4.417 -38.376  40.796  1.00  0.00     0.175 C 
ATOM      4  C   UNL     1       5.839 -38.302  41.392  1.00  0.00     0.186 C 
ATOM      5  C   UNL     1       6.871 -38.072  40.269  1.00  0.00     0.202 C 
ATOM      6  C   UNL     1       6.460 -36.876  39.395  1.00  0.00     0.282 C 
ATOM      7  O   UNL     1       5.193 -37.124  38.806  1.00  0.00    -0.344 OA
ENDROOT
BRANCH   3   8
ATOM      8  O   UNL     1       4.197 -39.631  40.201  1.00  0.00    -0.388 OA
ATOM      9  H   UNL     1       4.573 -40.325  40.801  1.00  0.00     0.211 HD
ENDBRANCH   3   8
BRANCH   4  10
ATOM     10  O   UNL     1       5.892 -37.231  42.328  1.00  0.00    -0.341 OA
BRANCH  10  11
ATOM     11  C   UNL     1       5.333 -37.593  43.577  1.00  0.00     0.282 C 
ATOM     12  C   UNL     1       6.279 -37.204  44.725  1.00  0.00     0.202 C 
ATOM     13  O   UNL     1       4.032 -37.047  43.731  1.00  0.00    -0.341 OA
ATOM     14  C   UNL     1       6.348 -35.665  44.941  1.00  0.00     0.179 C 
ATOM     15  C   UNL     1       3.971 -35.643  43.991  1.00  0.00     0.178 C 
ATOM     16  C   UNL     1       5.338 -34.904  44.050  1.00  0.00     0.177 C 
BRANCH  12  17
ATOM     17  O   UNL     1       7.551 -37.750  44.476  1.00  0.00    -0.385 OA
ATOM     18  H   UNL     1       7.927 -37.257  43.701  1.00  0.00     0.211 HD
ENDBRANCH  12  17
BRANCH  14  19
ATOM     19  O   UNL     1       7.653 -35.171  44.747  1.00  0.00    -0.387 OA
ATOM     20  H   UNL     1       8.224 -35.559  45.466  1.00  0.00     0.211 HD
ENDBRANCH  14  19
BRANCH  15  21
ATOM     21  C   UNL     1       3.139 -35.442  45.271  1.00  0.00     0.191 C 
BRANCH  21  22
ATOM     22  O   UNL     1       2.852 -36.683  45.860  1.00  0.00    -0.394 OA
ATOM     23  H   UNL     1       1.948 -36.608  46.255  1.00  0.00     0.210 HD
ENDBRANCH  21  22
ENDBRANCH  15  21
BRANCH  16  24
ATOM     24  O   UNL     1       5.153 -33.589  44.513  1.00  0.00    -0.387 OA
ATOM     25  H   UNL     1       4.815 -33.043  43.750  1.00  0.00     0.211 HD
ENDBRANCH  16  24
ENDBRANCH  10  11
ENDBRANCH   4  10
BRANCH   6  26
ATOM     26  O   UNL     1       7.454 -36.734  38.398  1.00  0.00    -0.346 OA
BRANCH  26  27
ATOM     27  C   UNL     1       8.007 -35.432  38.207  1.00  0.00     0.130 C 
ATOM     28  C   UNL     1       9.414 -35.228  38.793  1.00  0.00     0.033 C 
ATOM     29  C   UNL     1       7.808 -34.775  36.796  1.00  0.00     0.020 C 
ATOM     30  C   UNL     1       9.708 -33.738  38.985  1.00  0.00     0.010 C 
ATOM     31  C   UNL     1       8.141 -33.208  36.933  1.00  0.00     0.006 C 
ATOM     32  C   UNL     1       8.698 -35.416  35.680  1.00  0.00     0.017 C 
ATOM     33  C   UNL     1       9.508 -32.860  37.702  1.00  0.00    -0.022 C 
ATOM     34  C   UNL     1       6.931 -32.403  37.495  1.00  0.00     0.005 C 
ATOM     35  C   UNL     1      10.715 -33.176  36.754  1.00  0.00     0.012 C 
ATOM     36  C   UNL     1       9.624 -31.293  38.014  1.00  0.00     0.024 C 
ATOM     37  C   UNL     1       7.179 -30.896  37.517  1.00  0.00     0.008 C 
ATOM     38  C   UNL     1       8.352 -30.480  38.441  1.00  0.00    -0.017 C 
ATOM     39  C   UNL     1      10.780 -30.909  38.914  1.00  0.00    -0.024 C 
ATOM     40  C   UNL     1       7.950 -30.835  39.918  1.00  0.00     0.013 C 
ATOM     41  C   UNL     1       8.696 -28.896  38.299  1.00  0.00     0.009 C 
ATOM     42  C   UNL     1      10.914 -29.682  39.448  1.00  0.00     0.005 C 
ATOM     43  C   UNL     1       9.954 -28.508  39.224  1.00  0.00     0.096 C 
ATOM     44  C   UNL     1       7.443 -28.013  38.659  1.00  0.00     0.043 C 
ATOM     45  C   UNL     1       9.042 -28.490  36.816  1.00  0.00     0.015 C 
ATOM     46  C   UNL     1       9.466 -27.855  40.552  1.00  0.00     0.037 C 
ATOM     47  O   UNL     1      10.723 -27.504  38.580  1.00  0.00    -0.369 OA
ATOM     48  C   UNL     1       7.773 -26.568  39.129  1.00  0.00     0.124 C 
ATOM     49  C   UNL     1       9.095 -26.475  40.001  1.00  0.00     0.026 C 
ATOM     50  C   UNL     1      10.565 -27.802  41.657  1.00  0.00     0.014 C 
ATOM     51  C   UNL     1      10.289 -26.249  39.058  1.00  0.00     0.171 C 
ATOM     52  C   UNL     1       8.987 -25.355  41.083  1.00  0.00     0.013 C 
ATOM     53  C   UNL     1      10.282 -26.773  42.777  1.00  0.00    -0.035 C 
ATOM     54  C   UNL     1      10.095 -25.377  42.143  1.00  0.00     0.007 C 
ATOM     55  C   UNL     1       9.045 -27.184  43.612  1.00  0.00     0.011 C 
ATOM     56  C   UNL     1      11.499 -26.720  43.725  1.00  0.00     0.011 C 
BRANCH  29  57
ATOM     57  C   UNL     1       6.331 -35.029  36.354  1.00  0.00     0.165 C 
BRANCH  57  58
ATOM     58  O   UNL     1       6.159 -36.357  35.935  1.00  0.00    -0.396 OA
ATOM     59  H   UNL     1       6.493 -36.927  36.679  1.00  0.00     0.210 HD
ENDBRANCH  57  58
ENDBRANCH  29  57
BRANCH  48  60
ATOM     60  O   UNL     1       6.661 -26.070  39.836  1.00  0.00    -0.392 OA
ATOM     61  H   UNL     1       6.938 -25.974  40.786  1.00  0.00     0.210 HD
ENDBRANCH  48  60
ENDBRANCH  26  27
ENDBRANCH   6  26
BRANCH   5  62
ATOM     62  O   UNL     1       8.142 -37.841  40.826  1.00  0.00    -0.385 OA
ATOM     63  H   UNL     1       8.005 -37.508  41.751  1.00  0.00     0.211 HD
ENDBRANCH   5  62
TORSDOF 14
ENDMDL
MODEL 4
REMARK VINA RESULT:    -8.717      6.594     11.589
REMARK INTER + INTRA:         -14.869
REMARK INTER:                 -13.130
REMARK INTRA:                  -1.739
REMARK UNBOUND:                -1.056
REMARK SMILES C[C@H]1O[C@H](O[C@H]2CC[C@@]3(C)[C@H](CC[C@@]4(C)[C@H]3C=C[C@]35OC[C@@]6(CCC(C)(C)C[C@@H]63)[C@H](O)C[C@]45C)[C@]2(C)CO)[C@@H](O)[C@@H](O[C@@H]2O[C@@H](CO)[C@@H](O)[C@H](O)[C@@H]2O)[C@@H]1O
REMARK SMILES IDX 1 1 2 2 54 3 41 4 39 5 4 6 3 7 55 8 42 10 43 11 52 12 44 13
REMARK SMILES IDX 50 14 45 15 48 16 53 17 51 19 46 21 47 22 49 24 5 26 6 27
REMARK SMILES IDX 7 28 35 29 8 30 11 31 36 32 9 33 12 34 10 35 16 36 13 37
REMARK SMILES IDX 14 38 17 39 15 40 33 41 18 42 19 43 32 44 34 45 29 46 20 47
REMARK SMILES IDX 30 48 22 49 28 50 21 51 23 52 25 53 24 54 26 55 27 56 37 57
REMARK SMILES IDX 38 58 31 60 40 62
REMARK H PARENT 55 9 53 18 51 20 47 23 49 25 38 59 31 61 40 63
REMARK Flexibility Score: inf
ROOT
ATOM      1  C   UNL     1      13.032 -33.780  39.310  1.00  0.00     0.041 C 
ATOM      2  C   UNL     1      12.446 -34.940  40.136  1.00  0.00     0.150 C 
ATOM      3  C   UNL     1      11.553 -35.917  39.323  1.00  0.00     0.175 C 
ATOM      4  C   UNL     1      10.117 -35.381  39.140  1.00  0.00     0.186 C 
ATOM      5  C   UNL     1       9.581 -34.840  40.481  1.00  0.00     0.202 C 
ATOM      6  C   UNL     1      10.580 -33.850  41.101  1.00  0.00     0.282 C 
ATOM      7  O   UNL     1      11.819 -34.500  41.336  1.00  0.00    -0.344 OA
ENDROOT
BRANCH   3   8
ATOM      8  O   UNL     1      11.532 -37.181  39.938  1.00  0.00    -0.388 OA
ATOM      9  H   UNL     1      10.683 -37.629  39.693  1.00  0.00     0.211 HD
ENDBRANCH   3   8
BRANCH   4  10
ATOM     10  O   UNL     1      10.133 -34.342  38.168  1.00  0.00    -0.341 OA
BRANCH  10  11
ATOM     11  C   UNL     1       9.475 -34.726  36.974  1.00  0.00     0.282 C 
ATOM     12  C   UNL     1       9.046 -33.486  36.173  1.00  0.00     0.202 C 
ATOM     13  O   UNL     1      10.275 -35.618  36.215  1.00  0.00    -0.341 OA
ATOM     14  C   UNL     1      10.256 -32.741  35.539  1.00  0.00     0.179 C 
ATOM     15  C   UNL     1      11.390 -35.036  35.539  1.00  0.00     0.178 C 
ATOM     16  C   UNL     1      11.585 -33.507  35.743  1.00  0.00     0.177 C 
BRANCH  12  17
ATOM     17  O   UNL     1       8.294 -32.638  37.006  1.00  0.00    -0.385 OA
ATOM     18  H   UNL     1       7.440 -32.457  36.533  1.00  0.00     0.211 HD
ENDBRANCH  12  17
BRANCH  14  19
ATOM     19  O   UNL     1      10.364 -31.420  36.020  1.00  0.00    -0.387 OA
ATOM     20  H   UNL     1      11.294 -31.308  36.360  1.00  0.00     0.211 HD
ENDBRANCH  14  19
BRANCH  15  21
ATOM     21  C   UNL     1      11.286 -35.420  34.050  1.00  0.00     0.191 C 
BRANCH  21  22
ATOM     22  O   UNL     1      12.521 -35.224  33.414  1.00  0.00    -0.394 OA
ATOM     23  H   UNL     1      13.048 -34.621  33.995  1.00  0.00     0.210 HD
ENDBRANCH  21  22
ENDBRANCH  15  21
BRANCH  16  24
ATOM     24  O   UNL     1      12.578 -33.028  34.869  1.00  0.00    -0.387 OA
ATOM     25  H   UNL     1      13.440 -33.457  35.125  1.00  0.00     0.211 HD
ENDBRANCH  16  24
ENDBRANCH  10  11
ENDBRANCH   4  10
BRANCH   6  26
ATOM     26  O   UNL     1      10.014 -33.403  42.319  1.00  0.00    -0.346 OA
BRANCH  26  27
ATOM     27  C   UNL     1       9.637 -32.029  42.400  1.00  0.00     0.130 C 
ATOM     28  C   UNL     1      10.022 -31.174  41.182  1.00  0.00     0.033 C 
ATOM     29  C   UNL     1       8.207 -31.716  42.966  1.00  0.00     0.020 C 
ATOM     30  C   UNL     1      10.037 -29.687  41.550  1.00  0.00     0.010 C 
ATOM     31  C   UNL     1       8.156 -30.153  43.336  1.00  0.00     0.006 C 
ATOM     32  C   UNL     1       7.052 -32.069  41.970  1.00  0.00     0.017 C 
ATOM     33  C   UNL     1       8.713 -29.160  42.202  1.00  0.00    -0.022 C 
ATOM     34  C   UNL     1       8.788 -29.864  44.731  1.00  0.00     0.005 C 
ATOM     35  C   UNL     1       7.657 -29.065  41.050  1.00  0.00     0.012 C 
ATOM     36  C   UNL     1       8.863 -27.663  42.755  1.00  0.00     0.024 C 
ATOM     37  C   UNL     1       8.640 -28.405  45.159  1.00  0.00     0.008 C 
ATOM     38  C   UNL     1       9.368 -27.412  44.218  1.00  0.00    -0.017 C 
ATOM     39  C   UNL     1       9.573 -26.709  41.817  1.00  0.00    -0.024 C 
ATOM     40  C   UNL     1      10.911 -27.698  44.318  1.00  0.00     0.013 C 
ATOM     41  C   UNL     1       9.039 -25.866  44.605  1.00  0.00     0.009 C 
ATOM     42  C   UNL     1       9.971 -25.480  42.189  1.00  0.00     0.005 C 
ATOM     43  C   UNL     1       9.761 -24.862  43.576  1.00  0.00     0.096 C 
ATOM     44  C   UNL     1       9.470 -25.553  46.088  1.00  0.00     0.043 C 
ATOM     45  C   UNL     1       7.494 -25.559  44.579  1.00  0.00     0.015 C 
ATOM     46  C   UNL     1      11.074 -24.300  44.201  1.00  0.00     0.037 C 
ATOM     47  O   UNL     1       8.937 -23.726  43.367  1.00  0.00    -0.369 OA
ATOM     48  C   UNL     1       9.759 -24.054  46.383  1.00  0.00     0.124 C 
ATOM     49  C   UNL     1      10.448 -23.295  45.172  1.00  0.00     0.026 C 
ATOM     50  C   UNL     1      12.024 -23.639  43.157  1.00  0.00     0.014 C 
ATOM     51  C   UNL     1       9.347 -22.718  44.266  1.00  0.00     0.171 C 
ATOM     52  C   UNL     1      11.427 -22.188  45.676  1.00  0.00     0.013 C 
ATOM     53  C   UNL     1      13.071 -22.683  43.775  1.00  0.00    -0.035 C 
ATOM     54  C   UNL     1      12.339 -21.597  44.594  1.00  0.00     0.007 C 
ATOM     55  C   UNL     1      14.087 -23.458  44.647  1.00  0.00     0.011 C 
ATOM     56  C   UNL     1      13.851 -21.993  42.636  1.00  0.00     0.011 C 
BRANCH  29  57
ATOM     57  C   UNL     1       7.977 -32.627  44.215  1.00  0.00     0.165 C 
BRANCH  57  58
ATOM     58  O   UNL     1       7.657 -33.936  43.823  1.00  0.00    -0.396 OA
ATOM     59  H   UNL     1       7.001 -33.850  43.081  1.00  0.00     0.210 HD
ENDBRANCH  57  58
ENDBRANCH  29  57
BRANCH  48  60
ATOM     60  O   UNL     1      10.551 -23.980  47.546  1.00  0.00    -0.392 OA
ATOM     61  H   UNL     1      11.291 -23.345  47.356  1.00  0.00     0.210 HD
ENDBRANCH  48  60
ENDBRANCH  26  27
ENDBRANCH   6  26
BRANCH   5  62
ATOM     62  O   UNL     1       8.342 -34.205  40.281  1.00  0.00    -0.385 OA
ATOM     63  H   UNL     1       7.767 -34.423  41.062  1.00  0.00     0.211 HD
ENDBRANCH   5  62
TORSDOF 14
ENDMDL
MODEL 5
REMARK VINA RESULT:    -8.672      4.961      8.137
REMARK INTER + INTRA:         -14.797
REMARK INTER:                 -12.651
REMARK INTRA:                  -2.146
REMARK UNBOUND:                -1.056
REMARK SMILES C[C@H]1O[C@H](O[C@H]2CC[C@@]3(C)[C@H](CC[C@@]4(C)[C@H]3C=C[C@]35OC[C@@]6(CCC(C)(C)C[C@@H]63)[C@H](O)C[C@]45C)[C@]2(C)CO)[C@@H](O)[C@@H](O[C@@H]2O[C@@H](CO)[C@@H](O)[C@H](O)[C@@H]2O)[C@@H]1O
REMARK SMILES IDX 1 1 2 2 54 3 41 4 39 5 4 6 3 7 55 8 42 10 43 11 52 12 44 13
REMARK SMILES IDX 50 14 45 15 48 16 53 17 51 19 46 21 47 22 49 24 5 26 6 27
REMARK SMILES IDX 7 28 35 29 8 30 11 31 36 32 9 33 12 34 10 35 16 36 13 37
REMARK SMILES IDX 14 38 17 39 15 40 33 41 18 42 19 43 32 44 34 45 29 46 20 47
REMARK SMILES IDX 30 48 22 49 28 50 21 51 23 52 25 53 24 54 26 55 27 56 37 57
REMARK SMILES IDX 38 58 31 60 40 62
REMARK H PARENT 55 9 53 18 51 20 47 23 49 25 38 59 31 61 40 63
REMARK Flexibility Score: inf
ROOT
ATOM      1  C   UNL     1       4.396 -34.451  40.866  1.00  0.00     0.041 C 
ATOM      2  C   UNL     1       4.853 -35.107  39.551  1.00  0.00     0.150 C 
ATOM      3  C   UNL     1       4.232 -36.506  39.285  1.00  0.00     0.175 C 
ATOM      4  C   UNL     1       4.970 -37.627  40.048  1.00  0.00     0.186 C 
ATOM      5  C   UNL     1       6.495 -37.458  39.889  1.00  0.00     0.202 C 
ATOM      6  C   UNL     1       6.919 -36.025  40.249  1.00  0.00     0.282 C 
ATOM      7  O   UNL     1       6.267 -35.100  39.394  1.00  0.00    -0.344 OA
ENDROOT
BRANCH   3   8
ATOM      8  O   UNL     1       4.219 -36.777  37.904  1.00  0.00    -0.388 OA
ATOM      9  H   UNL     1       4.789 -37.570  37.741  1.00  0.00     0.211 HD
ENDBRANCH   3   8
BRANCH   4  10
ATOM     10  O   UNL     1       4.614 -37.560  41.424  1.00  0.00    -0.341 OA
BRANCH  10  11
ATOM     11  C   UNL     1       3.752 -38.618  41.798  1.00  0.00     0.282 C 
ATOM     12  C   UNL     1       4.168 -39.197  43.160  1.00  0.00     0.202 C 
ATOM     13  O   UNL     1       2.394 -38.204  41.772  1.00  0.00    -0.341 OA
ATOM     14  C   UNL     1       3.864 -38.226  44.336  1.00  0.00     0.179 C 
ATOM     15  C   UNL     1       1.982 -37.348  42.839  1.00  0.00     0.178 C 
ATOM     16  C   UNL     1       3.081 -36.974  43.873  1.00  0.00     0.177 C 
BRANCH  12  17
ATOM     17  O   UNL     1       5.530 -39.544  43.114  1.00  0.00    -0.385 OA
ATOM     18  H   UNL     1       6.044 -38.698  43.184  1.00  0.00     0.211 HD
ENDBRANCH  12  17
BRANCH  14  19
ATOM     19  O   UNL     1       5.039 -37.853  45.020  1.00  0.00    -0.387 OA
ATOM     20  H   UNL     1       4.760 -37.297  45.799  1.00  0.00     0.211 HD
ENDBRANCH  14  19
BRANCH  15  21
ATOM     21  C   UNL     1       0.749 -37.992  43.502  1.00  0.00     0.191 C 
BRANCH  21  22
ATOM     22  O   UNL     1       0.009 -37.018  44.191  1.00  0.00    -0.394 OA
ATOM     23  H   UNL     1       0.434 -36.914  45.079  1.00  0.00     0.210 HD
ENDBRANCH  21  22
ENDBRANCH  15  21
BRANCH  16  24
ATOM     24  O   UNL     1       2.504 -36.310  44.969  1.00  0.00    -0.387 OA
ATOM     25  H   UNL     1       1.522 -36.482  44.946  1.00  0.00     0.211 HD
ENDBRANCH  16  24
ENDBRANCH  10  11
ENDBRANCH   4  10
BRANCH   6  26
ATOM     26  O   UNL     1       8.323 -35.956  40.081  1.00  0.00    -0.346 OA
BRANCH  26  27
ATOM     27  C   UNL     1       8.880 -34.686  39.744  1.00  0.00     0.130 C 
ATOM     28  C   UNL     1       9.478 -33.902  40.923  1.00  0.00     0.033 C 
ATOM     29  C   UNL     1       9.740 -34.612  38.433  1.00  0.00     0.020 C 
ATOM     30  C   UNL     1       9.586 -32.413  40.581  1.00  0.00     0.010 C 
ATOM     31  C   UNL     1       9.917 -33.062  38.048  1.00  0.00     0.006 C 
ATOM     32  C   UNL     1      11.143 -35.293  38.571  1.00  0.00     0.017 C 
ATOM     33  C   UNL     1      10.361 -32.100  39.255  1.00  0.00    -0.022 C 
ATOM     34  C   UNL     1       8.677 -32.508  37.283  1.00  0.00     0.005 C 
ATOM     35  C   UNL     1      11.879 -32.340  39.560  1.00  0.00     0.012 C 
ATOM     36  C   UNL     1      10.259 -30.555  38.843  1.00  0.00     0.024 C 
ATOM     37  C   UNL     1       8.872 -31.073  36.797  1.00  0.00     0.008 C 
ATOM     38  C   UNL     1       9.071 -30.056  37.949  1.00  0.00    -0.017 C 
ATOM     39  C   UNL     1      10.463 -29.579  39.983  1.00  0.00    -0.024 C 
ATOM     40  C   UNL     1       7.742 -30.012  38.787  1.00  0.00     0.013 C 
ATOM     41  C   UNL     1       9.451 -28.577  37.387  1.00  0.00     0.009 C 
ATOM     42  C   UNL     1      10.211 -28.263  39.872  1.00  0.00     0.005 C 
ATOM     43  C   UNL     1       9.709 -27.560  38.606  1.00  0.00     0.096 C 
ATOM     44  C   UNL     1       8.323 -28.031  36.432  1.00  0.00     0.043 C 
ATOM     45  C   UNL     1      10.745 -28.594  36.487  1.00  0.00     0.015 C 
ATOM     46  C   UNL     1       8.445 -26.682  38.854  1.00  0.00     0.037 C 
ATOM     47  O   UNL     1      10.731 -26.642  38.249  1.00  0.00    -0.369 OA
ATOM     48  C   UNL     1       8.262 -26.483  36.309  1.00  0.00     0.124 C 
ATOM     49  C   UNL     1       8.597 -25.729  37.665  1.00  0.00     0.026 C 
ATOM     50  C   UNL     1       8.457 -25.954  40.233  1.00  0.00     0.014 C 
ATOM     51  C   UNL     1      10.114 -25.485  37.727  1.00  0.00     0.171 C 
ATOM     52  C   UNL     1       7.787 -24.401  37.795  1.00  0.00     0.013 C 
ATOM     53  C   UNL     1       7.493 -24.747  40.315  1.00  0.00    -0.035 C 
ATOM     54  C   UNL     1       7.834 -23.753  39.183  1.00  0.00     0.007 C 
ATOM     55  C   UNL     1       6.017 -25.206  40.237  1.00  0.00     0.011 C 
ATOM     56  C   UNL     1       7.699 -24.035  41.669  1.00  0.00     0.011 C 
BRANCH  29  57
ATOM     57  C   UNL     1       8.990 -35.416  37.323  1.00  0.00     0.165 C 
BRANCH  57  58
ATOM     58  O   UNL     1       9.184 -36.796  37.491  1.00  0.00    -0.396 OA
ATOM     59  H   UNL     1       8.633 -37.239  36.791  1.00  0.00     0.210 HD
ENDBRANCH  57  58
ENDBRANCH  29  57
BRANCH  48  60
ATOM     60  O   UNL     1       6.984 -26.129  35.834  1.00  0.00    -0.392 OA
ATOM     61  H   UNL     1       6.751 -26.773  35.114  1.00  0.00     0.210 HD
ENDBRANCH  48  60
ENDBRANCH  26  27
ENDBRANCH   6  26
BRANCH   5  62
ATOM     62  O   UNL     1       7.168 -38.377  40.715  1.00  0.00    -0.385 OA
ATOM     63  H   UNL     1       7.793 -38.891  40.139  1.00  0.00     0.211 HD
ENDBRANCH   5  62
TORSDOF 14
ENDMDL
MODEL 6
REMARK VINA RESULT:    -8.596      5.726      9.149
REMARK INTER + INTRA:         -14.676
REMARK INTER:                 -12.616
REMARK INTRA:                  -2.060
REMARK UNBOUND:                -1.056
REMARK SMILES C[C@H]1O[C@H](O[C@H]2CC[C@@]3(C)[C@H](CC[C@@]4(C)[C@H]3C=C[C@]35OC[C@@]6(CCC(C)(C)C[C@@H]63)[C@H](O)C[C@]45C)[C@]2(C)CO)[C@@H](O)[C@@H](O[C@@H]2O[C@@H](CO)[C@@H](O)[C@H](O)[C@@H]2O)[C@@H]1O
REMARK SMILES IDX 1 1 2 2 54 3 41 4 39 5 4 6 3 7 55 8 42 10 43 11 52 12 44 13
REMARK SMILES IDX 50 14 45 15 48 16 53 17 51 19 46 21 47 22 49 24 5 26 6 27
REMARK SMILES IDX 7 28 35 29 8 30 11 31 36 32 9 33 12 34 10 35 16 36 13 37
REMARK SMILES IDX 14 38 17 39 15 40 33 41 18 42 19 43 32 44 34 45 29 46 20 47
REMARK SMILES IDX 30 48 22 49 28 50 21 51 23 52 25 53 24 54 26 55 27 56 37 57
REMARK SMILES IDX 38 58 31 60 40 62
REMARK H PARENT 55 9 53 18 51 20 47 23 49 25 38 59 31 61 40 63
REMARK Flexibility Score: inf
ROOT
ATOM      1  C   UNL     1       4.073 -34.884  39.697  1.00  0.00     0.041 C 
ATOM      2  C   UNL     1       5.168 -35.697  38.983  1.00  0.00     0.150 C 
ATOM      3  C   UNL     1       5.064 -37.233  39.194  1.00  0.00     0.175 C 
ATOM      4  C   UNL     1       5.671 -37.680  40.541  1.00  0.00     0.186 C 
ATOM      5  C   UNL     1       7.040 -37.001  40.754  1.00  0.00     0.202 C 
ATOM      6  C   UNL     1       6.925 -35.481  40.555  1.00  0.00     0.282 C 
ATOM      7  O   UNL     1       6.477 -35.200  39.238  1.00  0.00    -0.344 OA
ENDROOT
BRANCH   3   8
ATOM      8  O   UNL     1       5.679 -37.912  38.127  1.00  0.00    -0.388 OA
ATOM      9  H   UNL     1       6.500 -37.416  37.879  1.00  0.00     0.211 HD
ENDBRANCH   3   8
BRANCH   4  10
ATOM     10  O   UNL     1       4.781 -37.320  41.591  1.00  0.00    -0.341 OA
BRANCH  10  11
ATOM     11  C   UNL     1       3.965 -38.407  41.986  1.00  0.00     0.282 C 
ATOM     12  C   UNL     1       4.353 -38.888  43.394  1.00  0.00     0.202 C 
ATOM     13  O   UNL     1       2.589 -38.075  41.882  1.00  0.00    -0.341 OA
ATOM     14  C   UNL     1       3.942 -37.876  44.502  1.00  0.00     0.179 C 
ATOM     15  C   UNL     1       2.081 -37.191  42.882  1.00  0.00     0.178 C 
ATOM     16  C   UNL     1       3.111 -36.699  43.938  1.00  0.00     0.177 C 
BRANCH  12  17
ATOM     17  O   UNL     1       5.733 -39.156  43.423  1.00  0.00    -0.385 OA
ATOM     18  H   UNL     1       6.062 -38.864  44.314  1.00  0.00     0.211 HD
ENDBRANCH  12  17
BRANCH  14  19
ATOM     19  O   UNL     1       5.062 -37.399  45.212  1.00  0.00    -0.387 OA
ATOM     20  H   UNL     1       4.903 -36.432  45.395  1.00  0.00     0.211 HD
ENDBRANCH  14  19
BRANCH  15  21
ATOM     21  C   UNL     1       0.859 -37.871  43.528  1.00  0.00     0.191 C 
BRANCH  21  22
ATOM     22  O   UNL     1       0.038 -36.908  44.136  1.00  0.00    -0.394 OA
ATOM     23  H   UNL     1       0.358 -36.025  43.827  1.00  0.00     0.210 HD
ENDBRANCH  21  22
ENDBRANCH  15  21
BRANCH  16  24
ATOM     24  O   UNL     1       2.448 -36.014  44.972  1.00  0.00    -0.387 OA
ATOM     25  H   UNL     1       2.556 -36.547  45.808  1.00  0.00     0.211 HD
ENDBRANCH  16  24
ENDBRANCH  10  11
ENDBRANCH   4  10
BRANCH   6  26
ATOM     26  O   UNL     1       8.214 -34.939  40.769  1.00  0.00    -0.346 OA
BRANCH  26  27
ATOM     27  C   UNL     1       8.295 -33.550  41.086  1.00  0.00     0.130 C 
ATOM     28  C   UNL     1       7.059 -32.968  41.791  1.00  0.00     0.033 C 
ATOM     29  C   UNL     1       9.658 -33.032  41.669  1.00  0.00     0.020 C 
ATOM     30  C   UNL     1       7.022 -31.444  41.643  1.00  0.00     0.010 C 
ATOM     31  C   UNL     1       9.656 -31.427  41.571  1.00  0.00     0.006 C 
ATOM     32  C   UNL     1       9.912 -33.478  43.148  1.00  0.00     0.017 C 
ATOM     33  C   UNL     1       8.324 -30.708  42.109  1.00  0.00    -0.022 C 
ATOM     34  C   UNL     1      10.058 -30.931  40.150  1.00  0.00     0.005 C 
ATOM     35  C   UNL     1       8.323 -30.751  43.675  1.00  0.00     0.012 C 
ATOM     36  C   UNL     1       8.307 -29.150  41.736  1.00  0.00     0.024 C 
ATOM     37  C   UNL     1      10.184 -29.411  40.066  1.00  0.00     0.008 C 
ATOM     38  C   UNL     1       8.854 -28.668  40.347  1.00  0.00    -0.017 C 
ATOM     39  C   UNL     1       6.999 -28.442  42.024  1.00  0.00    -0.024 C 
ATOM     40  C   UNL     1       7.842 -29.043  39.205  1.00  0.00     0.013 C 
ATOM     41  C   UNL     1       9.071 -27.057  40.424  1.00  0.00     0.009 C 
ATOM     42  C   UNL     1       6.731 -27.198  41.591  1.00  0.00     0.005 C 
ATOM     43  C   UNL     1       7.685 -26.318  40.775  1.00  0.00     0.096 C 
ATOM     44  C   UNL     1       9.673 -26.505  39.077  1.00  0.00     0.043 C 
ATOM     45  C   UNL     1      10.129 -26.647  41.517  1.00  0.00     0.015 C 
ATOM     46  C   UNL     1       7.033 -25.748  39.479  1.00  0.00     0.037 C 
ATOM     47  O   UNL     1       7.946 -25.183  41.586  1.00  0.00    -0.369 OA
ATOM     48  C   UNL     1       9.384 -25.003  38.797  1.00  0.00     0.124 C 
ATOM     49  C   UNL     1       7.948 -24.536  39.282  1.00  0.00     0.026 C 
ATOM     50  C   UNL     1       5.532 -25.365  39.656  1.00  0.00     0.014 C 
ATOM     51  C   UNL     1       8.055 -24.059  40.740  1.00  0.00     0.171 C 
ATOM     52  C   UNL     1       7.362 -23.430  38.348  1.00  0.00     0.013 C 
ATOM     53  C   UNL     1       5.000 -24.391  38.580  1.00  0.00    -0.035 C 
ATOM     54  C   UNL     1       5.878 -23.120  38.573  1.00  0.00     0.007 C 
ATOM     55  C   UNL     1       4.969 -25.062  37.186  1.00  0.00     0.011 C 
ATOM     56  C   UNL     1       3.556 -23.985  38.944  1.00  0.00     0.011 C 
BRANCH  29  57
ATOM     57  C   UNL     1      10.811 -33.674  40.832  1.00  0.00     0.165 C 
BRANCH  57  58
ATOM     58  O   UNL     1      11.023 -35.006  41.218  1.00  0.00    -0.396 OA
ATOM     59  H   UNL     1      11.993 -35.181  41.088  1.00  0.00     0.210 HD
ENDBRANCH  57  58
ENDBRANCH  29  57
BRANCH  48  60
ATOM     60  O   UNL     1       9.556 -24.771  37.418  1.00  0.00    -0.392 OA
ATOM     61  H   UNL     1       8.725 -24.337  37.088  1.00  0.00     0.210 HD
ENDBRANCH  48  60
ENDBRANCH  26  27
ENDBRANCH   6  26
BRANCH   5  62
ATOM     62  O   UNL     1       7.517 -37.278  42.048  1.00  0.00    -0.385 OA
ATOM     63  H   UNL     1       6.855 -37.875  42.486  1.00  0.00     0.211 HD
ENDBRANCH   5  62
TORSDOF 14
ENDMDL
MODEL 7
REMARK VINA RESULT:    -8.582      6.715     11.066
REMARK INTER + INTRA:         -14.655
REMARK INTER:                 -12.783
REMARK INTRA:                  -1.873
REMARK UNBOUND:                -1.056
REMARK SMILES C[C@H]1O[C@H](O[C@H]2CC[C@@]3(C)[C@H](CC[C@@]4(C)[C@H]3C=C[C@]35OC[C@@]6(CCC(C)(C)C[C@@H]63)[C@H](O)C[C@]45C)[C@]2(C)CO)[C@@H](O)[C@@H](O[C@@H]2O[C@@H](CO)[C@@H](O)[C@H](O)[C@@H]2O)[C@@H]1O
REMARK SMILES IDX 1 1 2 2 54 3 41 4 39 5 4 6 3 7 55 8 42 10 43 11 52 12 44 13
REMARK SMILES IDX 50 14 45 15 48 16 53 17 51 19 46 21 47 22 49 24 5 26 6 27
REMARK SMILES IDX 7 28 35 29 8 30 11 31 36 32 9 33 12 34 10 35 16 36 13 37
REMARK SMILES IDX 14 38 17 39 15 40 33 41 18 42 19 43 32 44 34 45 29 46 20 47
REMARK SMILES IDX 30 48 22 49 28 50 21 51 23 52 25 53 24 54 26 55 27 56 37 57
REMARK SMILES IDX 38 58 31 60 40 62
REMARK H PARENT 55 9 53 18 51 20 47 23 49 25 38 59 31 61 40 63
REMARK Flexibility Score: inf
ROOT
ATOM      1  C   UNL     1       4.335 -23.699  39.045  1.00  0.00     0.041 C 
ATOM      2  C   UNL     1       4.356 -23.909  37.520  1.00  0.00     0.150 C 
ATOM      3  C   UNL     1       3.083 -24.596  36.951  1.00  0.00     0.175 C 
ATOM      4  C   UNL     1       3.124 -26.129  37.118  1.00  0.00     0.186 C 
ATOM      5  C   UNL     1       4.504 -26.670  36.689  1.00  0.00     0.202 C 
ATOM      6  C   UNL     1       5.629 -25.900  37.399  1.00  0.00     0.282 C 
ATOM      7  O   UNL     1       5.556 -24.524  37.064  1.00  0.00    -0.344 OA
ENDROOT
BRANCH   3   8
ATOM      8  O   UNL     1       2.909 -24.251  35.599  1.00  0.00    -0.388 OA
ATOM      9  H   UNL     1       3.605 -24.719  35.071  1.00  0.00     0.211 HD
ENDBRANCH   3   8
BRANCH   4  10
ATOM     10  O   UNL     1       2.877 -26.453  38.481  1.00  0.00    -0.341 OA
BRANCH  10  11
ATOM     11  C   UNL     1       1.496 -26.621  38.742  1.00  0.00     0.282 C 
ATOM     12  C   UNL     1       1.181 -28.093  39.054  1.00  0.00     0.202 C 
ATOM     13  O   UNL     1       1.059 -25.740  39.765  1.00  0.00    -0.341 OA
ATOM     14  C   UNL     1       1.733 -28.537  40.439  1.00  0.00     0.179 C 
ATOM     15  C   UNL     1       1.459 -26.077  41.094  1.00  0.00     0.178 C 
ATOM     16  C   UNL     1       2.335 -27.354  41.235  1.00  0.00     0.177 C 
BRANCH  12  17
ATOM     17  O   UNL     1       1.680 -28.899  38.015  1.00  0.00    -0.385 OA
ATOM     18  H   UNL     1       1.732 -28.325  37.207  1.00  0.00     0.211 HD
ENDBRANCH  12  17
BRANCH  14  19
ATOM     19  O   UNL     1       2.670 -29.582  40.315  1.00  0.00    -0.387 OA
ATOM     20  H   UNL     1       2.895 -29.885  41.238  1.00  0.00     0.211 HD
ENDBRANCH  14  19
BRANCH  15  21
ATOM     21  C   UNL     1       0.189 -26.139  41.962  1.00  0.00     0.191 C 
BRANCH  21  22
ATOM     22  O   UNL     1      -0.909 -25.635  41.247  1.00  0.00    -0.394 OA
ATOM     23  H   UNL     1      -1.551 -25.292  41.917  1.00  0.00     0.210 HD
ENDBRANCH  21  22
ENDBRANCH  15  21
BRANCH  16  24
ATOM     24  O   UNL     1       2.483 -27.688  42.593  1.00  0.00    -0.387 OA
ATOM     25  H   UNL     1       2.485 -28.683  42.663  1.00  0.00     0.211 HD
ENDBRANCH  16  24
ENDBRANCH  10  11
ENDBRANCH   4  10
BRANCH   6  26
ATOM     26  O   UNL     1       6.852 -26.457  36.955  1.00  0.00    -0.346 OA
BRANCH  26  27
ATOM     27  C   UNL     1       7.513 -27.367  37.833  1.00  0.00     0.130 C 
ATOM     28  C   UNL     1       7.891 -28.719  37.208  1.00  0.00     0.033 C 
ATOM     29  C   UNL     1       8.623 -26.771  38.770  1.00  0.00     0.020 C 
ATOM     30  C   UNL     1       8.123 -29.771  38.297  1.00  0.00     0.010 C 
ATOM     31  C   UNL     1       8.932 -27.856  39.916  1.00  0.00     0.006 C 
ATOM     32  C   UNL     1       9.942 -26.400  38.015  1.00  0.00     0.017 C 
ATOM     33  C   UNL     1       9.161 -29.359  39.396  1.00  0.00    -0.022 C 
ATOM     34  C   UNL     1       7.894 -27.788  41.077  1.00  0.00     0.005 C 
ATOM     35  C   UNL     1      10.575 -29.453  38.730  1.00  0.00     0.012 C 
ATOM     36  C   UNL     1       9.203 -30.401  40.612  1.00  0.00     0.024 C 
ATOM     37  C   UNL     1       8.238 -28.723  42.235  1.00  0.00     0.008 C 
ATOM     38  C   UNL     1       8.239 -30.220  41.836  1.00  0.00    -0.017 C 
ATOM     39  C   UNL     1       9.209 -31.858  40.199  1.00  0.00    -0.024 C 
ATOM     40  C   UNL     1       6.771 -30.613  41.435  1.00  0.00     0.013 C 
ATOM     41  C   UNL     1       8.781 -31.164  43.046  1.00  0.00     0.009 C 
ATOM     42  C   UNL     1       9.036 -32.865  41.073  1.00  0.00     0.005 C 
ATOM     43  C   UNL     1       8.827 -32.704  42.582  1.00  0.00     0.096 C 
ATOM     44  C   UNL     1       7.891 -30.993  44.335  1.00  0.00     0.043 C 
ATOM     45  C   UNL     1      10.228 -30.757  43.520  1.00  0.00     0.015 C 
ATOM     46  C   UNL     1       7.573 -33.465  43.112  1.00  0.00     0.037 C 
ATOM     47  O   UNL     1       9.933 -33.349  43.193  1.00  0.00    -0.369 OA
ATOM     48  C   UNL     1       7.915 -32.203  45.311  1.00  0.00     0.124 C 
ATOM     49  C   UNL     1       7.997 -33.606  44.576  1.00  0.00     0.026 C 
ATOM     50  C   UNL     1       7.334 -34.833  42.404  1.00  0.00     0.014 C 
ATOM     51  C   UNL     1       9.479 -33.968  44.377  1.00  0.00     0.171 C 
ATOM     52  C   UNL     1       7.229 -34.711  45.367  1.00  0.00     0.013 C 
ATOM     53  C   UNL     1       6.420 -35.799  43.194  1.00  0.00    -0.035 C 
ATOM     54  C   UNL     1       7.020 -36.022  44.600  1.00  0.00     0.007 C 
ATOM     55  C   UNL     1       4.974 -35.255  43.278  1.00  0.00     0.011 C 
ATOM     56  C   UNL     1       6.376 -37.156  42.461  1.00  0.00     0.011 C 
BRANCH  29  57
ATOM     57  C   UNL     1       8.082 -25.428  39.358  1.00  0.00     0.165 C 
BRANCH  57  58
ATOM     58  O   UNL     1       8.361 -24.359  38.493  1.00  0.00    -0.396 OA
ATOM     59  H   UNL     1       7.657 -23.677  38.661  1.00  0.00     0.210 HD
ENDBRANCH  57  58
ENDBRANCH  29  57
BRANCH  48  60
ATOM     60  O   UNL     1       6.773 -32.127  46.134  1.00  0.00    -0.392 OA
ATOM     61  H   UNL     1       7.034 -32.466  47.030  1.00  0.00     0.210 HD
ENDBRANCH  48  60
ENDBRANCH  26  27
ENDBRANCH   6  26
BRANCH   5  62
ATOM     62  O   UNL     1       4.597 -28.041  36.994  1.00  0.00    -0.385 OA
ATOM     63  H   UNL     1       4.937 -28.115  37.924  1.00  0.00     0.211 HD
ENDBRANCH   5  62
TORSDOF 14
ENDMDL
MODEL 8
REMARK VINA RESULT:    -8.480      7.030     10.432
REMARK INTER + INTRA:         -14.493
REMARK INTER:                 -12.346
REMARK INTRA:                  -2.147
REMARK UNBOUND:                -1.056
REMARK SMILES C[C@H]1O[C@H](O[C@H]2CC[C@@]3(C)[C@H](CC[C@@]4(C)[C@H]3C=C[C@]35OC[C@@]6(CCC(C)(C)C[C@@H]63)[C@H](O)C[C@]45C)[C@]2(C)CO)[C@@H](O)[C@@H](O[C@@H]2O[C@@H](CO)[C@@H](O)[C@H](O)[C@@H]2O)[C@@H]1O
REMARK SMILES IDX 1 1 2 2 54 3 41 4 39 5 4 6 3 7 55 8 42 10 43 11 52 12 44 13
REMARK SMILES IDX 50 14 45 15 48 16 53 17 51 19 46 21 47 22 49 24 5 26 6 27
REMARK SMILES IDX 7 28 35 29 8 30 11 31 36 32 9 33 12 34 10 35 16 36 13 37
REMARK SMILES IDX 14 38 17 39 15 40 33 41 18 42 19 43 32 44 34 45 29 46 20 47
REMARK SMILES IDX 30 48 22 49 28 50 21 51 23 52 25 53 24 54 26 55 27 56 37 57
REMARK SMILES IDX 38 58 31 60 40 62
REMARK H PARENT 55 9 53 18 51 20 47 23 49 25 38 59 31 61 40 63
REMARK Flexibility Score: inf
ROOT
ATOM      1  C   UNL     1       5.094 -33.260  40.410  1.00  0.00     0.041 C 
ATOM      2  C   UNL     1       6.159 -33.920  39.516  1.00  0.00     0.150 C 
ATOM      3  C   UNL     1       6.486 -35.391  39.890  1.00  0.00     0.175 C 
ATOM      4  C   UNL     1       7.480 -35.487  41.067  1.00  0.00     0.186 C 
ATOM      5  C   UNL     1       8.651 -34.507  40.850  1.00  0.00     0.202 C 
ATOM      6  C   UNL     1       8.124 -33.096  40.545  1.00  0.00     0.282 C 
ATOM      7  O   UNL     1       7.329 -33.122  39.371  1.00  0.00    -0.344 OA
ENDROOT
BRANCH   3   8
ATOM      8  O   UNL     1       6.984 -36.079  38.768  1.00  0.00    -0.388 OA
ATOM      9  H   UNL     1       6.504 -35.746  37.967  1.00  0.00     0.211 HD
ENDBRANCH   3   8
BRANCH   4  10
ATOM     10  O   UNL     1       6.798 -35.170  42.274  1.00  0.00    -0.341 OA
BRANCH  10  11
ATOM     11  C   UNL     1       6.527 -36.324  43.047  1.00  0.00     0.282 C 
ATOM     12  C   UNL     1       6.968 -36.113  44.505  1.00  0.00     0.202 C 
ATOM     13  O   UNL     1       5.164 -36.702  42.938  1.00  0.00    -0.341 OA
ATOM     14  C   UNL     1       6.054 -35.109  45.263  1.00  0.00     0.179 C 
ATOM     15  C   UNL     1       4.229 -35.882  43.641  1.00  0.00     0.178 C 
ATOM     16  C   UNL     1       4.833 -34.676  44.415  1.00  0.00     0.177 C 
BRANCH  12  17
ATOM     17  O   UNL     1       8.313 -35.703  44.522  1.00  0.00    -0.385 OA
ATOM     18  H   UNL     1       8.432 -35.078  43.760  1.00  0.00     0.211 HD
ENDBRANCH  12  17
BRANCH  14  19
ATOM     19  O   UNL     1       6.774 -33.983  45.708  1.00  0.00    -0.387 OA
ATOM     20  H   UNL     1       6.112 -33.254  45.862  1.00  0.00     0.211 HD
ENDBRANCH  14  19
BRANCH  15  21
ATOM     21  C   UNL     1       3.393 -36.803  44.550  1.00  0.00     0.191 C 
BRANCH  21  22
ATOM     22  O   UNL     1       2.067 -36.345  44.611  1.00  0.00    -0.394 OA
ATOM     23  H   UNL     1       1.970 -35.867  45.472  1.00  0.00     0.210 HD
ENDBRANCH  21  22
ENDBRANCH  15  21
BRANCH  16  24
ATOM     24  O   UNL     1       3.847 -34.082  45.223  1.00  0.00    -0.387 OA
ATOM     25  H   UNL     1       3.014 -34.009  44.681  1.00  0.00     0.211 HD
ENDBRANCH  16  24
ENDBRANCH  10  11
ENDBRANCH   4  10
BRANCH   6  26
ATOM     26  O   UNL     1       9.255 -32.264  40.363  1.00  0.00    -0.346 OA
BRANCH  26  27
ATOM     27  C   UNL     1       9.022 -30.862  40.236  1.00  0.00     0.130 C 
ATOM     28  C   UNL     1       8.764 -30.120  41.558  1.00  0.00     0.033 C 
ATOM     29  C   UNL     1       9.943 -30.075  39.238  1.00  0.00     0.020 C 
ATOM     30  C   UNL     1       8.055 -28.788  41.299  1.00  0.00     0.010 C 
ATOM     31  C   UNL     1       9.260 -28.647  38.960  1.00  0.00     0.006 C 
ATOM     32  C   UNL     1      11.404 -29.877  39.765  1.00  0.00     0.017 C 
ATOM     33  C   UNL     1       8.774 -27.852  40.268  1.00  0.00    -0.022 C 
ATOM     34  C   UNL     1       8.142 -28.737  37.878  1.00  0.00     0.005 C 
ATOM     35  C   UNL     1      10.029 -27.265  40.999  1.00  0.00     0.012 C 
ATOM     36  C   UNL     1       7.883 -26.577  39.883  1.00  0.00     0.024 C 
ATOM     37  C   UNL     1       7.564 -27.373  37.507  1.00  0.00     0.008 C 
ATOM     38  C   UNL     1       6.866 -26.659  38.692  1.00  0.00    -0.017 C 
ATOM     39  C   UNL     1       7.215 -25.891  41.056  1.00  0.00    -0.024 C 
ATOM     40  C   UNL     1       5.616 -27.518  39.104  1.00  0.00     0.013 C 
ATOM     41  C   UNL     1       6.424 -25.142  38.303  1.00  0.00     0.009 C 
ATOM     42  C   UNL     1       6.275 -24.942  40.909  1.00  0.00     0.005 C 
ATOM     43  C   UNL     1       5.756 -24.408  39.569  1.00  0.00     0.096 C 
ATOM     44  C   UNL     1       5.439 -25.141  37.072  1.00  0.00     0.043 C 
ATOM     45  C   UNL     1       7.643 -24.268  37.823  1.00  0.00     0.015 C 
ATOM     46  C   UNL     1       4.202 -24.442  39.456  1.00  0.00     0.037 C 
ATOM     47  O   UNL     1       6.096 -23.030  39.550  1.00  0.00    -0.369 OA
ATOM     48  C   UNL     1       4.514 -23.896  36.976  1.00  0.00     0.124 C 
ATOM     49  C   UNL     1       4.030 -23.359  38.388  1.00  0.00     0.026 C 
ATOM     50  C   UNL     1       3.476 -24.110  40.795  1.00  0.00     0.014 C 
ATOM     51  C   UNL     1       5.055 -22.333  38.899  1.00  0.00     0.171 C 
ATOM     52  C   UNL     1       2.592 -22.755  38.307  1.00  0.00     0.013 C 
ATOM     53  C   UNL     1       2.000 -23.679  40.620  1.00  0.00    -0.035 C 
ATOM     54  C   UNL     1       1.938 -22.468  39.664  1.00  0.00     0.007 C 
ATOM     55  C   UNL     1       1.135 -24.853  40.101  1.00  0.00     0.011 C 
ATOM     56  C   UNL     1       1.441 -23.247  41.993  1.00  0.00     0.011 C 
BRANCH  29  57
ATOM     57  C   UNL     1      10.078 -30.930  37.937  1.00  0.00     0.165 C 
BRANCH  57  58
ATOM     58  O   UNL     1      10.855 -32.075  38.172  1.00  0.00    -0.396 OA
ATOM     59  H   UNL     1      11.279 -31.942  39.062  1.00  0.00     0.210 HD
ENDBRANCH  57  58
ENDBRANCH  29  57
BRANCH  48  60
ATOM     60  O   UNL     1       3.417 -24.225  36.155  1.00  0.00    -0.392 OA
ATOM     61  H   UNL     1       3.064 -25.097  36.474  1.00  0.00     0.210 HD
ENDBRANCH  48  60
ENDBRANCH  26  27
ENDBRANCH   6  26
BRANCH   5  62
ATOM     62  O   UNL     1       9.469 -34.474  41.994  1.00  0.00    -0.385 OA
ATOM     63  H   UNL     1      10.269 -33.929  41.772  1.00  0.00     0.211 HD
ENDBRANCH   5  62
TORSDOF 14
ENDMDL
MODEL 9
REMARK VINA RESULT:    -8.460      5.448     10.322
REMARK INTER + INTRA:         -14.461
REMARK INTER:                 -12.052
REMARK INTRA:                  -2.409
REMARK UNBOUND:                -1.056
REMARK SMILES C[C@H]1O[C@H](O[C@H]2CC[C@@]3(C)[C@H](CC[C@@]4(C)[C@H]3C=C[C@]35OC[C@@]6(CCC(C)(C)C[C@@H]63)[C@H](O)C[C@]45C)[C@]2(C)CO)[C@@H](O)[C@@H](O[C@@H]2O[C@@H](CO)[C@@H](O)[C@H](O)[C@@H]2O)[C@@H]1O
REMARK SMILES IDX 1 1 2 2 54 3 41 4 39 5 4 6 3 7 55 8 42 10 43 11 52 12 44 13
REMARK SMILES IDX 50 14 45 15 48 16 53 17 51 19 46 21 47 22 49 24 5 26 6 27
REMARK SMILES IDX 7 28 35 29 8 30 11 31 36 32 9 33 12 34 10 35 16 36 13 37
REMARK SMILES IDX 14 38 17 39 15 40 33 41 18 42 19 43 32 44 34 45 29 46 20 47
REMARK SMILES IDX 30 48 22 49 28 50 21 51 23 52 25 53 24 54 26 55 27 56 37 57
REMARK SMILES IDX 38 58 31 60 40 62
REMARK H PARENT 55 9 53 18 51 20 47 23 49 25 38 59 31 61 40 63
REMARK Flexibility Score: inf
ROOT
ATOM      1  C   UNL     1       7.071 -26.837  41.878  1.00  0.00     0.041 C 
ATOM      2  C   UNL     1       8.562 -26.844  42.264  1.00  0.00     0.150 C 
ATOM      3  C   UNL     1       9.416 -25.772  41.534  1.00  0.00     0.175 C 
ATOM      4  C   UNL     1       9.827 -26.218  40.115  1.00  0.00     0.186 C 
ATOM      5  C   UNL     1      10.345 -27.671  40.149  1.00  0.00     0.202 C 
ATOM      6  C   UNL     1       9.337 -28.586  40.862  1.00  0.00     0.282 C 
ATOM      7  O   UNL     1       9.143 -28.142  42.195  1.00  0.00    -0.344 OA
ENDROOT
BRANCH   3   8
ATOM      8  O   UNL     1      10.553 -25.454  42.300  1.00  0.00    -0.388 OA
ATOM      9  H   UNL     1      11.004 -24.681  41.873  1.00  0.00     0.211 HD
ENDBRANCH   3   8
BRANCH   4  10
ATOM     10  O   UNL     1       8.697 -26.124  39.256  1.00  0.00    -0.341 OA
BRANCH  10  11
ATOM     11  C   UNL     1       8.612 -24.857  38.632  1.00  0.00     0.282 C 
ATOM     12  C   UNL     1       8.888 -24.979  37.124  1.00  0.00     0.202 C 
ATOM     13  O   UNL     1       7.369 -24.233  38.911  1.00  0.00    -0.341 OA
ATOM     14  C   UNL     1       7.731 -25.689  36.364  1.00  0.00     0.179 C 
ATOM     15  C   UNL     1       6.235 -24.765  38.225  1.00  0.00     0.178 C 
ATOM     16  C   UNL     1       6.515 -25.968  37.280  1.00  0.00     0.177 C 
BRANCH  12  17
ATOM     17  O   UNL     1      10.115 -25.641  36.934  1.00  0.00    -0.385 OA
ATOM     18  H   UNL     1      10.066 -26.488  37.452  1.00  0.00     0.211 HD
ENDBRANCH  12  17
BRANCH  14  19
ATOM     19  O   UNL     1       8.168 -26.875  35.741  1.00  0.00    -0.387 OA
ATOM     20  H   UNL     1       9.105 -26.720  35.441  1.00  0.00     0.211 HD
ENDBRANCH  14  19
BRANCH  15  21
ATOM     21  C   UNL     1       5.540 -23.599  37.498  1.00  0.00     0.191 C 
BRANCH  21  22
ATOM     22  O   UNL     1       4.176 -23.884  37.321  1.00  0.00    -0.394 OA
ATOM     23  H   UNL     1       3.849 -24.250  38.181  1.00  0.00     0.210 HD
ENDBRANCH  21  22
ENDBRANCH  15  21
BRANCH  16  24
ATOM     24  O   UNL     1       5.370 -26.258  36.518  1.00  0.00    -0.387 OA
ATOM     25  H   UNL     1       5.433 -27.209  36.224  1.00  0.00     0.211 HD
ENDBRANCH  16  24
ENDBRANCH  10  11
ENDBRANCH   4  10
BRANCH   6  26
ATOM     26  O   UNL     1       9.884 -29.892  40.847  1.00  0.00    -0.346 OA
BRANCH  26  27
ATOM     27  C   UNL     1       9.038 -30.951  40.401  1.00  0.00     0.130 C 
ATOM     28  C   UNL     1       7.552 -30.583  40.259  1.00  0.00     0.033 C 
ATOM     29  C   UNL     1       9.581 -31.853  39.238  1.00  0.00     0.020 C 
ATOM     30  C   UNL     1       6.681 -31.843  40.269  1.00  0.00     0.010 C 
ATOM     31  C   UNL     1       8.674 -33.179  39.180  1.00  0.00     0.006 C 
ATOM     32  C   UNL     1       9.576 -31.141  37.844  1.00  0.00     0.017 C 
ATOM     33  C   UNL     1       7.088 -32.929  39.216  1.00  0.00    -0.022 C 
ATOM     34  C   UNL     1       9.125 -34.238  40.232  1.00  0.00     0.005 C 
ATOM     35  C   UNL     1       6.630 -32.388  37.819  1.00  0.00     0.012 C 
ATOM     36  C   UNL     1       6.282 -34.300  39.416  1.00  0.00     0.024 C 
ATOM     37  C   UNL     1       8.360 -35.555  40.114  1.00  0.00     0.008 C 
ATOM     38  C   UNL     1       6.840 -35.407  40.376  1.00  0.00    -0.017 C 
ATOM     39  C   UNL     1       4.798 -34.132  39.665  1.00  0.00    -0.024 C 
ATOM     40  C   UNL     1       6.650 -34.974  41.874  1.00  0.00     0.013 C 
ATOM     41  C   UNL     1       6.040 -36.791  40.066  1.00  0.00     0.009 C 
ATOM     42  C   UNL     1       4.004 -35.145  40.057  1.00  0.00     0.005 C 
ATOM     43  C   UNL     1       4.460 -36.589  40.291  1.00  0.00     0.096 C 
ATOM     44  C   UNL     1       6.586 -37.968  40.959  1.00  0.00     0.043 C 
ATOM     45  C   UNL     1       6.260 -37.291  38.589  1.00  0.00     0.015 C 
ATOM     46  C   UNL     1       4.036 -37.147  41.684  1.00  0.00     0.037 C 
ATOM     47  O   UNL     1       3.744 -37.373  39.348  1.00  0.00    -0.369 OA
ATOM     48  C   UNL     1       5.580 -39.129  41.198  1.00  0.00     0.124 C 
ATOM     49  C   UNL     1       4.078 -38.640  41.350  1.00  0.00     0.026 C 
ATOM     50  C   UNL     1       2.630 -36.657  42.146  1.00  0.00     0.014 C 
ATOM     51  C   UNL     1       3.431 -38.608  39.955  1.00  0.00     0.171 C 
ATOM     52  C   UNL     1       3.281 -39.546  42.341  1.00  0.00     0.013 C 
ATOM     53  C   UNL     1       1.994 -37.530  43.254  1.00  0.00    -0.035 C 
ATOM     54  C   UNL     1       1.915 -38.991  42.761  1.00  0.00     0.007 C 
ATOM     55  C   UNL     1       2.791 -37.422  44.575  1.00  0.00     0.011 C 
ATOM     56  C   UNL     1       0.559 -37.026  43.522  1.00  0.00     0.011 C 
BRANCH  29  57
ATOM     57  C   UNL     1      11.080 -32.174  39.541  1.00  0.00     0.165 C 
BRANCH  57  58
ATOM     58  O   UNL     1      11.875 -31.029  39.384  1.00  0.00    -0.396 OA
ATOM     59  H   UNL     1      12.412 -30.949  40.218  1.00  0.00     0.210 HD
ENDBRANCH  57  58
ENDBRANCH  29  57
BRANCH  48  60
ATOM     60  O   UNL     1       5.999 -39.846  42.337  1.00  0.00    -0.392 OA
ATOM     61  H   UNL     1       5.562 -39.426  43.125  1.00  0.00     0.210 HD
ENDBRANCH  48  60
ENDBRANCH  26  27
ENDBRANCH   6  26
BRANCH   5  62
ATOM     62  O   UNL     1      10.564 -28.132  38.838  1.00  0.00    -0.385 OA
ATOM     63  H   UNL     1      11.190 -28.902  38.895  1.00  0.00     0.211 HD
ENDBRANCH   5  62
TORSDOF 14
ENDMDL
