MODEL 1
REMARK VINA RESULT:    -6.469      0.000      0.000
REMARK INTER + INTRA:          -7.020
REMARK INTER:                  -7.036
REMARK INTRA:                   0.017
REMARK UNBOUND:                 0.017
REMARK SMILES C=C1C[C@]2(O)O[C@@]3(C[C@H]2C(C)C)[C@@H]1CC[C@@H]3C
REMARK SMILES IDX 17 1 16 2 15 3 14 4 13 5 7 6 8 7 9 8 4 9 6 10 3 11 2 12 1 13
REMARK SMILES IDX 10 14 11 15 12 16 5 17
REMARK H PARENT 5 18
REMARK Flexibility Score: inf
ROOT
ATOM      1  C   UNL     1      23.905 -54.772   0.623  1.00  0.00     0.011 C 
ATOM      2  C   UNL     1      22.371 -54.776   0.466  1.00  0.00     0.019 C 
ATOM      3  C   UNL     1      21.886 -56.151  -0.006  1.00  0.00     0.007 C 
ATOM      4  C   UNL     1      21.511 -56.944   1.248  1.00  0.00     0.011 C 
ATOM      5  C   UNL     1      21.534 -55.964   2.431  1.00  0.00     0.047 C 
ATOM      6  C   UNL     1      21.616 -54.557   1.789  1.00  0.00     0.081 C 
ATOM      7  C   UNL     1      22.206 -53.497   2.713  1.00  0.00     0.046 C 
ATOM      8  C   UNL     1      21.018 -53.119   3.591  1.00  0.00     0.054 C 
ATOM      9  C   UNL     1      19.815 -53.714   2.780  1.00  0.00     0.173 C 
ATOM     10  O   UNL     1      20.315 -54.098   1.519  1.00  0.00    -0.342 OA
ATOM     11  C   UNL     1      19.291 -55.009   3.457  1.00  0.00     0.096 C 
ATOM     12  C   UNL     1      20.315 -56.123   3.339  1.00  0.00    -0.066 C 
ATOM     13  C   UNL     1      20.145 -57.253   4.040  1.00  0.00     0.008 C 
ENDROOT
BRANCH   8  14
ATOM     14  C   UNL     1      20.944 -51.593   3.929  1.00  0.00    -0.009 C 
ATOM     15  C   UNL     1      21.089 -50.716   2.669  1.00  0.00     0.008 C 
ATOM     16  C   UNL     1      22.061 -51.192   4.912  1.00  0.00     0.008 C 
ENDBRANCH   8  14
BRANCH   9  17
ATOM     17  O   UNL     1      18.791 -52.768   2.568  1.00  0.00    -0.365 OA
ATOM     18  H   UNL     1      18.827 -52.074   3.275  1.00  0.00     0.214 HD
ENDBRANCH   9  17
TORSDOF 2
ENDMDL
MODEL 2
REMARK VINA RESULT:    -6.129      5.220      7.637
REMARK INTER + INTRA:          -6.650
REMARK INTER:                  -6.504
REMARK INTRA:                  -0.146
REMARK UNBOUND:                 0.017
REMARK SMILES C=C1C[C@]2(O)O[C@@]3(C[C@H]2C(C)C)[C@@H]1CC[C@@H]3C
REMARK SMILES IDX 17 1 16 2 15 3 14 4 13 5 7 6 8 7 9 8 4 9 6 10 3 11 2 12 1 13
REMARK SMILES IDX 10 14 11 15 12 16 5 17
REMARK H PARENT 5 18
REMARK Flexibility Score: inf
ROOT
ATOM      1  C   UNL     1      16.260 -57.367   4.414  1.00  0.00     0.011 C 
ATOM      2  C   UNL     1      17.344 -57.556   5.494  1.00  0.00     0.019 C 
ATOM      3  C   UNL     1      16.702 -57.662   6.881  1.00  0.00     0.007 C 
ATOM      4  C   UNL     1      16.508 -59.153   7.169  1.00  0.00     0.011 C 
ATOM      5  C   UNL     1      17.259 -59.928   6.074  1.00  0.00     0.047 C 
ATOM      6  C   UNL     1      18.131 -58.870   5.354  1.00  0.00     0.081 C 
ATOM      7  C   UNL     1      18.511 -59.258   3.930  1.00  0.00     0.046 C 
ATOM      8  C   UNL     1      19.687 -60.206   4.143  1.00  0.00     0.054 C 
ATOM      9  C   UNL     1      20.076 -59.906   5.632  1.00  0.00     0.173 C 
ATOM     10  O   UNL     1      19.361 -58.757   6.024  1.00  0.00    -0.342 OA
ATOM     11  C   UNL     1      19.601 -61.057   6.560  1.00  0.00     0.096 C 
ATOM     12  C   UNL     1      18.085 -61.080   6.642  1.00  0.00    -0.066 C 
ATOM     13  C   UNL     1      17.472 -62.124   7.220  1.00  0.00     0.008 C 
ENDROOT
BRANCH   8  14
ATOM     14  C   UNL     1      20.824 -60.048   3.080  1.00  0.00    -0.009 C 
ATOM     15  C   UNL     1      21.043 -58.574   2.684  1.00  0.00     0.008 C 
ATOM     16  C   UNL     1      20.492 -60.836   1.798  1.00  0.00     0.008 C 
ENDBRANCH   8  14
BRANCH   9  17
ATOM     17  O   UNL     1      21.452 -59.631   5.782  1.00  0.00    -0.365 OA
ATOM     18  H   UNL     1      21.601 -58.651   5.746  1.00  0.00     0.214 HD
ENDBRANCH   9  17
TORSDOF 2
ENDMDL
MODEL 3
REMARK VINA RESULT:    -5.828      2.540      6.324
REMARK INTER + INTRA:          -6.322
REMARK INTER:                  -6.096
REMARK INTRA:                  -0.225
REMARK UNBOUND:                 0.017
REMARK SMILES C=C1C[C@]2(O)O[C@@]3(C[C@H]2C(C)C)[C@@H]1CC[C@@H]3C
REMARK SMILES IDX 17 1 16 2 15 3 14 4 13 5 7 6 8 7 9 8 4 9 6 10 3 11 2 12 1 13
REMARK SMILES IDX 10 14 11 15 12 16 5 17
REMARK H PARENT 5 18
REMARK Flexibility Score: inf
ROOT
ATOM      1  C   UNL     1      18.126 -50.469   5.546  1.00  0.00     0.011 C 
ATOM      2  C   UNL     1      18.816 -49.570   4.500  1.00  0.00     0.019 C 
ATOM      3  C   UNL     1      19.101 -48.186   5.091  1.00  0.00     0.007 C 
ATOM      4  C   UNL     1      20.529 -48.221   5.639  1.00  0.00     0.011 C 
ATOM      5  C   UNL     1      21.171 -49.529   5.152  1.00  0.00     0.047 C 
ATOM      6  C   UNL     1      20.204 -50.077   4.073  1.00  0.00     0.081 C 
ATOM      7  C   UNL     1      20.316 -51.582   3.860  1.00  0.00     0.046 C 
ATOM      8  C   UNL     1      21.534 -51.704   2.951  1.00  0.00     0.054 C 
ATOM      9  C   UNL     1      21.701 -50.231   2.438  1.00  0.00     0.173 C 
ATOM     10  O   UNL     1      20.545 -49.523   2.827  1.00  0.00    -0.342 OA
ATOM     11  C   UNL     1      22.897 -49.541   3.148  1.00  0.00     0.096 C 
ATOM     12  C   UNL     1      22.586 -49.317   4.616  1.00  0.00    -0.066 C 
ATOM     13  C   UNL     1      23.565 -48.930   5.447  1.00  0.00     0.008 C 
ENDROOT
BRANCH   8  14
ATOM     14  C   UNL     1      21.394 -52.811   1.855  1.00  0.00    -0.009 C 
ATOM     15  C   UNL     1      19.983 -53.433   1.839  1.00  0.00     0.008 C 
ATOM     16  C   UNL     1      22.407 -53.949   2.089  1.00  0.00     0.008 C 
ENDBRANCH   8  14
BRANCH   9  17
ATOM     17  O   UNL     1      21.798 -50.160   1.032  1.00  0.00    -0.365 OA
ATOM     18  H   UNL     1      22.745 -50.025   0.771  1.00  0.00     0.214 HD
ENDBRANCH   9  17
TORSDOF 2
ENDMDL
MODEL 4
REMARK VINA RESULT:    -5.796      1.706      4.598
REMARK INTER + INTRA:          -6.288
REMARK INTER:                  -6.098
REMARK INTRA:                  -0.189
REMARK UNBOUND:                 0.017
REMARK SMILES C=C1C[C@]2(O)O[C@@]3(C[C@H]2C(C)C)[C@@H]1CC[C@@H]3C
REMARK SMILES IDX 17 1 16 2 15 3 14 4 13 5 7 6 8 7 9 8 4 9 6 10 3 11 2 12 1 13
REMARK SMILES IDX 10 14 11 15 12 16 5 17
REMARK H PARENT 5 18
REMARK Flexibility Score: inf
ROOT
ATOM      1  C   UNL     1      22.144 -49.877   2.674  1.00  0.00     0.011 C 
ATOM      2  C   UNL     1      21.914 -51.007   3.697  1.00  0.00     0.019 C 
ATOM      3  C   UNL     1      21.093 -50.494   4.884  1.00  0.00     0.007 C 
ATOM      4  C   UNL     1      19.626 -50.810   4.580  1.00  0.00     0.011 C 
ATOM      5  C   UNL     1      19.605 -51.725   3.345  1.00  0.00     0.047 C 
ATOM      6  C   UNL     1      21.074 -52.173   3.148  1.00  0.00     0.081 C 
ATOM      7  C   UNL     1      21.397 -52.599   1.720  1.00  0.00     0.046 C 
ATOM      8  C   UNL     1      20.865 -54.027   1.668  1.00  0.00     0.054 C 
ATOM      9  C   UNL     1      20.685 -54.360   3.189  1.00  0.00     0.173 C 
ATOM     10  O   UNL     1      21.309 -53.327   3.917  1.00  0.00    -0.342 OA
ATOM     11  C   UNL     1      19.182 -54.325   3.579  1.00  0.00     0.096 C 
ATOM     12  C   UNL     1      18.650 -52.905   3.515  1.00  0.00    -0.066 C 
ATOM     13  C   UNL     1      17.329 -52.690   3.608  1.00  0.00     0.008 C 
ENDROOT
BRANCH   8  14
ATOM     14  C   UNL     1      21.765 -55.005   0.842  1.00  0.00    -0.009 C 
ATOM     15  C   UNL     1      23.260 -54.640   0.947  1.00  0.00     0.008 C 
ATOM     16  C   UNL     1      21.379 -54.983  -0.649  1.00  0.00     0.008 C 
ENDBRANCH   8  14
BRANCH   9  17
ATOM     17  O   UNL     1      21.303 -55.576   3.550  1.00  0.00    -0.365 OA
ATOM     18  H   UNL     1      22.194 -55.637   3.118  1.00  0.00     0.214 HD
ENDBRANCH   9  17
TORSDOF 2
ENDMDL
MODEL 5
REMARK VINA RESULT:    -5.756      2.884      6.589
REMARK INTER + INTRA:          -6.244
REMARK INTER:                  -6.024
REMARK INTRA:                  -0.221
REMARK UNBOUND:                 0.017
REMARK SMILES C=C1C[C@]2(O)O[C@@]3(C[C@H]2C(C)C)[C@@H]1CC[C@@H]3C
REMARK SMILES IDX 17 1 16 2 15 3 14 4 13 5 7 6 8 7 9 8 4 9 6 10 3 11 2 12 1 13
REMARK SMILES IDX 10 14 11 15 12 16 5 17
REMARK H PARENT 5 18
REMARK Flexibility Score: inf
ROOT
ATOM      1  C   UNL     1      20.924 -49.236   6.251  1.00  0.00     0.011 C 
ATOM      2  C   UNL     1      20.930 -48.704   4.804  1.00  0.00     0.019 C 
ATOM      3  C   UNL     1      21.506 -47.285   4.760  1.00  0.00     0.007 C 
ATOM      4  C   UNL     1      22.999 -47.419   4.454  1.00  0.00     0.011 C 
ATOM      5  C   UNL     1      23.254 -48.885   4.070  1.00  0.00     0.047 C 
ATOM      6  C   UNL     1      21.848 -49.499   3.859  1.00  0.00     0.081 C 
ATOM      7  C   UNL     1      21.811 -51.013   4.030  1.00  0.00     0.046 C 
ATOM      8  C   UNL     1      22.324 -51.516   2.685  1.00  0.00     0.054 C 
ATOM      9  C   UNL     1      22.194 -50.233   1.791  1.00  0.00     0.173 C 
ATOM     10  O   UNL     1      21.450 -49.289   2.528  1.00  0.00    -0.342 OA
ATOM     11  C   UNL     1      23.589 -49.599   1.545  1.00  0.00     0.096 C 
ATOM     12  C   UNL     1      24.141 -49.015   2.833  1.00  0.00    -0.066 C 
ATOM     13  C   UNL     1      25.420 -48.612   2.880  1.00  0.00     0.008 C 
ENDROOT
BRANCH   8  14
ATOM     14  C   UNL     1      21.594 -52.800   2.171  1.00  0.00    -0.009 C 
ATOM     15  C   UNL     1      20.154 -52.902   2.715  1.00  0.00     0.008 C 
ATOM     16  C   UNL     1      22.350 -54.073   2.600  1.00  0.00     0.008 C 
ENDBRANCH   8  14
BRANCH   9  17
ATOM     17  O   UNL     1      21.500 -50.486   0.589  1.00  0.00    -0.365 OA
ATOM     18  H   UNL     1      21.183 -49.629   0.202  1.00  0.00     0.214 HD
ENDBRANCH   9  17
TORSDOF 2
ENDMDL
MODEL 6
REMARK VINA RESULT:    -5.747      6.286      8.189
REMARK INTER + INTRA:          -6.235
REMARK INTER:                  -6.886
REMARK INTRA:                   0.651
REMARK UNBOUND:                 0.017
REMARK SMILES C=C1C[C@]2(O)O[C@@]3(C[C@H]2C(C)C)[C@@H]1CC[C@@H]3C
REMARK SMILES IDX 17 1 16 2 15 3 14 4 13 5 7 6 8 7 9 8 4 9 6 10 3 11 2 12 1 13
REMARK SMILES IDX 10 14 11 15 12 16 5 17
REMARK H PARENT 5 18
REMARK Flexibility Score: inf
ROOT
ATOM      1  C   UNL     1      19.414 -59.192   2.909  1.00  0.00     0.011 C 
ATOM      2  C   UNL     1      19.518 -60.421   3.835  1.00  0.00     0.019 C 
ATOM      3  C   UNL     1      20.984 -60.824   4.025  1.00  0.00     0.007 C 
ATOM      4  C   UNL     1      21.473 -60.133   5.300  1.00  0.00     0.011 C 
ATOM      5  C   UNL     1      20.241 -59.533   5.993  1.00  0.00     0.047 C 
ATOM      6  C   UNL     1      19.023 -60.156   5.267  1.00  0.00     0.081 C 
ATOM      7  C   UNL     1      17.752 -59.322   5.379  1.00  0.00     0.046 C 
ATOM      8  C   UNL     1      17.226 -59.695   6.760  1.00  0.00     0.054 C 
ATOM      9  C   UNL     1      18.044 -60.995   7.076  1.00  0.00     0.173 C 
ATOM     10  O   UNL     1      18.695 -61.375   5.885  1.00  0.00    -0.342 OA
ATOM     11  C   UNL     1      19.162 -60.694   8.111  1.00  0.00     0.096 C 
ATOM     12  C   UNL     1      20.230 -59.807   7.496  1.00  0.00    -0.066 C 
ATOM     13  C   UNL     1      21.168 -59.261   8.284  1.00  0.00     0.008 C 
ENDROOT
BRANCH   8  14
ATOM     14  C   UNL     1      15.668 -59.819   6.829  1.00  0.00    -0.009 C 
ATOM     15  C   UNL     1      15.173 -60.100   8.263  1.00  0.00     0.008 C 
ATOM     16  C   UNL     1      15.165 -60.961   5.926  1.00  0.00     0.008 C 
ENDBRANCH   8  14
BRANCH   9  17
ATOM     17  O   UNL     1      17.217 -62.065   7.477  1.00  0.00    -0.365 OA
ATOM     18  H   UNL     1      16.306 -61.726   7.674  1.00  0.00     0.214 HD
ENDBRANCH   9  17
TORSDOF 2
ENDMDL
MODEL 7
REMARK VINA RESULT:    -5.702      5.117      7.316
REMARK INTER + INTRA:          -6.185
REMARK INTER:                  -5.984
REMARK INTRA:                  -0.201
REMARK UNBOUND:                 0.017
REMARK SMILES C=C1C[C@]2(O)O[C@@]3(C[C@H]2C(C)C)[C@@H]1CC[C@@H]3C
REMARK SMILES IDX 17 1 16 2 15 3 14 4 13 5 7 6 8 7 9 8 4 9 6 10 3 11 2 12 1 13
REMARK SMILES IDX 10 14 11 15 12 16 5 17
REMARK H PARENT 5 18
REMARK Flexibility Score: inf
ROOT
ATOM      1  C   UNL     1      20.877 -59.167   6.903  1.00  0.00     0.011 C 
ATOM      2  C   UNL     1      19.805 -59.998   6.171  1.00  0.00     0.019 C 
ATOM      3  C   UNL     1      19.606 -61.347   6.869  1.00  0.00     0.007 C 
ATOM      4  C   UNL     1      18.445 -61.174   7.851  1.00  0.00     0.011 C 
ATOM      5  C   UNL     1      17.800 -59.811   7.555  1.00  0.00     0.047 C 
ATOM      6  C   UNL     1      18.405 -59.361   6.202  1.00  0.00     0.081 C 
ATOM      7  C   UNL     1      18.365 -57.853   5.986  1.00  0.00     0.046 C 
ATOM      8  C   UNL     1      16.933 -57.618   5.520  1.00  0.00     0.054 C 
ATOM      9  C   UNL     1      16.476 -59.069   5.140  1.00  0.00     0.173 C 
ATOM     10  O   UNL     1      17.626 -59.883   5.155  1.00  0.00    -0.342 OA
ATOM     11  C   UNL     1      15.521 -59.638   6.224  1.00  0.00     0.096 C 
ATOM     12  C   UNL     1      16.274 -59.888   7.518  1.00  0.00    -0.066 C 
ATOM     13  C   UNL     1      15.591 -60.177   8.635  1.00  0.00     0.008 C 
ENDROOT
BRANCH   8  14
ATOM     14  C   UNL     1      16.804 -56.532   4.401  1.00  0.00    -0.009 C 
ATOM     15  C   UNL     1      18.001 -55.558   4.401  1.00  0.00     0.008 C 
ATOM     16  C   UNL     1      15.521 -55.699   4.586  1.00  0.00     0.008 C 
ENDBRANCH   8  14
BRANCH   9  17
ATOM     17  O   UNL     1      15.917 -59.134   3.846  1.00  0.00    -0.365 OA
ATOM     18  H   UNL     1      16.642 -59.133   3.170  1.00  0.00     0.214 HD
ENDBRANCH   9  17
TORSDOF 2
ENDMDL
MODEL 8
REMARK VINA RESULT:    -5.484      2.701      5.040
REMARK INTER + INTRA:          -5.948
REMARK INTER:                  -5.737
REMARK INTRA:                  -0.211
REMARK UNBOUND:                 0.017
REMARK SMILES C=C1C[C@]2(O)O[C@@]3(C[C@H]2C(C)C)[C@@H]1CC[C@@H]3C
REMARK SMILES IDX 17 1 16 2 15 3 14 4 13 5 7 6 8 7 9 8 4 9 6 10 3 11 2 12 1 13
REMARK SMILES IDX 10 14 11 15 12 16 5 17
REMARK H PARENT 5 18
REMARK Flexibility Score: inf
ROOT
ATOM      1  C   UNL     1      19.328 -53.309   3.023  1.00  0.00     0.011 C 
ATOM      2  C   UNL     1      20.723 -53.194   3.668  1.00  0.00     0.019 C 
ATOM      3  C   UNL     1      21.789 -53.794   2.745  1.00  0.00     0.007 C 
ATOM      4  C   UNL     1      22.354 -52.642   1.910  1.00  0.00     0.011 C 
ATOM      5  C   UNL     1      21.809 -51.336   2.510  1.00  0.00     0.047 C 
ATOM      6  C   UNL     1      21.190 -51.743   3.870  1.00  0.00     0.081 C 
ATOM      7  C   UNL     1      20.125 -50.774   4.370  1.00  0.00     0.046 C 
ATOM      8  C   UNL     1      20.953 -49.652   4.986  1.00  0.00     0.054 C 
ATOM      9  C   UNL     1      22.362 -50.328   5.120  1.00  0.00     0.173 C 
ATOM     10  O   UNL     1      22.189 -51.702   4.859  1.00  0.00    -0.342 OA
ATOM     11  C   UNL     1      23.327 -49.791   4.028  1.00  0.00     0.096 C 
ATOM     12  C   UNL     1      22.892 -50.268   2.654  1.00  0.00    -0.066 C 
ATOM     13  C   UNL     1      23.465 -49.744   1.561  1.00  0.00     0.008 C 
ENDROOT
BRANCH   8  14
ATOM     14  C   UNL     1      20.337 -49.060   6.297  1.00  0.00    -0.009 C 
ATOM     15  C   UNL     1      18.852 -49.442   6.461  1.00  0.00     0.008 C 
ATOM     16  C   UNL     1      20.430 -47.522   6.304  1.00  0.00     0.008 C 
ENDBRANCH   8  14
BRANCH   9  17
ATOM     17  O   UNL     1      22.898 -50.199   6.418  1.00  0.00    -0.365 OA
ATOM     18  H   UNL     1      23.742 -49.680   6.380  1.00  0.00     0.214 HD
ENDBRANCH   9  17
TORSDOF 2
ENDMDL
