MODEL 1
REMARK VINA RESULT:    -3.446      0.000      0.000
REMARK INTER + INTRA:          -3.748
REMARK INTER:                  -3.748
REMARK INTRA:                   0.000
REMARK UNBOUND:                 0.000
REMARK SMILES [NH3+]CC(=O)[O-]
REMARK SMILES IDX 2 1 1 2 3 6 4 7 5 8
REMARK H PARENT 1 3 1 4 1 5
REMARK Flexibility Score: inf
ROOT
ATOM      1  C   UNL     1      30.691  51.010  -5.638  1.00  0.00     0.312 C 
ENDROOT
BRANCH   1   2
ATOM      2  N   UNL     1      31.227  50.709  -4.312  1.00  0.00    -0.353 N 
ATOM      3  H   UNL     1      31.331  49.676  -4.192  1.00  0.00     0.344 HD
ATOM      4  H   UNL     1      30.565  51.068  -3.586  1.00  0.00     0.344 HD
ATOM      5  H   UNL     1      32.154  51.176  -4.185  1.00  0.00     0.344 HD
ENDBRANCH   1   2
BRANCH   1   6
ATOM      6  C   UNL     1      30.280  49.751  -6.339  1.00  0.00     0.096 C 
ATOM      7  O   UNL     1      29.126  49.649  -6.831  1.00  0.00    -0.544 OA
ATOM      8  O   UNL     1      31.154  48.674  -6.402  1.00  0.00    -0.544 OA
ENDBRANCH   1   6
TORSDOF 2
ENDMDL
MODEL 2
REMARK VINA RESULT:    -3.182     11.894     12.101
REMARK INTER + INTRA:          -3.461
REMARK INTER:                  -3.461
REMARK INTRA:                   0.000
REMARK UNBOUND:                 0.000
REMARK SMILES [NH3+]CC(=O)[O-]
REMARK SMILES IDX 2 1 1 2 3 6 4 7 5 8
REMARK H PARENT 1 3 1 4 1 5
REMARK Flexibility Score: inf
ROOT
ATOM      1  C   UNL     1      23.381  43.572  -0.494  1.00  0.00     0.312 C 
ENDROOT
BRANCH   1   2
ATOM      2  N   UNL     1      23.347  43.761  -1.943  1.00  0.00    -0.353 N 
ATOM      3  H   UNL     1      24.320  43.799  -2.323  1.00  0.00     0.344 HD
ATOM      4  H   UNL     1      22.864  44.664  -2.159  1.00  0.00     0.344 HD
ATOM      5  H   UNL     1      22.821  42.979  -2.395  1.00  0.00     0.344 HD
ENDBRANCH   1   2
BRANCH   1   6
ATOM      6  C   UNL     1      22.268  42.671  -0.054  1.00  0.00     0.096 C 
ATOM      7  O   UNL     1      21.072  43.056  -0.134  1.00  0.00    -0.544 OA
ATOM      8  O   UNL     1      22.556  41.427   0.494  1.00  0.00    -0.544 OA
ENDBRANCH   1   6
TORSDOF 2
ENDMDL
MODEL 3
REMARK VINA RESULT:    -3.095      2.371      2.771
REMARK INTER + INTRA:          -3.367
REMARK INTER:                  -3.367
REMARK INTRA:                   0.000
REMARK UNBOUND:                 0.000
REMARK SMILES [NH3+]CC(=O)[O-]
REMARK SMILES IDX 2 1 1 2 3 6 4 7 5 8
REMARK H PARENT 1 3 1 4 1 5
REMARK Flexibility Score: inf
ROOT
ATOM      1  C   UNL     1      29.754  49.840  -7.602  1.00  0.00     0.312 C 
ENDROOT
BRANCH   1   2
ATOM      2  N   UNL     1      28.836  49.618  -6.487  1.00  0.00    -0.353 N 
ATOM      3  H   UNL     1      28.117  50.377  -6.456  1.00  0.00     0.344 HD
ATOM      4  H   UNL     1      29.377  49.628  -5.591  1.00  0.00     0.344 HD
ATOM      5  H   UNL     1      28.366  48.689  -6.589  1.00  0.00     0.344 HD
ENDBRANCH   1   2
BRANCH   1   6
ATOM      6  C   UNL     1      30.436  48.563  -7.987  1.00  0.00     0.096 C 
ATOM      7  O   UNL     1      31.171  47.964  -7.160  1.00  0.00    -0.544 OA
ATOM      8  O   UNL     1      30.300  48.064  -9.276  1.00  0.00    -0.544 OA
ENDBRANCH   1   6
TORSDOF 2
ENDMDL
MODEL 4
REMARK VINA RESULT:    -2.839     11.767     11.889
REMARK INTER + INTRA:          -3.088
REMARK INTER:                  -3.088
REMARK INTRA:                   0.000
REMARK UNBOUND:                 0.000
REMARK SMILES [NH3+]CC(=O)[O-]
REMARK SMILES IDX 2 1 1 2 3 6 4 7 5 8
REMARK H PARENT 1 3 1 4 1 5
REMARK Flexibility Score: inf
ROOT
ATOM      1  C   UNL     1      25.133  40.083  -6.663  1.00  0.00     0.312 C 
ENDROOT
BRANCH   1   2
ATOM      2  N   UNL     1      23.815  40.093  -7.296  1.00  0.00    -0.353 N 
ATOM      3  H   UNL     1      23.903  40.348  -8.306  1.00  0.00     0.344 HD
ATOM      4  H   UNL     1      23.212  40.803  -6.819  1.00  0.00     0.344 HD
ATOM      5  H   UNL     1      23.367  39.152  -7.206  1.00  0.00     0.344 HD
ENDBRANCH   1   2
BRANCH   1   6
ATOM      6  C   UNL     1      25.028  39.654  -5.232  1.00  0.00     0.096 C 
ATOM      7  O   UNL     1      23.951  39.813  -4.600  1.00  0.00    -0.544 OA
ATOM      8  O   UNL     1      26.137  39.126  -4.582  1.00  0.00    -0.544 OA
ENDBRANCH   1   6
TORSDOF 2
ENDMDL
MODEL 5
REMARK VINA RESULT:    -2.716     15.728     15.878
REMARK INTER + INTRA:          -2.954
REMARK INTER:                  -2.954
REMARK INTRA:                   0.000
REMARK UNBOUND:                 0.000
REMARK SMILES [NH3+]CC(=O)[O-]
REMARK SMILES IDX 2 1 1 2 3 6 4 7 5 8
REMARK H PARENT 1 3 1 4 1 5
REMARK Flexibility Score: inf
ROOT
ATOM      1  C   UNL     1      23.932  38.162   3.084  1.00  0.00     0.312 C 
ENDROOT
BRANCH   1   2
ATOM      2  N   UNL     1      25.085  38.095   3.980  1.00  0.00    -0.353 N 
ATOM      3  H   UNL     1      24.863  38.564   4.888  1.00  0.00     0.344 HD
ATOM      4  H   UNL     1      25.894  38.587   3.535  1.00  0.00     0.344 HD
ATOM      5  H   UNL     1      25.348  37.097   4.152  1.00  0.00     0.344 HD
ENDBRANCH   1   2
BRANCH   1   6
ATOM      6  C   UNL     1      23.266  39.500   3.181  1.00  0.00     0.096 C 
ATOM      7  O   UNL     1      22.509  39.899   2.257  1.00  0.00    -0.544 OA
ATOM      8  O   UNL     1      23.522  40.327   4.267  1.00  0.00    -0.544 OA
ENDBRANCH   1   6
TORSDOF 2
ENDMDL
MODEL 6
REMARK VINA RESULT:    -2.709      2.166      2.490
REMARK INTER + INTRA:          -2.946
REMARK INTER:                  -2.946
REMARK INTRA:                   0.000
REMARK UNBOUND:                 0.000
REMARK SMILES [NH3+]CC(=O)[O-]
REMARK SMILES IDX 2 1 1 2 3 6 4 7 5 8
REMARK H PARENT 1 3 1 4 1 5
REMARK Flexibility Score: inf
ROOT
ATOM      1  C   UNL     1      31.008  48.014  -7.422  1.00  0.00     0.312 C 
ENDROOT
BRANCH   1   2
ATOM      2  N   UNL     1      32.177  47.603  -6.647  1.00  0.00    -0.353 N 
ATOM      3  H   UNL     1      32.587  46.730  -7.051  1.00  0.00     0.344 HD
ATOM      4  H   UNL     1      31.884  47.413  -5.660  1.00  0.00     0.344 HD
ATOM      5  H   UNL     1      32.894  48.365  -6.647  1.00  0.00     0.344 HD
ENDBRANCH   1   2
BRANCH   1   6
ATOM      6  C   UNL     1      30.356  49.211  -6.799  1.00  0.00     0.096 C 
ATOM      7  O   UNL     1      29.395  49.781  -7.377  1.00  0.00    -0.544 OA
ATOM      8  O   UNL     1      30.846  49.725  -5.605  1.00  0.00    -0.544 OA
ENDBRANCH   1   6
TORSDOF 2
ENDMDL
MODEL 7
REMARK VINA RESULT:    -2.670      2.369      2.492
REMARK INTER + INTRA:          -2.904
REMARK INTER:                  -2.904
REMARK INTRA:                   0.000
REMARK UNBOUND:                 0.000
REMARK SMILES [NH3+]CC(=O)[O-]
REMARK SMILES IDX 2 1 1 2 3 6 4 7 5 8
REMARK H PARENT 1 3 1 4 1 5
REMARK Flexibility Score: inf
ROOT
ATOM      1  C   UNL     1      30.067  49.217  -7.946  1.00  0.00     0.312 C 
ENDROOT
BRANCH   1   2
ATOM      2  N   UNL     1      29.734  50.639  -7.924  1.00  0.00    -0.353 N 
ATOM      3  H   UNL     1      29.002  50.849  -8.640  1.00  0.00     0.344 HD
ATOM      4  H   UNL     1      30.593  51.195  -8.145  1.00  0.00     0.344 HD
ATOM      5  H   UNL     1      29.390  50.913  -6.974  1.00  0.00     0.344 HD
ENDBRANCH   1   2
BRANCH   1   6
ATOM      6  C   UNL     1      30.869  48.843  -6.737  1.00  0.00     0.096 C 
ATOM      7  O   UNL     1      30.835  49.565  -5.707  1.00  0.00    -0.544 OA
ATOM      8  O   UNL     1      31.694  47.726  -6.769  1.00  0.00    -0.544 OA
ENDBRANCH   1   6
TORSDOF 2
ENDMDL
MODEL 8
REMARK VINA RESULT:    -2.656     15.699     15.828
REMARK INTER + INTRA:          -2.889
REMARK INTER:                  -2.889
REMARK INTRA:                   0.000
REMARK UNBOUND:                 0.000
REMARK SMILES [NH3+]CC(=O)[O-]
REMARK SMILES IDX 2 1 1 2 3 6 4 7 5 8
REMARK H PARENT 1 3 1 4 1 5
REMARK Flexibility Score: inf
ROOT
ATOM      1  C   UNL     1      23.575  39.289   3.811  1.00  0.00     0.312 C 
ENDROOT
BRANCH   1   2
ATOM      2  N   UNL     1      24.695  38.361   3.951  1.00  0.00    -0.353 N 
ATOM      3  H   UNL     1      25.590  38.835   3.694  1.00  0.00     0.344 HD
ATOM      4  H   UNL     1      24.547  37.547   3.309  1.00  0.00     0.344 HD
ATOM      5  H   UNL     1      24.749  38.010   4.935  1.00  0.00     0.344 HD
ENDBRANCH   1   2
BRANCH   1   6
ATOM      6  C   UNL     1      22.919  39.128   2.474  1.00  0.00     0.096 C 
ATOM      7  O   UNL     1      22.459  40.131   1.869  1.00  0.00    -0.544 OA
ATOM      8  O   UNL     1      22.771  37.862   1.921  1.00  0.00    -0.544 OA
ENDBRANCH   1   6
TORSDOF 2
ENDMDL
MODEL 9
REMARK VINA RESULT:    -2.545     15.759     15.817
REMARK INTER + INTRA:          -2.768
REMARK INTER:                  -2.768
REMARK INTRA:                   0.000
REMARK UNBOUND:                 0.000
REMARK SMILES [NH3+]CC(=O)[O-]
REMARK SMILES IDX 2 1 1 2 3 6 4 7 5 8
REMARK H PARENT 1 3 1 4 1 5
REMARK Flexibility Score: inf
ROOT
ATOM      1  C   UNL     1      22.766  38.713   2.469  1.00  0.00     0.312 C 
ENDROOT
BRANCH   1   2
ATOM      2  N   UNL     1      22.480  39.808   1.545  1.00  0.00    -0.353 N 
ATOM      3  H   UNL     1      21.879  40.526   2.012  1.00  0.00     0.344 HD
ATOM      4  H   UNL     1      21.969  39.430   0.713  1.00  0.00     0.344 HD
ATOM      5  H   UNL     1      23.372  40.249   1.222  1.00  0.00     0.344 HD
ENDBRANCH   1   2
BRANCH   1   6
ATOM      6  C   UNL     1      23.731  39.154   3.527  1.00  0.00     0.096 C 
ATOM      7  O   UNL     1      23.494  40.183   4.211  1.00  0.00    -0.544 OA
ATOM      8  O   UNL     1      24.916  38.456   3.720  1.00  0.00    -0.544 OA
ENDBRANCH   1   6
TORSDOF 2
ENDMDL
