MODEL 1
REMARK VINA RESULT:    23.645      0.000      0.000
REMARK INTER + INTRA:          28.799
REMARK INTER:                  29.174
REMARK INTRA:                  -0.375
REMARK UNBOUND:                -0.375
REMARK SMILES Oc1cc(O)c2cc(O)c(-c3cc(O)c(O)c(O)c3)[o+]c2c1
REMARK SMILES IDX 10 1 20 2 21 3 22 4 2 5 3 6 4 7 6 8 7 9 8 10 11 11 12 12
REMARK SMILES IDX 13 13 19 14 15 15 17 16 14 17 16 19 18 21 9 23 1 25 5 27
REMARK H PARENT 14 18 16 20 18 22 9 24 1 26 5 28
REMARK Flexibility Score: inf
ROOT
ATOM      1  C   UNL     1      -6.527  -7.646  15.766  1.00  0.00     0.402 A 
ATOM      2  O   UNL     1      -6.282  -8.634  16.624  1.00  0.00    -0.202 OA
ATOM      3  C   UNL     1      -6.448  -9.918  16.327  1.00  0.00     0.368 A 
ATOM      4  C   UNL     1      -6.159 -10.883  17.295  1.00  0.00     0.162 A 
ATOM      5  C   UNL     1      -6.322 -12.241  17.007  1.00  0.00     0.128 A 
ATOM      6  C   UNL     1      -6.773 -12.635  15.745  1.00  0.00     0.093 A 
ATOM      7  C   UNL     1      -7.068 -11.688  14.757  1.00  0.00     0.136 A 
ATOM      8  C   UNL     1      -6.908 -10.307  15.045  1.00  0.00     0.125 A 
ATOM      9  C   UNL     1      -7.191  -9.288  14.122  1.00  0.00     0.078 A 
ATOM     10  C   UNL     1      -7.013  -7.949  14.480  1.00  0.00     0.223 A 
ENDROOT
BRANCH   1  11
ATOM     11  C   UNL     1      -6.295  -6.254  16.214  1.00  0.00     0.091 A 
ATOM     12  C   UNL     1      -5.030  -5.673  16.034  1.00  0.00     0.068 A 
ATOM     13  C   UNL     1      -4.791  -4.351  16.430  1.00  0.00     0.162 A 
ATOM     14  C   UNL     1      -7.332  -5.480  16.762  1.00  0.00     0.068 A 
ATOM     15  C   UNL     1      -5.822  -3.591  16.995  1.00  0.00     0.200 A 
ATOM     16  C   UNL     1      -7.098  -4.155  17.158  1.00  0.00     0.162 A 
BRANCH  13  17
ATOM     17  O   UNL     1      -3.528  -3.784  16.262  1.00  0.00    -0.504 OA
ATOM     18  H   UNL     1      -3.383  -2.784  16.326  1.00  0.00     0.293 HD
ENDBRANCH  13  17
BRANCH  15  19
ATOM     19  O   UNL     1      -5.564  -2.276  17.386  1.00  0.00    -0.502 OA
ATOM     20  H   UNL     1      -6.123  -1.497  17.058  1.00  0.00     0.293 HD
ENDBRANCH  15  19
BRANCH  16  21
ATOM     21  O   UNL     1      -8.131  -3.397  17.707  1.00  0.00    -0.504 OA
ATOM     22  H   UNL     1      -8.345  -2.466  17.368  1.00  0.00     0.293 HD
ENDBRANCH  16  21
ENDBRANCH   1  11
BRANCH  10  23
ATOM     23  O   UNL     1      -7.342  -6.935  13.581  1.00  0.00    -0.500 OA
ATOM     24  H   UNL     1      -7.030  -5.980  13.715  1.00  0.00     0.294 HD
ENDBRANCH  10  23
BRANCH   5  25
ATOM     25  O   UNL     1      -6.037 -13.209  17.967  1.00  0.00    -0.507 OA
ATOM     26  H   UNL     1      -6.770 -13.766  18.392  1.00  0.00     0.293 HD
ENDBRANCH   5  25
BRANCH   7  27
ATOM     27  O   UNL     1      -7.511 -12.165  13.521  1.00  0.00    -0.507 OA
ATOM     28  H   UNL     1      -6.904 -12.515  12.793  1.00  0.00     0.293 HD
ENDBRANCH   7  27
TORSDOF 7
ENDMDL
MODEL 2
REMARK VINA RESULT:    24.236      1.189      3.133
REMARK INTER + INTRA:          29.528
REMARK INTER:                  29.816
REMARK INTRA:                  -0.287
REMARK UNBOUND:                -0.375
REMARK SMILES Oc1cc(O)c2cc(O)c(-c3cc(O)c(O)c(O)c3)[o+]c2c1
REMARK SMILES IDX 10 1 20 2 21 3 22 4 2 5 3 6 4 7 6 8 7 9 8 10 11 11 12 12
REMARK SMILES IDX 13 13 19 14 15 15 17 16 14 17 16 19 18 21 9 23 1 25 5 27
REMARK H PARENT 14 18 16 20 18 22 9 24 1 26 5 28
REMARK Flexibility Score: inf
ROOT
ATOM      1  C   UNL     1      -6.401  -7.284  16.580  1.00  0.00     0.402 A 
ATOM      2  O   UNL     1      -7.019  -7.838  15.539  1.00  0.00    -0.202 OA
ATOM      3  C   UNL     1      -7.048  -9.148  15.321  1.00  0.00     0.368 A 
ATOM      4  C   UNL     1      -7.728  -9.636  14.201  1.00  0.00     0.162 A 
ATOM      5  C   UNL     1      -7.777 -11.010  13.950  1.00  0.00     0.128 A 
ATOM      6  C   UNL     1      -7.146 -11.900  14.822  1.00  0.00     0.093 A 
ATOM      7  C   UNL     1      -6.460 -11.437  15.952  1.00  0.00     0.136 A 
ATOM      8  C   UNL     1      -6.404 -10.042  16.210  1.00  0.00     0.125 A 
ATOM      9  C   UNL     1      -5.729  -9.487  17.309  1.00  0.00     0.078 A 
ATOM     10  C   UNL     1      -5.714  -8.102  17.496  1.00  0.00     0.223 A 
ENDROOT
BRANCH   1  11
ATOM     11  C   UNL     1      -6.446  -5.810  16.719  1.00  0.00     0.091 A 
ATOM     12  C   UNL     1      -7.631  -5.194  17.148  1.00  0.00     0.068 A 
ATOM     13  C   UNL     1      -7.694  -3.804  17.308  1.00  0.00     0.162 A 
ATOM     14  C   UNL     1      -5.308  -5.019  16.487  1.00  0.00     0.068 A 
ATOM     15  C   UNL     1      -6.563  -3.017  17.055  1.00  0.00     0.200 A 
ATOM     16  C   UNL     1      -5.365  -3.627  16.648  1.00  0.00     0.162 A 
BRANCH  13  17
ATOM     17  O   UNL     1      -8.879  -3.195  17.720  1.00  0.00    -0.504 OA
ATOM     18  H   UNL     1      -9.104  -2.242  17.461  1.00  0.00     0.293 HD
ENDBRANCH  13  17
BRANCH  15  19
ATOM     19  O   UNL     1      -6.645  -1.633  17.217  1.00  0.00    -0.502 OA
ATOM     20  H   UNL     1      -7.281  -1.064  16.672  1.00  0.00     0.293 HD
ENDBRANCH  15  19
BRANCH  16  21
ATOM     21  O   UNL     1      -4.233  -2.849  16.409  1.00  0.00    -0.504 OA
ATOM     22  H   UNL     1      -4.013  -2.501  15.482  1.00  0.00     0.293 HD
ENDBRANCH  16  21
ENDBRANCH   1  11
BRANCH  10  23
ATOM     23  O   UNL     1      -5.001  -7.548  18.558  1.00  0.00    -0.500 OA
ATOM     24  H   UNL     1      -5.044  -6.558  18.771  1.00  0.00     0.294 HD
ENDBRANCH  10  23
BRANCH   5  25
ATOM     25  O   UNL     1      -8.452 -11.503  12.835  1.00  0.00    -0.507 OA
ATOM     26  H   UNL     1      -8.894 -10.883  12.166  1.00  0.00     0.293 HD
ENDBRANCH   5  25
BRANCH   7  27
ATOM     27  O   UNL     1      -5.859 -12.392  16.775  1.00  0.00    -0.507 OA
ATOM     28  H   UNL     1      -6.365 -13.032  17.371  1.00  0.00     0.293 HD
ENDBRANCH   7  27
TORSDOF 7
ENDMDL
MODEL 3
REMARK VINA RESULT:    24.773      1.507      7.252
REMARK INTER + INTRA:          30.191
REMARK INTER:                  30.566
REMARK INTRA:                  -0.375
REMARK UNBOUND:                -0.375
REMARK SMILES Oc1cc(O)c2cc(O)c(-c3cc(O)c(O)c(O)c3)[o+]c2c1
REMARK SMILES IDX 10 1 20 2 21 3 22 4 2 5 3 6 4 7 6 8 7 9 8 10 11 11 12 12
REMARK SMILES IDX 13 13 19 14 15 15 17 16 14 17 16 19 18 21 9 23 1 25 5 27
REMARK H PARENT 14 18 16 20 18 22 9 24 1 26 5 28
REMARK Flexibility Score: inf
ROOT
ATOM      1  C   UNL     1      -6.565  -6.964  16.418  1.00  0.00     0.402 A 
ATOM      2  O   UNL     1      -7.664  -6.321  16.804  1.00  0.00    -0.202 OA
ATOM      3  C   UNL     1      -7.701  -5.013  17.036  1.00  0.00     0.368 A 
ATOM      4  C   UNL     1      -8.905  -4.427  17.433  1.00  0.00     0.162 A 
ATOM      5  C   UNL     1      -8.973  -3.053  17.681  1.00  0.00     0.128 A 
ATOM      6  C   UNL     1      -7.832  -2.261  17.528  1.00  0.00     0.093 A 
ATOM      7  C   UNL     1      -6.613  -2.824  17.129  1.00  0.00     0.136 A 
ATOM      8  C   UNL     1      -6.538  -4.220  16.880  1.00  0.00     0.125 A 
ATOM      9  C   UNL     1      -5.357  -4.872  16.490  1.00  0.00     0.078 A 
ATOM     10  C   UNL     1      -5.360  -6.252  16.266  1.00  0.00     0.223 A 
ENDROOT
BRANCH   1  11
ATOM     11  C   UNL     1      -6.653  -8.423  16.182  1.00  0.00     0.091 A 
ATOM     12  C   UNL     1      -6.996  -8.897  14.906  1.00  0.00     0.068 A 
ATOM     13  C   UNL     1      -7.066 -10.272  14.652  1.00  0.00     0.162 A 
ATOM     14  C   UNL     1      -6.342  -9.347  17.194  1.00  0.00     0.068 A 
ATOM     15  C   UNL     1      -6.775 -11.189  15.670  1.00  0.00     0.200 A 
ATOM     16  C   UNL     1      -6.407 -10.726  16.944  1.00  0.00     0.162 A 
BRANCH  13  17
ATOM     17  O   UNL     1      -7.422 -10.737  13.387  1.00  0.00    -0.504 OA
ATOM     18  H   UNL     1      -7.707 -11.697  13.235  1.00  0.00     0.293 HD
ENDBRANCH  13  17
BRANCH  15  19
ATOM     19  O   UNL     1      -6.852 -12.556  15.398  1.00  0.00    -0.502 OA
ATOM     20  H   UNL     1      -6.754 -13.256  16.124  1.00  0.00     0.293 HD
ENDBRANCH  15  19
BRANCH  16  21
ATOM     21  O   UNL     1      -6.104 -11.635  17.956  1.00  0.00    -0.504 OA
ATOM     22  H   UNL     1      -6.164 -11.379  18.936  1.00  0.00     0.293 HD
ENDBRANCH  16  21
ENDBRANCH   1  11
BRANCH  10  23
ATOM     23  O   UNL     1      -4.177  -6.908  15.929  1.00  0.00    -0.500 OA
ATOM     24  H   UNL     1      -3.563  -7.298  16.634  1.00  0.00     0.294 HD
ENDBRANCH  10  23
BRANCH   5  25
ATOM     25  O   UNL     1     -10.170  -2.461  18.078  1.00  0.00    -0.507 OA
ATOM     26  H   UNL     1     -10.670  -2.777  18.901  1.00  0.00     0.293 HD
ENDBRANCH   5  25
BRANCH   7  27
ATOM     27  O   UNL     1      -5.520  -1.964  16.997  1.00  0.00    -0.507 OA
ATOM     28  H   UNL     1      -4.784  -2.077  16.314  1.00  0.00     0.293 HD
ENDBRANCH   7  27
TORSDOF 7
ENDMDL
MODEL 4
REMARK VINA RESULT:    25.877      1.574      2.059
REMARK INTER + INTRA:          31.553
REMARK INTER:                  31.219
REMARK INTRA:                   0.335
REMARK UNBOUND:                -0.375
REMARK SMILES Oc1cc(O)c2cc(O)c(-c3cc(O)c(O)c(O)c3)[o+]c2c1
REMARK SMILES IDX 10 1 20 2 21 3 22 4 2 5 3 6 4 7 6 8 7 9 8 10 11 11 12 12
REMARK SMILES IDX 13 13 19 14 15 15 17 16 14 17 16 19 18 21 9 23 1 25 5 27
REMARK H PARENT 14 18 16 20 18 22 9 24 1 26 5 28
REMARK Flexibility Score: inf
ROOT
ATOM      1  C   UNL     1      -7.062  -7.710  16.392  1.00  0.00     0.402 A 
ATOM      2  O   UNL     1      -6.758  -8.831  17.041  1.00  0.00    -0.202 OA
ATOM      3  C   UNL     1      -6.408  -9.957  16.428  1.00  0.00     0.368 A 
ATOM      4  C   UNL     1      -6.102 -11.083  17.198  1.00  0.00     0.162 A 
ATOM      5  C   UNL     1      -5.728 -12.279  16.579  1.00  0.00     0.128 A 
ATOM      6  C   UNL     1      -5.658 -12.349  15.186  1.00  0.00     0.093 A 
ATOM      7  C   UNL     1      -5.959 -11.236  14.392  1.00  0.00     0.136 A 
ATOM      8  C   UNL     1      -6.342 -10.019  15.015  1.00  0.00     0.125 A 
ATOM      9  C   UNL     1      -6.674  -8.856  14.300  1.00  0.00     0.078 A 
ATOM     10  C   UNL     1      -7.047  -7.696  14.985  1.00  0.00     0.223 A 
ENDROOT
BRANCH   1  11
ATOM     11  C   UNL     1      -7.429  -6.516  17.188  1.00  0.00     0.091 A 
ATOM     12  C   UNL     1      -7.326  -5.242  16.608  1.00  0.00     0.068 A 
ATOM     13  C   UNL     1      -7.686  -4.099  17.332  1.00  0.00     0.162 A 
ATOM     14  C   UNL     1      -7.934  -6.635  18.494  1.00  0.00     0.068 A 
ATOM     15  C   UNL     1      -8.169  -4.221  18.641  1.00  0.00     0.200 A 
ATOM     16  C   UNL     1      -8.298  -5.493  19.222  1.00  0.00     0.162 A 
BRANCH  13  17
ATOM     17  O   UNL     1      -7.567  -2.834  16.757  1.00  0.00    -0.504 OA
ATOM     18  H   UNL     1      -7.839  -1.997  17.256  1.00  0.00     0.293 HD
ENDBRANCH  13  17
BRANCH  15  19
ATOM     19  O   UNL     1      -8.521  -3.070  19.348  1.00  0.00    -0.502 OA
ATOM     20  H   UNL     1      -8.045  -2.187  19.210  1.00  0.00     0.293 HD
ENDBRANCH  15  19
BRANCH  16  21
ATOM     21  O   UNL     1      -8.792  -5.621  20.520  1.00  0.00    -0.504 OA
ATOM     22  H   UNL     1      -8.356  -5.148  21.304  1.00  0.00     0.293 HD
ENDBRANCH  16  21
ENDBRANCH   1  11
BRANCH  10  23
ATOM     23  O   UNL     1      -7.425  -6.557  14.274  1.00  0.00    -0.500 OA
ATOM     24  H   UNL     1      -7.073  -6.368  13.343  1.00  0.00     0.294 HD
ENDBRANCH  10  23
BRANCH   5  25
ATOM     25  O   UNL     1      -5.422 -13.406  17.339  1.00  0.00    -0.507 OA
ATOM     26  H   UNL     1      -5.956 -14.263  17.255  1.00  0.00     0.293 HD
ENDBRANCH   5  25
BRANCH   7  27
ATOM     27  O   UNL     1      -5.862 -11.388  13.007  1.00  0.00    -0.507 OA
ATOM     28  H   UNL     1      -6.111 -12.229  12.507  1.00  0.00     0.293 HD
ENDBRANCH   7  27
TORSDOF 7
ENDMDL
