MODEL 1
REMARK VINA RESULT:    -4.486      0.000      0.000
REMARK INTER + INTRA:          -5.072
REMARK INTER:                  -5.010
REMARK INTRA:                  -0.062
REMARK UNBOUND:                -0.062
REMARK SMILES COc1cc2ccc(=O)oc2c(O)c1O
REMARK SMILES IDX 3 1 14 2 12 3 11 4 5 5 4 6 6 7 7 8 8 9 9 10 10 11 2 12 1 13
REMARK SMILES IDX 15 14 13 16
REMARK H PARENT 15 15 13 17
REMARK Flexibility Score: inf
ROOT
ATOM      1  C   UNL     1     -15.348  40.991  -4.737  1.00  0.00     0.165 A 
ATOM      2  C   UNL     1     -14.583  40.799  -5.905  1.00  0.00     0.204 A 
ATOM      3  C   UNL     1     -14.600  41.765  -6.929  1.00  0.00     0.205 A 
ATOM      4  C   UNL     1     -15.377  42.920  -6.790  1.00  0.00     0.184 A 
ATOM      5  C   UNL     1     -16.144  43.116  -5.623  1.00  0.00     0.025 A 
ATOM      6  C   UNL     1     -16.128  42.157  -4.604  1.00  0.00     0.062 A 
ATOM      7  C   UNL     1     -16.910  44.282  -5.515  1.00  0.00     0.020 A 
ATOM      8  C   UNL     1     -16.895  45.210  -6.556  1.00  0.00     0.094 A 
ATOM      9  C   UNL     1     -16.110  44.949  -7.684  1.00  0.00     0.336 A 
ATOM     10  O   UNL     1     -16.083  45.774  -8.634  1.00  0.00    -0.246 OA
ATOM     11  O   UNL     1     -15.391  43.833  -7.760  1.00  0.00    -0.419 OA
ENDROOT
BRANCH   1  12
ATOM     12  O   UNL     1     -15.309  40.008  -3.735  1.00  0.00    -0.493 OA
ATOM     13  C   UNL     1     -16.448  39.309  -3.242  1.00  0.00     0.278 C 
ENDBRANCH   1  12
BRANCH   2  14
ATOM     14  O   UNL     1     -13.803  39.653  -6.060  1.00  0.00    -0.502 OA
ATOM     15  H   UNL     1     -13.080  39.580  -6.765  1.00  0.00     0.293 HD
ENDBRANCH   2  14
BRANCH   3  16
ATOM     16  O   UNL     1     -13.847  41.588  -8.092  1.00  0.00    -0.502 OA
ATOM     17  H   UNL     1     -13.625  40.670  -8.457  1.00  0.00     0.293 HD
ENDBRANCH   3  16
TORSDOF 3
ENDMDL
MODEL 2
REMARK VINA RESULT:    -4.452     10.224     11.712
REMARK INTER + INTRA:          -5.035
REMARK INTER:                  -4.979
REMARK INTRA:                  -0.055
REMARK UNBOUND:                -0.062
REMARK SMILES COc1cc2ccc(=O)oc2c(O)c1O
REMARK SMILES IDX 3 1 14 2 12 3 11 4 5 5 4 6 6 7 7 8 8 9 9 10 10 11 2 12 1 13
REMARK SMILES IDX 15 14 13 16
REMARK H PARENT 15 15 13 17
REMARK Flexibility Score: inf
ROOT
ATOM      1  C   UNL     1      -5.038  45.405  -5.014  1.00  0.00     0.165 A 
ATOM      2  C   UNL     1      -5.838  45.543  -6.165  1.00  0.00     0.204 A 
ATOM      3  C   UNL     1      -5.793  44.569  -7.180  1.00  0.00     0.205 A 
ATOM      4  C   UNL     1      -4.951  43.458  -7.048  1.00  0.00     0.184 A 
ATOM      5  C   UNL     1      -4.149  43.316  -5.897  1.00  0.00     0.025 A 
ATOM      6  C   UNL     1      -4.193  44.284  -4.887  1.00  0.00     0.062 A 
ATOM      7  C   UNL     1      -3.319  42.195  -5.796  1.00  0.00     0.020 A 
ATOM      8  C   UNL     1      -3.307  41.256  -6.827  1.00  0.00     0.094 A 
ATOM      9  C   UNL     1      -4.130  41.462  -7.939  1.00  0.00     0.336 A 
ATOM     10  O   UNL     1      -4.134  40.626  -8.880  1.00  0.00    -0.246 OA
ATOM     11  O   UNL     1      -4.910  42.537  -8.009  1.00  0.00    -0.419 OA
ENDROOT
BRANCH   1  12
ATOM     12  O   UNL     1      -5.108  46.395  -4.021  1.00  0.00    -0.493 OA
ATOM     13  C   UNL     1      -3.979  46.958  -3.358  1.00  0.00     0.278 C 
ENDBRANCH   1  12
BRANCH   2  14
ATOM     14  O   UNL     1      -6.683  46.643  -6.313  1.00  0.00    -0.502 OA
ATOM     15  H   UNL     1      -6.851  47.082  -7.210  1.00  0.00     0.293 HD
ENDBRANCH   2  14
BRANCH   3  16
ATOM     16  O   UNL     1      -6.581  44.692  -8.327  1.00  0.00    -0.502 OA
ATOM     17  H   UNL     1      -7.102  45.534  -8.535  1.00  0.00     0.293 HD
ENDBRANCH   3  16
TORSDOF 3
ENDMDL
MODEL 3
REMARK VINA RESULT:    -4.308      1.722      5.252
REMARK INTER + INTRA:          -4.874
REMARK INTER:                  -4.824
REMARK INTRA:                  -0.050
REMARK UNBOUND:                -0.062
REMARK SMILES COc1cc2ccc(=O)oc2c(O)c1O
REMARK SMILES IDX 3 1 14 2 12 3 11 4 5 5 4 6 6 7 7 8 8 9 9 10 10 11 2 12 1 13
REMARK SMILES IDX 15 14 13 16
REMARK H PARENT 15 15 13 17
REMARK Flexibility Score: inf
ROOT
ATOM      1  C   UNL     1     -16.435  43.416  -6.724  1.00  0.00     0.165 A 
ATOM      2  C   UNL     1     -17.259  42.675  -5.854  1.00  0.00     0.204 A 
ATOM      3  C   UNL     1     -16.774  41.503  -5.245  1.00  0.00     0.205 A 
ATOM      4  C   UNL     1     -15.469  41.069  -5.503  1.00  0.00     0.184 A 
ATOM      5  C   UNL     1     -14.639  41.807  -6.372  1.00  0.00     0.025 A 
ATOM      6  C   UNL     1     -15.121  42.973  -6.978  1.00  0.00     0.062 A 
ATOM      7  C   UNL     1     -13.340  41.347  -6.607  1.00  0.00     0.020 A 
ATOM      8  C   UNL     1     -12.903  40.180  -5.981  1.00  0.00     0.094 A 
ATOM      9  C   UNL     1     -13.780  39.499  -5.131  1.00  0.00     0.336 A 
ATOM     10  O   UNL     1     -13.404  38.443  -4.557  1.00  0.00    -0.246 OA
ATOM     11  O   UNL     1     -15.011  39.959  -4.925  1.00  0.00    -0.419 OA
ENDROOT
BRANCH   1  12
ATOM     12  O   UNL     1     -16.950  44.581  -7.315  1.00  0.00    -0.493 OA
ATOM     13  C   UNL     1     -16.158  45.623  -7.875  1.00  0.00     0.278 C 
ENDBRANCH   1  12
BRANCH   2  14
ATOM     14  O   UNL     1     -18.563  43.093  -5.587  1.00  0.00    -0.502 OA
ATOM     15  H   UNL     1     -19.281  42.458  -5.263  1.00  0.00     0.293 HD
ENDBRANCH   2  14
BRANCH   3  16
ATOM     16  O   UNL     1     -17.580  40.758  -4.381  1.00  0.00    -0.502 OA
ATOM     17  H   UNL     1     -17.465  39.760  -4.263  1.00  0.00     0.293 HD
ENDBRANCH   3  16
TORSDOF 3
ENDMDL
MODEL 4
REMARK VINA RESULT:    -4.086      4.596      5.469
REMARK INTER + INTRA:          -4.626
REMARK INTER:                  -4.574
REMARK INTRA:                  -0.052
REMARK UNBOUND:                -0.062
REMARK SMILES COc1cc2ccc(=O)oc2c(O)c1O
REMARK SMILES IDX 3 1 14 2 12 3 11 4 5 5 4 6 6 7 7 8 8 9 9 10 10 11 2 12 1 13
REMARK SMILES IDX 15 14 13 16
REMARK H PARENT 15 15 13 17
REMARK Flexibility Score: inf
ROOT
ATOM      1  C   UNL     1     -15.585  47.493  -4.530  1.00  0.00     0.165 A 
ATOM      2  C   UNL     1     -15.155  47.305  -5.858  1.00  0.00     0.204 A 
ATOM      3  C   UNL     1     -15.944  46.569  -6.761  1.00  0.00     0.205 A 
ATOM      4  C   UNL     1     -17.160  46.019  -6.341  1.00  0.00     0.184 A 
ATOM      5  C   UNL     1     -17.596  46.205  -5.013  1.00  0.00     0.025 A 
ATOM      6  C   UNL     1     -16.812  46.938  -4.114  1.00  0.00     0.062 A 
ATOM      7  C   UNL     1     -18.817  45.644  -4.625  1.00  0.00     0.020 A 
ATOM      8  C   UNL     1     -19.564  44.921  -5.554  1.00  0.00     0.094 A 
ATOM      9  C   UNL     1     -19.071  44.777  -6.855  1.00  0.00     0.336 A 
ATOM     10  O   UNL     1     -19.730  44.129  -7.708  1.00  0.00    -0.246 OA
ATOM     11  O   UNL     1     -17.906  45.322  -7.197  1.00  0.00    -0.419 OA
ENDROOT
BRANCH   1  12
ATOM     12  O   UNL     1     -14.774  48.234  -3.655  1.00  0.00    -0.493 OA
ATOM     13  C   UNL     1     -14.657  47.989  -2.257  1.00  0.00     0.278 C 
ENDBRANCH   1  12
BRANCH   2  14
ATOM     14  O   UNL     1     -13.944  47.846  -6.293  1.00  0.00    -0.502 OA
ATOM     15  H   UNL     1     -13.154  47.268  -6.554  1.00  0.00     0.293 HD
ENDBRANCH   2  14
BRANCH   3  16
ATOM     16  O   UNL     1     -15.530  46.374  -8.080  1.00  0.00    -0.502 OA
ATOM     17  H   UNL     1     -14.723  45.810  -8.315  1.00  0.00     0.293 HD
ENDBRANCH   3  16
TORSDOF 3
ENDMDL
MODEL 5
REMARK VINA RESULT:    -4.075     10.319     11.190
REMARK INTER + INTRA:          -4.613
REMARK INTER:                  -4.563
REMARK INTRA:                  -0.050
REMARK UNBOUND:                -0.062
REMARK SMILES COc1cc2ccc(=O)oc2c(O)c1O
REMARK SMILES IDX 3 1 14 2 12 3 11 4 5 5 4 6 6 7 7 8 8 9 9 10 10 11 2 12 1 13
REMARK SMILES IDX 15 14 13 16
REMARK H PARENT 15 15 13 17
REMARK Flexibility Score: inf
ROOT
ATOM      1  C   UNL     1      -4.144  43.405  -6.869  1.00  0.00     0.165 A 
ATOM      2  C   UNL     1      -3.291  44.143  -6.025  1.00  0.00     0.204 A 
ATOM      3  C   UNL     1      -3.790  45.237  -5.295  1.00  0.00     0.205 A 
ATOM      4  C   UNL     1      -5.139  45.596  -5.406  1.00  0.00     0.184 A 
ATOM      5  C   UNL     1      -5.996  44.860  -6.249  1.00  0.00     0.025 A 
ATOM      6  C   UNL     1      -5.500  43.771  -6.975  1.00  0.00     0.062 A 
ATOM      7  C   UNL     1      -7.339  45.244  -6.336  1.00  0.00     0.020 A 
ATOM      8  C   UNL     1      -7.788  46.335  -5.594  1.00  0.00     0.094 A 
ATOM      9  C   UNL     1      -6.882  47.019  -4.779  1.00  0.00     0.336 A 
ATOM     10  O   UNL     1      -7.268  48.007  -4.101  1.00  0.00    -0.246 OA
ATOM     11  O   UNL     1      -5.610  46.632  -4.714  1.00  0.00    -0.419 OA
ENDROOT
BRANCH   1  12
ATOM     12  O   UNL     1      -3.612  42.319  -7.583  1.00  0.00    -0.493 OA
ATOM     13  C   UNL     1      -4.363  41.187  -8.012  1.00  0.00     0.278 C 
ENDBRANCH   1  12
BRANCH   2  14
ATOM     14  O   UNL     1      -1.944  43.799  -5.903  1.00  0.00    -0.502 OA
ATOM     15  H   UNL     1      -1.267  43.992  -6.631  1.00  0.00     0.293 HD
ENDBRANCH   2  14
BRANCH   3  16
ATOM     16  O   UNL     1      -2.957  45.979  -4.455  1.00  0.00    -0.502 OA
ATOM     17  H   UNL     1      -3.320  46.646  -3.786  1.00  0.00     0.293 HD
ENDBRANCH   3  16
TORSDOF 3
ENDMDL
MODEL 6
REMARK VINA RESULT:    -4.066      4.832      6.419
REMARK INTER + INTRA:          -4.603
REMARK INTER:                  -4.540
REMARK INTRA:                  -0.063
REMARK UNBOUND:                -0.062
REMARK SMILES COc1cc2ccc(=O)oc2c(O)c1O
REMARK SMILES IDX 3 1 14 2 12 3 11 4 5 5 4 6 6 7 7 8 8 9 9 10 10 11 2 12 1 13
REMARK SMILES IDX 15 14 13 16
REMARK H PARENT 15 15 13 17
REMARK Flexibility Score: inf
ROOT
ATOM      1  C   UNL     1     -14.541  47.910  -5.462  1.00  0.00     0.165 A 
ATOM      2  C   UNL     1     -15.423  48.196  -4.402  1.00  0.00     0.204 A 
ATOM      3  C   UNL     1     -16.679  47.565  -4.335  1.00  0.00     0.205 A 
ATOM      4  C   UNL     1     -17.056  46.649  -5.325  1.00  0.00     0.184 A 
ATOM      5  C   UNL     1     -16.176  46.359  -6.387  1.00  0.00     0.025 A 
ATOM      6  C   UNL     1     -14.926  46.986  -6.454  1.00  0.00     0.062 A 
ATOM      7  C   UNL     1     -16.583  45.438  -7.359  1.00  0.00     0.020 A 
ATOM      8  C   UNL     1     -17.836  44.838  -7.251  1.00  0.00     0.094 A 
ATOM      9  C   UNL     1     -18.657  45.174  -6.170  1.00  0.00     0.336 A 
ATOM     10  O   UNL     1     -19.793  44.643  -6.055  1.00  0.00    -0.246 OA
ATOM     11  O   UNL     1     -18.245  46.052  -5.260  1.00  0.00    -0.419 OA
ENDROOT
BRANCH   1  12
ATOM     12  O   UNL     1     -13.295  48.558  -5.498  1.00  0.00    -0.493 OA
ATOM     13  C   UNL     1     -12.036  47.893  -5.449  1.00  0.00     0.278 C 
ENDBRANCH   1  12
BRANCH   2  14
ATOM     14  O   UNL     1     -15.064  49.107  -3.407  1.00  0.00    -0.502 OA
ATOM     15  H   UNL     1     -14.295  49.757  -3.519  1.00  0.00     0.293 HD
ENDBRANCH   2  14
BRANCH   3  16
ATOM     16  O   UNL     1     -17.565  47.840  -3.290  1.00  0.00    -0.502 OA
ATOM     17  H   UNL     1     -18.050  47.107  -2.789  1.00  0.00     0.293 HD
ENDBRANCH   3  16
TORSDOF 3
ENDMDL
MODEL 7
REMARK VINA RESULT:    -4.023     10.514     11.392
REMARK INTER + INTRA:          -4.556
REMARK INTER:                  -4.512
REMARK INTRA:                  -0.044
REMARK UNBOUND:                -0.062
REMARK SMILES COc1cc2ccc(=O)oc2c(O)c1O
REMARK SMILES IDX 3 1 14 2 12 3 11 4 5 5 4 6 6 7 7 8 8 9 9 10 10 11 2 12 1 13
REMARK SMILES IDX 15 14 13 16
REMARK H PARENT 15 15 13 17
REMARK Flexibility Score: inf
ROOT
ATOM      1  C   UNL     1      -3.721  43.293  -6.183  1.00  0.00     0.165 A 
ATOM      2  C   UNL     1      -4.792  43.526  -7.069  1.00  0.00     0.204 A 
ATOM      3  C   UNL     1      -5.653  44.620  -6.867  1.00  0.00     0.205 A 
ATOM      4  C   UNL     1      -5.449  45.482  -5.783  1.00  0.00     0.184 A 
ATOM      5  C   UNL     1      -4.378  45.253  -4.894  1.00  0.00     0.025 A 
ATOM      6  C   UNL     1      -3.521  44.165  -5.094  1.00  0.00     0.062 A 
ATOM      7  C   UNL     1      -4.201  46.134  -3.821  1.00  0.00     0.020 A 
ATOM      8  C   UNL     1      -5.081  47.204  -3.661  1.00  0.00     0.094 A 
ATOM      9  C   UNL     1      -6.120  47.369  -4.582  1.00  0.00     0.336 A 
ATOM     10  O   UNL     1      -6.925  48.329  -4.455  1.00  0.00    -0.246 OA
ATOM     11  O   UNL     1      -6.265  46.517  -5.593  1.00  0.00    -0.419 OA
ENDROOT
BRANCH   1  12
ATOM     12  O   UNL     1      -2.880  42.192  -6.414  1.00  0.00    -0.493 OA
ATOM     13  C   UNL     1      -1.726  42.217  -7.248  1.00  0.00     0.278 C 
ENDBRANCH   1  12
BRANCH   2  14
ATOM     14  O   UNL     1      -5.010  42.677  -8.154  1.00  0.00    -0.502 OA
ATOM     15  H   UNL     1      -5.616  42.927  -8.926  1.00  0.00     0.293 HD
ENDBRANCH   2  14
BRANCH   3  16
ATOM     16  O   UNL     1      -6.719  44.863  -7.737  1.00  0.00    -0.502 OA
ATOM     17  H   UNL     1      -6.591  44.940  -8.738  1.00  0.00     0.293 HD
ENDBRANCH   3  16
TORSDOF 3
ENDMDL
MODEL 8
REMARK VINA RESULT:    -3.996      2.117      5.405
REMARK INTER + INTRA:          -4.524
REMARK INTER:                  -4.470
REMARK INTRA:                  -0.054
REMARK UNBOUND:                -0.062
REMARK SMILES COc1cc2ccc(=O)oc2c(O)c1O
REMARK SMILES IDX 3 1 14 2 12 3 11 4 5 5 4 6 6 7 7 8 8 9 9 10 10 11 2 12 1 13
REMARK SMILES IDX 15 14 13 16
REMARK H PARENT 15 15 13 17
REMARK Flexibility Score: inf
ROOT
ATOM      1  C   UNL     1     -15.905  41.919  -5.902  1.00  0.00     0.165 A 
ATOM      2  C   UNL     1     -16.339  41.008  -4.918  1.00  0.00     0.204 A 
ATOM      3  C   UNL     1     -15.419  40.139  -4.302  1.00  0.00     0.205 A 
ATOM      4  C   UNL     1     -14.068  40.176  -4.666  1.00  0.00     0.184 A 
ATOM      5  C   UNL     1     -13.630  41.086  -5.650  1.00  0.00     0.025 A 
ATOM      6  C   UNL     1     -14.543  41.951  -6.263  1.00  0.00     0.062 A 
ATOM      7  C   UNL     1     -12.273  41.099  -5.990  1.00  0.00     0.020 A 
ATOM      8  C   UNL     1     -11.399  40.219  -5.354  1.00  0.00     0.094 A 
ATOM      9  C   UNL     1     -11.904  39.343  -4.387  1.00  0.00     0.336 A 
ATOM     10  O   UNL     1     -11.132  38.541  -3.801  1.00  0.00    -0.246 OA
ATOM     11  O   UNL     1     -13.199  39.353  -4.083  1.00  0.00    -0.419 OA
ENDROOT
BRANCH   1  12
ATOM     12  O   UNL     1     -16.849  42.772  -6.495  1.00  0.00    -0.493 OA
ATOM     13  C   UNL     1     -16.631  44.152  -6.772  1.00  0.00     0.278 C 
ENDBRANCH   1  12
BRANCH   2  14
ATOM     14  O   UNL     1     -17.682  40.957  -4.543  1.00  0.00    -0.502 OA
ATOM     15  H   UNL     1     -18.008  41.289  -3.644  1.00  0.00     0.293 HD
ENDBRANCH   2  14
BRANCH   3  16
ATOM     16  O   UNL     1     -15.835  39.231  -3.326  1.00  0.00    -0.502 OA
ATOM     17  H   UNL     1     -15.231  38.496  -2.981  1.00  0.00     0.293 HD
ENDBRANCH   3  16
TORSDOF 3
ENDMDL
MODEL 9
REMARK VINA RESULT:    -3.980      1.889      2.253
REMARK INTER + INTRA:          -4.507
REMARK INTER:                  -4.438
REMARK INTRA:                  -0.069
REMARK UNBOUND:                -0.062
REMARK SMILES COc1cc2ccc(=O)oc2c(O)c1O
REMARK SMILES IDX 3 1 14 2 12 3 11 4 5 5 4 6 6 7 7 8 8 9 9 10 10 11 2 12 1 13
REMARK SMILES IDX 15 14 13 16
REMARK H PARENT 15 15 13 17
REMARK Flexibility Score: inf
ROOT
ATOM      1  C   UNL     1     -13.554  41.855  -4.726  1.00  0.00     0.165 A 
ATOM      2  C   UNL     1     -14.112  41.122  -5.792  1.00  0.00     0.204 A 
ATOM      3  C   UNL     1     -15.186  41.652  -6.530  1.00  0.00     0.205 A 
ATOM      4  C   UNL     1     -15.705  42.911  -6.207  1.00  0.00     0.184 A 
ATOM      5  C   UNL     1     -15.149  43.649  -5.142  1.00  0.00     0.025 A 
ATOM      6  C   UNL     1     -14.080  43.123  -4.407  1.00  0.00     0.062 A 
ATOM      7  C   UNL     1     -15.690  44.905  -4.845  1.00  0.00     0.020 A 
ATOM      8  C   UNL     1     -16.754  45.388  -5.605  1.00  0.00     0.094 A 
ATOM      9  C   UNL     1     -17.255  44.602  -6.647  1.00  0.00     0.336 A 
ATOM     10  O   UNL     1     -18.216  45.020  -7.344  1.00  0.00    -0.246 OA
ATOM     11  O   UNL     1     -16.721  43.411  -6.908  1.00  0.00    -0.419 OA
ENDROOT
BRANCH   1  12
ATOM     12  O   UNL     1     -12.483  41.297  -4.010  1.00  0.00    -0.493 OA
ATOM     13  C   UNL     1     -11.115  41.652  -4.192  1.00  0.00     0.278 C 
ENDBRANCH   1  12
BRANCH   2  14
ATOM     14  O   UNL     1     -13.607  39.865  -6.127  1.00  0.00    -0.502 OA
ATOM     15  H   UNL     1     -13.346  39.620  -7.074  1.00  0.00     0.293 HD
ENDBRANCH   2  14
BRANCH   3  16
ATOM     16  O   UNL     1     -15.749  40.936  -7.589  1.00  0.00    -0.502 OA
ATOM     17  H   UNL     1     -15.291  40.134  -8.002  1.00  0.00     0.293 HD
ENDBRANCH   3  16
TORSDOF 3
ENDMDL
