MODEL 1
REMARK VINA RESULT:    -3.538      0.000      0.000
REMARK INTER + INTRA:          -4.639
REMARK INTER:                  -4.985
REMARK INTRA:                   0.346
REMARK UNBOUND:                 0.346
REMARK SMILES CC1=CCC(=C(C)C)C(=O)CC(C)=CCC1
REMARK SMILES IDX 12 1 14 2 13 3 15 4 16 5 2 6 1 7 3 8 11 10 9 11 10 12 5 13
REMARK SMILES IDX 6 14 7 15 8 16 4 17
REMARK H PARENT
REMARK Flexibility Score: 60.00
ROOT
ATOM      1  C   UNL     1      23.607  51.811   0.341  1.00  0.00    -0.070 C 
ATOM      2  C   UNL     1      23.182  51.552   1.600  1.00  0.00    -0.027 C 
ATOM      3  C   UNL     1      25.010  52.341   0.175  1.00  0.00     0.039 C 
ENDROOT
BRANCH   2   4
ATOM      4  C   UNL     1      21.865  50.924   1.988  1.00  0.00     0.032 C 
BRANCH   4   5
ATOM      5  C   UNL     1      21.865  49.394   1.816  1.00  0.00     0.034 C 
BRANCH   5   6
ATOM      6  C   UNL     1      20.646  48.903   1.059  1.00  0.00    -0.077 C 
ATOM      7  C   UNL     1      19.293  49.047   1.709  1.00  0.00     0.039 C 
ATOM      8  C   UNL     1      20.703  48.320  -0.160  1.00  0.00    -0.023 CG0
ATOM      9  G   UNL     1      21.961  48.056  -0.953  1.00  0.00     0.000 G0
ENDBRANCH   5   6
ENDBRANCH   4   5
ENDBRANCH   2   4
BRANCH   1  10
ATOM     10  C   UNL     1      22.778  51.536  -0.904  1.00  0.00     0.111 C 
BRANCH  10  11
ATOM     11  C   UNL     1      23.187  50.245  -1.568  1.00  0.00     0.163 C 
ATOM     12  O   UNL     1      24.408  50.075  -1.835  1.00  0.00    -0.294 OA
BRANCH  11  13
ATOM     13  C   UNL     1      22.187  49.202  -1.957  1.00  0.00    -0.002 C 
ATOM     14  C   UNL     1      21.562  49.224  -3.173  1.00  0.00    -0.069 C 
ATOM     15  C   UNL     1      21.900  50.261  -4.220  1.00  0.00     0.039 C 
ATOM     16  C   UNL     1      20.523  48.187  -3.544  1.00  0.00     0.039 C 
BRANCH  13  17
ATOM     17  C   UNL     1      21.950  48.072  -0.972  1.00  0.00     0.066 CG0
ATOM     18  G   UNL     1      20.704  48.347  -0.165  1.00  0.00     0.000 G0
ENDBRANCH  13  17
ENDBRANCH  11  13
ENDBRANCH  10  11
ENDBRANCH   1  10
TORSDOF 0
ENDMDL
MODEL 2
REMARK VINA RESULT:    -3.529      2.026      4.462
REMARK INTER + INTRA:          -4.627
REMARK INTER:                  -5.454
REMARK INTRA:                   0.827
REMARK UNBOUND:                 0.346
REMARK SMILES CC1=CCC(=C(C)C)C(=O)CC(C)=CCC1
REMARK SMILES IDX 12 1 14 2 13 3 15 4 16 5 2 6 1 7 3 8 11 10 9 11 10 12 5 13
REMARK SMILES IDX 6 14 7 15 8 16 4 17
REMARK H PARENT
REMARK Flexibility Score: 60.00
ROOT
ATOM      1  C   UNL     1      22.841  49.788  -1.586  1.00  0.00    -0.070 C 
ATOM      2  C   UNL     1      22.465  48.877  -0.657  1.00  0.00    -0.027 C 
ATOM      3  C   UNL     1      21.879  50.068  -2.715  1.00  0.00     0.039 C 
ENDROOT
BRANCH   2   4
ATOM      4  C   UNL     1      23.217  48.522   0.603  1.00  0.00     0.032 C 
BRANCH   4   5
ATOM      5  C   UNL     1      22.403  48.804   1.880  1.00  0.00     0.034 C 
BRANCH   5   6
ATOM      6  C   UNL     1      21.881  50.228   1.922  1.00  0.00    -0.077 C 
ATOM      7  C   UNL     1      20.393  50.442   2.025  1.00  0.00     0.039 C 
ATOM      8  C   UNL     1      22.674  51.321   1.847  1.00  0.00    -0.023 CG0
ATOM      9  G   UNL     1      24.178  51.311   1.705  1.00  0.00     0.000 G0
ENDBRANCH   5   6
ENDBRANCH   4   5
ENDBRANCH   2   4
BRANCH   1  10
ATOM     10  C   UNL     1      24.136  50.581  -1.516  1.00  0.00     0.111 C 
BRANCH  10  11
ATOM     11  C   UNL     1      23.943  51.896  -0.802  1.00  0.00     0.163 C 
ATOM     12  O   UNL     1      23.247  52.782  -1.369  1.00  0.00    -0.294 OA
BRANCH  11  13
ATOM     13  C   UNL     1      24.589  52.185   0.516  1.00  0.00    -0.002 C 
ATOM     14  C   UNL     1      25.459  53.228   0.677  1.00  0.00    -0.069 C 
ATOM     15  C   UNL     1      25.760  54.190  -0.451  1.00  0.00     0.039 C 
ATOM     16  C   UNL     1      26.138  53.491   2.003  1.00  0.00     0.039 C 
BRANCH  13  17
ATOM     17  C   UNL     1      24.179  51.316   1.691  1.00  0.00     0.066 CG0
ATOM     18  G   UNL     1      22.675  51.322   1.832  1.00  0.00     0.000 G0
ENDBRANCH  13  17
ENDBRANCH  11  13
ENDBRANCH  10  11
ENDBRANCH   1  10
TORSDOF 0
ENDMDL
MODEL 3
REMARK VINA RESULT:    -3.381      2.591      5.530
REMARK INTER + INTRA:          -4.419
REMARK INTER:                  -4.954
REMARK INTRA:                   0.535
REMARK UNBOUND:                 0.346
REMARK SMILES CC1=CCC(=C(C)C)C(=O)CC(C)=CCC1
REMARK SMILES IDX 12 1 14 2 13 3 15 4 16 5 2 6 1 7 3 8 11 10 9 11 10 12 5 13
REMARK SMILES IDX 6 14 7 15 8 16 4 17
REMARK H PARENT
REMARK Flexibility Score: 60.00
ROOT
ATOM      1  C   UNL     1      22.429  50.837  -1.040  1.00  0.00    -0.070 C 
ATOM      2  C   UNL     1      23.375  51.655  -1.560  1.00  0.00    -0.027 C 
ATOM      3  C   UNL     1      21.900  49.734  -1.924  1.00  0.00     0.039 C 
ENDROOT
BRANCH   2   4
ATOM      4  C   UNL     1      24.113  52.748  -0.825  1.00  0.00     0.032 C 
BRANCH   4   5
ATOM      5  C   UNL     1      25.446  52.263  -0.225  1.00  0.00     0.034 C 
BRANCH   5   6
ATOM      6  C   UNL     1      25.536  52.537   1.264  1.00  0.00    -0.077 C 
ATOM      7  C   UNL     1      25.982  53.905   1.714  1.00  0.00     0.039 C 
ATOM      8  C   UNL     1      25.262  51.615   2.215  1.00  0.00    -0.023 CG0
ATOM      9  G   UNL     1      24.836  50.188   1.963  1.00  0.00     0.000 G0
ENDBRANCH   5   6
ENDBRANCH   4   5
ENDBRANCH   2   4
BRANCH   1  10
ATOM     10  C   UNL     1      21.928  50.928   0.393  1.00  0.00     0.111 C 
BRANCH  10  11
ATOM     11  C   UNL     1      22.425  49.774   1.229  1.00  0.00     0.163 C 
ATOM     12  O   UNL     1      21.967  48.625   0.985  1.00  0.00    -0.294 OA
BRANCH  11  13
ATOM     13  C   UNL     1      23.393  49.969   2.353  1.00  0.00    -0.002 C 
ATOM     14  C   UNL     1      23.000  49.895   3.660  1.00  0.00    -0.069 C 
ATOM     15  C   UNL     1      21.580  49.541   4.042  1.00  0.00     0.039 C 
ATOM     16  C   UNL     1      23.977  50.130   4.792  1.00  0.00     0.039 C 
BRANCH  13  17
ATOM     17  C   UNL     1      24.850  50.177   1.981  1.00  0.00     0.066 CG0
ATOM     18  G   UNL     1      25.237  51.618   2.212  1.00  0.00     0.000 G0
ENDBRANCH  13  17
ENDBRANCH  11  13
ENDBRANCH  10  11
ENDBRANCH   1  10
TORSDOF 0
ENDMDL
MODEL 4
REMARK VINA RESULT:    -3.350      1.381      3.586
REMARK INTER + INTRA:          -4.375
REMARK INTER:                  -5.082
REMARK INTRA:                   0.707
REMARK UNBOUND:                 0.346
REMARK SMILES CC1=CCC(=C(C)C)C(=O)CC(C)=CCC1
REMARK SMILES IDX 12 1 14 2 13 3 15 4 16 5 2 6 1 7 3 8 11 10 9 11 10 12 5 13
REMARK SMILES IDX 6 14 7 15 8 16 4 17
REMARK H PARENT
REMARK Flexibility Score: 60.00
ROOT
ATOM      1  C   UNL     1      24.143  52.214   0.460  1.00  0.00    -0.070 C 
ATOM      2  C   UNL     1      24.174  52.181  -0.894  1.00  0.00    -0.027 C 
ATOM      3  C   UNL     1      25.270  52.929   1.165  1.00  0.00     0.039 C 
ENDROOT
BRANCH   2   4
ATOM      4  C   UNL     1      23.105  51.617  -1.799  1.00  0.00     0.032 C 
BRANCH   4   5
ATOM      5  C   UNL     1      23.442  50.201  -2.303  1.00  0.00     0.034 C 
BRANCH   5   6
ATOM      6  C   UNL     1      22.229  49.292  -2.304  1.00  0.00    -0.077 C 
ATOM      7  C   UNL     1      21.272  49.375  -3.466  1.00  0.00     0.039 C 
ATOM      8  C   UNL     1      21.939  48.424  -1.307  1.00  0.00    -0.023 CG0
ATOM      9  G   UNL     1      22.752  48.223  -0.050  1.00  0.00     0.000 G0
ENDBRANCH   5   6
ENDBRANCH   4   5
ENDBRANCH   2   4
BRANCH   1  10
ATOM     10  C   UNL     1      23.012  51.633   1.294  1.00  0.00     0.111 C 
BRANCH  10  11
ATOM     11  C   UNL     1      23.220  50.164   1.563  1.00  0.00     0.163 C 
ATOM     12  O   UNL     1      24.257  49.817   2.192  1.00  0.00    -0.294 OA
BRANCH  11  13
ATOM     13  C   UNL     1      22.267  49.124   1.065  1.00  0.00    -0.002 C 
ATOM     14  C   UNL     1      20.988  49.033   1.540  1.00  0.00    -0.069 C 
ATOM     15  C   UNL     1      20.443  50.025   2.544  1.00  0.00     0.039 C 
ATOM     16  C   UNL     1      20.042  47.954   1.059  1.00  0.00     0.039 C 
BRANCH  13  17
ATOM     17  C   UNL     1      22.757  48.217  -0.050  1.00  0.00     0.066 CG0
ATOM     18  G   UNL     1      21.931  48.443  -1.294  1.00  0.00     0.000 G0
ENDBRANCH  13  17
ENDBRANCH  11  13
ENDBRANCH  10  11
ENDBRANCH   1  10
TORSDOF 0
ENDMDL
MODEL 5
REMARK VINA RESULT:    -3.150      1.812      2.479
REMARK INTER + INTRA:          -4.092
REMARK INTER:                  -4.528
REMARK INTRA:                   0.435
REMARK UNBOUND:                 0.346
REMARK SMILES CC1=CCC(=C(C)C)C(=O)CC(C)=CCC1
REMARK SMILES IDX 12 1 14 2 13 3 15 4 16 5 2 6 1 7 3 8 11 10 9 11 10 12 5 13
REMARK SMILES IDX 6 14 7 15 8 16 4 17
REMARK H PARENT
REMARK Flexibility Score: 60.00
ROOT
ATOM      1  C   UNL     1      25.320  52.548   0.513  1.00  0.00    -0.070 C 
ATOM      2  C   UNL     1      25.417  52.240   1.828  1.00  0.00    -0.027 C 
ATOM      3  C   UNL     1      25.662  53.959   0.100  1.00  0.00     0.039 C 
ENDROOT
BRANCH   2   4
ATOM      4  C   UNL     1      25.226  50.875   2.444  1.00  0.00     0.032 C 
BRANCH   4   5
ATOM      5  C   UNL     1      23.742  50.486   2.574  1.00  0.00     0.034 C 
BRANCH   5   6
ATOM      6  C   UNL     1      23.427  49.187   1.858  1.00  0.00    -0.077 C 
ATOM      7  C   UNL     1      24.102  47.925   2.332  1.00  0.00     0.039 C 
ATOM      8  C   UNL     1      22.591  49.097   0.798  1.00  0.00    -0.023 CG0
ATOM      9  G   UNL     1      21.852  50.248   0.158  1.00  0.00     0.000 G0
ENDBRANCH   5   6
ENDBRANCH   4   5
ENDBRANCH   2   4
BRANCH   1  10
ATOM     10  C   UNL     1      24.955  51.540  -0.566  1.00  0.00     0.111 C 
BRANCH  10  11
ATOM     11  C   UNL     1      23.550  51.754  -1.072  1.00  0.00     0.163 C 
ATOM     12  O   UNL     1      23.209  52.924  -1.398  1.00  0.00    -0.294 OA
BRANCH  11  13
ATOM     13  C   UNL     1      22.555  50.639  -1.144  1.00  0.00    -0.002 C 
ATOM     14  C   UNL     1      22.328  49.952  -2.304  1.00  0.00    -0.069 C 
ATOM     15  C   UNL     1      23.123  50.232  -3.560  1.00  0.00     0.039 C 
ATOM     16  C   UNL     1      21.293  48.851  -2.378  1.00  0.00     0.039 C 
BRANCH  13  17
ATOM     17  C   UNL     1      21.859  50.251   0.149  1.00  0.00     0.066 CG0
ATOM     18  G   UNL     1      22.583  49.093   0.792  1.00  0.00     0.000 G0
ENDBRANCH  13  17
ENDBRANCH  11  13
ENDBRANCH  10  11
ENDBRANCH   1  10
TORSDOF 0
ENDMDL
MODEL 6
REMARK VINA RESULT:    -2.881      5.717      7.938
REMARK INTER + INTRA:          -3.714
REMARK INTER:                  -4.080
REMARK INTRA:                   0.366
REMARK UNBOUND:                 0.346
REMARK SMILES CC1=CCC(=C(C)C)C(=O)CC(C)=CCC1
REMARK SMILES IDX 12 1 14 2 13 3 15 4 16 5 2 6 1 7 3 8 11 10 9 11 10 12 5 13
REMARK SMILES IDX 6 14 7 15 8 16 4 17
REMARK H PARENT
REMARK Flexibility Score: 60.00
ROOT
ATOM      1  C   UNL     1      20.889  55.403  -6.839  1.00  0.00    -0.070 C 
ATOM      2  C   UNL     1      19.702  55.745  -7.395  1.00  0.00    -0.027 C 
ATOM      3  C   UNL     1      22.013  56.408  -6.924  1.00  0.00     0.039 C 
ENDROOT
BRANCH   2   4
ATOM      4  C   UNL     1      18.424  54.944  -7.335  1.00  0.00     0.032 C 
BRANCH   4   5
ATOM      5  C   UNL     1      18.427  53.749  -8.308  1.00  0.00     0.034 C 
BRANCH   5   6
ATOM      6  C   UNL     1      17.970  52.467  -7.640  1.00  0.00    -0.077 C 
ATOM      7  C   UNL     1      16.585  52.424  -7.047  1.00  0.00     0.039 C 
ATOM      8  C   UNL     1      18.744  51.364  -7.523  1.00  0.00    -0.023 CG0
ATOM      9  G   UNL     1      20.164  51.226  -8.019  1.00  0.00     0.000 G0
ENDBRANCH   5   6
ENDBRANCH   4   5
ENDBRANCH   2   4
BRANCH   1  10
ATOM     10  C   UNL     1      21.127  54.104  -6.086  1.00  0.00     0.111 C 
BRANCH  10  11
ATOM     11  C   UNL     1      21.671  53.029  -6.994  1.00  0.00     0.163 C 
ATOM     12  O   UNL     1      22.548  53.355  -7.840  1.00  0.00    -0.294 OA
BRANCH  11  13
ATOM     13  C   UNL     1      21.165  51.621  -6.948  1.00  0.00    -0.002 C 
ATOM     14  C   UNL     1      21.523  50.761  -5.948  1.00  0.00    -0.069 C 
ATOM     15  C   UNL     1      22.392  51.205  -4.793  1.00  0.00     0.039 C 
ATOM     16  C   UNL     1      21.036  49.328  -5.930  1.00  0.00     0.039 C 
BRANCH  13  17
ATOM     17  C   UNL     1      20.173  51.211  -8.022  1.00  0.00     0.066 CG0
ATOM     18  G   UNL     1      18.763  51.388  -7.511  1.00  0.00     0.000 G0
ENDBRANCH  13  17
ENDBRANCH  11  13
ENDBRANCH  10  11
ENDBRANCH   1  10
TORSDOF 0
ENDMDL
MODEL 7
REMARK VINA RESULT:    -2.859      2.650      4.483
REMARK INTER + INTRA:          -3.683
REMARK INTER:                  -4.172
REMARK INTRA:                   0.489
REMARK UNBOUND:                 0.346
REMARK SMILES CC1=CCC(=C(C)C)C(=O)CC(C)=CCC1
REMARK SMILES IDX 12 1 14 2 13 3 15 4 16 5 2 6 1 7 3 8 11 10 9 11 10 12 5 13
REMARK SMILES IDX 6 14 7 15 8 16 4 17
REMARK H PARENT
REMARK Flexibility Score: 60.00
ROOT
ATOM      1  C   UNL     1      23.382  51.663   0.405  1.00  0.00    -0.070 C 
ATOM      2  C   UNL     1      24.666  51.700   0.835  1.00  0.00    -0.027 C 
ATOM      3  C   UNL     1      23.130  51.931  -1.059  1.00  0.00     0.039 C 
ENDROOT
BRANCH   2   4
ATOM      4  C   UNL     1      25.154  51.362   2.223  1.00  0.00     0.032 C 
BRANCH   4   5
ATOM      5  C   UNL     1      24.962  49.874   2.573  1.00  0.00     0.034 C 
BRANCH   5   6
ATOM      6  C   UNL     1      24.267  49.687   3.908  1.00  0.00    -0.077 C 
ATOM      7  C   UNL     1      24.860  50.353   5.123  1.00  0.00     0.039 C 
ATOM      8  C   UNL     1      23.157  48.933   4.077  1.00  0.00    -0.023 CG0
ATOM      9  G   UNL     1      22.441  48.163   2.994  1.00  0.00     0.000 G0
ENDBRANCH   5   6
ENDBRANCH   4   5
ENDBRANCH   2   4
BRANCH   1  10
ATOM     10  C   UNL     1      22.203  51.306   1.295  1.00  0.00     0.111 C 
BRANCH  10  11
ATOM     11  C   UNL     1      21.826  49.852   1.158  1.00  0.00     0.163 C 
ATOM     12  O   UNL     1      21.851  49.339   0.006  1.00  0.00    -0.294 OA
BRANCH  11  13
ATOM     13  C   UNL     1      21.380  49.034   2.329  1.00  0.00    -0.002 C 
ATOM     14  C   UNL     1      20.076  49.018   2.740  1.00  0.00    -0.069 C 
ATOM     15  C   UNL     1      18.999  49.768   1.989  1.00  0.00     0.039 C 
ATOM     16  C   UNL     1      19.640  48.218   3.949  1.00  0.00     0.039 C 
BRANCH  13  17
ATOM     17  C   UNL     1      22.426  48.161   2.999  1.00  0.00     0.066 CG0
ATOM     18  G   UNL     1      23.141  48.948   4.071  1.00  0.00     0.000 G0
ENDBRANCH  13  17
ENDBRANCH  11  13
ENDBRANCH  10  11
ENDBRANCH   1  10
TORSDOF 0
ENDMDL
MODEL 8
REMARK VINA RESULT:    -2.821      1.902      4.096
REMARK INTER + INTRA:          -3.630
REMARK INTER:                  -4.477
REMARK INTRA:                   0.848
REMARK UNBOUND:                 0.346
REMARK SMILES CC1=CCC(=C(C)C)C(=O)CC(C)=CCC1
REMARK SMILES IDX 12 1 14 2 13 3 15 4 16 5 2 6 1 7 3 8 11 10 9 11 10 12 5 13
REMARK SMILES IDX 6 14 7 15 8 16 4 17
REMARK H PARENT
REMARK Flexibility Score: 60.00
ROOT
ATOM      1  C   UNL     1      23.690  51.968  -0.296  1.00  0.00    -0.070 C 
ATOM      2  C   UNL     1      23.695  51.533  -1.579  1.00  0.00    -0.027 C 
ATOM      3  C   UNL     1      24.922  52.685   0.201  1.00  0.00     0.039 C 
ENDROOT
BRANCH   2   4
ATOM      4  C   UNL     1      22.541  50.891  -2.309  1.00  0.00     0.032 C 
BRANCH   4   5
ATOM      5  C   UNL     1      22.827  49.429  -2.700  1.00  0.00     0.034 C 
BRANCH   5   6
ATOM      6  C   UNL     1      22.063  48.446  -1.833  1.00  0.00    -0.077 C 
ATOM      7  C   UNL     1      20.752  47.907  -2.346  1.00  0.00     0.039 C 
ATOM      8  C   UNL     1      22.478  48.042  -0.611  1.00  0.00    -0.023 CG0
ATOM      9  G   UNL     1      23.739  48.495   0.086  1.00  0.00     0.000 G0
ENDBRANCH   5   6
ENDBRANCH   4   5
ENDBRANCH   2   4
BRANCH   1  10
ATOM     10  C   UNL     1      22.498  51.832   0.638  1.00  0.00     0.111 C 
BRANCH  10  11
ATOM     11  C   UNL     1      22.244  50.391   1.006  1.00  0.00     0.163 C 
ATOM     12  O   UNL     1      21.048  50.018   1.151  1.00  0.00    -0.294 OA
BRANCH  11  13
ATOM     13  C   UNL     1      23.361  49.426   1.250  1.00  0.00    -0.002 C 
ATOM     14  C   UNL     1      23.972  49.326   2.468  1.00  0.00    -0.069 C 
ATOM     15  C   UNL     1      23.505  50.135   3.658  1.00  0.00     0.039 C 
ATOM     16  C   UNL     1      25.126  48.374   2.696  1.00  0.00     0.039 C 
BRANCH  13  17
ATOM     17  C   UNL     1      23.738  48.504   0.103  1.00  0.00     0.066 CG0
ATOM     18  G   UNL     1      22.490  48.026  -0.601  1.00  0.00     0.000 G0
ENDBRANCH  13  17
ENDBRANCH  11  13
ENDBRANCH  10  11
ENDBRANCH   1  10
TORSDOF 0
ENDMDL
MODEL 9
REMARK VINA RESULT:    -2.764      1.696      2.557
REMARK INTER + INTRA:          -3.549
REMARK INTER:                  -4.145
REMARK INTRA:                   0.596
REMARK UNBOUND:                 0.346
REMARK SMILES CC1=CCC(=C(C)C)C(=O)CC(C)=CCC1
REMARK SMILES IDX 12 1 14 2 13 3 15 4 16 5 2 6 1 7 3 8 11 10 9 11 10 12 5 13
REMARK SMILES IDX 6 14 7 15 8 16 4 17
REMARK H PARENT
REMARK Flexibility Score: 60.00
ROOT
ATOM      1  C   UNL     1      22.913  50.041   3.543  1.00  0.00    -0.070 C 
ATOM      2  C   UNL     1      22.035  49.303   4.264  1.00  0.00    -0.027 C 
ATOM      3  C   UNL     1      24.341  50.094   4.027  1.00  0.00     0.039 C 
ENDROOT
BRANCH   2   4
ATOM      4  C   UNL     1      20.595  49.027   3.908  1.00  0.00     0.032 C 
BRANCH   4   5
ATOM      5  C   UNL     1      20.445  47.881   2.890  1.00  0.00     0.034 C 
BRANCH   5   6
ATOM      6  C   UNL     1      19.705  48.320   1.641  1.00  0.00    -0.077 C 
ATOM      7  C   UNL     1      18.223  48.576   1.739  1.00  0.00     0.039 C 
ATOM      8  C   UNL     1      20.295  48.472   0.433  1.00  0.00    -0.023 CG0
ATOM      9  G   UNL     1      21.754  48.229   0.127  1.00  0.00     0.000 G0
ENDBRANCH   5   6
ENDBRANCH   4   5
ENDBRANCH   2   4
BRANCH   1  10
ATOM     10  C   UNL     1      22.553  50.754   2.249  1.00  0.00     0.111 C 
BRANCH  10  11
ATOM     11  C   UNL     1      23.239  50.127   1.061  1.00  0.00     0.163 C 
ATOM     12  O   UNL     1      24.500  50.129   1.035  1.00  0.00    -0.294 OA
BRANCH  11  13
ATOM     13  C   UNL     1      22.470  49.560  -0.090  1.00  0.00    -0.002 C 
ATOM     14  C   UNL     1      22.456  50.167  -1.315  1.00  0.00    -0.069 C 
ATOM     15  C   UNL     1      23.276  51.407  -1.594  1.00  0.00     0.039 C 
ATOM     16  C   UNL     1      21.645  49.608  -2.463  1.00  0.00     0.039 C 
BRANCH  13  17
ATOM     17  C   UNL     1      21.764  48.235   0.138  1.00  0.00     0.066 CG0
ATOM     18  G   UNL     1      20.297  48.476   0.406  1.00  0.00     0.000 G0
ENDBRANCH  13  17
ENDBRANCH  11  13
ENDBRANCH  10  11
ENDBRANCH   1  10
TORSDOF 0
ENDMDL
