MODEL 1
REMARK VINA RESULT:    -3.322      0.000      0.000
REMARK INTER + INTRA:          -3.953
REMARK INTER:                  -3.905
REMARK INTRA:                  -0.048
REMARK UNBOUND:                -0.048
REMARK SMILES CCCCC(=O)[O-]
REMARK SMILES IDX 4 1 5 2 6 3 7 4 3 5 2 6 1 7
REMARK H PARENT
REMARK Flexibility Score: inf
ROOT
ATOM      1  C   UNL     1      -9.759  -5.519  -8.176  1.00  0.00     0.053 C 
ENDROOT
BRANCH   1   2
ATOM      2  C   UNL     1      -9.310  -4.140  -8.555  1.00  0.00     0.041 C 
ATOM      3  O   UNL     1      -8.777  -3.387  -7.698  1.00  0.00    -0.550 OA
ATOM      4  O   UNL     1      -9.511  -3.676  -9.850  1.00  0.00    -0.550 OA
ENDBRANCH   1   2
BRANCH   1   5
ATOM      5  C   UNL     1     -11.142  -5.505  -7.514  1.00  0.00     0.006 C 
BRANCH   5   6
ATOM      6  C   UNL     1     -11.054  -5.563  -5.982  1.00  0.00    -0.003 C 
ATOM      7  C   UNL     1     -12.280  -6.249  -5.386  1.00  0.00     0.004 C 
ENDBRANCH   5   6
ENDBRANCH   1   5
TORSDOF 3
ENDMDL
MODEL 2
REMARK VINA RESULT:    -3.281      1.237      1.598
REMARK INTER + INTRA:          -3.905
REMARK INTER:                  -3.860
REMARK INTRA:                  -0.045
REMARK UNBOUND:                -0.048
REMARK SMILES CCCCC(=O)[O-]
REMARK SMILES IDX 4 1 5 2 6 3 7 4 3 5 2 6 1 7
REMARK H PARENT
REMARK Flexibility Score: inf
ROOT
ATOM      1  C   UNL     1      -9.948  -4.516  -7.791  1.00  0.00     0.053 C 
ENDROOT
BRANCH   1   2
ATOM      2  C   UNL     1     -10.380  -4.416  -9.223  1.00  0.00     0.041 C 
ATOM      3  O   UNL     1     -11.400  -5.036  -9.623  1.00  0.00    -0.550 OA
ATOM      4  O   UNL     1      -9.635  -3.662 -10.122  1.00  0.00    -0.550 OA
ENDBRANCH   1   2
BRANCH   1   5
ATOM      5  C   UNL     1     -10.452  -5.807  -7.134  1.00  0.00     0.006 C 
BRANCH   5   6
ATOM      6  C   UNL     1     -11.301  -5.529  -5.885  1.00  0.00    -0.003 C 
ATOM      7  C   UNL     1     -11.612  -6.820  -5.134  1.00  0.00     0.004 C 
ENDBRANCH   5   6
ENDBRANCH   1   5
TORSDOF 3
ENDMDL
MODEL 3
REMARK VINA RESULT:    -3.276     16.151     17.084
REMARK INTER + INTRA:          -3.900
REMARK INTER:                  -3.801
REMARK INTRA:                  -0.098
REMARK UNBOUND:                -0.048
REMARK SMILES CCCCC(=O)[O-]
REMARK SMILES IDX 4 1 5 2 6 3 7 4 3 5 2 6 1 7
REMARK H PARENT
REMARK Flexibility Score: inf
ROOT
ATOM      1  C   UNL     1     -12.470   3.900   6.695  1.00  0.00     0.053 C 
ENDROOT
BRANCH   1   2
ATOM      2  C   UNL     1     -12.027   4.500   5.395  1.00  0.00     0.041 C 
ATOM      3  O   UNL     1     -10.843   4.905   5.253  1.00  0.00    -0.550 OA
ATOM      4  O   UNL     1     -12.934   4.641   4.352  1.00  0.00    -0.550 OA
ENDBRANCH   1   2
BRANCH   1   5
ATOM      5  C   UNL     1     -11.354   3.075   7.350  1.00  0.00     0.006 C 
BRANCH   5   6
ATOM      6  C   UNL     1     -11.161   3.432   8.831  1.00  0.00    -0.003 C 
ATOM      7  C   UNL     1     -10.392   4.742   8.985  1.00  0.00     0.004 C 
ENDBRANCH   5   6
ENDBRANCH   1   5
TORSDOF 3
ENDMDL
MODEL 4
REMARK VINA RESULT:    -3.194     16.987     17.607
REMARK INTER + INTRA:          -3.803
REMARK INTER:                  -3.711
REMARK INTRA:                  -0.092
REMARK UNBOUND:                -0.048
REMARK SMILES CCCCC(=O)[O-]
REMARK SMILES IDX 4 1 5 2 6 3 7 4 3 5 2 6 1 7
REMARK H PARENT
REMARK Flexibility Score: inf
ROOT
ATOM      1  C   UNL     1     -10.318   4.792   7.410  1.00  0.00     0.053 C 
ENDROOT
BRANCH   1   2
ATOM      2  C   UNL     1     -10.532   5.346   6.034  1.00  0.00     0.041 C 
ATOM      3  O   UNL     1      -9.548   5.614   5.296  1.00  0.00    -0.550 OA
ATOM      4  O   UNL     1     -11.822   5.594   5.579  1.00  0.00    -0.550 OA
ENDBRANCH   1   2
BRANCH   1   5
ATOM      5  C   UNL     1     -10.988   3.423   7.583  1.00  0.00     0.006 C 
BRANCH   5   6
ATOM      6  C   UNL     1     -11.780   3.327   8.895  1.00  0.00    -0.003 C 
ATOM      7  C   UNL     1     -12.621   4.579   9.124  1.00  0.00     0.004 C 
ENDBRANCH   5   6
ENDBRANCH   1   5
TORSDOF 3
ENDMDL
MODEL 5
REMARK VINA RESULT:    -3.193     17.093     18.006
REMARK INTER + INTRA:          -3.801
REMARK INTER:                  -3.756
REMARK INTRA:                  -0.045
REMARK UNBOUND:                -0.048
REMARK SMILES CCCCC(=O)[O-]
REMARK SMILES IDX 4 1 5 2 6 3 7 4 3 5 2 6 1 7
REMARK H PARENT
REMARK Flexibility Score: inf
ROOT
ATOM      1  C   UNL     1     -10.864   5.713   7.489  1.00  0.00     0.053 C 
ENDROOT
BRANCH   1   2
ATOM      2  C   UNL     1      -9.823   5.973   6.442  1.00  0.00     0.041 C 
ATOM      3  O   UNL     1      -9.813   5.303   5.376  1.00  0.00    -0.550 OA
ATOM      4  O   UNL     1      -8.845   6.935   6.660  1.00  0.00    -0.550 OA
ENDBRANCH   1   2
BRANCH   1   5
ATOM      5  C   UNL     1     -10.280   4.975   8.700  1.00  0.00     0.006 C 
BRANCH   5   6
ATOM      6  C   UNL     1     -10.961   3.620   8.938  1.00  0.00    -0.003 C 
ATOM      7  C   UNL     1     -11.455   3.015   7.627  1.00  0.00     0.004 C 
ENDBRANCH   5   6
ENDBRANCH   1   5
TORSDOF 3
ENDMDL
MODEL 6
REMARK VINA RESULT:    -3.182     17.239     17.885
REMARK INTER + INTRA:          -3.788
REMARK INTER:                  -3.662
REMARK INTRA:                  -0.126
REMARK UNBOUND:                -0.048
REMARK SMILES CCCCC(=O)[O-]
REMARK SMILES IDX 4 1 5 2 6 3 7 4 3 5 2 6 1 7
REMARK H PARENT
REMARK Flexibility Score: inf
ROOT
ATOM      1  C   UNL     1     -12.196   3.536   7.954  1.00  0.00     0.053 C 
ENDROOT
BRANCH   1   2
ATOM      2  C   UNL     1     -13.094   4.313   7.040  1.00  0.00     0.041 C 
ATOM      3  O   UNL     1     -13.980   5.072   7.514  1.00  0.00    -0.550 OA
ATOM      4  O   UNL     1     -12.973   4.172   5.663  1.00  0.00    -0.550 OA
ENDBRANCH   1   2
BRANCH   1   5
ATOM      5  C   UNL     1     -10.715   3.764   7.623  1.00  0.00     0.006 C 
BRANCH   5   6
ATOM      6  C   UNL     1     -10.300   5.232   7.797  1.00  0.00    -0.003 C 
ATOM      7  C   UNL     1      -9.407   5.691   6.648  1.00  0.00     0.004 C 
ENDBRANCH   5   6
ENDBRANCH   1   5
TORSDOF 3
ENDMDL
MODEL 7
REMARK VINA RESULT:    -3.108      2.695      3.758
REMARK INTER + INTRA:          -3.701
REMARK INTER:                  -3.650
REMARK INTRA:                  -0.051
REMARK UNBOUND:                -0.048
REMARK SMILES CCCCC(=O)[O-]
REMARK SMILES IDX 4 1 5 2 6 3 7 4 3 5 2 6 1 7
REMARK H PARENT
REMARK Flexibility Score: inf
ROOT
ATOM      1  C   UNL     1     -11.028  -5.427  -7.689  1.00  0.00     0.053 C 
ENDROOT
BRANCH   1   2
ATOM      2  C   UNL     1     -10.555  -6.845  -7.572  1.00  0.00     0.041 C 
ATOM      3  O   UNL     1     -10.471  -7.573  -8.596  1.00  0.00    -0.550 OA
ATOM      4  O   UNL     1     -10.238  -7.370  -6.325  1.00  0.00    -0.550 OA
ENDBRANCH   1   2
BRANCH   1   5
ATOM      5  C   UNL     1     -10.209  -4.480  -6.803  1.00  0.00     0.006 C 
BRANCH   5   6
ATOM      6  C   UNL     1      -9.375  -3.489  -7.629  1.00  0.00    -0.003 C 
ATOM      7  C   UNL     1     -10.114  -3.074  -8.899  1.00  0.00     0.004 C 
ENDBRANCH   5   6
ENDBRANCH   1   5
TORSDOF 3
ENDMDL
MODEL 8
REMARK VINA RESULT:    -3.040     16.468     17.330
REMARK INTER + INTRA:          -3.621
REMARK INTER:                  -3.529
REMARK INTRA:                  -0.092
REMARK UNBOUND:                -0.048
REMARK SMILES CCCCC(=O)[O-]
REMARK SMILES IDX 4 1 5 2 6 3 7 4 3 5 2 6 1 7
REMARK H PARENT
REMARK Flexibility Score: inf
ROOT
ATOM      1  C   UNL     1     -11.073   3.430   7.365  1.00  0.00     0.053 C 
ENDROOT
BRANCH   1   2
ATOM      2  C   UNL     1     -10.359   4.714   7.658  1.00  0.00     0.041 C 
ATOM      3  O   UNL     1     -10.508   5.285   8.771  1.00  0.00    -0.550 OA
ATOM      4  O   UNL     1      -9.552   5.296   6.688  1.00  0.00    -0.550 OA
ENDBRANCH   1   2
BRANCH   1   5
ATOM      5  C   UNL     1     -11.754   3.459   5.991  1.00  0.00     0.006 C 
BRANCH   5   6
ATOM      6  C   UNL     1     -12.986   4.376   5.973  1.00  0.00    -0.003 C 
ATOM      7  C   UNL     1     -13.252   4.912   4.569  1.00  0.00     0.004 C 
ENDBRANCH   5   6
ENDBRANCH   1   5
TORSDOF 3
ENDMDL
