MODEL 1
REMARK VINA RESULT:    -5.343      0.000      0.000
REMARK INTER + INTRA:          -6.039
REMARK INTER:                  -5.811
REMARK INTRA:                  -0.228
REMARK UNBOUND:                -0.228
REMARK SMILES O=C([O-])c1ccccc1O
REMARK SMILES IDX 4 1 9 2 5 3 8 4 6 5 7 6 2 7 1 8 3 9 10 10
REMARK H PARENT 10 11
REMARK Flexibility Score: inf
ROOT
ATOM      1  C   UNL     1      43.152  45.128  41.056  1.00  0.00     0.039 A 
ATOM      2  C   UNL     1      41.742  45.106  41.179  1.00  0.00     0.124 A 
ATOM      3  C   UNL     1      43.722  45.101  39.768  1.00  0.00     0.014 A 
ATOM      4  C   UNL     1      40.941  45.058  40.027  1.00  0.00     0.047 A 
ATOM      5  C   UNL     1      42.913  45.053  38.631  1.00  0.00     0.001 A 
ATOM      6  C   UNL     1      41.526  45.032  38.760  1.00  0.00     0.004 A 
ENDROOT
BRANCH   1   7
ATOM      7  C   UNL     1      44.038  45.179  42.249  1.00  0.00     0.075 C 
ATOM      8  O   UNL     1      45.195  44.681  42.203  1.00  0.00    -0.545 OA
ATOM      9  O   UNL     1      43.616  45.774  43.432  1.00  0.00    -0.545 OA
ENDBRANCH   1   7
BRANCH   2  10
ATOM     10  O   UNL     1      41.133  45.132  42.433  1.00  0.00    -0.507 OA
ATOM     11  H   UNL     1      41.615  44.815  43.265  1.00  0.00     0.293 HD
ENDBRANCH   2  10
TORSDOF 2
ENDMDL
MODEL 2
REMARK VINA RESULT:    -5.114      2.181      3.507
REMARK INTER + INTRA:          -5.790
REMARK INTER:                  -5.572
REMARK INTRA:                  -0.218
REMARK UNBOUND:                -0.228
REMARK SMILES O=C([O-])c1ccccc1O
REMARK SMILES IDX 4 1 9 2 5 3 8 4 6 5 7 6 2 7 1 8 3 9 10 10
REMARK H PARENT 10 11
REMARK Flexibility Score: inf
ROOT
ATOM      1  C   UNL     1      43.092  45.092  40.217  1.00  0.00     0.039 A 
ATOM      2  C   UNL     1      41.958  45.197  41.059  1.00  0.00     0.124 A 
ATOM      3  C   UNL     1      44.375  45.172  40.793  1.00  0.00     0.014 A 
ATOM      4  C   UNL     1      42.128  45.377  42.440  1.00  0.00     0.047 A 
ATOM      5  C   UNL     1      44.529  45.351  42.170  1.00  0.00     0.001 A 
ATOM      6  C   UNL     1      43.408  45.453  42.992  1.00  0.00     0.004 A 
ENDROOT
BRANCH   1   7
ATOM      7  C   UNL     1      42.959  44.901  38.749  1.00  0.00     0.075 C 
ATOM      8  O   UNL     1      41.953  45.352  38.138  1.00  0.00    -0.545 OA
ATOM      9  O   UNL     1      43.933  44.228  38.021  1.00  0.00    -0.545 OA
ENDBRANCH   1   7
BRANCH   2  10
ATOM     10  O   UNL     1      40.669  45.124  40.534  1.00  0.00    -0.507 OA
ATOM     11  H   UNL     1      39.997  44.441  40.864  1.00  0.00     0.293 HD
ENDBRANCH   2  10
TORSDOF 2
ENDMDL
MODEL 3
REMARK VINA RESULT:    -5.070      1.395      2.786
REMARK INTER + INTRA:          -5.742
REMARK INTER:                  -5.529
REMARK INTRA:                  -0.213
REMARK UNBOUND:                -0.228
REMARK SMILES O=C([O-])c1ccccc1O
REMARK SMILES IDX 4 1 9 2 5 3 8 4 6 5 7 6 2 7 1 8 3 9 10 10
REMARK H PARENT 10 11
REMARK Flexibility Score: inf
ROOT
ATOM      1  C   UNL     1      43.018  45.453  42.657  1.00  0.00     0.039 A 
ATOM      2  C   UNL     1      44.007  45.501  41.646  1.00  0.00     0.124 A 
ATOM      3  C   UNL     1      41.686  45.172  42.291  1.00  0.00     0.014 A 
ATOM      4  C   UNL     1      43.650  45.272  40.307  1.00  0.00     0.047 A 
ATOM      5  C   UNL     1      41.346  44.946  40.955  1.00  0.00     0.001 A 
ATOM      6  C   UNL     1      42.326  44.996  39.965  1.00  0.00     0.004 A 
ENDROOT
BRANCH   1   7
ATOM      7  C   UNL     1      43.350  45.689  44.086  1.00  0.00     0.075 C 
ATOM      8  O   UNL     1      42.457  46.060  44.894  1.00  0.00    -0.545 OA
ATOM      9  O   UNL     1      44.643  45.506  44.562  1.00  0.00    -0.545 OA
ENDBRANCH   1   7
BRANCH   2  10
ATOM     10  O   UNL     1      45.337  45.776  41.960  1.00  0.00    -0.507 OA
ATOM     11  H   UNL     1      46.062  45.074  41.866  1.00  0.00     0.293 HD
ENDBRANCH   2  10
TORSDOF 2
ENDMDL
MODEL 4
REMARK VINA RESULT:    -4.926      5.994      7.822
REMARK INTER + INTRA:          -5.586
REMARK INTER:                  -5.334
REMARK INTRA:                  -0.252
REMARK UNBOUND:                -0.228
REMARK SMILES O=C([O-])c1ccccc1O
REMARK SMILES IDX 4 1 9 2 5 3 8 4 6 5 7 6 2 7 1 8 3 9 10 10
REMARK H PARENT 10 11
REMARK Flexibility Score: inf
ROOT
ATOM      1  C   UNL     1      44.870  45.520  47.439  1.00  0.00     0.039 A 
ATOM      2  C   UNL     1      44.288  45.244  48.700  1.00  0.00     0.124 A 
ATOM      3  C   UNL     1      46.151  45.006  47.156  1.00  0.00     0.014 A 
ATOM      4  C   UNL     1      44.989  44.472  49.639  1.00  0.00     0.047 A 
ATOM      5  C   UNL     1      46.837  44.238  48.101  1.00  0.00     0.001 A 
ATOM      6  C   UNL     1      46.257  43.971  49.339  1.00  0.00     0.004 A 
ENDROOT
BRANCH   1   7
ATOM      7  C   UNL     1      44.165  46.333  46.415  1.00  0.00     0.075 C 
ATOM      8  O   UNL     1      44.745  47.309  45.867  1.00  0.00    -0.545 OA
ATOM      9  O   UNL     1      42.859  46.040  46.039  1.00  0.00    -0.545 OA
ENDBRANCH   1   7
BRANCH   2  10
ATOM     10  O   UNL     1      43.023  45.732  49.025  1.00  0.00    -0.507 OA
ATOM     11  H   UNL     1      42.181  45.205  48.822  1.00  0.00     0.293 HD
ENDBRANCH   2  10
TORSDOF 2
ENDMDL
MODEL 5
REMARK VINA RESULT:    -4.766      8.582      9.903
REMARK INTER + INTRA:          -5.412
REMARK INTER:                  -5.161
REMARK INTRA:                  -0.251
REMARK UNBOUND:                -0.228
REMARK SMILES O=C([O-])c1ccccc1O
REMARK SMILES IDX 4 1 9 2 5 3 8 4 6 5 7 6 2 7 1 8 3 9 10 10
REMARK H PARENT 10 11
REMARK Flexibility Score: inf
ROOT
ATOM      1  C   UNL     1      47.865  43.631  33.135  1.00  0.00     0.039 A 
ATOM      2  C   UNL     1      47.393  42.693  34.083  1.00  0.00     0.124 A 
ATOM      3  C   UNL     1      48.844  44.564  33.531  1.00  0.00     0.014 A 
ATOM      4  C   UNL     1      47.901  42.706  35.392  1.00  0.00     0.047 A 
ATOM      5  C   UNL     1      49.341  44.565  34.837  1.00  0.00     0.001 A 
ATOM      6  C   UNL     1      48.871  43.638  35.765  1.00  0.00     0.004 A 
ENDROOT
BRANCH   1   7
ATOM      7  C   UNL     1      47.354  43.654  31.739  1.00  0.00     0.075 C 
ATOM      8  O   UNL     1      46.115  43.644  31.515  1.00  0.00    -0.545 OA
ATOM      9  O   UNL     1      48.225  43.688  30.656  1.00  0.00    -0.545 OA
ENDBRANCH   1   7
BRANCH   2  10
ATOM     10  O   UNL     1      46.424  41.752  33.737  1.00  0.00    -0.507 OA
ATOM     11  H   UNL     1      45.948  41.195  34.437  1.00  0.00     0.293 HD
ENDBRANCH   2  10
TORSDOF 2
ENDMDL
MODEL 6
REMARK VINA RESULT:    -4.751      8.733     10.148
REMARK INTER + INTRA:          -5.396
REMARK INTER:                  -5.176
REMARK INTRA:                  -0.220
REMARK UNBOUND:                -0.228
REMARK SMILES O=C([O-])c1ccccc1O
REMARK SMILES IDX 4 1 9 2 5 3 8 4 6 5 7 6 2 7 1 8 3 9 10 10
REMARK H PARENT 10 11
REMARK Flexibility Score: inf
ROOT
ATOM      1  C   UNL     1      47.903  43.114  33.048  1.00  0.00     0.039 A 
ATOM      2  C   UNL     1      47.913  44.321  32.309  1.00  0.00     0.124 A 
ATOM      3  C   UNL     1      48.671  42.028  32.583  1.00  0.00     0.014 A 
ATOM      4  C   UNL     1      48.679  44.418  31.137  1.00  0.00     0.047 A 
ATOM      5  C   UNL     1      49.429  42.138  31.415  1.00  0.00     0.001 A 
ATOM      6  C   UNL     1      49.434  43.331  30.694  1.00  0.00     0.004 A 
ENDROOT
BRANCH   1   7
ATOM      7  C   UNL     1      47.106  42.967  34.294  1.00  0.00     0.075 C 
ATOM      8  O   UNL     1      47.391  43.649  35.314  1.00  0.00    -0.545 OA
ATOM      9  O   UNL     1      46.036  42.083  34.362  1.00  0.00    -0.545 OA
ENDBRANCH   1   7
BRANCH   2  10
ATOM     10  O   UNL     1      47.168  45.423  32.730  1.00  0.00    -0.507 OA
ATOM     11  H   UNL     1      46.584  45.386  33.557  1.00  0.00     0.293 HD
ENDBRANCH   2  10
TORSDOF 2
ENDMDL
MODEL 7
REMARK VINA RESULT:    -4.703      6.071      7.301
REMARK INTER + INTRA:          -5.343
REMARK INTER:                  -5.096
REMARK INTRA:                  -0.247
REMARK UNBOUND:                -0.228
REMARK SMILES O=C([O-])c1ccccc1O
REMARK SMILES IDX 4 1 9 2 5 3 8 4 6 5 7 6 2 7 1 8 3 9 10 10
REMARK H PARENT 10 11
REMARK Flexibility Score: inf
ROOT
ATOM      1  C   UNL     1      45.543  45.795  47.864  1.00  0.00     0.039 A 
ATOM      2  C   UNL     1      44.139  45.973  47.827  1.00  0.00     0.124 A 
ATOM      3  C   UNL     1      46.273  45.903  46.664  1.00  0.00     0.014 A 
ATOM      4  C   UNL     1      43.502  46.253  46.608  1.00  0.00     0.047 A 
ATOM      5  C   UNL     1      45.625  46.181  45.458  1.00  0.00     0.001 A 
ATOM      6  C   UNL     1      44.243  46.356  45.430  1.00  0.00     0.004 A 
ENDROOT
BRANCH   1   7
ATOM      7  C   UNL     1      46.259  45.497  49.133  1.00  0.00     0.075 C 
ATOM      8  O   UNL     1      46.139  46.264  50.125  1.00  0.00    -0.545 OA
ATOM      9  O   UNL     1      47.070  44.375  49.253  1.00  0.00    -0.545 OA
ENDBRANCH   1   7
BRANCH   2  10
ATOM     10  O   UNL     1      43.375  45.875  48.990  1.00  0.00    -0.507 OA
ATOM     11  H   UNL     1      42.993  46.695  49.446  1.00  0.00     0.293 HD
ENDBRANCH   2  10
TORSDOF 2
ENDMDL
MODEL 8
REMARK VINA RESULT:    -4.701      8.082      8.566
REMARK INTER + INTRA:          -5.340
REMARK INTER:                  -5.108
REMARK INTRA:                  -0.232
REMARK UNBOUND:                -0.228
REMARK SMILES O=C([O-])c1ccccc1O
REMARK SMILES IDX 4 1 9 2 5 3 8 4 6 5 7 6 2 7 1 8 3 9 10 10
REMARK H PARENT 10 11
REMARK Flexibility Score: inf
ROOT
ATOM      1  C   UNL     1      48.078  44.099  34.446  1.00  0.00     0.039 A 
ATOM      2  C   UNL     1      47.590  42.782  34.619  1.00  0.00     0.124 A 
ATOM      3  C   UNL     1      47.879  44.739  33.206  1.00  0.00     0.014 A 
ATOM      4  C   UNL     1      46.922  42.139  33.565  1.00  0.00     0.047 A 
ATOM      5  C   UNL     1      47.212  44.088  32.166  1.00  0.00     0.001 A 
ATOM      6  C   UNL     1      46.735  42.791  32.345  1.00  0.00     0.004 A 
ENDROOT
BRANCH   1   7
ATOM      7  C   UNL     1      48.791  44.817  35.535  1.00  0.00     0.075 C 
ATOM      8  O   UNL     1      49.878  44.369  35.987  1.00  0.00    -0.545 OA
ATOM      9  O   UNL     1      48.279  45.992  36.075  1.00  0.00    -0.545 OA
ENDBRANCH   1   7
BRANCH   2  10
ATOM     10  O   UNL     1      47.764  42.109  35.827  1.00  0.00    -0.507 OA
ATOM     11  H   UNL     1      48.553  41.493  35.985  1.00  0.00     0.293 HD
ENDBRANCH   2  10
TORSDOF 2
ENDMDL
MODEL 9
REMARK VINA RESULT:    -2.474      6.667      8.481
REMARK INTER + INTRA:          -2.919
REMARK INTER:                  -2.670
REMARK INTRA:                  -0.249
REMARK UNBOUND:                -0.228
REMARK SMILES O=C([O-])c1ccccc1O
REMARK SMILES IDX 4 1 9 2 5 3 8 4 6 5 7 6 2 7 1 8 3 9 10 10
REMARK H PARENT 10 11
REMARK Flexibility Score: inf
ROOT
ATOM      1  C   UNL     1      45.987  46.171  47.712  1.00  0.00     0.039 A 
ATOM      2  C   UNL     1      46.392  44.818  47.631  1.00  0.00     0.124 A 
ATOM      3  C   UNL     1      45.961  46.799  48.973  1.00  0.00     0.014 A 
ATOM      4  C   UNL     1      46.759  44.127  48.797  1.00  0.00     0.047 A 
ATOM      5  C   UNL     1      46.329  46.099  50.125  1.00  0.00     0.001 A 
ATOM      6  C   UNL     1      46.727  44.767  50.037  1.00  0.00     0.004 A 
ENDROOT
BRANCH   1   7
ATOM      7  C   UNL     1      45.590  46.940  46.503  1.00  0.00     0.075 C 
ATOM      8  O   UNL     1      46.287  46.882  45.455  1.00  0.00    -0.545 OA
ATOM      9  O   UNL     1      44.449  47.735  46.499  1.00  0.00    -0.545 OA
ENDBRANCH   1   7
BRANCH   2  10
ATOM     10  O   UNL     1      46.433  44.155  46.405  1.00  0.00    -0.507 OA
ATOM     11  H   UNL     1      46.004  43.246  46.276  1.00  0.00     0.293 HD
ENDBRANCH   2  10
TORSDOF 2
ENDMDL
