MODEL 1
REMARK VINA RESULT:    -5.322      0.000      0.000
REMARK INTER + INTRA:          -6.105
REMARK INTER:                  -5.945
REMARK INTRA:                  -0.160
REMARK UNBOUND:                -0.160
REMARK SMILES COc1cc2ccc(=O)oc2cc1OC
REMARK SMILES IDX 3 1 13 2 12 3 11 4 5 5 4 6 6 7 7 8 8 9 9 10 10 11 2 12 1 13
REMARK SMILES IDX 14 14 15 15
REMARK H PARENT
REMARK Flexibility Score: inf
ROOT
ATOM      1  C   UNL     1     106.196 121.759 120.679  1.00  0.00     0.161 A 
ATOM      2  C   UNL     1     106.817 122.049 119.452  1.00  0.00     0.164 A 
ATOM      3  C   UNL     1     108.175 121.725 119.261  1.00  0.00     0.098 A 
ATOM      4  C   UNL     1     108.908 121.119 120.284  1.00  0.00     0.142 A 
ATOM      5  C   UNL     1     108.286 120.829 121.516  1.00  0.00     0.022 A 
ATOM      6  C   UNL     1     106.937 121.149 121.711  1.00  0.00     0.062 A 
ATOM      7  C   UNL     1     109.048 120.223 122.520  1.00  0.00     0.019 A 
ATOM      8  C   UNL     1     110.388 119.925 122.278  1.00  0.00     0.094 A 
ATOM      9  C   UNL     1     110.938 120.241 121.032  1.00  0.00     0.336 A 
ATOM     10  O   UNL     1     112.146 119.981 120.793  1.00  0.00    -0.246 OA
ATOM     11  O   UNL     1     110.190 120.818 120.093  1.00  0.00    -0.423 OA
ENDROOT
BRANCH   1  12
ATOM     12  O   UNL     1     104.841 122.094 120.834  1.00  0.00    -0.493 OA
ATOM     13  C   UNL     1     104.368 123.251 121.516  1.00  0.00     0.278 C 
ENDBRANCH   1  12
BRANCH   2  14
ATOM     14  O   UNL     1     106.049 122.657 118.446  1.00  0.00    -0.493 OA
ATOM     15  C   UNL     1     106.219 123.999 118.001  1.00  0.00     0.278 C 
ENDBRANCH   2  14
TORSDOF 2
ENDMDL
MODEL 2
REMARK VINA RESULT:    -5.145      1.430      2.683
REMARK INTER + INTRA:          -5.907
REMARK INTER:                  -5.793
REMARK INTRA:                  -0.115
REMARK UNBOUND:                -0.160
REMARK SMILES COc1cc2ccc(=O)oc2cc1OC
REMARK SMILES IDX 3 1 13 2 12 3 11 4 5 5 4 6 6 7 7 8 8 9 9 10 10 11 2 12 1 13
REMARK SMILES IDX 14 14 15 15
REMARK H PARENT
REMARK Flexibility Score: inf
ROOT
ATOM      1  C   UNL     1     107.236 122.434 119.101  1.00  0.00     0.161 A 
ATOM      2  C   UNL     1     106.288 121.991 120.039  1.00  0.00     0.164 A 
ATOM      3  C   UNL     1     106.703 121.214 121.139  1.00  0.00     0.098 A 
ATOM      4  C   UNL     1     108.051 120.883 121.302  1.00  0.00     0.142 A 
ATOM      5  C   UNL     1     109.002 121.327 120.361  1.00  0.00     0.022 A 
ATOM      6  C   UNL     1     108.594 122.099 119.266  1.00  0.00     0.062 A 
ATOM      7  C   UNL     1     110.342 120.977 120.553  1.00  0.00     0.019 A 
ATOM      8  C   UNL     1     110.698 120.207 121.659  1.00  0.00     0.094 A 
ATOM      9  C   UNL     1     109.700 119.802 122.552  1.00  0.00     0.336 A 
ATOM     10  O   UNL     1     110.000 119.106 123.556  1.00  0.00    -0.246 OA
ATOM     11  O   UNL     1     108.431 120.149 122.345  1.00  0.00    -0.423 OA
ENDROOT
BRANCH   1  12
ATOM     12  O   UNL     1     106.788 123.207 118.016  1.00  0.00    -0.493 OA
ATOM     13  C   UNL     1     107.375 124.435 117.601  1.00  0.00     0.278 C 
ENDBRANCH   1  12
BRANCH   2  14
ATOM     14  O   UNL     1     104.944 122.344 119.843  1.00  0.00    -0.493 OA
ATOM     15  C   UNL     1     104.327 123.506 120.387  1.00  0.00     0.278 C 
ENDBRANCH   2  14
TORSDOF 2
ENDMDL
MODEL 3
REMARK VINA RESULT:    -5.054      1.899      2.929
REMARK INTER + INTRA:          -5.806
REMARK INTER:                  -5.726
REMARK INTRA:                  -0.079
REMARK UNBOUND:                -0.160
REMARK SMILES COc1cc2ccc(=O)oc2cc1OC
REMARK SMILES IDX 3 1 13 2 12 3 11 4 5 5 4 6 6 7 7 8 8 9 9 10 10 11 2 12 1 13
REMARK SMILES IDX 14 14 15 15
REMARK H PARENT
REMARK Flexibility Score: inf
ROOT
ATOM      1  C   UNL     1     106.160 120.728 120.518  1.00  0.00     0.161 A 
ATOM      2  C   UNL     1     106.666 121.151 121.758  1.00  0.00     0.164 A 
ATOM      3  C   UNL     1     108.034 120.979 122.051  1.00  0.00     0.098 A 
ATOM      4  C   UNL     1     108.888 120.390 121.116  1.00  0.00     0.142 A 
ATOM      5  C   UNL     1     108.381 119.964 119.872  1.00  0.00     0.022 A 
ATOM      6  C   UNL     1     107.022 120.133 119.576  1.00  0.00     0.062 A 
ATOM      7  C   UNL     1     109.262 119.378 118.957  1.00  0.00     0.019 A 
ATOM      8  C   UNL     1     110.605 119.232 119.298  1.00  0.00     0.094 A 
ATOM      9  C   UNL     1     111.039 119.677 120.551  1.00  0.00     0.336 A 
ATOM     10  O   UNL     1     112.248 119.554 120.879  1.00  0.00    -0.246 OA
ATOM     11  O   UNL     1     110.179 120.232 121.403  1.00  0.00    -0.423 OA
ENDROOT
BRANCH   1  12
ATOM     12  O   UNL     1     104.792 120.915 120.259  1.00  0.00    -0.493 OA
ATOM     13  C   UNL     1     103.994 120.049 119.459  1.00  0.00     0.278 C 
ENDBRANCH   1  12
BRANCH   2  14
ATOM     14  O   UNL     1     105.779 121.740 122.673  1.00  0.00    -0.493 OA
ATOM     15  C   UNL     1     105.005 121.018 123.626  1.00  0.00     0.278 C 
ENDBRANCH   2  14
TORSDOF 2
ENDMDL
MODEL 4
REMARK VINA RESULT:    -4.965      1.596      5.411
REMARK INTER + INTRA:          -5.706
REMARK INTER:                  -5.605
REMARK INTRA:                  -0.101
REMARK UNBOUND:                -0.160
REMARK SMILES COc1cc2ccc(=O)oc2cc1OC
REMARK SMILES IDX 3 1 13 2 12 3 11 4 5 5 4 6 6 7 7 8 8 9 9 10 10 11 2 12 1 13
REMARK SMILES IDX 14 14 15 15
REMARK H PARENT
REMARK Flexibility Score: inf
ROOT
ATOM      1  C   UNL     1     108.759 120.635 120.848  1.00  0.00     0.161 A 
ATOM      2  C   UNL     1     107.491 120.467 121.429  1.00  0.00     0.164 A 
ATOM      3  C   UNL     1     106.399 121.221 120.954  1.00  0.00     0.098 A 
ATOM      4  C   UNL     1     106.571 122.134 119.910  1.00  0.00     0.142 A 
ATOM      5  C   UNL     1     107.843 122.302 119.328  1.00  0.00     0.022 A 
ATOM      6  C   UNL     1     108.932 121.556 119.796  1.00  0.00     0.062 A 
ATOM      7  C   UNL     1     107.982 123.224 118.285  1.00  0.00     0.019 A 
ATOM      8  C   UNL     1     106.869 123.944 117.854  1.00  0.00     0.094 A 
ATOM      9  C   UNL     1     105.637 123.724 118.479  1.00  0.00     0.336 A 
ATOM     10  O   UNL     1     104.619 124.363 118.105  1.00  0.00    -0.246 OA
ATOM     11  O   UNL     1     105.533 122.840 119.469  1.00  0.00    -0.423 OA
ENDROOT
BRANCH   1  12
ATOM     12  O   UNL     1     109.825 119.867 121.346  1.00  0.00    -0.493 OA
ATOM     13  C   UNL     1     111.155 119.905 120.839  1.00  0.00     0.278 C 
ENDBRANCH   1  12
BRANCH   2  14
ATOM     14  O   UNL     1     107.355 119.541 122.475  1.00  0.00    -0.493 OA
ATOM     15  C   UNL     1     106.118 119.190 123.087  1.00  0.00     0.278 C 
ENDBRANCH   2  14
TORSDOF 2
ENDMDL
MODEL 5
REMARK VINA RESULT:    -4.959      1.976      2.399
REMARK INTER + INTRA:          -5.699
REMARK INTER:                  -5.539
REMARK INTRA:                  -0.160
REMARK UNBOUND:                -0.160
REMARK SMILES COc1cc2ccc(=O)oc2cc1OC
REMARK SMILES IDX 3 1 13 2 12 3 11 4 5 5 4 6 6 7 7 8 8 9 9 10 10 11 2 12 1 13
REMARK SMILES IDX 14 14 15 15
REMARK H PARENT
REMARK Flexibility Score: inf
ROOT
ATOM      1  C   UNL     1     106.353 121.152 122.008  1.00  0.00     0.161 A 
ATOM      2  C   UNL     1     105.896 120.822 120.720  1.00  0.00     0.164 A 
ATOM      3  C   UNL     1     106.804 120.328 119.762  1.00  0.00     0.098 A 
ATOM      4  C   UNL     1     108.153 120.165 120.084  1.00  0.00     0.142 A 
ATOM      5  C   UNL     1     108.611 120.497 121.375  1.00  0.00     0.022 A 
ATOM      6  C   UNL     1     107.714 120.988 122.331  1.00  0.00     0.062 A 
ATOM      7  C   UNL     1     109.968 120.322 121.666  1.00  0.00     0.019 A 
ATOM      8  C   UNL     1     110.822 119.830 120.680  1.00  0.00     0.094 A 
ATOM      9  C   UNL     1     110.297 119.522 119.421  1.00  0.00     0.336 A 
ATOM     10  O   UNL     1     111.051 119.076 118.517  1.00  0.00    -0.246 OA
ATOM     11  O   UNL     1     109.001 119.697 119.171  1.00  0.00    -0.423 OA
ENDROOT
BRANCH   1  12
ATOM     12  O   UNL     1     105.421 121.642 122.938  1.00  0.00    -0.493 OA
ATOM     13  C   UNL     1     104.771 120.848 123.925  1.00  0.00     0.278 C 
ENDBRANCH   1  12
BRANCH   2  14
ATOM     14  O   UNL     1     104.534 120.998 120.432  1.00  0.00    -0.493 OA
ATOM     15  C   UNL     1     103.576 119.946 120.386  1.00  0.00     0.278 C 
ENDBRANCH   2  14
TORSDOF 2
ENDMDL
MODEL 6
REMARK VINA RESULT:    -4.423      2.063      4.607
REMARK INTER + INTRA:          -5.101
REMARK INTER:                  -4.979
REMARK INTRA:                  -0.122
REMARK UNBOUND:                -0.160
REMARK SMILES COc1cc2ccc(=O)oc2cc1OC
REMARK SMILES IDX 3 1 13 2 12 3 11 4 5 5 4 6 6 7 7 8 8 9 9 10 10 11 2 12 1 13
REMARK SMILES IDX 14 14 15 15
REMARK H PARENT
REMARK Flexibility Score: inf
ROOT
ATOM      1  C   UNL     1     108.933 121.144 121.200  1.00  0.00     0.161 A 
ATOM      2  C   UNL     1     108.157 121.493 120.081  1.00  0.00     0.164 A 
ATOM      3  C   UNL     1     106.818 121.063 119.997  1.00  0.00     0.098 A 
ATOM      4  C   UNL     1     106.257 120.293 121.018  1.00  0.00     0.142 A 
ATOM      5  C   UNL     1     107.035 119.943 122.140  1.00  0.00     0.022 A 
ATOM      6  C   UNL     1     108.367 120.367 122.229  1.00  0.00     0.062 A 
ATOM      7  C   UNL     1     106.444 119.170 123.146  1.00  0.00     0.019 A 
ATOM      8  C   UNL     1     105.115 118.772 123.012  1.00  0.00     0.094 A 
ATOM      9  C   UNL     1     104.404 119.157 121.870  1.00  0.00     0.336 A 
ATOM     10  O   UNL     1     103.203 118.808 121.730  1.00  0.00    -0.246 OA
ATOM     11  O   UNL     1     104.991 119.893 120.929  1.00  0.00    -0.423 OA
ENDROOT
BRANCH   1  12
ATOM     12  O   UNL     1     110.264 121.590 121.251  1.00  0.00    -0.493 OA
ATOM     13  C   UNL     1     111.402 120.761 121.042  1.00  0.00     0.278 C 
ENDBRANCH   1  12
BRANCH   2  14
ATOM     14  O   UNL     1     108.754 122.269 119.074  1.00  0.00    -0.493 OA
ATOM     15  C   UNL     1     108.068 123.241 118.292  1.00  0.00     0.278 C 
ENDBRANCH   2  14
TORSDOF 2
ENDMDL
MODEL 7
REMARK VINA RESULT:    -4.414      1.340      5.090
REMARK INTER + INTRA:          -5.090
REMARK INTER:                  -5.033
REMARK INTRA:                  -0.057
REMARK UNBOUND:                -0.160
REMARK SMILES COc1cc2ccc(=O)oc2cc1OC
REMARK SMILES IDX 3 1 13 2 12 3 11 4 5 5 4 6 6 7 7 8 8 9 9 10 10 11 2 12 1 13
REMARK SMILES IDX 14 14 15 15
REMARK H PARENT
REMARK Flexibility Score: inf
ROOT
ATOM      1  C   UNL     1     108.212 120.403 121.155  1.00  0.00     0.161 A 
ATOM      2  C   UNL     1     108.817 120.756 119.937  1.00  0.00     0.164 A 
ATOM      3  C   UNL     1     108.153 121.633 119.055  1.00  0.00     0.098 A 
ATOM      4  C   UNL     1     106.898 122.151 119.385  1.00  0.00     0.142 A 
ATOM      5  C   UNL     1     106.291 121.796 120.606  1.00  0.00     0.022 A 
ATOM      6  C   UNL     1     106.946 120.925 121.487  1.00  0.00     0.062 A 
ATOM      7  C   UNL     1     105.034 122.331 120.906  1.00  0.00     0.019 A 
ATOM      8  C   UNL     1     104.423 123.194 119.998  1.00  0.00     0.094 A 
ATOM      9  C   UNL     1     105.085 123.502 118.805  1.00  0.00     0.336 A 
ATOM     10  O   UNL     1     104.550 124.278 117.971  1.00  0.00    -0.246 OA
ATOM     11  O   UNL     1     106.281 122.978 118.545  1.00  0.00    -0.423 OA
ENDROOT
BRANCH   1  12
ATOM     12  O   UNL     1     108.902 119.527 122.011  1.00  0.00    -0.493 OA
ATOM     13  C   UNL     1     109.909 119.926 122.934  1.00  0.00     0.278 C 
ENDBRANCH   1  12
BRANCH   2  14
ATOM     14  O   UNL     1     110.078 120.217 119.640  1.00  0.00    -0.493 OA
ATOM     15  C   UNL     1     110.290 119.028 118.885  1.00  0.00     0.278 C 
ENDBRANCH   2  14
TORSDOF 2
ENDMDL
MODEL 8
REMARK VINA RESULT:    -4.382      1.983      3.069
REMARK INTER + INTRA:          -5.055
REMARK INTER:                  -4.954
REMARK INTRA:                  -0.101
REMARK UNBOUND:                -0.160
REMARK SMILES COc1cc2ccc(=O)oc2cc1OC
REMARK SMILES IDX 3 1 13 2 12 3 11 4 5 5 4 6 6 7 7 8 8 9 9 10 10 11 2 12 1 13
REMARK SMILES IDX 14 14 15 15
REMARK H PARENT
REMARK Flexibility Score: inf
ROOT
ATOM      1  C   UNL     1     105.209 121.872 118.898  1.00  0.00     0.161 A 
ATOM      2  C   UNL     1     105.046 120.571 119.403  1.00  0.00     0.164 A 
ATOM      3  C   UNL     1     106.173 119.839 119.830  1.00  0.00     0.098 A 
ATOM      4  C   UNL     1     107.450 120.401 119.755  1.00  0.00     0.142 A 
ATOM      5  C   UNL     1     107.614 121.706 119.248  1.00  0.00     0.022 A 
ATOM      6  C   UNL     1     106.497 122.437 118.822  1.00  0.00     0.062 A 
ATOM      7  C   UNL     1     108.906 122.239 119.186  1.00  0.00     0.019 A 
ATOM      8  C   UNL     1     109.985 121.472 119.622  1.00  0.00     0.094 A 
ATOM      9  C   UNL     1     109.746 120.184 120.113  1.00  0.00     0.336 A 
ATOM     10  O   UNL     1     110.707 119.475 120.511  1.00  0.00    -0.246 OA
ATOM     11  O   UNL     1     108.506 119.701 120.161  1.00  0.00    -0.423 OA
ENDROOT
BRANCH   1  12
ATOM     12  O   UNL     1     104.065 122.572 118.482  1.00  0.00    -0.493 OA
ATOM     13  C   UNL     1     104.045 123.951 118.128  1.00  0.00     0.278 C 
ENDBRANCH   1  12
BRANCH   2  14
ATOM     14  O   UNL     1     103.748 120.039 119.464  1.00  0.00    -0.493 OA
ATOM     15  C   UNL     1     103.432 118.731 119.929  1.00  0.00     0.278 C 
ENDBRANCH   2  14
TORSDOF 2
ENDMDL
MODEL 9
REMARK VINA RESULT:    -4.372      2.716      3.703
REMARK INTER + INTRA:          -5.044
REMARK INTER:                  -4.925
REMARK INTRA:                  -0.119
REMARK UNBOUND:                -0.160
REMARK SMILES COc1cc2ccc(=O)oc2cc1OC
REMARK SMILES IDX 3 1 13 2 12 3 11 4 5 5 4 6 6 7 7 8 8 9 9 10 10 11 2 12 1 13
REMARK SMILES IDX 14 14 15 15
REMARK H PARENT
REMARK Flexibility Score: inf
ROOT
ATOM      1  C   UNL     1     105.371 119.691 121.068  1.00  0.00     0.161 A 
ATOM      2  C   UNL     1     105.149 120.391 122.266  1.00  0.00     0.164 A 
ATOM      3  C   UNL     1     106.208 121.099 122.869  1.00  0.00     0.098 A 
ATOM      4  C   UNL     1     107.476 121.109 122.283  1.00  0.00     0.142 A 
ATOM      5  C   UNL     1     107.699 120.407 121.082  1.00  0.00     0.022 A 
ATOM      6  C   UNL     1     106.650 119.701 120.478  1.00  0.00     0.062 A 
ATOM      7  C   UNL     1     108.980 120.437 120.521  1.00  0.00     0.019 A 
ATOM      8  C   UNL     1     109.991 121.153 121.159  1.00  0.00     0.094 A 
ATOM      9  C   UNL     1     109.696 121.827 122.349  1.00  0.00     0.336 A 
ATOM     10  O   UNL     1     110.595 122.479 122.942  1.00  0.00    -0.246 OA
ATOM     11  O   UNL     1     108.468 121.782 122.861  1.00  0.00    -0.423 OA
ENDROOT
BRANCH   1  12
ATOM     12  O   UNL     1     104.293 118.996 120.494  1.00  0.00    -0.493 OA
ATOM     13  C   UNL     1     104.180 117.578 120.447  1.00  0.00     0.278 C 
ENDBRANCH   1  12
BRANCH   2  14
ATOM     14  O   UNL     1     103.862 120.359 122.826  1.00  0.00    -0.493 OA
ATOM     15  C   UNL     1     103.387 121.271 123.811  1.00  0.00     0.278 C 
ENDBRANCH   2  14
TORSDOF 2
ENDMDL
