MODEL 1
REMARK VINA RESULT:    -4.599      0.000      0.000
REMARK INTER + INTRA:          -7.648
REMARK INTER:                  -7.019
REMARK INTRA:                  -0.629
REMARK UNBOUND:                -0.629
REMARK SMILES CC1=CCC[C@H](C)C(=O)C[C@H](C(C)C)C(=O)C1
REMARK SMILES IDX 8 1 9 2 6 3 7 4 5 5 4 6 3 7 2 8 1 9 10 11 11 12 15 13 16 14
REMARK SMILES IDX 17 15 12 17 13 18 14 19
REMARK H PARENT
REMARK Flexibility Score: 70.00
ROOT
ATOM      1  C   UNL     1      17.035 -30.396  22.853  1.00  0.00     0.136 C 
ATOM      2  O   UNL     1      17.984 -30.629  23.585  1.00  0.00    -0.299 OA
ENDROOT
BRANCH   1   3
ATOM      3  C   UNL     1      17.310 -30.088  21.373  1.00  0.00     0.053 C 
ATOM      4  C   UNL     1      18.014 -28.738  21.226  1.00  0.00     0.016 C 
BRANCH   3   5
ATOM      5  C   UNL     1      18.154 -31.230  20.847  1.00  0.00     0.015 C 
BRANCH   5   6
ATOM      6  C   UNL     1      17.642 -32.559  20.356  1.00  0.00     0.028 C 
BRANCH   6   7
ATOM      7  C   UNL     1      17.838 -33.592  21.471  1.00  0.00    -0.028 C 
ATOM      8  C   UNL     1      16.908 -34.098  22.354  1.00  0.00    -0.070 CG0
ATOM      9  C   UNL     1      17.403 -35.049  23.418  1.00  0.00     0.039 C 
ATOM     10  G   UNL     1      15.378 -33.896  22.312  1.00  0.00     0.000 G0
ENDBRANCH   6   7
ENDBRANCH   5   6
ENDBRANCH   3   5
ENDBRANCH   1   3
BRANCH   1  11
ATOM     11  C   UNL     1      15.619 -30.381  23.457  1.00  0.00     0.087 C 
BRANCH  11  12
ATOM     12  C   UNL     1      14.591 -31.375  22.780  1.00  0.00     0.066 C 
BRANCH  12  13
ATOM     13  C   UNL     1      14.814 -32.832  23.250  1.00  0.00     0.140 C 
ATOM     14  O   UNL     1      14.498 -33.143  24.389  1.00  0.00    -0.299 OA
BRANCH  13  15
ATOM     15  C   UNL     1      15.369 -33.920  22.320  1.00  0.00     0.106 CG0
ATOM     16  G   UNL     1      16.905 -34.077  22.350  1.00  0.00     0.000 G0
ENDBRANCH  13  15
ENDBRANCH  12  13
BRANCH  12  17
ATOM     17  C   UNL     1      13.111 -30.932  23.028  1.00  0.00    -0.006 C 
ATOM     18  C   UNL     1      13.048 -29.667  23.908  1.00  0.00     0.008 C 
ATOM     19  C   UNL     1      12.362 -30.644  21.713  1.00  0.00     0.008 C 
ENDBRANCH  12  17
ENDBRANCH  11  12
ENDBRANCH   1  11
TORSDOF 1
ENDMDL
MODEL 2
REMARK VINA RESULT:    -4.232      2.141      4.707
REMARK INTER + INTRA:          -7.088
REMARK INTER:                  -6.596
REMARK INTRA:                  -0.492
REMARK UNBOUND:                -0.629
REMARK SMILES CC1=CCC[C@H](C)C(=O)C[C@H](C(C)C)C(=O)C1
REMARK SMILES IDX 8 1 9 2 6 3 7 4 5 5 4 6 3 7 2 8 1 9 10 11 11 12 15 13 16 14
REMARK SMILES IDX 17 15 12 17 13 18 14 19
REMARK H PARENT
REMARK Flexibility Score: 70.00
ROOT
ATOM      1  C   UNL     1      14.339 -32.752  21.211  1.00  0.00     0.136 C 
ATOM      2  O   UNL     1      13.823 -33.002  20.133  1.00  0.00    -0.299 OA
ENDROOT
BRANCH   1   3
ATOM      3  C   UNL     1      13.924 -31.464  21.940  1.00  0.00     0.053 C 
ATOM      4  C   UNL     1      13.947 -31.672  23.456  1.00  0.00     0.016 C 
BRANCH   3   5
ATOM      5  C   UNL     1      14.896 -30.389  21.499  1.00  0.00     0.015 C 
BRANCH   5   6
ATOM      6  C   UNL     1      15.747 -29.539  22.404  1.00  0.00     0.028 C 
BRANCH   6   7
ATOM      7  C   UNL     1      17.209 -29.688  21.971  1.00  0.00    -0.028 C 
ATOM      8  C   UNL     1      18.146 -30.608  22.391  1.00  0.00    -0.070 CG0
ATOM      9  C   UNL     1      19.552 -30.465  21.857  1.00  0.00     0.039 C 
ATOM     10  G   UNL     1      17.897 -31.858  23.264  1.00  0.00     0.000 G0
ENDBRANCH   6   7
ENDBRANCH   5   6
ENDBRANCH   3   5
ENDBRANCH   1   3
BRANCH   1  11
ATOM     11  C   UNL     1      15.405 -33.715  21.764  1.00  0.00     0.087 C 
BRANCH  11  12
ATOM     12  C   UNL     1      16.887 -33.409  21.304  1.00  0.00     0.066 C 
BRANCH  12  13
ATOM     13  C   UNL     1      17.826 -33.196  22.515  1.00  0.00     0.140 C 
ATOM     14  O   UNL     1      18.564 -34.107  22.862  1.00  0.00    -0.299 OA
BRANCH  13  15
ATOM     15  C   UNL     1      17.906 -31.861  23.267  1.00  0.00     0.106 CG0
ATOM     16  G   UNL     1      18.160 -30.627  22.374  1.00  0.00     0.000 G0
ENDBRANCH  13  15
ENDBRANCH  12  13
BRANCH  12  17
ATOM     17  C   UNL     1      17.441 -34.529  20.363  1.00  0.00    -0.006 C 
ATOM     18  C   UNL     1      16.380 -35.619  20.108  1.00  0.00     0.008 C 
ATOM     19  C   UNL     1      17.898 -33.971  19.001  1.00  0.00     0.008 C 
ENDBRANCH  12  17
ENDBRANCH  11  12
ENDBRANCH   1  11
TORSDOF 1
ENDMDL
MODEL 3
REMARK VINA RESULT:    -4.208      2.195      4.426
REMARK INTER + INTRA:          -7.051
REMARK INTER:                  -6.523
REMARK INTRA:                  -0.528
REMARK UNBOUND:                -0.629
REMARK SMILES CC1=CCC[C@H](C)C(=O)C[C@H](C(C)C)C(=O)C1
REMARK SMILES IDX 8 1 9 2 6 3 7 4 5 5 4 6 3 7 2 8 1 9 10 11 11 12 15 13 16 14
REMARK SMILES IDX 17 15 12 17 13 18 14 19
REMARK H PARENT
REMARK Flexibility Score: 70.00
ROOT
ATOM      1  C   UNL     1      14.432 -32.182  21.806  1.00  0.00     0.136 C 
ATOM      2  O   UNL     1      14.351 -31.542  20.769  1.00  0.00    -0.299 OA
ENDROOT
BRANCH   1   3
ATOM      3  C   UNL     1      13.971 -31.520  23.114  1.00  0.00     0.053 C 
ATOM      4  C   UNL     1      13.941 -32.541  24.253  1.00  0.00     0.016 C 
BRANCH   3   5
ATOM      5  C   UNL     1      14.943 -30.390  23.389  1.00  0.00     0.015 C 
BRANCH   5   6
ATOM      6  C   UNL     1      16.420 -30.401  23.097  1.00  0.00     0.028 C 
BRANCH   6   7
ATOM      7  C   UNL     1      17.150 -30.950  24.326  1.00  0.00    -0.028 C 
ATOM      8  C   UNL     1      17.930 -32.081  24.436  1.00  0.00    -0.070 CG0
ATOM      9  C   UNL     1      18.459 -32.433  25.807  1.00  0.00     0.039 C 
ATOM     10  G   UNL     1      18.431 -32.982  23.286  1.00  0.00     0.000 G0
ENDBRANCH   6   7
ENDBRANCH   5   6
ENDBRANCH   3   5
ENDBRANCH   1   3
BRANCH   1  11
ATOM     11  C   UNL     1      15.028 -33.600  21.756  1.00  0.00     0.087 C 
BRANCH  11  12
ATOM     12  C   UNL     1      16.579 -33.665  21.448  1.00  0.00     0.066 C 
BRANCH  12  13
ATOM     13  C   UNL     1      17.399 -33.983  22.721  1.00  0.00     0.140 C 
ATOM     14  O   UNL     1      17.247 -35.065  23.269  1.00  0.00    -0.299 OA
BRANCH  13  15
ATOM     15  C   UNL     1      18.440 -33.011  23.292  1.00  0.00     0.106 CG0
ATOM     16  G   UNL     1      17.925 -32.103  24.429  1.00  0.00     0.000 G0
ENDBRANCH  13  15
ENDBRANCH  12  13
BRANCH  12  17
ATOM     17  C   UNL     1      16.899 -34.690  20.311  1.00  0.00    -0.006 C 
ATOM     18  C   UNL     1      15.706 -35.636  20.061  1.00  0.00     0.008 C 
ATOM     19  C   UNL     1      17.249 -33.994  18.982  1.00  0.00     0.008 C 
ENDBRANCH  12  17
ENDBRANCH  11  12
ENDBRANCH   1  11
TORSDOF 1
ENDMDL
MODEL 4
REMARK VINA RESULT:    -4.025      1.960      4.433
REMARK INTER + INTRA:          -6.772
REMARK INTER:                  -6.217
REMARK INTRA:                  -0.555
REMARK UNBOUND:                -0.629
REMARK SMILES CC1=CCC[C@H](C)C(=O)C[C@H](C(C)C)C(=O)C1
REMARK SMILES IDX 8 1 9 2 6 3 7 4 5 5 4 6 3 7 2 8 1 9 10 11 11 12 15 13 16 14
REMARK SMILES IDX 17 15 12 17 13 18 14 19
REMARK H PARENT
REMARK Flexibility Score: 70.00
ROOT
ATOM      1  C   UNL     1      18.299 -31.879  21.022  1.00  0.00     0.136 C 
ATOM      2  O   UNL     1      17.774 -30.987  20.373  1.00  0.00    -0.299 OA
ENDROOT
BRANCH   1   3
ATOM      3  C   UNL     1      19.099 -31.498  22.277  1.00  0.00     0.053 C 
ATOM      4  C   UNL     1      20.233 -30.534  21.920  1.00  0.00     0.016 C 
BRANCH   3   5
ATOM      5  C   UNL     1      18.112 -30.881  23.246  1.00  0.00     0.015 C 
BRANCH   5   6
ATOM      6  C   UNL     1      17.229 -31.630  24.209  1.00  0.00     0.028 C 
BRANCH   6   7
ATOM      7  C   UNL     1      15.770 -31.294  23.886  1.00  0.00    -0.028 C 
ATOM      8  C   UNL     1      14.846 -32.039  23.184  1.00  0.00    -0.070 CG0
ATOM      9  C   UNL     1      13.491 -31.417  22.938  1.00  0.00     0.039 C 
ATOM     10  G   UNL     1      14.994 -33.502  22.712  1.00  0.00     0.000 G0
ENDBRANCH   6   7
ENDBRANCH   5   6
ENDBRANCH   3   5
ENDBRANCH   1   3
BRANCH   1  11
ATOM     11  C   UNL     1      18.165 -33.331  20.529  1.00  0.00     0.087 C 
BRANCH  11  12
ATOM     12  C   UNL     1      17.212 -34.249  21.396  1.00  0.00     0.066 C 
BRANCH  12  13
ATOM     13  C   UNL     1      15.762 -33.711  21.409  1.00  0.00     0.140 C 
ATOM     14  O   UNL     1      15.205 -33.478  20.346  1.00  0.00    -0.299 OA
BRANCH  13  15
ATOM     15  C   UNL     1      14.973 -33.509  22.710  1.00  0.00     0.106 CG0
ATOM     16  G   UNL     1      14.853 -32.042  23.176  1.00  0.00     0.000 G0
ENDBRANCH  13  15
ENDBRANCH  12  13
BRANCH  12  17
ATOM     17  C   UNL     1      17.248 -35.736  20.913  1.00  0.00    -0.006 C 
ATOM     18  C   UNL     1      17.436 -35.822  19.384  1.00  0.00     0.008 C 
ATOM     19  C   UNL     1      18.379 -36.539  21.584  1.00  0.00     0.008 C 
ENDBRANCH  12  17
ENDBRANCH  11  12
ENDBRANCH   1  11
TORSDOF 1
ENDMDL
MODEL 5
REMARK VINA RESULT:    -3.933      2.127      3.578
REMARK INTER + INTRA:          -6.630
REMARK INTER:                  -6.333
REMARK INTRA:                  -0.298
REMARK UNBOUND:                -0.629
REMARK SMILES CC1=CCC[C@H](C)C(=O)C[C@H](C(C)C)C(=O)C1
REMARK SMILES IDX 8 1 9 2 6 3 7 4 5 5 4 6 3 7 2 8 1 9 10 11 11 12 15 13 16 14
REMARK SMILES IDX 17 15 12 17 13 18 14 19
REMARK H PARENT
REMARK Flexibility Score: 70.00
ROOT
ATOM      1  C   UNL     1      14.847 -33.390  20.311  1.00  0.00     0.136 C 
ATOM      2  O   UNL     1      14.124 -33.666  19.366  1.00  0.00    -0.299 OA
ENDROOT
BRANCH   1   3
ATOM      3  C   UNL     1      16.142 -34.193  20.501  1.00  0.00     0.053 C 
ATOM      4  C   UNL     1      15.937 -35.652  20.088  1.00  0.00     0.016 C 
BRANCH   3   5
ATOM      5  C   UNL     1      17.200 -33.508  19.660  1.00  0.00     0.015 C 
BRANCH   5   6
ATOM      6  C   UNL     1      18.457 -32.858  20.174  1.00  0.00     0.028 C 
BRANCH   6   7
ATOM      7  C   UNL     1      18.707 -33.353  21.602  1.00  0.00    -0.028 C 
ATOM      8  C   UNL     1      18.533 -32.682  22.794  1.00  0.00    -0.070 CG0
ATOM      9  C   UNL     1      18.948 -33.392  24.060  1.00  0.00     0.039 C 
ATOM     10  G   UNL     1      17.846 -31.315  23.000  1.00  0.00     0.000 G0
ENDBRANCH   6   7
ENDBRANCH   5   6
ENDBRANCH   3   5
ENDBRANCH   1   3
BRANCH   1  11
ATOM     11  C   UNL     1      14.403 -32.283  21.284  1.00  0.00     0.087 C 
BRANCH  11  12
ATOM     12  C   UNL     1      15.310 -32.118  22.570  1.00  0.00     0.066 C 
BRANCH  12  13
ATOM     13  C   UNL     1      16.486 -31.146  22.316  1.00  0.00     0.140 C 
ATOM     14  O   UNL     1      16.317 -30.190  21.572  1.00  0.00    -0.299 OA
BRANCH  13  15
ATOM     15  C   UNL     1      17.847 -31.305  23.007  1.00  0.00     0.106 CG0
ATOM     16  G   UNL     1      18.524 -32.677  22.800  1.00  0.00     0.000 G0
ENDBRANCH  13  15
ENDBRANCH  12  13
BRANCH  12  17
ATOM     17  C   UNL     1      14.473 -31.664  23.811  1.00  0.00    -0.006 C 
ATOM     18  C   UNL     1      13.278 -30.785  23.387  1.00  0.00     0.008 C 
ATOM     19  C   UNL     1      13.929 -32.860  24.615  1.00  0.00     0.008 C 
ENDBRANCH  12  17
ENDBRANCH  11  12
ENDBRANCH   1  11
TORSDOF 1
ENDMDL
MODEL 6
REMARK VINA RESULT:    -3.932      2.148      4.702
REMARK INTER + INTRA:          -6.629
REMARK INTER:                  -6.566
REMARK INTRA:                  -0.064
REMARK UNBOUND:                -0.629
REMARK SMILES CC1=CCC[C@H](C)C(=O)C[C@H](C(C)C)C(=O)C1
REMARK SMILES IDX 8 1 9 2 6 3 7 4 5 5 4 6 3 7 2 8 1 9 10 11 11 12 15 13 16 14
REMARK SMILES IDX 17 15 12 17 13 18 14 19
REMARK H PARENT
REMARK Flexibility Score: 70.00
ROOT
ATOM      1  C   UNL     1      14.480 -32.421  21.915  1.00  0.00     0.136 C 
ATOM      2  O   UNL     1      13.745 -31.750  21.207  1.00  0.00    -0.299 OA
ENDROOT
BRANCH   1   3
ATOM      3  C   UNL     1      14.692 -31.985  23.372  1.00  0.00     0.053 C 
ATOM      4  C   UNL     1      13.498 -31.168  23.869  1.00  0.00     0.016 C 
BRANCH   3   5
ATOM      5  C   UNL     1      14.886 -33.255  24.176  1.00  0.00     0.015 C 
BRANCH   5   6
ATOM      6  C   UNL     1      16.189 -33.756  24.740  1.00  0.00     0.028 C 
BRANCH   6   7
ATOM      7  C   UNL     1      17.255 -32.678  24.524  1.00  0.00    -0.028 C 
ATOM      8  C   UNL     1      18.170 -32.560  23.500  1.00  0.00    -0.070 CG0
ATOM      9  C   UNL     1      19.173 -31.433  23.588  1.00  0.00     0.039 C 
ATOM     10  G   UNL     1      18.220 -33.384  22.195  1.00  0.00     0.000 G0
ENDBRANCH   6   7
ENDBRANCH   5   6
ENDBRANCH   3   5
ENDBRANCH   1   3
BRANCH   1  11
ATOM     11  C   UNL     1      15.187 -33.642  21.299  1.00  0.00     0.087 C 
BRANCH  11  12
ATOM     12  C   UNL     1      16.328 -33.302  20.258  1.00  0.00     0.066 C 
BRANCH  12  13
ATOM     13  C   UNL     1      17.585 -32.731  20.957  1.00  0.00     0.140 C 
ATOM     14  O   UNL     1      18.069 -31.686  20.548  1.00  0.00    -0.299 OA
BRANCH  13  15
ATOM     15  C   UNL     1      18.219 -33.403  22.182  1.00  0.00     0.106 CG0
ATOM     16  G   UNL     1      18.167 -32.568  23.480  1.00  0.00     0.000 G0
ENDBRANCH  13  15
ENDBRANCH  12  13
BRANCH  12  17
ATOM     17  C   UNL     1      16.697 -34.542  19.379  1.00  0.00    -0.006 C 
ATOM     18  C   UNL     1      18.054 -34.344  18.675  1.00  0.00     0.008 C 
ATOM     19  C   UNL     1      16.767 -35.841  20.206  1.00  0.00     0.008 C 
ENDBRANCH  12  17
ENDBRANCH  11  12
ENDBRANCH   1  11
TORSDOF 1
ENDMDL
MODEL 7
REMARK VINA RESULT:    -3.901      2.324      5.070
REMARK INTER + INTRA:          -6.582
REMARK INTER:                  -6.235
REMARK INTRA:                  -0.346
REMARK UNBOUND:                -0.629
REMARK SMILES CC1=CCC[C@H](C)C(=O)C[C@H](C(C)C)C(=O)C1
REMARK SMILES IDX 8 1 9 2 6 3 7 4 5 5 4 6 3 7 2 8 1 9 10 11 11 12 15 13 16 14
REMARK SMILES IDX 17 15 12 17 13 18 14 19
REMARK H PARENT
REMARK Flexibility Score: 70.00
ROOT
ATOM      1  C   UNL     1      18.244 -34.684  23.413  1.00  0.00     0.136 C 
ATOM      2  O   UNL     1      19.350 -34.970  23.846  1.00  0.00    -0.299 OA
ENDROOT
BRANCH   1   3
ATOM      3  C   UNL     1      17.065 -34.625  24.396  1.00  0.00     0.053 C 
ATOM      4  C   UNL     1      17.297 -35.575  25.573  1.00  0.00     0.016 C 
BRANCH   3   5
ATOM      5  C   UNL     1      16.951 -33.182  24.844  1.00  0.00     0.015 C 
BRANCH   5   6
ATOM      6  C   UNL     1      17.632 -32.000  24.207  1.00  0.00     0.028 C 
BRANCH   6   7
ATOM      7  C   UNL     1      16.558 -31.108  23.577  1.00  0.00    -0.028 C 
ATOM      8  C   UNL     1      16.147 -31.045  22.262  1.00  0.00    -0.070 CG0
ATOM      9  C   UNL     1      15.120 -29.998  21.902  1.00  0.00     0.039 C 
ATOM     10  G   UNL     1      16.532 -32.010  21.119  1.00  0.00     0.000 G0
ENDBRANCH   6   7
ENDBRANCH   5   6
ENDBRANCH   3   5
ENDBRANCH   1   3
BRANCH   1  11
ATOM     11  C   UNL     1      18.081 -34.438  21.902  1.00  0.00     0.087 C 
BRANCH  11  12
ATOM     12  C   UNL     1      16.628 -34.698  21.334  1.00  0.00     0.066 C 
BRANCH  12  13
ATOM     13  C   UNL     1      15.842 -33.378  21.155  1.00  0.00     0.140 C 
ATOM     14  O   UNL     1      14.623 -33.419  21.077  1.00  0.00    -0.299 OA
BRANCH  13  15
ATOM     15  C   UNL     1      16.533 -32.008  21.126  1.00  0.00     0.106 CG0
ATOM     16  G   UNL     1      16.125 -31.051  22.267  1.00  0.00     0.000 G0
ENDBRANCH  13  15
ENDBRANCH  12  13
BRANCH  12  17
ATOM     17  C   UNL     1      16.669 -35.506  19.994  1.00  0.00    -0.006 C 
ATOM     18  C   UNL     1      17.371 -34.703  18.880  1.00  0.00     0.008 C 
ATOM     19  C   UNL     1      17.397 -36.855  20.150  1.00  0.00     0.008 C 
ENDBRANCH  12  17
ENDBRANCH  11  12
ENDBRANCH   1  11
TORSDOF 1
ENDMDL
MODEL 8
REMARK VINA RESULT:    -3.892      2.254      3.353
REMARK INTER + INTRA:          -6.569
REMARK INTER:                  -6.274
REMARK INTRA:                  -0.294
REMARK UNBOUND:                -0.629
REMARK SMILES CC1=CCC[C@H](C)C(=O)C[C@H](C(C)C)C(=O)C1
REMARK SMILES IDX 8 1 9 2 6 3 7 4 5 5 4 6 3 7 2 8 1 9 10 11 11 12 15 13 16 14
REMARK SMILES IDX 17 15 12 17 13 18 14 19
REMARK H PARENT
REMARK Flexibility Score: 70.00
ROOT
ATOM      1  C   UNL     1      15.854 -34.249  20.622  1.00  0.00     0.136 C 
ATOM      2  O   UNL     1      14.985 -34.592  19.836  1.00  0.00    -0.299 OA
ENDROOT
BRANCH   1   3
ATOM      3  C   UNL     1      17.026 -35.209  20.883  1.00  0.00     0.053 C 
ATOM      4  C   UNL     1      17.137 -36.242  19.760  1.00  0.00     0.016 C 
BRANCH   3   5
ATOM      5  C   UNL     1      18.269 -34.349  20.990  1.00  0.00     0.015 C 
BRANCH   5   6
ATOM      6  C   UNL     1      18.921 -33.888  22.267  1.00  0.00     0.028 C 
BRANCH   6   7
ATOM      7  C   UNL     1      18.236 -34.595  23.440  1.00  0.00    -0.028 C 
ATOM      8  C   UNL     1      17.283 -34.105  24.309  1.00  0.00    -0.070 CG0
ATOM      9  C   UNL     1      16.844 -35.004  25.441  1.00  0.00     0.039 C 
ATOM     10  G   UNL     1      16.514 -32.771  24.191  1.00  0.00     0.000 G0
ENDBRANCH   6   7
ENDBRANCH   5   6
ENDBRANCH   3   5
ENDBRANCH   1   3
BRANCH   1  11
ATOM     11  C   UNL     1      15.711 -32.895  21.340  1.00  0.00     0.087 C 
BRANCH  11  12
ATOM     12  C   UNL     1      14.516 -32.807  22.372  1.00  0.00     0.066 C 
BRANCH  12  13
ATOM     13  C   UNL     1      15.017 -32.894  23.833  1.00  0.00     0.140 C 
ATOM     14  O   UNL     1      14.211 -33.121  24.724  1.00  0.00    -0.299 OA
BRANCH  13  15
ATOM     15  C   UNL     1      16.500 -32.762  24.202  1.00  0.00     0.106 CG0
ATOM     16  G   UNL     1      17.268 -34.099  24.296  1.00  0.00     0.000 G0
ENDBRANCH  13  15
ENDBRANCH  12  13
BRANCH  12  17
ATOM     17  C   UNL     1      13.661 -31.514  22.155  1.00  0.00    -0.006 C 
ATOM     18  C   UNL     1      14.464 -30.248  22.517  1.00  0.00     0.008 C 
ATOM     19  C   UNL     1      13.173 -31.377  20.700  1.00  0.00     0.008 C 
ENDBRANCH  12  17
ENDBRANCH  11  12
ENDBRANCH   1  11
TORSDOF 1
ENDMDL
MODEL 9
REMARK VINA RESULT:    -3.855      2.804      5.053
REMARK INTER + INTRA:          -6.512
REMARK INTER:                  -5.956
REMARK INTRA:                  -0.555
REMARK UNBOUND:                -0.629
REMARK SMILES CC1=CCC[C@H](C)C(=O)C[C@H](C(C)C)C(=O)C1
REMARK SMILES IDX 8 1 9 2 6 3 7 4 5 5 4 6 3 7 2 8 1 9 10 11 11 12 15 13 16 14
REMARK SMILES IDX 17 15 12 17 13 18 14 19
REMARK H PARENT
REMARK Flexibility Score: 70.00
ROOT
ATOM      1  C   UNL     1      15.490 -33.551  22.158  1.00  0.00     0.136 C 
ATOM      2  O   UNL     1      14.633 -33.406  21.301  1.00  0.00    -0.299 OA
ENDROOT
BRANCH   1   3
ATOM      3  C   UNL     1      15.624 -32.478  23.250  1.00  0.00     0.053 C 
ATOM      4  C   UNL     1      14.245 -31.972  23.679  1.00  0.00     0.016 C 
BRANCH   3   5
ATOM      5  C   UNL     1      16.375 -33.124  24.397  1.00  0.00     0.015 C 
BRANCH   5   6
ATOM      6  C   UNL     1      17.669 -32.639  24.994  1.00  0.00     0.028 C 
BRANCH   6   7
ATOM      7  C   UNL     1      18.470 -33.857  25.463  1.00  0.00    -0.028 C 
ATOM      8  C   UNL     1      19.295 -34.684  24.730  1.00  0.00    -0.070 CG0
ATOM      9  C   UNL     1      19.895 -35.875  25.439  1.00  0.00     0.039 C 
ATOM     10  G   UNL     1      19.780 -34.468  23.280  1.00  0.00     0.000 G0
ENDBRANCH   6   7
ENDBRANCH   5   6
ENDBRANCH   3   5
ENDBRANCH   1   3
BRANCH   1  11
ATOM     11  C   UNL     1      16.417 -34.778  22.078  1.00  0.00     0.087 C 
BRANCH  11  12
ATOM     12  C   UNL     1      17.830 -34.508  21.420  1.00  0.00     0.066 C 
BRANCH  12  13
ATOM     13  C   UNL     1      18.967 -35.202  22.207  1.00  0.00     0.140 C 
ATOM     14  O   UNL     1      19.252 -36.360  21.940  1.00  0.00    -0.299 OA
BRANCH  13  15
ATOM     15  C   UNL     1      19.790 -34.472  23.276  1.00  0.00     0.106 CG0
ATOM     16  G   UNL     1      19.291 -34.668  24.725  1.00  0.00     0.000 G0
ENDBRANCH  13  15
ENDBRANCH  12  13
BRANCH  12  17
ATOM     17  C   UNL     1      17.856 -34.935  19.915  1.00  0.00    -0.006 C 
ATOM     18  C   UNL     1      16.745 -35.960  19.607  1.00  0.00     0.008 C 
ATOM     19  C   UNL     1      17.681 -33.733  18.966  1.00  0.00     0.008 C 
ENDBRANCH  12  17
ENDBRANCH  11  12
ENDBRANCH   1  11
TORSDOF 1
ENDMDL
