MODEL 1
REMARK VINA RESULT:    -2.975      0.000      0.000
REMARK INTER + INTRA:          -3.149
REMARK INTER:                  -3.149
REMARK INTRA:                   0.000
REMARK UNBOUND:                 0.000
REMARK SMILES Cc1cc(O)c(C)c(C)c1O
REMARK SMILES IDX 1 1 2 2 3 3 4 4 6 5 8 6 10 7 9 8 7 9 11 10 5 12
REMARK H PARENT 11 11 5 13
REMARK Flexibility Score: inf
ROOT
ATOM      1  C   UNL     1      13.095   3.737  -2.433  1.00  0.00     0.048 C 
ATOM      2  C   UNL     1      11.948   4.699  -2.303  1.00  0.00    -0.005 A 
ATOM      3  C   UNL     1      10.633   4.234  -2.396  1.00  0.00     0.053 A 
ATOM      4  C   UNL     1       9.553   5.107  -2.246  1.00  0.00     0.119 A 
ATOM      5  C   UNL     1       9.776   6.479  -2.004  1.00  0.00    -0.003 A 
ATOM      6  C   UNL     1      11.110   6.972  -1.951  1.00  0.00    -0.002 A 
ATOM      7  C   UNL     1      12.193   6.062  -2.064  1.00  0.00     0.121 A 
ATOM      8  C   UNL     1      11.401   8.443  -1.751  1.00  0.00     0.049 C 
ATOM      9  C   UNL     1       8.593   7.402  -1.824  1.00  0.00     0.049 C 
ENDROOT
BRANCH   7  10
ATOM     10  O   UNL     1      13.521   6.483  -1.937  1.00  0.00    -0.507 OA
ATOM     11  H   UNL     1      13.937   7.211  -2.502  1.00  0.00     0.293 HD
ENDBRANCH   7  10
BRANCH   4  12
ATOM     12  O   UNL     1       8.254   4.607  -2.339  1.00  0.00    -0.508 OA
ATOM     13  H   UNL     1       7.957   3.789  -1.819  1.00  0.00     0.293 HD
ENDBRANCH   4  12
TORSDOF 2
ENDMDL
MODEL 2
REMARK VINA RESULT:    -2.960      1.737      2.321
REMARK INTER + INTRA:          -3.133
REMARK INTER:                  -3.133
REMARK INTRA:                   0.000
REMARK UNBOUND:                 0.000
REMARK SMILES Cc1cc(O)c(C)c(C)c1O
REMARK SMILES IDX 1 1 2 2 3 3 4 4 6 5 8 6 10 7 9 8 7 9 11 10 5 12
REMARK H PARENT 11 11 5 13
REMARK Flexibility Score: inf
ROOT
ATOM      1  C   UNL     1      11.978   4.902  -1.018  1.00  0.00     0.048 C 
ATOM      2  C   UNL     1      11.369   6.234  -1.357  1.00  0.00    -0.005 A 
ATOM      3  C   UNL     1      10.050   6.513  -0.986  1.00  0.00     0.053 A 
ATOM      4  C   UNL     1       9.477   7.756  -1.264  1.00  0.00     0.119 A 
ATOM      5  C   UNL     1      10.223   8.749  -1.933  1.00  0.00    -0.003 A 
ATOM      6  C   UNL     1      11.551   8.461  -2.355  1.00  0.00    -0.002 A 
ATOM      7  C   UNL     1      12.129   7.208  -2.025  1.00  0.00     0.121 A 
ATOM      8  C   UNL     1      12.372   9.473  -3.125  1.00  0.00     0.049 C 
ATOM      9  C   UNL     1       9.590  10.095  -2.205  1.00  0.00     0.049 C 
ENDROOT
BRANCH   7  10
ATOM     10  O   UNL     1      13.458   6.907  -2.345  1.00  0.00    -0.507 OA
ATOM     11  H   UNL     1      13.762   6.605  -3.260  1.00  0.00     0.293 HD
ENDBRANCH   7  10
BRANCH   4  12
ATOM     12  O   UNL     1       8.160   8.001  -0.875  1.00  0.00    -0.508 OA
ATOM     13  H   UNL     1       7.518   7.248  -0.654  1.00  0.00     0.293 HD
ENDBRANCH   4  12
TORSDOF 2
ENDMDL
MODEL 3
REMARK VINA RESULT:    -2.934      0.797      3.190
REMARK INTER + INTRA:          -3.105
REMARK INTER:                  -3.105
REMARK INTRA:                   0.000
REMARK UNBOUND:                 0.000
REMARK SMILES Cc1cc(O)c(C)c(C)c1O
REMARK SMILES IDX 1 1 2 2 3 3 4 4 6 5 8 6 10 7 9 8 7 9 11 10 5 12
REMARK H PARENT 11 11 5 13
REMARK Flexibility Score: inf
ROOT
ATOM      1  C   UNL     1      10.979   3.167  -3.103  1.00  0.00     0.048 C 
ATOM      2  C   UNL     1      11.099   4.615  -2.717  1.00  0.00    -0.005 A 
ATOM      3  C   UNL     1      12.336   5.261  -2.805  1.00  0.00     0.053 A 
ATOM      4  C   UNL     1      12.461   6.614  -2.481  1.00  0.00     0.119 A 
ATOM      5  C   UNL     1      11.336   7.350  -2.052  1.00  0.00    -0.003 A 
ATOM      6  C   UNL     1      10.082   6.692  -1.916  1.00  0.00    -0.002 A 
ATOM      7  C   UNL     1       9.966   5.329  -2.290  1.00  0.00     0.121 A 
ATOM      8  C   UNL     1       8.858   7.422  -1.406  1.00  0.00     0.049 C 
ATOM      9  C   UNL     1      11.490   8.818  -1.727  1.00  0.00     0.049 C 
ENDROOT
BRANCH   7  10
ATOM     10  O   UNL     1       8.738   4.659  -2.253  1.00  0.00    -0.507 OA
ATOM     11  H   UNL     1       7.953   4.953  -1.688  1.00  0.00     0.293 HD
ENDBRANCH   7  10
BRANCH   4  12
ATOM     12  O   UNL     1      13.710   7.227  -2.586  1.00  0.00    -0.508 OA
ATOM     13  H   UNL     1      14.161   7.373  -3.482  1.00  0.00     0.293 HD
ENDBRANCH   4  12
TORSDOF 2
ENDMDL
MODEL 4
REMARK VINA RESULT:    -2.833      2.064      3.938
REMARK INTER + INTRA:          -2.998
REMARK INTER:                  -2.998
REMARK INTRA:                   0.000
REMARK UNBOUND:                 0.000
REMARK SMILES Cc1cc(O)c(C)c(C)c1O
REMARK SMILES IDX 1 1 2 2 3 3 4 4 6 5 8 6 10 7 9 8 7 9 11 10 5 12
REMARK H PARENT 11 11 5 13
REMARK Flexibility Score: inf
ROOT
ATOM      1  C   UNL     1      12.862  10.271  -2.757  1.00  0.00     0.048 C 
ATOM      2  C   UNL     1      12.289   8.929  -2.398  1.00  0.00    -0.005 A 
ATOM      3  C   UNL     1      13.071   7.778  -2.531  1.00  0.00     0.053 A 
ATOM      4  C   UNL     1      12.567   6.525  -2.172  1.00  0.00     0.119 A 
ATOM      5  C   UNL     1      11.252   6.403  -1.675  1.00  0.00    -0.003 A 
ATOM      6  C   UNL     1      10.432   7.561  -1.578  1.00  0.00    -0.002 A 
ATOM      7  C   UNL     1      10.976   8.830  -1.906  1.00  0.00     0.121 A 
ATOM      8  C   UNL     1       8.996   7.475  -1.105  1.00  0.00     0.049 C 
ATOM      9  C   UNL     1      10.734   5.041  -1.274  1.00  0.00     0.049 C 
ENDROOT
BRANCH   7  10
ATOM     10  O   UNL     1      10.238  10.008  -1.749  1.00  0.00    -0.507 OA
ATOM     11  H   UNL     1      10.631  10.935  -1.839  1.00  0.00     0.293 HD
ENDBRANCH   7  10
BRANCH   4  12
ATOM     12  O   UNL     1      13.378   5.399  -2.313  1.00  0.00    -0.508 OA
ATOM     13  H   UNL     1      14.383   5.443  -2.184  1.00  0.00     0.293 HD
ENDBRANCH   4  12
TORSDOF 2
ENDMDL
MODEL 5
REMARK VINA RESULT:    -2.831      7.190      9.772
REMARK INTER + INTRA:          -2.996
REMARK INTER:                  -2.996
REMARK INTRA:                   0.000
REMARK UNBOUND:                 0.000
REMARK SMILES Cc1cc(O)c(C)c(C)c1O
REMARK SMILES IDX 1 1 2 2 3 3 4 4 6 5 8 6 10 7 9 8 7 9 11 10 5 12
REMARK H PARENT 11 11 5 13
REMARK Flexibility Score: inf
ROOT
ATOM      1  C   UNL     1       7.200  15.405  -0.547  1.00  0.00     0.048 C 
ATOM      2  C   UNL     1       8.643  15.085  -0.823  1.00  0.00    -0.005 A 
ATOM      3  C   UNL     1       9.502  16.082  -1.294  1.00  0.00     0.053 A 
ATOM      4  C   UNL     1      10.852  15.812  -1.526  1.00  0.00     0.119 A 
ATOM      5  C   UNL     1      11.370  14.520  -1.293  1.00  0.00    -0.003 A 
ATOM      6  C   UNL     1      10.496  13.486  -0.857  1.00  0.00    -0.002 A 
ATOM      7  C   UNL     1       9.137  13.791  -0.586  1.00  0.00     0.121 A 
ATOM      8  C   UNL     1      10.989  12.070  -0.648  1.00  0.00     0.049 C 
ATOM      9  C   UNL     1      12.839  14.256  -1.531  1.00  0.00     0.049 C 
ENDROOT
BRANCH   7  10
ATOM     10  O   UNL     1       8.256  12.830  -0.077  1.00  0.00    -0.507 OA
ATOM     11  H   UNL     1       7.665  12.979   0.729  1.00  0.00     0.293 HD
ENDBRANCH   7  10
BRANCH   4  12
ATOM     12  O   UNL     1      11.681  16.834  -1.991  1.00  0.00    -0.508 OA
ATOM     13  H   UNL     1      12.668  16.683  -2.167  1.00  0.00     0.293 HD
ENDBRANCH   4  12
TORSDOF 2
ENDMDL
MODEL 6
REMARK VINA RESULT:    -2.822      2.192      3.648
REMARK INTER + INTRA:          -2.986
REMARK INTER:                  -2.986
REMARK INTRA:                   0.000
REMARK UNBOUND:                 0.000
REMARK SMILES Cc1cc(O)c(C)c(C)c1O
REMARK SMILES IDX 1 1 2 2 3 3 4 4 6 5 8 6 10 7 9 8 7 9 11 10 5 12
REMARK H PARENT 11 11 5 13
REMARK Flexibility Score: inf
ROOT
ATOM      1  C   UNL     1      13.981   9.090  -2.764  1.00  0.00     0.048 C 
ATOM      2  C   UNL     1      12.585   8.722  -2.347  1.00  0.00    -0.005 A 
ATOM      3  C   UNL     1      11.628   9.723  -2.152  1.00  0.00     0.053 A 
ATOM      4  C   UNL     1      10.317   9.399  -1.795  1.00  0.00     0.119 A 
ATOM      5  C   UNL     1       9.940   8.051  -1.618  1.00  0.00    -0.003 A 
ATOM      6  C   UNL     1      10.916   7.027  -1.770  1.00  0.00    -0.002 A 
ATOM      7  C   UNL     1      12.231   7.373  -2.175  1.00  0.00     0.121 A 
ATOM      8  C   UNL     1      10.576   5.570  -1.536  1.00  0.00     0.049 C 
ATOM      9  C   UNL     1       8.511   7.722  -1.252  1.00  0.00     0.049 C 
ENDROOT
BRANCH   7  10
ATOM     10  O   UNL     1      13.205   6.398  -2.418  1.00  0.00    -0.507 OA
ATOM     11  H   UNL     1      13.880   6.451  -3.168  1.00  0.00     0.293 HD
ENDBRANCH   7  10
BRANCH   4  12
ATOM     12  O   UNL     1       9.387  10.423  -1.614  1.00  0.00    -0.508 OA
ATOM     13  H   UNL     1       8.934  10.583  -0.721  1.00  0.00     0.293 HD
ENDBRANCH   4  12
TORSDOF 2
ENDMDL
MODEL 7
REMARK VINA RESULT:    -2.782      8.443     10.948
REMARK INTER + INTRA:          -2.945
REMARK INTER:                  -2.945
REMARK INTRA:                   0.000
REMARK UNBOUND:                 0.000
REMARK SMILES Cc1cc(O)c(C)c(C)c1O
REMARK SMILES IDX 1 1 2 2 3 3 4 4 6 5 8 6 10 7 9 8 7 9 11 10 5 12
REMARK H PARENT 11 11 5 13
REMARK Flexibility Score: inf
ROOT
ATOM      1  C   UNL     1      11.803  13.605  -1.106  1.00  0.00     0.048 C 
ATOM      2  C   UNL     1      12.746  14.775  -1.071  1.00  0.00    -0.005 A 
ATOM      3  C   UNL     1      12.523  15.825  -0.175  1.00  0.00     0.053 A 
ATOM      4  C   UNL     1      13.405  16.905  -0.105  1.00  0.00     0.119 A 
ATOM      5  C   UNL     1      14.536  16.956  -0.948  1.00  0.00    -0.003 A 
ATOM      6  C   UNL     1      14.748  15.916  -1.895  1.00  0.00    -0.002 A 
ATOM      7  C   UNL     1      13.865  14.807  -1.921  1.00  0.00     0.121 A 
ATOM      8  C   UNL     1      15.914  15.953  -2.861  1.00  0.00     0.049 C 
ATOM      9  C   UNL     1      15.488  18.125  -0.841  1.00  0.00     0.049 C 
ENDROOT
BRANCH   7  10
ATOM     10  O   UNL     1      14.076  13.720  -2.776  1.00  0.00    -0.507 OA
ATOM     11  H   UNL     1      13.341  13.261  -3.296  1.00  0.00     0.293 HD
ENDBRANCH   7  10
BRANCH   4  12
ATOM     12  O   UNL     1      13.154  17.932   0.805  1.00  0.00    -0.508 OA
ATOM     13  H   UNL     1      12.315  18.499   0.755  1.00  0.00     0.293 HD
ENDBRANCH   4  12
TORSDOF 2
ENDMDL
MODEL 8
REMARK VINA RESULT:    -2.769      7.336      8.995
REMARK INTER + INTRA:          -2.931
REMARK INTER:                  -2.931
REMARK INTRA:                   0.000
REMARK UNBOUND:                 0.000
REMARK SMILES Cc1cc(O)c(C)c(C)c1O
REMARK SMILES IDX 1 1 2 2 3 3 4 4 6 5 8 6 10 7 9 8 7 9 11 10 5 12
REMARK H PARENT 11 11 5 13
REMARK Flexibility Score: inf
ROOT
ATOM      1  C   UNL     1      13.256  15.147  -0.889  1.00  0.00     0.048 C 
ATOM      2  C   UNL     1      11.818  14.711  -0.881  1.00  0.00    -0.005 A 
ATOM      3  C   UNL     1      11.501  13.349  -0.906  1.00  0.00     0.053 A 
ATOM      4  C   UNL     1      10.172  12.923  -0.866  1.00  0.00     0.119 A 
ATOM      5  C   UNL     1       9.124  13.866  -0.806  1.00  0.00    -0.003 A 
ATOM      6  C   UNL     1       9.432  15.255  -0.825  1.00  0.00    -0.002 A 
ATOM      7  C   UNL     1      10.790  15.667  -0.823  1.00  0.00     0.121 A 
ATOM      8  C   UNL     1       8.343  16.306  -0.820  1.00  0.00     0.049 C 
ATOM      9  C   UNL     1       7.693  13.382  -0.743  1.00  0.00     0.049 C 
ENDROOT
BRANCH   7  10
ATOM     10  O   UNL     1      11.146  17.018  -0.758  1.00  0.00    -0.507 OA
ATOM     11  H   UNL     1      10.663  17.702  -0.192  1.00  0.00     0.293 HD
ENDBRANCH   7  10
BRANCH   4  12
ATOM     12  O   UNL     1       9.893  11.556  -0.888  1.00  0.00    -0.508 OA
ATOM     13  H   UNL     1       8.975  11.193  -0.660  1.00  0.00     0.293 HD
ENDBRANCH   4  12
TORSDOF 2
ENDMDL
