MODEL 1
REMARK VINA RESULT:    -7.096      0.000      0.000
REMARK INTER + INTRA:          -8.282
REMARK INTER:                  -8.133
REMARK INTRA:                  -0.150
REMARK UNBOUND:                -0.150
REMARK SMILES C=C(C)[C@@H]1CC[C@@]2(C(=O)[O-])CC[C@]3(C)[C@H](CC[C@@H]4[C@]5(C)CC[C@H](O)C(C)(C)[C@H]5CC[C@@]43C)[C@H]12
REMARK SMILES IDX 7 1 6 2 33 3 11 4 5 5 15 6 4 7 12 8 16 9 13 10 17 11 31 12
REMARK SMILES IDX 14 13 18 14 30 15 32 16 19 17 29 18 21 19 20 20 28 21 22 22
REMARK SMILES IDX 25 23 23 24 26 25 27 26 8 27 9 28 10 29 2 30 3 31 1 32 24 33
REMARK H PARENT 24 34
REMARK Flexibility Score: inf
ROOT
ATOM      1  C   UNL     1      91.537  85.552  82.671  1.00  0.00     0.014 C 
ATOM      2  C   UNL     1      90.686  84.392  82.104  1.00  0.00     0.014 C 
ATOM      3  C   UNL     1      92.927  85.172  82.157  1.00  0.00     0.012 C 
ATOM      4  C   UNL     1      91.549  85.605  84.244  1.00  0.00     0.014 C 
ATOM      5  C   UNL     1      91.295  84.041  80.734  1.00  0.00     0.009 C 
ATOM      6  C   UNL     1      94.145  86.026  82.667  1.00  0.00     0.000 C 
ATOM      7  C   UNL     1      92.774  84.498  80.767  1.00  0.00     0.018 C 
ATOM      8  C   UNL     1      92.971  85.660  84.898  1.00  0.00     0.008 C 
ATOM      9  C   UNL     1      94.792  87.074  81.789  1.00  0.00     0.005 C 
ATOM     10  C   UNL     1      93.984  86.597  84.139  1.00  0.00    -0.024 C 
ATOM     11  C   UNL     1      96.224  87.325  82.297  1.00  0.00     0.005 C 
ATOM     12  C   UNL     1      95.454  86.689  84.808  1.00  0.00    -0.024 C 
ATOM     13  C   UNL     1      93.354  88.039  84.186  1.00  0.00     0.012 C 
ATOM     14  C   UNL     1      96.463  87.524  83.851  1.00  0.00     0.002 C 
ATOM     15  C   UNL     1      96.013  85.252  85.112  1.00  0.00     0.008 C 
ATOM     16  C   UNL     1      95.328  87.419  86.195  1.00  0.00     0.012 C 
ATOM     17  C   UNL     1      98.026  87.415  84.252  1.00  0.00    -0.026 C 
ATOM     18  C   UNL     1      97.491  85.199  85.497  1.00  0.00     0.005 C 
ATOM     19  C   UNL     1      98.975  88.073  83.153  1.00  0.00     0.010 C 
ATOM     20  C   UNL     1      98.295  88.238  85.556  1.00  0.00     0.012 C 
ATOM     21  C   UNL     1      98.402  85.895  84.456  1.00  0.00     0.003 C 
ATOM     22  C   UNL     1     100.192  87.230  82.755  1.00  0.00     0.033 C 
ATOM     23  C   UNL     1      99.950  85.571  84.678  1.00  0.00    -0.006 C 
ATOM     24  C   UNL     1     100.867  86.641  83.990  1.00  0.00     0.120 C 
ATOM     25  C   UNL     1     100.247  84.168  84.072  1.00  0.00     0.014 C 
ATOM     26  C   UNL     1     100.341  85.511  86.178  1.00  0.00     0.014 C 
ENDROOT
BRANCH   1  27
ATOM     27  C   UNL     1      90.986  86.845  82.091  1.00  0.00     0.048 C 
ATOM     28  O   UNL     1      91.731  87.691  81.533  1.00  0.00    -0.550 OA
ATOM     29  O   UNL     1      89.629  87.127  82.209  1.00  0.00    -0.550 OA
ENDBRANCH   1  27
BRANCH   7  30
ATOM     30  C   UNL     1      93.225  85.267  79.522  1.00  0.00    -0.077 C 
ATOM     31  C   UNL     1      94.650  85.109  79.041  1.00  0.00     0.039 C 
ATOM     32  C   UNL     1      92.390  85.994  78.760  1.00  0.00     0.008 C 
ENDBRANCH   7  30
BRANCH  24  33
ATOM     33  O   UNL     1     102.112  86.092  83.632  1.00  0.00    -0.393 OA
ATOM     34  H   UNL     1     101.970  85.124  83.458  1.00  0.00     0.210 HD
ENDBRANCH  24  33
TORSDOF 3
ENDMDL
MODEL 2
REMARK VINA RESULT:    -6.987      1.185      1.355
REMARK INTER + INTRA:          -8.158
REMARK INTER:                  -8.006
REMARK INTRA:                  -0.152
REMARK UNBOUND:                -0.150
REMARK SMILES C=C(C)[C@@H]1CC[C@@]2(C(=O)[O-])CC[C@]3(C)[C@H](CC[C@@H]4[C@]5(C)CC[C@H](O)C(C)(C)[C@H]5CC[C@@]43C)[C@H]12
REMARK SMILES IDX 7 1 6 2 33 3 11 4 5 5 15 6 4 7 12 8 16 9 13 10 17 11 31 12
REMARK SMILES IDX 14 13 18 14 30 15 32 16 19 17 29 18 21 19 20 20 28 21 22 22
REMARK SMILES IDX 25 23 23 24 26 25 27 26 8 27 9 28 10 29 2 30 3 31 1 32 24 33
REMARK H PARENT 24 34
REMARK Flexibility Score: inf
ROOT
ATOM      1  C   UNL     1      91.094  85.340  82.309  1.00  0.00     0.014 C 
ATOM      2  C   UNL     1      90.546  84.151  81.486  1.00  0.00     0.014 C 
ATOM      3  C   UNL     1      92.599  85.177  82.091  1.00  0.00     0.012 C 
ATOM      4  C   UNL     1      90.766  85.239  83.845  1.00  0.00     0.014 C 
ATOM      5  C   UNL     1      91.472  84.009  80.264  1.00  0.00     0.009 C 
ATOM      6  C   UNL     1      93.556  86.111  82.918  1.00  0.00     0.000 C 
ATOM      7  C   UNL     1      92.836  84.630  80.657  1.00  0.00     0.018 C 
ATOM      8  C   UNL     1      91.997  85.393  84.800  1.00  0.00     0.008 C 
ATOM      9  C   UNL     1      94.227  87.308  82.282  1.00  0.00     0.005 C 
ATOM     10  C   UNL     1      93.012  86.512  84.354  1.00  0.00    -0.024 C 
ATOM     11  C   UNL     1      95.472  87.672  83.112  1.00  0.00     0.005 C 
ATOM     12  C   UNL     1      94.281  86.707  85.338  1.00  0.00    -0.024 C 
ATOM     13  C   UNL     1      92.198  87.859  84.361  1.00  0.00     0.012 C 
ATOM     14  C   UNL     1      95.348  87.743  84.691  1.00  0.00     0.002 C 
ATOM     15  C   UNL     1      94.951  85.322  85.656  1.00  0.00     0.008 C 
ATOM     16  C   UNL     1      93.768  87.277  86.710  1.00  0.00     0.012 C 
ATOM     17  C   UNL     1      96.791  87.777  85.419  1.00  0.00    -0.026 C 
ATOM     18  C   UNL     1      96.308  85.403  86.354  1.00  0.00     0.005 C 
ATOM     19  C   UNL     1      97.854  88.646  84.609  1.00  0.00     0.010 C 
ATOM     20  C   UNL     1      96.666  88.493  86.806  1.00  0.00     0.012 C 
ATOM     21  C   UNL     1      97.317  86.298  85.594  1.00  0.00     0.003 C 
ATOM     22  C   UNL     1      99.229  87.992  84.432  1.00  0.00     0.033 C 
ATOM     23  C   UNL     1      98.812  86.135  86.131  1.00  0.00    -0.006 C 
ATOM     24  C   UNL     1      99.701  87.366  85.741  1.00  0.00     0.120 C 
ATOM     25  C   UNL     1      99.416  84.843  85.508  1.00  0.00     0.014 C 
ATOM     26  C   UNL     1      98.881  85.973  87.672  1.00  0.00     0.014 C 
ENDROOT
BRANCH   1  27
ATOM     27  C   UNL     1      90.509  86.611  81.713  1.00  0.00     0.048 C 
ATOM     28  O   UNL     1      91.233  87.596  81.415  1.00  0.00    -0.550 OA
ATOM     29  O   UNL     1      89.134  86.713  81.526  1.00  0.00    -0.550 OA
ENDBRANCH   1  27
BRANCH   7  30
ATOM     30  C   UNL     1      93.432  85.564  79.601  1.00  0.00    -0.077 C 
ATOM     31  C   UNL     1      94.932  85.593  79.414  1.00  0.00     0.039 C 
ATOM     32  C   UNL     1      92.686  86.285  78.747  1.00  0.00     0.008 C 
ENDBRANCH   7  30
BRANCH  24  33
ATOM     33  O   UNL     1     101.056  87.003  85.631  1.00  0.00    -0.393 OA
ATOM     34  H   UNL     1     101.595  87.766  85.967  1.00  0.00     0.210 HD
ENDBRANCH  24  33
TORSDOF 3
ENDMDL
MODEL 3
REMARK VINA RESULT:    -6.816      2.374      7.949
REMARK INTER + INTRA:          -7.962
REMARK INTER:                  -7.837
REMARK INTRA:                  -0.125
REMARK UNBOUND:                -0.150
REMARK SMILES C=C(C)[C@@H]1CC[C@@]2(C(=O)[O-])CC[C@]3(C)[C@H](CC[C@@H]4[C@]5(C)CC[C@H](O)C(C)(C)[C@H]5CC[C@@]43C)[C@H]12
REMARK SMILES IDX 7 1 6 2 33 3 11 4 5 5 15 6 4 7 12 8 16 9 13 10 17 11 31 12
REMARK SMILES IDX 14 13 18 14 30 15 32 16 19 17 29 18 21 19 20 20 28 21 22 22
REMARK SMILES IDX 25 23 23 24 26 25 27 26 8 27 9 28 10 29 2 30 3 31 1 32 24 33
REMARK H PARENT 24 34
REMARK Flexibility Score: inf
ROOT
ATOM      1  C   UNL     1      99.694  88.898  83.352  1.00  0.00     0.014 C 
ATOM      2  C   UNL     1      99.957  90.092  84.300  1.00  0.00     0.014 C 
ATOM      3  C   UNL     1      98.354  89.306  82.736  1.00  0.00     0.012 C 
ATOM      4  C   UNL     1      99.535  87.525  84.106  1.00  0.00     0.014 C 
ATOM      5  C   UNL     1      99.410  91.339  83.585  1.00  0.00     0.009 C 
ATOM      6  C   UNL     1      97.632  88.255  81.816  1.00  0.00     0.000 C 
ATOM      7  C   UNL     1      98.325  90.852  82.593  1.00  0.00     0.018 C 
ATOM      8  C   UNL     1      98.244  86.716  83.751  1.00  0.00     0.008 C 
ATOM      9  C   UNL     1      97.653  88.385  80.309  1.00  0.00     0.005 C 
ATOM     10  C   UNL     1      97.879  86.740  82.219  1.00  0.00    -0.024 C 
ATOM     11  C   UNL     1      96.461  87.600  79.731  1.00  0.00     0.005 C 
ATOM     12  C   UNL     1      96.561  85.891  81.822  1.00  0.00    -0.024 C 
ATOM     13  C   UNL     1      99.103  86.087  81.475  1.00  0.00     0.012 C 
ATOM     14  C   UNL     1      96.174  86.136  80.266  1.00  0.00     0.002 C 
ATOM     15  C   UNL     1      95.364  86.253  82.772  1.00  0.00     0.008 C 
ATOM     16  C   UNL     1      96.862  84.365  82.050  1.00  0.00     0.012 C 
ATOM     17  C   UNL     1      94.710  85.601  79.837  1.00  0.00    -0.026 C 
ATOM     18  C   UNL     1      94.002  85.718  82.333  1.00  0.00     0.005 C 
ATOM     19  C   UNL     1      94.307  86.064  78.365  1.00  0.00     0.010 C 
ATOM     20  C   UNL     1      94.716  84.036  79.774  1.00  0.00     0.012 C 
ATOM     21  C   UNL     1      93.644  86.119  80.881  1.00  0.00     0.003 C 
ATOM     22  C   UNL     1      92.890  86.630  78.226  1.00  0.00     0.033 C 
ATOM     23  C   UNL     1      92.111  85.845  80.525  1.00  0.00    -0.006 C 
ATOM     24  C   UNL     1      91.886  85.759  78.976  1.00  0.00     0.120 C 
ATOM     25  C   UNL     1      91.260  87.011  81.109  1.00  0.00     0.014 C 
ATOM     26  C   UNL     1      91.576  84.532  81.153  1.00  0.00     0.014 C 
ENDROOT
BRANCH   1  27
ATOM     27  C   UNL     1     100.848  88.842  82.363  1.00  0.00     0.048 C 
ATOM     28  O   UNL     1     100.657  88.883  81.120  1.00  0.00    -0.550 OA
ATOM     29  O   UNL     1     102.149  88.701  82.833  1.00  0.00    -0.550 OA
ENDBRANCH   1  27
BRANCH   7  30
ATOM     30  C   UNL     1      98.427  91.464  81.193  1.00  0.00    -0.077 C 
ATOM     31  C   UNL     1      97.162  91.907  80.495  1.00  0.00     0.039 C 
ATOM     32  C   UNL     1      99.597  91.735  80.589  1.00  0.00     0.008 C 
ENDBRANCH   7  30
BRANCH  24  33
ATOM     33  O   UNL     1      90.576  86.140  78.629  1.00  0.00    -0.393 OA
ATOM     34  H   UNL     1      89.982  85.877  79.380  1.00  0.00     0.210 HD
ENDBRANCH  24  33
TORSDOF 3
ENDMDL
MODEL 4
REMARK VINA RESULT:    -6.641      3.604      5.694
REMARK INTER + INTRA:          -7.761
REMARK INTER:                  -7.807
REMARK INTRA:                   0.046
REMARK UNBOUND:                -0.150
REMARK SMILES C=C(C)[C@@H]1CC[C@@]2(C(=O)[O-])CC[C@]3(C)[C@H](CC[C@@H]4[C@]5(C)CC[C@H](O)C(C)(C)[C@H]5CC[C@@]43C)[C@H]12
REMARK SMILES IDX 7 1 6 2 33 3 11 4 5 5 15 6 4 7 12 8 16 9 13 10 17 11 31 12
REMARK SMILES IDX 14 13 18 14 30 15 32 16 19 17 29 18 21 19 20 20 28 21 22 22
REMARK SMILES IDX 25 23 23 24 26 25 27 26 8 27 9 28 10 29 2 30 3 31 1 32 24 33
REMARK H PARENT 24 34
REMARK Flexibility Score: inf
ROOT
ATOM      1  C   UNL     1      92.512  84.531  80.261  1.00  0.00     0.014 C 
ATOM      2  C   UNL     1      93.425  83.419  79.692  1.00  0.00     0.014 C 
ATOM      3  C   UNL     1      93.421  85.135  81.332  1.00  0.00     0.012 C 
ATOM      4  C   UNL     1      91.198  83.978  80.929  1.00  0.00     0.014 C 
ATOM      5  C   UNL     1      94.859  83.977  79.731  1.00  0.00     0.009 C 
ATOM      6  C   UNL     1      92.795  86.216  82.286  1.00  0.00     0.000 C 
ATOM      7  C   UNL     1      94.889  85.066  80.832  1.00  0.00     0.018 C 
ATOM      8  C   UNL     1      90.925  84.489  82.383  1.00  0.00     0.008 C 
ATOM      9  C   UNL     1      93.083  87.690  82.100  1.00  0.00     0.005 C 
ATOM     10  C   UNL     1      91.250  86.016  82.592  1.00  0.00    -0.024 C 
ATOM     11  C   UNL     1      92.826  88.414  83.434  1.00  0.00     0.005 C 
ATOM     12  C   UNL     1      90.955  86.575  84.081  1.00  0.00    -0.024 C 
ATOM     13  C   UNL     1      90.309  86.796  81.601  1.00  0.00     0.012 C 
ATOM     14  C   UNL     1      91.496  88.096  84.236  1.00  0.00     0.002 C 
ATOM     15  C   UNL     1      91.592  85.629  85.162  1.00  0.00     0.008 C 
ATOM     16  C   UNL     1      89.402  86.547  84.327  1.00  0.00     0.012 C 
ATOM     17  C   UNL     1      91.547  88.649  85.754  1.00  0.00    -0.026 C 
ATOM     18  C   UNL     1      91.608  86.188  86.584  1.00  0.00     0.005 C 
ATOM     19  C   UNL     1      92.288  90.057  85.858  1.00  0.00     0.010 C 
ATOM     20  C   UNL     1      90.093  88.924  86.265  1.00  0.00     0.012 C 
ATOM     21  C   UNL     1      92.273  87.584  86.668  1.00  0.00     0.003 C 
ATOM     22  C   UNL     1      93.316  90.170  86.989  1.00  0.00     0.033 C 
ATOM     23  C   UNL     1      92.583  88.031  88.169  1.00  0.00    -0.006 C 
ATOM     24  C   UNL     1      92.760  89.584  88.283  1.00  0.00     0.120 C 
ATOM     25  C   UNL     1      93.893  87.326  88.628  1.00  0.00     0.014 C 
ATOM     26  C   UNL     1      91.468  87.609  89.162  1.00  0.00     0.014 C 
ENDROOT
BRANCH   1  27
ATOM     27  C   UNL     1      92.180  85.474  79.115  1.00  0.00     0.048 C 
ATOM     28  O   UNL     1      92.722  86.605  79.011  1.00  0.00    -0.550 OA
ATOM     29  O   UNL     1      91.225  85.103  78.174  1.00  0.00    -0.550 OA
ENDBRANCH   1  27
BRANCH   7  30
ATOM     30  C   UNL     1      95.588  86.364  80.417  1.00  0.00    -0.077 C 
ATOM     31  C   UNL     1      96.217  87.229  81.485  1.00  0.00     0.039 C 
ATOM     32  C   UNL     1      95.773  86.727  79.136  1.00  0.00     0.008 C 
ENDBRANCH   7  30
BRANCH  24  33
ATOM     33  O   UNL     1      93.602  89.925  89.358  1.00  0.00    -0.393 OA
ATOM     34  H   UNL     1      94.371  90.429  88.982  1.00  0.00     0.210 HD
ENDBRANCH  24  33
TORSDOF 3
ENDMDL
MODEL 5
REMARK VINA RESULT:    -6.262      3.068      8.749
REMARK INTER + INTRA:          -7.327
REMARK INTER:                  -7.197
REMARK INTRA:                  -0.130
REMARK UNBOUND:                -0.150
REMARK SMILES C=C(C)[C@@H]1CC[C@@]2(C(=O)[O-])CC[C@]3(C)[C@H](CC[C@@H]4[C@]5(C)CC[C@H](O)C(C)(C)[C@H]5CC[C@@]43C)[C@H]12
REMARK SMILES IDX 7 1 6 2 33 3 11 4 5 5 15 6 4 7 12 8 16 9 13 10 17 11 31 12
REMARK SMILES IDX 14 13 18 14 30 15 32 16 19 17 29 18 21 19 20 20 28 21 22 22
REMARK SMILES IDX 25 23 23 24 26 25 27 26 8 27 9 28 10 29 2 30 3 31 1 32 24 33
REMARK H PARENT 24 34
REMARK Flexibility Score: inf
ROOT
ATOM      1  C   UNL     1     102.729  90.241  84.008  1.00  0.00     0.014 C 
ATOM      2  C   UNL     1     103.100  91.688  84.411  1.00  0.00     0.014 C 
ATOM      3  C   UNL     1     101.365  90.461  83.351  1.00  0.00     0.012 C 
ATOM      4  C   UNL     1     102.576  89.271  85.238  1.00  0.00     0.014 C 
ATOM      5  C   UNL     1     102.547  92.599  83.300  1.00  0.00     0.009 C 
ATOM      6  C   UNL     1     100.544  89.184  82.944  1.00  0.00     0.000 C 
ATOM      7  C   UNL     1     101.380  91.835  82.628  1.00  0.00     0.018 C 
ATOM      8  C   UNL     1     101.235  88.464  85.287  1.00  0.00     0.008 C 
ATOM      9  C   UNL     1     100.465  88.728  81.503  1.00  0.00     0.005 C 
ATOM     10  C   UNL     1     100.766  87.925  83.883  1.00  0.00    -0.024 C 
ATOM     11  C   UNL     1      99.209  87.855  81.332  1.00  0.00     0.005 C 
ATOM     12  C   UNL     1      99.395  87.067  83.911  1.00  0.00    -0.024 C 
ATOM     13  C   UNL     1     101.911  86.966  83.386  1.00  0.00     0.012 C 
ATOM     14  C   UNL     1      98.909  86.724  82.401  1.00  0.00     0.002 C 
ATOM     15  C   UNL     1      98.280  87.835  84.709  1.00  0.00     0.008 C 
ATOM     16  C   UNL     1      99.657  85.728  84.691  1.00  0.00     0.012 C 
ATOM     17  C   UNL     1      97.401  86.153  82.286  1.00  0.00    -0.026 C 
ATOM     18  C   UNL     1      96.872  87.253  84.579  1.00  0.00     0.005 C 
ATOM     19  C   UNL     1      96.913  86.044  80.772  1.00  0.00     0.010 C 
ATOM     20  C   UNL     1      97.348  84.685  82.829  1.00  0.00     0.012 C 
ATOM     21  C   UNL     1      96.429  87.091  83.104  1.00  0.00     0.003 C 
ATOM     22  C   UNL     1      95.510  86.596  80.499  1.00  0.00     0.033 C 
ATOM     23  C   UNL     1      94.867  86.794  82.960  1.00  0.00    -0.006 C 
ATOM     24  C   UNL     1      94.531  86.138  81.576  1.00  0.00     0.120 C 
ATOM     25  C   UNL     1      94.099  88.141  83.094  1.00  0.00     0.014 C 
ATOM     26  C   UNL     1      94.331  85.852  84.070  1.00  0.00     0.014 C 
ENDROOT
BRANCH   1  27
ATOM     27  C   UNL     1     103.809  89.744  83.059  1.00  0.00     0.048 C 
ATOM     28  O   UNL     1     103.540  89.372  81.887  1.00  0.00    -0.550 OA
ATOM     29  O   UNL     1     105.125  89.659  83.500  1.00  0.00    -0.550 OA
ENDBRANCH   1  27
BRANCH   7  30
ATOM     30  C   UNL     1     101.406  91.861  81.097  1.00  0.00    -0.077 C 
ATOM     31  C   UNL     1     100.095  91.868  80.344  1.00  0.00     0.039 C 
ATOM     32  C   UNL     1     102.535  91.991  80.379  1.00  0.00     0.008 C 
ENDBRANCH   7  30
BRANCH  24  33
ATOM     33  O   UNL     1      93.214  86.434  81.176  1.00  0.00    -0.393 OA
ATOM     34  H   UNL     1      92.921  87.231  81.692  1.00  0.00     0.210 HD
ENDBRANCH  24  33
TORSDOF 3
ENDMDL
MODEL 6
REMARK VINA RESULT:    -6.240      2.811      3.824
REMARK INTER + INTRA:          -7.302
REMARK INTER:                  -7.568
REMARK INTRA:                   0.266
REMARK UNBOUND:                -0.150
REMARK SMILES C=C(C)[C@@H]1CC[C@@]2(C(=O)[O-])CC[C@]3(C)[C@H](CC[C@@H]4[C@]5(C)CC[C@H](O)C(C)(C)[C@H]5CC[C@@]43C)[C@H]12
REMARK SMILES IDX 7 1 6 2 33 3 11 4 5 5 15 6 4 7 12 8 16 9 13 10 17 11 31 12
REMARK SMILES IDX 14 13 18 14 30 15 32 16 19 17 29 18 21 19 20 20 28 21 22 22
REMARK SMILES IDX 25 23 23 24 26 25 27 26 8 27 9 28 10 29 2 30 3 31 1 32 24 33
REMARK H PARENT 24 34
REMARK Flexibility Score: inf
ROOT
ATOM      1  C   UNL     1      92.455  84.896  80.585  1.00  0.00     0.014 C 
ATOM      2  C   UNL     1      92.801  83.624  79.776  1.00  0.00     0.014 C 
ATOM      3  C   UNL     1      93.791  85.171  81.279  1.00  0.00     0.012 C 
ATOM      4  C   UNL     1      91.333  84.665  81.664  1.00  0.00     0.014 C 
ATOM      5  C   UNL     1      94.263  83.784  79.324  1.00  0.00     0.009 C 
ATOM      6  C   UNL     1      93.823  86.314  82.358  1.00  0.00     0.000 C 
ATOM      7  C   UNL     1      94.941  84.753  80.324  1.00  0.00     0.018 C 
ATOM      8  C   UNL     1      91.696  85.134  83.113  1.00  0.00     0.008 C 
ATOM      9  C   UNL     1      94.419  87.670  82.048  1.00  0.00     0.005 C 
ATOM     10  C   UNL     1      92.468  86.506  83.162  1.00  0.00    -0.024 C 
ATOM     11  C   UNL     1      94.813  88.348  83.373  1.00  0.00     0.005 C 
ATOM     12  C   UNL     1      92.833  87.024  84.651  1.00  0.00    -0.024 C 
ATOM     13  C   UNL     1      91.502  87.567  82.517  1.00  0.00     0.012 C 
ATOM     14  C   UNL     1      93.783  88.337  84.578  1.00  0.00     0.002 C 
ATOM     15  C   UNL     1      93.509  85.877  85.485  1.00  0.00     0.008 C 
ATOM     16  C   UNL     1      91.498  87.387  85.396  1.00  0.00     0.012 C 
ATOM     17  C   UNL     1      94.471  88.758  85.979  1.00  0.00    -0.026 C 
ATOM     18  C   UNL     1      94.136  86.318  86.806  1.00  0.00     0.005 C 
ATOM     19  C   UNL     1      95.554  89.913  85.795  1.00  0.00     0.010 C 
ATOM     20  C   UNL     1      93.392  89.370  86.935  1.00  0.00     0.012 C 
ATOM     21  C   UNL     1      95.140  87.483  86.629  1.00  0.00     0.003 C 
ATOM     22  C   UNL     1      96.884  89.680  86.520  1.00  0.00     0.033 C 
ATOM     23  C   UNL     1      96.029  87.735  87.932  1.00  0.00    -0.006 C 
ATOM     24  C   UNL     1      96.643  89.177  87.940  1.00  0.00     0.120 C 
ATOM     25  C   UNL     1      97.177  86.683  87.950  1.00  0.00     0.014 C 
ATOM     26  C   UNL     1      95.227  87.556  89.247  1.00  0.00     0.014 C 
ENDROOT
BRANCH   1  27
ATOM     27  C   UNL     1      92.035  85.966  79.589  1.00  0.00     0.048 C 
ATOM     28  O   UNL     1      91.620  87.093  79.964  1.00  0.00    -0.550 OA
ATOM     29  O   UNL     1      92.070  85.688  78.226  1.00  0.00    -0.550 OA
ENDBRANCH   1  27
BRANCH   7  30
ATOM     30  C   UNL     1      95.788  85.847  79.668  1.00  0.00    -0.077 C 
ATOM     31  C   UNL     1      97.181  86.109  80.195  1.00  0.00     0.039 C 
ATOM     32  C   UNL     1      95.404  86.519  78.569  1.00  0.00     0.008 C 
ENDBRANCH   7  30
BRANCH  24  33
ATOM     33  O   UNL     1      97.848  89.215  88.667  1.00  0.00    -0.393 OA
ATOM     34  H   UNL     1      98.570  89.458  88.029  1.00  0.00     0.210 HD
ENDBRANCH  24  33
TORSDOF 3
ENDMDL
MODEL 7
REMARK VINA RESULT:    -6.204      4.756      7.888
REMARK INTER + INTRA:          -7.260
REMARK INTER:                  -7.104
REMARK INTRA:                  -0.157
REMARK UNBOUND:                -0.150
REMARK SMILES C=C(C)[C@@H]1CC[C@@]2(C(=O)[O-])CC[C@]3(C)[C@H](CC[C@@H]4[C@]5(C)CC[C@H](O)C(C)(C)[C@H]5CC[C@@]43C)[C@H]12
REMARK SMILES IDX 7 1 6 2 33 3 11 4 5 5 15 6 4 7 12 8 16 9 13 10 17 11 31 12
REMARK SMILES IDX 14 13 18 14 30 15 32 16 19 17 29 18 21 19 20 20 28 21 22 22
REMARK SMILES IDX 25 23 23 24 26 25 27 26 8 27 9 28 10 29 2 30 3 31 1 32 24 33
REMARK H PARENT 24 34
REMARK Flexibility Score: inf
ROOT
ATOM      1  C   UNL     1     100.460  85.559  86.006  1.00  0.00     0.014 C 
ATOM      2  C   UNL     1     100.706  84.038  85.871  1.00  0.00     0.014 C 
ATOM      3  C   UNL     1     100.724  86.025  84.573  1.00  0.00     0.012 C 
ATOM      4  C   UNL     1     101.464  86.268  86.989  1.00  0.00     0.014 C 
ATOM      5  C   UNL     1     100.197  83.642  84.474  1.00  0.00     0.009 C 
ATOM      6  C   UNL     1     100.748  87.575  84.310  1.00  0.00     0.000 C 
ATOM      7  C   UNL     1     100.249  84.917  83.596  1.00  0.00     0.018 C 
ATOM      8  C   UNL     1     102.199  87.519  86.402  1.00  0.00     0.008 C 
ATOM      9  C   UNL     1      99.578  88.278  83.657  1.00  0.00     0.005 C 
ATOM     10  C   UNL     1     101.275  88.447  85.527  1.00  0.00    -0.024 C 
ATOM     11  C   UNL     1     100.079  89.596  83.039  1.00  0.00     0.005 C 
ATOM     12  C   UNL     1     102.005  89.760  84.927  1.00  0.00    -0.024 C 
ATOM     13  C   UNL     1     100.129  88.941  86.485  1.00  0.00     0.012 C 
ATOM     14  C   UNL     1     101.022  90.537  83.897  1.00  0.00     0.002 C 
ATOM     15  C   UNL     1     103.362  89.371  84.238  1.00  0.00     0.008 C 
ATOM     16  C   UNL     1     102.372  90.717  86.120  1.00  0.00     0.012 C 
ATOM     17  C   UNL     1     101.740  91.674  82.999  1.00  0.00    -0.026 C 
ATOM     18  C   UNL     1     104.009  90.479  83.408  1.00  0.00     0.005 C 
ATOM     19  C   UNL     1     100.775  92.242  81.864  1.00  0.00     0.010 C 
ATOM     20  C   UNL     1     102.081  92.915  83.890  1.00  0.00     0.012 C 
ATOM     21  C   UNL     1     103.046  91.070  82.349  1.00  0.00     0.003 C 
ATOM     22  C   UNL     1     101.404  92.356  80.471  1.00  0.00     0.033 C 
ATOM     23  C   UNL     1     103.796  91.987  81.278  1.00  0.00    -0.006 C 
ATOM     24  C   UNL     1     102.801  92.962  80.559  1.00  0.00     0.120 C 
ATOM     25  C   UNL     1     104.464  91.059  80.223  1.00  0.00     0.014 C 
ATOM     26  C   UNL     1     104.924  92.845  81.909  1.00  0.00     0.014 C 
ENDROOT
BRANCH   1  27
ATOM     27  C   UNL     1      99.024  85.747  86.471  1.00  0.00     0.048 C 
ATOM     28  O   UNL     1      98.220  86.490  85.852  1.00  0.00    -0.550 OA
ATOM     29  O   UNL     1      98.590  85.116  87.633  1.00  0.00    -0.550 OA
ENDBRANCH   1  27
BRANCH   7  30
ATOM     30  C   UNL     1      98.988  85.161  82.762  1.00  0.00    -0.077 C 
ATOM     31  C   UNL     1      99.132  85.730  81.369  1.00  0.00     0.039 C 
ATOM     32  C   UNL     1      97.757  84.793  83.158  1.00  0.00     0.008 C 
ENDBRANCH   7  30
BRANCH  24  33
ATOM     33  O   UNL     1     103.255  93.295  79.269  1.00  0.00    -0.393 OA
ATOM     34  H   UNL     1     103.544  94.244  79.292  1.00  0.00     0.210 HD
ENDBRANCH  24  33
TORSDOF 3
ENDMDL
MODEL 8
REMARK VINA RESULT:    -6.156      2.078      2.987
REMARK INTER + INTRA:          -7.206
REMARK INTER:                  -7.047
REMARK INTRA:                  -0.159
REMARK UNBOUND:                -0.150
REMARK SMILES C=C(C)[C@@H]1CC[C@@]2(C(=O)[O-])CC[C@]3(C)[C@H](CC[C@@H]4[C@]5(C)CC[C@H](O)C(C)(C)[C@H]5CC[C@@]43C)[C@H]12
REMARK SMILES IDX 7 1 6 2 33 3 11 4 5 5 15 6 4 7 12 8 16 9 13 10 17 11 31 12
REMARK SMILES IDX 14 13 18 14 30 15 32 16 19 17 29 18 21 19 20 20 28 21 22 22
REMARK SMILES IDX 25 23 23 24 26 25 27 26 8 27 9 28 10 29 2 30 3 31 1 32 24 33
REMARK H PARENT 24 34
REMARK Flexibility Score: inf
ROOT
ATOM      1  C   UNL     1      90.811  87.230  85.808  1.00  0.00     0.014 C 
ATOM      2  C   UNL     1      89.538  86.387  86.060  1.00  0.00     0.014 C 
ATOM      3  C   UNL     1      91.502  86.396  84.728  1.00  0.00     0.012 C 
ATOM      4  C   UNL     1      91.744  87.344  87.070  1.00  0.00     0.014 C 
ATOM      5  C   UNL     1      89.134  85.798  84.697  1.00  0.00     0.009 C 
ATOM      6  C   UNL     1      92.953  86.826  84.300  1.00  0.00     0.000 C 
ATOM      7  C   UNL     1      90.415  85.750  83.828  1.00  0.00     0.018 C 
ATOM      8  C   UNL     1      93.242  86.960  86.828  1.00  0.00     0.008 C 
ATOM      9  C   UNL     1      93.202  87.568  83.005  1.00  0.00     0.005 C 
ATOM     10  C   UNL     1      93.819  87.482  85.458  1.00  0.00    -0.024 C 
ATOM     11  C   UNL     1      94.672  87.360  82.595  1.00  0.00     0.005 C 
ATOM     12  C   UNL     1      95.372  87.118  85.194  1.00  0.00    -0.024 C 
ATOM     13  C   UNL     1      93.705  89.051  85.513  1.00  0.00     0.012 C 
ATOM     14  C   UNL     1      95.806  87.536  83.688  1.00  0.00     0.002 C 
ATOM     15  C   UNL     1      95.635  85.592  85.461  1.00  0.00     0.008 C 
ATOM     16  C   UNL     1      96.254  87.908  86.228  1.00  0.00     0.012 C 
ATOM     17  C   UNL     1      97.228  86.941  83.199  1.00  0.00    -0.026 C 
ATOM     18  C   UNL     1      96.995  85.077  84.992  1.00  0.00     0.005 C 
ATOM     19  C   UNL     1      97.490  87.206  81.649  1.00  0.00     0.010 C 
ATOM     20  C   UNL     1      98.393  87.687  83.934  1.00  0.00     0.012 C 
ATOM     21  C   UNL     1      97.271  85.392  83.502  1.00  0.00     0.003 C 
ATOM     22  C   UNL     1      98.002  85.996  80.860  1.00  0.00     0.033 C 
ATOM     23  C   UNL     1      98.526  84.591  82.924  1.00  0.00    -0.006 C 
ATOM     24  C   UNL     1      99.100  85.272  81.634  1.00  0.00     0.120 C 
ATOM     25  C   UNL     1      98.065  83.143  82.583  1.00  0.00     0.014 C 
ATOM     26  C   UNL     1      99.683  84.470  83.949  1.00  0.00     0.014 C 
ENDROOT
BRANCH   1  27
ATOM     27  C   UNL     1      90.358  88.605  85.344  1.00  0.00     0.048 C 
ATOM     28  O   UNL     1      90.827  89.141  84.306  1.00  0.00    -0.550 OA
ATOM     29  O   UNL     1      89.431  89.315  86.100  1.00  0.00    -0.550 OA
ENDBRANCH   1  27
BRANCH   7  30
ATOM     30  C   UNL     1      90.231  86.275  82.402  1.00  0.00    -0.077 C 
ATOM     31  C   UNL     1      90.943  85.574  81.267  1.00  0.00     0.039 C 
ATOM     32  C   UNL     1      89.379  87.264  82.083  1.00  0.00     0.008 C 
ENDBRANCH   7  30
BRANCH  24  33
ATOM     33  O   UNL     1      99.729  84.332  80.797  1.00  0.00    -0.393 OA
ATOM     34  H   UNL     1      99.570  84.618  79.859  1.00  0.00     0.210 HD
ENDBRANCH  24  33
TORSDOF 3
ENDMDL
MODEL 9
REMARK VINA RESULT:    -6.150      3.884      6.590
REMARK INTER + INTRA:          -7.198
REMARK INTER:                  -7.377
REMARK INTRA:                   0.179
REMARK UNBOUND:                -0.150
REMARK SMILES C=C(C)[C@@H]1CC[C@@]2(C(=O)[O-])CC[C@]3(C)[C@H](CC[C@@H]4[C@]5(C)CC[C@H](O)C(C)(C)[C@H]5CC[C@@]43C)[C@H]12
REMARK SMILES IDX 7 1 6 2 33 3 11 4 5 5 15 6 4 7 12 8 16 9 13 10 17 11 31 12
REMARK SMILES IDX 14 13 18 14 30 15 32 16 19 17 29 18 21 19 20 20 28 21 22 22
REMARK SMILES IDX 25 23 23 24 26 25 27 26 8 27 9 28 10 29 2 30 3 31 1 32 24 33
REMARK H PARENT 24 34
REMARK Flexibility Score: inf
ROOT
ATOM      1  C   UNL     1      98.661  84.807  83.550  1.00  0.00     0.014 C 
ATOM      2  C   UNL     1      98.391  83.468  82.824  1.00  0.00     0.014 C 
ATOM      3  C   UNL     1      99.012  85.714  82.369  1.00  0.00     0.012 C 
ATOM      4  C   UNL     1      99.876  84.742  84.549  1.00  0.00     0.014 C 
ATOM      5  C   UNL     1      97.732  83.831  81.482  1.00  0.00     0.009 C 
ATOM      6  C   UNL     1      99.531  87.161  82.697  1.00  0.00     0.000 C 
ATOM      7  C   UNL     1      98.166  85.279  81.142  1.00  0.00     0.018 C 
ATOM      8  C   UNL     1     100.958  85.856  84.355  1.00  0.00     0.008 C 
ATOM      9  C   UNL     1      98.632  88.369  82.550  1.00  0.00     0.005 C 
ATOM     10  C   UNL     1     100.357  87.279  84.048  1.00  0.00    -0.024 C 
ATOM     11  C   UNL     1      99.513  89.621  82.391  1.00  0.00     0.005 C 
ATOM     12  C   UNL     1     101.454  88.454  83.866  1.00  0.00    -0.024 C 
ATOM     13  C   UNL     1      99.470  87.651  85.294  1.00  0.00     0.012 C 
ATOM     14  C   UNL     1     100.742  89.825  83.372  1.00  0.00     0.002 C 
ATOM     15  C   UNL     1     102.584  88.006  82.871  1.00  0.00     0.008 C 
ATOM     16  C   UNL     1     102.155  88.702  85.252  1.00  0.00     0.012 C 
ATOM     17  C   UNL     1     101.759  90.970  82.853  1.00  0.00    -0.026 C 
ATOM     18  C   UNL     1     103.527  89.119  82.417  1.00  0.00     0.005 C 
ATOM     19  C   UNL     1     100.992  92.197  82.182  1.00  0.00     0.010 C 
ATOM     20  C   UNL     1     102.518  91.594  84.072  1.00  0.00     0.012 C 
ATOM     21  C   UNL     1     102.773  90.334  81.823  1.00  0.00     0.003 C 
ATOM     22  C   UNL     1     101.574  92.677  80.848  1.00  0.00     0.033 C 
ATOM     23  C   UNL     1     103.742  91.349  81.062  1.00  0.00    -0.006 C 
ATOM     24  C   UNL     1     103.095  92.770  80.926  1.00  0.00     0.120 C 
ATOM     25  C   UNL     1     104.033  90.775  79.644  1.00  0.00     0.014 C 
ATOM     26  C   UNL     1     105.110  91.519  81.773  1.00  0.00     0.014 C 
ENDROOT
BRANCH   1  27
ATOM     27  C   UNL     1      97.383  85.193  84.278  1.00  0.00     0.048 C 
ATOM     28  O   UNL     1      96.753  86.245  83.997  1.00  0.00    -0.550 OA
ATOM     29  O   UNL     1      96.911  84.389  85.310  1.00  0.00    -0.550 OA
ENDBRANCH   1  27
BRANCH   7  30
ATOM     30  C   UNL     1      97.025  86.187  80.674  1.00  0.00    -0.077 C 
ATOM     31  C   UNL     1      95.614  85.875  81.116  1.00  0.00     0.039 C 
ATOM     32  C   UNL     1      97.222  87.319  79.978  1.00  0.00     0.008 C 
ENDBRANCH   7  30
BRANCH  24  33
ATOM     33  O   UNL     1     103.586  93.449  79.795  1.00  0.00    -0.393 OA
ATOM     34  H   UNL     1     102.818  93.598  79.183  1.00  0.00     0.210 HD
ENDBRANCH  24  33
TORSDOF 3
ENDMDL
