MODEL 1
REMARK VINA RESULT:    -5.767      0.000      0.000
REMARK INTER + INTRA:          -9.641
REMARK INTER:                  -9.139
REMARK INTRA:                  -0.502
REMARK UNBOUND:                -0.502
REMARK SMILES CCCCCCCCCCCC(=O)[O-]
REMARK SMILES IDX 7 1 8 2 9 3 10 4 11 5 12 6 13 7 14 8 6 9 5 10 4 11 3 12 2 13
REMARK SMILES IDX 1 14
REMARK H PARENT
REMARK Flexibility Score: inf
ROOT
ATOM      1  C   UNL     1      14.738   1.618  15.438  1.00  0.00     0.000 C 
ENDROOT
BRANCH   1   2
ATOM      2  C   UNL     1      13.257   1.463  15.817  1.00  0.00     0.000 C 
BRANCH   2   3
ATOM      3  C   UNL     1      12.875   2.432  16.943  1.00  0.00     0.000 C 
BRANCH   3   4
ATOM      4  C   UNL     1      13.425   1.952  18.294  1.00  0.00     0.006 C 
BRANCH   4   5
ATOM      5  C   UNL     1      13.309   0.432  18.462  1.00  0.00     0.053 C 
BRANCH   5   6
ATOM      6  C   UNL     1      14.228  -0.083  19.528  1.00  0.00     0.041 C 
ATOM      7  O   UNL     1      14.883  -1.142  19.342  1.00  0.00    -0.550 OA
ATOM      8  O   UNL     1      14.387   0.626  20.712  1.00  0.00    -0.550 OA
ENDBRANCH   5   6
ENDBRANCH   4   5
ENDBRANCH   3   4
ENDBRANCH   2   3
ENDBRANCH   1   2
BRANCH   1   9
ATOM      9  C   UNL     1      15.113   0.827  14.173  1.00  0.00     0.000 C 
BRANCH   9  10
ATOM     10  C   UNL     1      15.124   1.704  12.910  1.00  0.00    -0.000 C 
BRANCH  10  11
ATOM     11  C   UNL     1      15.434   0.901  11.637  1.00  0.00    -0.000 C 
BRANCH  11  12
ATOM     12  C   UNL     1      16.943   0.770  11.370  1.00  0.00    -0.000 C 
BRANCH  12  13
ATOM     13  C   UNL     1      17.405  -0.693  11.303  1.00  0.00    -0.003 C 
ATOM     14  C   UNL     1      17.847  -1.235  12.663  1.00  0.00     0.004 C 
ENDBRANCH  12  13
ENDBRANCH  11  12
ENDBRANCH  10  11
ENDBRANCH   9  10
ENDBRANCH   1   9
TORSDOF 10
ENDMDL
MODEL 2
REMARK VINA RESULT:    -5.762      1.033      1.916
REMARK INTER + INTRA:          -9.633
REMARK INTER:                  -8.759
REMARK INTRA:                  -0.874
REMARK UNBOUND:                -0.502
REMARK SMILES CCCCCCCCCCCC(=O)[O-]
REMARK SMILES IDX 7 1 8 2 9 3 10 4 11 5 12 6 13 7 14 8 6 9 5 10 4 11 3 12 2 13
REMARK SMILES IDX 1 14
REMARK H PARENT
REMARK Flexibility Score: inf
ROOT
ATOM      1  C   UNL     1      14.307   0.510  13.633  1.00  0.00     0.000 C 
ENDROOT
BRANCH   1   2
ATOM      2  C   UNL     1      13.820   1.148  14.942  1.00  0.00     0.000 C 
BRANCH   2   3
ATOM      3  C   UNL     1      15.000   1.463  15.871  1.00  0.00     0.000 C 
BRANCH   3   4
ATOM      4  C   UNL     1      14.547   2.310  17.069  1.00  0.00     0.006 C 
BRANCH   4   5
ATOM      5  C   UNL     1      13.291   1.741  17.742  1.00  0.00     0.053 C 
BRANCH   5   6
ATOM      6  C   UNL     1      13.611   0.562  18.611  1.00  0.00     0.041 C 
ATOM      7  O   UNL     1      14.234   0.724  19.693  1.00  0.00    -0.550 OA
ATOM      8  O   UNL     1      13.190  -0.710  18.242  1.00  0.00    -0.550 OA
ENDBRANCH   5   6
ENDBRANCH   4   5
ENDBRANCH   3   4
ENDBRANCH   2   3
ENDBRANCH   1   2
BRANCH   1   9
ATOM      9  C   UNL     1      15.124   1.482  12.765  1.00  0.00     0.000 C 
BRANCH   9  10
ATOM     10  C   UNL     1      15.597   0.843  11.449  1.00  0.00    -0.000 C 
BRANCH  10  11
ATOM     11  C   UNL     1      17.086   0.462  11.480  1.00  0.00    -0.000 C 
BRANCH  11  12
ATOM     12  C   UNL     1      17.310  -1.037  11.745  1.00  0.00    -0.000 C 
BRANCH  12  13
ATOM     13  C   UNL     1      18.113  -1.295  13.029  1.00  0.00    -0.003 C 
ATOM     14  C   UNL     1      17.219  -1.570  14.238  1.00  0.00     0.004 C 
ENDBRANCH  12  13
ENDBRANCH  11  12
ENDBRANCH  10  11
ENDBRANCH   9  10
ENDBRANCH   1   9
TORSDOF 10
ENDMDL
MODEL 3
REMARK VINA RESULT:    -5.678      1.539      2.730
REMARK INTER + INTRA:          -9.499
REMARK INTER:                  -8.686
REMARK INTRA:                  -0.812
REMARK UNBOUND:                -0.502
REMARK SMILES CCCCCCCCCCCC(=O)[O-]
REMARK SMILES IDX 7 1 8 2 9 3 10 4 11 5 12 6 13 7 14 8 6 9 5 10 4 11 3 12 2 13
REMARK SMILES IDX 1 14
REMARK H PARENT
REMARK Flexibility Score: inf
ROOT
ATOM      1  C   UNL     1      12.875   2.368  16.927  1.00  0.00     0.000 C 
ENDROOT
BRANCH   1   2
ATOM      2  C   UNL     1      13.465   2.171  18.331  1.00  0.00     0.000 C 
BRANCH   2   3
ATOM      3  C   UNL     1      13.518   0.683  18.700  1.00  0.00     0.000 C 
BRANCH   3   4
ATOM      4  C   UNL     1      14.703   0.388  19.631  1.00  0.00     0.006 C 
BRANCH   4   5
ATOM      5  C   UNL     1      15.583  -0.755  19.107  1.00  0.00     0.053 C 
BRANCH   5   6
ATOM      6  C   UNL     1      16.062  -0.495  17.712  1.00  0.00     0.041 C 
ATOM      7  O   UNL     1      16.824   0.479  17.475  1.00  0.00    -0.550 OA
ATOM      8  O   UNL     1      15.695  -1.349  16.679  1.00  0.00    -0.550 OA
ENDBRANCH   5   6
ENDBRANCH   4   5
ENDBRANCH   3   4
ENDBRANCH   2   3
ENDBRANCH   1   2
BRANCH   1   9
ATOM      9  C   UNL     1      13.277   1.250  15.951  1.00  0.00     0.000 C 
BRANCH   9  10
ATOM     10  C   UNL     1      14.487   1.631  15.082  1.00  0.00    -0.000 C 
BRANCH  10  11
ATOM     11  C   UNL     1      14.636   0.725  13.849  1.00  0.00    -0.000 C 
BRANCH  11  12
ATOM     12  C   UNL     1      15.238   1.462  12.640  1.00  0.00    -0.000 C 
BRANCH  12  13
ATOM     13  C   UNL     1      15.521   0.521  11.459  1.00  0.00    -0.003 C 
ATOM     14  C   UNL     1      17.012   0.412  11.136  1.00  0.00     0.004 C 
ENDBRANCH  12  13
ENDBRANCH  11  12
ENDBRANCH  10  11
ENDBRANCH   9  10
ENDBRANCH   1   9
TORSDOF 10
ENDMDL
MODEL 4
REMARK VINA RESULT:    -5.674      3.341      6.462
REMARK INTER + INTRA:          -9.493
REMARK INTER:                  -8.139
REMARK INTRA:                  -1.354
REMARK UNBOUND:                -0.502
REMARK SMILES CCCCCCCCCCCC(=O)[O-]
REMARK SMILES IDX 7 1 8 2 9 3 10 4 11 5 12 6 13 7 14 8 6 9 5 10 4 11 3 12 2 13
REMARK SMILES IDX 1 14
REMARK H PARENT
REMARK Flexibility Score: inf
ROOT
ATOM      1  C   UNL     1      17.022  -0.822  18.673  1.00  0.00     0.000 C 
ENDROOT
BRANCH   1   2
ATOM      2  C   UNL     1      16.923   0.143  17.483  1.00  0.00     0.000 C 
BRANCH   2   3
ATOM      3  C   UNL     1      16.726  -0.624  16.169  1.00  0.00     0.000 C 
BRANCH   3   4
ATOM      4  C   UNL     1      15.351  -0.325  15.557  1.00  0.00     0.006 C 
BRANCH   4   5
ATOM      5  C   UNL     1      15.236   1.123  15.063  1.00  0.00     0.053 C 
BRANCH   5   6
ATOM      6  C   UNL     1      14.893   1.190  13.606  1.00  0.00     0.041 C 
ATOM      7  O   UNL     1      15.084   2.253  12.959  1.00  0.00    -0.550 OA
ATOM      8  O   UNL     1      14.396   0.068  12.955  1.00  0.00    -0.550 OA
ENDBRANCH   5   6
ENDBRANCH   4   5
ENDBRANCH   3   4
ENDBRANCH   2   3
ENDBRANCH   1   2
BRANCH   1   9
ATOM      9  C   UNL     1      15.814  -0.724  19.619  1.00  0.00     0.000 C 
BRANCH   9  10
ATOM     10  C   UNL     1      14.587  -1.487  19.091  1.00  0.00    -0.000 C 
BRANCH  10  11
ATOM     11  C   UNL     1      13.423  -0.551  18.729  1.00  0.00    -0.000 C 
BRANCH  11  12
ATOM     12  C   UNL     1      13.732   0.926  19.029  1.00  0.00    -0.000 C 
BRANCH  12  13
ATOM     13  C   UNL     1      13.027   1.884  18.058  1.00  0.00    -0.003 C 
ATOM     14  C   UNL     1      13.880   3.104  17.709  1.00  0.00     0.004 C 
ENDBRANCH  12  13
ENDBRANCH  11  12
ENDBRANCH  10  11
ENDBRANCH   9  10
ENDBRANCH   1   9
TORSDOF 10
ENDMDL
MODEL 5
REMARK VINA RESULT:    -5.613      3.164      5.907
REMARK INTER + INTRA:          -9.397
REMARK INTER:                  -8.206
REMARK INTRA:                  -1.190
REMARK UNBOUND:                -0.502
REMARK SMILES CCCCCCCCCCCC(=O)[O-]
REMARK SMILES IDX 7 1 8 2 9 3 10 4 11 5 12 6 13 7 14 8 6 9 5 10 4 11 3 12 2 13
REMARK SMILES IDX 1 14
REMARK H PARENT
REMARK Flexibility Score: inf
ROOT
ATOM      1  C   UNL     1      14.064   2.214  17.338  1.00  0.00     0.000 C 
ENDROOT
BRANCH   1   2
ATOM      2  C   UNL     1      12.892   2.164  16.347  1.00  0.00     0.000 C 
BRANCH   2   3
ATOM      3  C   UNL     1      13.238   1.296  15.131  1.00  0.00     0.000 C 
BRANCH   3   4
ATOM      4  C   UNL     1      14.748   1.307  14.857  1.00  0.00     0.006 C 
BRANCH   4   5
ATOM      5  C   UNL     1      15.078   1.767  13.431  1.00  0.00     0.053 C 
BRANCH   5   6
ATOM      6  C   UNL     1      15.647   0.654  12.604  1.00  0.00     0.041 C 
ATOM      7  O   UNL     1      16.237  -0.309  13.159  1.00  0.00    -0.550 OA
ATOM      8  O   UNL     1      15.494   0.664  11.223  1.00  0.00    -0.550 OA
ENDBRANCH   5   6
ENDBRANCH   4   5
ENDBRANCH   3   4
ENDBRANCH   2   3
ENDBRANCH   1   2
BRANCH   1   9
ATOM      9  C   UNL     1      13.623   1.984  18.793  1.00  0.00     0.000 C 
BRANCH   9  10
ATOM     10  C   UNL     1      14.211   0.696  19.393  1.00  0.00    -0.000 C 
BRANCH  10  11
ATOM     11  C   UNL     1      13.942  -0.538  18.517  1.00  0.00    -0.000 C 
BRANCH  11  12
ATOM     12  C   UNL     1      15.232  -1.266  18.105  1.00  0.00    -0.000 C 
BRANCH  12  13
ATOM     13  C   UNL     1      16.498  -0.542  18.589  1.00  0.00    -0.003 C 
ATOM     14  C   UNL     1      17.284   0.099  17.445  1.00  0.00     0.004 C 
ENDBRANCH  12  13
ENDBRANCH  11  12
ENDBRANCH  10  11
ENDBRANCH   9  10
ENDBRANCH   1   9
TORSDOF 10
ENDMDL
MODEL 6
REMARK VINA RESULT:    -5.607      3.339      6.845
REMARK INTER + INTRA:          -9.386
REMARK INTER:                  -8.733
REMARK INTRA:                  -0.653
REMARK UNBOUND:                -0.502
REMARK SMILES CCCCCCCCCCCC(=O)[O-]
REMARK SMILES IDX 7 1 8 2 9 3 10 4 11 5 12 6 13 7 14 8 6 9 5 10 4 11 3 12 2 13
REMARK SMILES IDX 1 14
REMARK H PARENT
REMARK Flexibility Score: inf
ROOT
ATOM      1  C   UNL     1      15.036   1.596  15.966  1.00  0.00     0.000 C 
ENDROOT
BRANCH   1   2
ATOM      2  C   UNL     1      15.398   0.786  14.713  1.00  0.00     0.000 C 
BRANCH   2   3
ATOM      3  C   UNL     1      15.087   1.579  13.437  1.00  0.00     0.000 C 
BRANCH   3   4
ATOM      4  C   UNL     1      15.224   0.695  12.190  1.00  0.00     0.006 C 
BRANCH   4   5
ATOM      5  C   UNL     1      16.590   0.856  11.510  1.00  0.00     0.053 C 
BRANCH   5   6
ATOM      6  C   UNL     1      17.300  -0.456  11.366  1.00  0.00     0.041 C 
ATOM      7  O   UNL     1      17.265  -1.078  10.272  1.00  0.00    -0.550 OA
ATOM      8  O   UNL     1      18.028  -0.974  12.430  1.00  0.00    -0.550 OA
ENDBRANCH   5   6
ENDBRANCH   4   5
ENDBRANCH   3   4
ENDBRANCH   2   3
ENDBRANCH   1   2
BRANCH   1   9
ATOM      9  C   UNL     1      13.532   1.560  16.284  1.00  0.00     0.000 C 
BRANCH   9  10
ATOM     10  C   UNL     1      13.243   1.681  17.789  1.00  0.00    -0.000 C 
BRANCH  10  11
ATOM     11  C   UNL     1      13.460   0.357  18.540  1.00  0.00    -0.000 C 
BRANCH  11  12
ATOM     12  C   UNL     1      14.391   0.509  19.755  1.00  0.00    -0.000 C 
BRANCH  12  13
ATOM     13  C   UNL     1      15.380  -0.658  19.889  1.00  0.00    -0.003 C 
ATOM     14  C   UNL     1      16.481  -0.624  18.828  1.00  0.00     0.004 C 
ENDBRANCH  12  13
ENDBRANCH  11  12
ENDBRANCH  10  11
ENDBRANCH   9  10
ENDBRANCH   1   9
TORSDOF 10
ENDMDL
MODEL 7
REMARK VINA RESULT:    -5.580      2.116      3.192
REMARK INTER + INTRA:          -9.345
REMARK INTER:                  -7.878
REMARK INTRA:                  -1.467
REMARK UNBOUND:                -0.502
REMARK SMILES CCCCCCCCCCCC(=O)[O-]
REMARK SMILES IDX 7 1 8 2 9 3 10 4 11 5 12 6 13 7 14 8 6 9 5 10 4 11 3 12 2 13
REMARK SMILES IDX 1 14
REMARK H PARENT
REMARK Flexibility Score: inf
ROOT
ATOM      1  C   UNL     1      13.015   2.023  16.013  1.00  0.00     0.000 C 
ENDROOT
BRANCH   1   2
ATOM      2  C   UNL     1      14.036   2.327  17.119  1.00  0.00     0.000 C 
BRANCH   2   3
ATOM      3  C   UNL     1      13.433   2.076  18.507  1.00  0.00     0.000 C 
BRANCH   3   4
ATOM      4  C   UNL     1      13.985   0.782  19.123  1.00  0.00     0.006 C 
BRANCH   4   5
ATOM      5  C   UNL     1      13.280  -0.467  18.579  1.00  0.00     0.053 C 
BRANCH   5   6
ATOM      6  C   UNL     1      13.949  -1.728  19.038  1.00  0.00     0.041 C 
ATOM      7  O   UNL     1      14.645  -1.730  20.086  1.00  0.00    -0.550 OA
ATOM      8  O   UNL     1      13.774  -2.908  18.325  1.00  0.00    -0.550 OA
ENDBRANCH   5   6
ENDBRANCH   4   5
ENDBRANCH   3   4
ENDBRANCH   2   3
ENDBRANCH   1   2
BRANCH   1   9
ATOM      9  C   UNL     1      13.586   1.117  14.910  1.00  0.00     0.000 C 
BRANCH   9  10
ATOM     10  C   UNL     1      15.114   1.234  14.781  1.00  0.00    -0.000 C 
BRANCH  10  11
ATOM     11  C   UNL     1      15.806  -0.137  14.711  1.00  0.00    -0.000 C 
BRANCH  11  12
ATOM     12  C   UNL     1      16.043  -0.754  16.099  1.00  0.00    -0.000 C 
BRANCH  12  13
ATOM     13  C   UNL     1      16.957   0.111  16.980  1.00  0.00    -0.003 C 
ATOM     14  C   UNL     1      17.434  -0.622  18.235  1.00  0.00     0.004 C 
ENDBRANCH  12  13
ENDBRANCH  11  12
ENDBRANCH  10  11
ENDBRANCH   9  10
ENDBRANCH   1   9
TORSDOF 10
ENDMDL
MODEL 8
REMARK VINA RESULT:    -5.572      1.725      3.463
REMARK INTER + INTRA:          -9.332
REMARK INTER:                  -8.297
REMARK INTRA:                  -1.035
REMARK UNBOUND:                -0.502
REMARK SMILES CCCCCCCCCCCC(=O)[O-]
REMARK SMILES IDX 7 1 8 2 9 3 10 4 11 5 12 6 13 7 14 8 6 9 5 10 4 11 3 12 2 13
REMARK SMILES IDX 1 14
REMARK H PARENT
REMARK Flexibility Score: inf
ROOT
ATOM      1  C   UNL     1      15.525   0.884  11.669  1.00  0.00     0.000 C 
ENDROOT
BRANCH   1   2
ATOM      2  C   UNL     1      15.484   1.556  13.049  1.00  0.00     0.000 C 
BRANCH   2   3
ATOM      3  C   UNL     1      14.375   0.951  13.921  1.00  0.00     0.000 C 
BRANCH   3   4
ATOM      4  C   UNL     1      14.513   1.405  15.381  1.00  0.00     0.006 C 
BRANCH   4   5
ATOM      5  C   UNL     1      13.151   1.624  16.053  1.00  0.00     0.053 C 
BRANCH   5   6
ATOM      6  C   UNL     1      13.253   1.572  17.547  1.00  0.00     0.041 C 
ATOM      7  O   UNL     1      13.348   0.464  18.137  1.00  0.00    -0.550 OA
ATOM      8  O   UNL     1      13.277   2.750  18.285  1.00  0.00    -0.550 OA
ENDBRANCH   5   6
ENDBRANCH   4   5
ENDBRANCH   3   4
ENDBRANCH   2   3
ENDBRANCH   1   2
BRANCH   1   9
ATOM      9  C   UNL     1      16.951   0.513  11.230  1.00  0.00     0.000 C 
BRANCH   9  10
ATOM     10  C   UNL     1      17.315  -0.942  11.571  1.00  0.00    -0.000 C 
BRANCH  10  11
ATOM     11  C   UNL     1      18.125  -1.057  12.872  1.00  0.00    -0.000 C 
BRANCH  11  12
ATOM     12  C   UNL     1      17.404  -1.885  13.949  1.00  0.00    -0.000 C 
BRANCH  12  13
ATOM     13  C   UNL     1      17.162  -1.089  15.240  1.00  0.00    -0.003 C 
ATOM     14  C   UNL     1      16.196  -1.791  16.195  1.00  0.00     0.004 C 
ENDBRANCH  12  13
ENDBRANCH  11  12
ENDBRANCH  10  11
ENDBRANCH   9  10
ENDBRANCH   1   9
TORSDOF 10
ENDMDL
