MODEL 1
REMARK VINA RESULT:    -3.591      0.000      0.000
REMARK INTER + INTRA:          -4.263
REMARK INTER:                  -4.220
REMARK INTRA:                  -0.042
REMARK UNBOUND:                -0.042
REMARK SMILES CCCCC(=O)[O-]
REMARK SMILES IDX 4 1 5 2 6 3 7 4 3 5 2 6 1 7
REMARK H PARENT
REMARK Flexibility Score: inf
ROOT
ATOM      1  C   UNL     1       3.160  10.480   9.525  1.00  0.00     0.053 C 
ENDROOT
BRANCH   1   2
ATOM      2  C   UNL     1       3.662   9.915   8.233  1.00  0.00     0.041 C 
ATOM      3  O   UNL     1       3.151  10.278   7.141  1.00  0.00    -0.550 OA
ATOM      4  O   UNL     1       4.662   8.951   8.238  1.00  0.00    -0.550 OA
ENDBRANCH   1   2
BRANCH   1   5
ATOM      5  C   UNL     1       2.458  11.823   9.284  1.00  0.00     0.006 C 
BRANCH   5   6
ATOM      6  C   UNL     1       1.076  11.893   9.950  1.00  0.00    -0.003 C 
ATOM      7  C   UNL     1       0.115  12.832   9.221  1.00  0.00     0.004 C 
ENDBRANCH   5   6
ENDBRANCH   1   5
TORSDOF 3
ENDMDL
MODEL 2
REMARK VINA RESULT:    -3.461      2.750      4.322
REMARK INTER + INTRA:          -4.110
REMARK INTER:                  -4.027
REMARK INTRA:                  -0.083
REMARK UNBOUND:                -0.042
REMARK SMILES CCCCC(=O)[O-]
REMARK SMILES IDX 4 1 5 2 6 3 7 4 3 5 2 6 1 7
REMARK H PARENT
REMARK Flexibility Score: inf
ROOT
ATOM      1  C   UNL     1       4.889  11.201   7.753  1.00  0.00     0.053 C 
ENDROOT
BRANCH   1   2
ATOM      2  C   UNL     1       3.886  10.092   7.686  1.00  0.00     0.041 C 
ATOM      3  O   UNL     1       2.679  10.343   7.431  1.00  0.00    -0.550 OA
ATOM      4  O   UNL     1       4.276   8.786   7.953  1.00  0.00    -0.550 OA
ENDBRANCH   1   2
BRANCH   1   5
ATOM      5  C   UNL     1       5.987  10.993   6.703  1.00  0.00     0.006 C 
BRANCH   5   6
ATOM      6  C   UNL     1       5.444  11.025   5.267  1.00  0.00    -0.003 C 
ATOM      7  C   UNL     1       6.219  11.982   4.362  1.00  0.00     0.004 C 
ENDBRANCH   5   6
ENDBRANCH   1   5
TORSDOF 3
ENDMDL
MODEL 3
REMARK VINA RESULT:    -3.418     17.397     18.217
REMARK INTER + INTRA:          -4.060
REMARK INTER:                  -4.017
REMARK INTRA:                  -0.043
REMARK UNBOUND:                -0.042
REMARK SMILES CCCCC(=O)[O-]
REMARK SMILES IDX 4 1 5 2 6 3 7 4 3 5 2 6 1 7
REMARK H PARENT
REMARK Flexibility Score: inf
ROOT
ATOM      1  C   UNL     1      -6.411  10.303  -6.913  1.00  0.00     0.053 C 
ENDROOT
BRANCH   1   2
ATOM      2  C   UNL     1      -5.546  11.231  -6.120  1.00  0.00     0.041 C 
ATOM      3  O   UNL     1      -4.392  10.874  -5.764  1.00  0.00    -0.550 OA
ATOM      4  O   UNL     1      -6.032  12.473  -5.732  1.00  0.00    -0.550 OA
ENDBRANCH   1   2
BRANCH   1   5
ATOM      5  C   UNL     1      -5.547   9.340  -7.737  1.00  0.00     0.006 C 
BRANCH   5   6
ATOM      6  C   UNL     1      -5.161   9.919  -9.106  1.00  0.00    -0.003 C 
ATOM      7  C   UNL     1      -3.749  10.503  -9.125  1.00  0.00     0.004 C 
ENDBRANCH   5   6
ENDBRANCH   1   5
TORSDOF 3
ENDMDL
MODEL 4
REMARK VINA RESULT:    -3.408     18.205     18.736
REMARK INTER + INTRA:          -4.049
REMARK INTER:                  -3.946
REMARK INTRA:                  -0.103
REMARK UNBOUND:                -0.042
REMARK SMILES CCCCC(=O)[O-]
REMARK SMILES IDX 4 1 5 2 6 3 7 4 3 5 2 6 1 7
REMARK H PARENT
REMARK Flexibility Score: inf
ROOT
ATOM      1  C   UNL     1      -5.604   8.968  -7.670  1.00  0.00     0.053 C 
ENDROOT
BRANCH   1   2
ATOM      2  C   UNL     1      -6.626   9.552  -6.747  1.00  0.00     0.041 C 
ATOM      3  O   UNL     1      -6.617  10.784  -6.489  1.00  0.00    -0.550 OA
ATOM      4  O   UNL     1      -7.558   8.727  -6.131  1.00  0.00    -0.550 OA
ENDBRANCH   1   2
BRANCH   1   5
ATOM      5  C   UNL     1      -5.462   9.835  -8.927  1.00  0.00     0.006 C 
BRANCH   5   6
ATOM      6  C   UNL     1      -4.031  10.358  -9.125  1.00  0.00    -0.003 C 
ATOM      7  C   UNL     1      -3.751  11.632  -8.328  1.00  0.00     0.004 C 
ENDBRANCH   5   6
ENDBRANCH   1   5
TORSDOF 3
ENDMDL
MODEL 5
REMARK VINA RESULT:    -3.392      1.031      1.400
REMARK INTER + INTRA:          -4.029
REMARK INTER:                  -3.946
REMARK INTRA:                  -0.083
REMARK UNBOUND:                -0.042
REMARK SMILES CCCCC(=O)[O-]
REMARK SMILES IDX 4 1 5 2 6 3 7 4 3 5 2 6 1 7
REMARK H PARENT
REMARK Flexibility Score: inf
ROOT
ATOM      1  C   UNL     1       4.514  11.262   8.414  1.00  0.00     0.053 C 
ENDROOT
BRANCH   1   2
ATOM      2  C   UNL     1       4.415  10.171   7.395  1.00  0.00     0.041 C 
ATOM      3  O   UNL     1       4.258  10.452   6.178  1.00  0.00    -0.550 OA
ATOM      4  O   UNL     1       4.448   8.841   7.795  1.00  0.00    -0.550 OA
ENDBRANCH   1   2
BRANCH   1   5
ATOM      5  C   UNL     1       3.450  11.075   9.503  1.00  0.00     0.006 C 
BRANCH   5   6
ATOM      6  C   UNL     1       2.020  11.219   8.961  1.00  0.00    -0.003 C 
ATOM      7  C   UNL     1       1.074  11.885   9.958  1.00  0.00     0.004 C 
ENDBRANCH   5   6
ENDBRANCH   1   5
TORSDOF 3
ENDMDL
MODEL 6
REMARK VINA RESULT:    -3.378      3.450      4.985
REMARK INTER + INTRA:          -4.013
REMARK INTER:                  -3.958
REMARK INTRA:                  -0.055
REMARK UNBOUND:                -0.042
REMARK SMILES CCCCC(=O)[O-]
REMARK SMILES IDX 4 1 5 2 6 3 7 4 3 5 2 6 1 7
REMARK H PARENT
REMARK Flexibility Score: inf
ROOT
ATOM      1  C   UNL     1       6.027  10.544   6.450  1.00  0.00     0.053 C 
ENDROOT
BRANCH   1   2
ATOM      2  C   UNL     1       4.967  10.253   7.465  1.00  0.00     0.041 C 
ATOM      3  O   UNL     1       4.651   9.063   7.728  1.00  0.00    -0.550 OA
ATOM      4  O   UNL     1       4.293  11.297   8.085  1.00  0.00    -0.550 OA
ENDBRANCH   1   2
BRANCH   1   5
ATOM      5  C   UNL     1       5.391  10.963   5.118  1.00  0.00     0.006 C 
BRANCH   5   6
ATOM      6  C   UNL     1       6.230  12.008   4.367  1.00  0.00    -0.003 C 
ATOM      7  C   UNL     1       6.757  13.113   5.282  1.00  0.00     0.004 C 
ENDBRANCH   5   6
ENDBRANCH   1   5
TORSDOF 3
ENDMDL
MODEL 7
REMARK VINA RESULT:    -3.292     17.318     18.024
REMARK INTER + INTRA:          -3.912
REMARK INTER:                  -3.810
REMARK INTRA:                  -0.102
REMARK UNBOUND:                -0.042
REMARK SMILES CCCCC(=O)[O-]
REMARK SMILES IDX 4 1 5 2 6 3 7 4 3 5 2 6 1 7
REMARK H PARENT
REMARK Flexibility Score: inf
ROOT
ATOM      1  C   UNL     1      -3.719  11.852  -7.802  1.00  0.00     0.053 C 
ENDROOT
BRANCH   1   2
ATOM      2  C   UNL     1      -4.404  11.911  -6.473  1.00  0.00     0.041 C 
ATOM      3  O   UNL     1      -4.996  12.962  -6.111  1.00  0.00    -0.550 OA
ATOM      4  O   UNL     1      -4.348  10.823  -5.613  1.00  0.00    -0.550 OA
ENDBRANCH   1   2
BRANCH   1   5
ATOM      5  C   UNL     1      -3.721  10.417  -8.341  1.00  0.00     0.006 C 
BRANCH   5   6
ATOM      6  C   UNL     1      -5.000  10.083  -9.124  1.00  0.00    -0.003 C 
ATOM      7  C   UNL     1      -5.950   9.173  -8.346  1.00  0.00     0.004 C 
ENDBRANCH   5   6
ENDBRANCH   1   5
TORSDOF 3
ENDMDL
MODEL 8
REMARK VINA RESULT:    -3.214     17.744     18.388
REMARK INTER + INTRA:          -3.821
REMARK INTER:                  -3.749
REMARK INTRA:                  -0.071
REMARK UNBOUND:                -0.042
REMARK SMILES CCCCC(=O)[O-]
REMARK SMILES IDX 4 1 5 2 6 3 7 4 3 5 2 6 1 7
REMARK H PARENT
REMARK Flexibility Score: inf
ROOT
ATOM      1  C   UNL     1      -4.141  10.102  -8.896  1.00  0.00     0.053 C 
ENDROOT
BRANCH   1   2
ATOM      2  C   UNL     1      -3.773  11.205  -7.955  1.00  0.00     0.041 C 
ATOM      3  O   UNL     1      -3.634  12.382  -8.381  1.00  0.00    -0.550 OA
ATOM      4  O   UNL     1      -3.534  10.926  -6.616  1.00  0.00    -0.550 OA
ENDBRANCH   1   2
BRANCH   1   5
ATOM      5  C   UNL     1      -5.637   9.784  -8.788  1.00  0.00     0.006 C 
BRANCH   5   6
ATOM      6  C   UNL     1      -5.947   8.775  -7.671  1.00  0.00    -0.003 C 
ATOM      7  C   UNL     1      -6.729   9.395  -6.514  1.00  0.00     0.004 C 
ENDBRANCH   5   6
ENDBRANCH   1   5
TORSDOF 3
ENDMDL
MODEL 9
REMARK VINA RESULT:    -3.207      4.633      6.171
REMARK INTER + INTRA:          -3.812
REMARK INTER:                  -3.762
REMARK INTRA:                  -0.051
REMARK UNBOUND:                -0.042
REMARK SMILES CCCCC(=O)[O-]
REMARK SMILES IDX 4 1 5 2 6 3 7 4 3 5 2 6 1 7
REMARK H PARENT
REMARK Flexibility Score: inf
ROOT
ATOM      1  C   UNL     1       5.582  11.086   5.159  1.00  0.00     0.053 C 
ENDROOT
BRANCH   1   2
ATOM      2  C   UNL     1       5.574  11.014   6.654  1.00  0.00     0.041 C 
ATOM      3  O   UNL     1       5.767  12.052   7.339  1.00  0.00    -0.550 OA
ATOM      4  O   UNL     1       5.403   9.791   7.290  1.00  0.00    -0.550 OA
ENDBRANCH   1   2
BRANCH   1   5
ATOM      5  C   UNL     1       6.496  12.221   4.683  1.00  0.00     0.006 C 
BRANCH   5   6
ATOM      6  C   UNL     1       7.968  11.791   4.583  1.00  0.00    -0.003 C 
ATOM      7  C   UNL     1       8.671  12.367   3.356  1.00  0.00     0.004 C 
ENDBRANCH   5   6
ENDBRANCH   1   5
TORSDOF 3
ENDMDL
