MODEL 1
REMARK VINA RESULT:    -4.704      0.000      0.000
REMARK INTER + INTRA:         -13.796
REMARK INTER:                 -10.204
REMARK INTRA:                  -3.592
REMARK UNBOUND:                -3.592
REMARK SMILES CCCCCCCCCCCCCCCCCCCCCC(=O)[O-]
REMARK SMILES IDX 12 1 11 2 10 3 9 4 8 5 7 6 6 7 5 8 4 9 3 10 2 11 1 12 13 13
REMARK SMILES IDX 14 14 15 15 16 16 17 17 18 18 19 19 20 20 21 21 22 22 23 23
REMARK SMILES IDX 24 24
REMARK H PARENT
REMARK Flexibility Score: inf
ROOT
ATOM      1  C   UNL     1      18.467  -4.622  21.902  1.00  0.00     0.000 C 
ENDROOT
BRANCH   1   2
ATOM      2  C   UNL     1      18.005  -3.408  22.727  1.00  0.00     0.000 C 
BRANCH   2   3
ATOM      3  C   UNL     1      16.576  -3.576  23.268  1.00  0.00     0.000 C 
BRANCH   3   4
ATOM      4  C   UNL     1      16.539  -3.778  24.791  1.00  0.00    -0.000 C 
BRANCH   4   5
ATOM      5  C   UNL     1      17.449  -2.792  25.542  1.00  0.00    -0.000 C 
BRANCH   5   6
ATOM      6  C   UNL     1      16.747  -1.448  25.762  1.00  0.00    -0.000 C 
BRANCH   6   7
ATOM      7  C   UNL     1      17.679  -0.277  25.421  1.00  0.00    -0.000 C 
BRANCH   7   8
ATOM      8  C   UNL     1      17.634   0.087  23.927  1.00  0.00    -0.000 C 
BRANCH   8   9
ATOM      9  C   UNL     1      19.032   0.392  23.358  1.00  0.00    -0.000 C 
BRANCH   9  10
ATOM     10  C   UNL     1      20.005   0.893  24.444  1.00  0.00    -0.000 C 
BRANCH  10  11
ATOM     11  C   UNL     1      21.174   1.720  23.886  1.00  0.00    -0.003 C 
ATOM     12  C   UNL     1      20.806   3.179  23.629  1.00  0.00     0.004 C 
ENDBRANCH  10  11
ENDBRANCH   9  10
ENDBRANCH   8   9
ENDBRANCH   7   8
ENDBRANCH   6   7
ENDBRANCH   5   6
ENDBRANCH   4   5
ENDBRANCH   3   4
ENDBRANCH   2   3
ENDBRANCH   1   2
BRANCH   1  13
ATOM     13  C   UNL     1      19.773  -5.238  22.433  1.00  0.00     0.000 C 
BRANCH  13  14
ATOM     14  C   UNL     1      20.041  -4.859  23.899  1.00  0.00     0.000 C 
BRANCH  14  15
ATOM     15  C   UNL     1      21.392  -4.143  24.078  1.00  0.00     0.000 C 
BRANCH  15  16
ATOM     16  C   UNL     1      21.244  -2.607  24.118  1.00  0.00     0.000 C 
BRANCH  16  17
ATOM     17  C   UNL     1      22.048  -1.877  23.025  1.00  0.00     0.000 C 
BRANCH  17  18
ATOM     18  C   UNL     1      21.712  -2.295  21.585  1.00  0.00     0.000 C 
BRANCH  18  19
ATOM     19  C   UNL     1      22.890  -2.986  20.880  1.00  0.00     0.000 C 
BRANCH  19  20
ATOM     20  C   UNL     1      22.409  -4.150  20.000  1.00  0.00     0.006 C 
BRANCH  20  21
ATOM     21  C   UNL     1      21.173  -3.774  19.170  1.00  0.00     0.053 C 
BRANCH  21  22
ATOM     22  C   UNL     1      21.547  -3.179  17.848  1.00  0.00     0.041 C 
ATOM     23  O   UNL     1      20.702  -2.514  17.194  1.00  0.00    -0.550 OA
ATOM     24  O   UNL     1      22.832  -3.341  17.345  1.00  0.00    -0.550 OA
ENDBRANCH  21  22
ENDBRANCH  20  21
ENDBRANCH  19  20
ENDBRANCH  18  19
ENDBRANCH  17  18
ENDBRANCH  16  17
ENDBRANCH  15  16
ENDBRANCH  14  15
ENDBRANCH  13  14
ENDBRANCH   1  13
TORSDOF 20
ENDMDL
MODEL 2
REMARK VINA RESULT:    -4.701      3.191      6.796
REMARK INTER + INTRA:         -13.789
REMARK INTER:                  -9.379
REMARK INTRA:                  -4.410
REMARK UNBOUND:                -3.592
REMARK SMILES CCCCCCCCCCCCCCCCCCCCCC(=O)[O-]
REMARK SMILES IDX 12 1 11 2 10 3 9 4 8 5 7 6 6 7 5 8 4 9 3 10 2 11 1 12 13 13
REMARK SMILES IDX 14 14 15 15 16 16 17 17 18 18 19 19 20 20 21 21 22 22 23 23
REMARK SMILES IDX 24 24
REMARK H PARENT
REMARK Flexibility Score: inf
ROOT
ATOM      1  C   UNL     1      20.596  -0.997  23.099  1.00  0.00     0.000 C 
ENDROOT
BRANCH   1   2
ATOM      2  C   UNL     1      19.989  -0.796  21.699  1.00  0.00     0.000 C 
BRANCH   2   3
ATOM      3  C   UNL     1      18.765  -1.695  21.457  1.00  0.00     0.000 C 
BRANCH   3   4
ATOM      4  C   UNL     1      18.619  -2.113  19.986  1.00  0.00    -0.000 C 
BRANCH   4   5
ATOM      5  C   UNL     1      19.616  -1.394  19.063  1.00  0.00    -0.000 C 
BRANCH   5   6
ATOM      6  C   UNL     1      20.070  -2.308  17.920  1.00  0.00    -0.000 C 
BRANCH   6   7
ATOM      7  C   UNL     1      21.219  -3.223  18.369  1.00  0.00    -0.000 C 
BRANCH   7   8
ATOM      8  C   UNL     1      20.967  -4.696  18.006  1.00  0.00    -0.000 C 
BRANCH   8   9
ATOM      9  C   UNL     1      19.466  -5.020  17.897  1.00  0.00    -0.000 C 
BRANCH   9  10
ATOM     10  C   UNL     1      19.077  -6.259  18.729  1.00  0.00    -0.000 C 
BRANCH  10  11
ATOM     11  C   UNL     1      17.565  -6.381  18.977  1.00  0.00    -0.003 C 
ATOM     12  C   UNL     1      17.011  -5.264  19.857  1.00  0.00     0.004 C 
ENDBRANCH  10  11
ENDBRANCH   9  10
ENDBRANCH   8   9
ENDBRANCH   7   8
ENDBRANCH   6   7
ENDBRANCH   5   6
ENDBRANCH   4   5
ENDBRANCH   3   4
ENDBRANCH   2   3
ENDBRANCH   1   2
BRANCH   1  13
ATOM     13  C   UNL     1      22.008  -1.606  23.052  1.00  0.00     0.000 C 
BRANCH  13  14
ATOM     14  C   UNL     1      22.410  -2.035  21.631  1.00  0.00     0.000 C 
BRANCH  14  15
ATOM     15  C   UNL     1      22.963  -3.471  21.591  1.00  0.00     0.000 C 
BRANCH  15  16
ATOM     16  C   UNL     1      22.074  -4.467  22.364  1.00  0.00     0.000 C 
BRANCH  16  17
ATOM     17  C   UNL     1      20.743  -4.790  21.659  1.00  0.00     0.000 C 
BRANCH  17  18
ATOM     18  C   UNL     1      19.586  -5.166  22.600  1.00  0.00     0.000 C 
BRANCH  18  19
ATOM     19  C   UNL     1      19.851  -4.748  24.055  1.00  0.00     0.000 C 
BRANCH  19  20
ATOM     20  C   UNL     1      18.786  -3.758  24.553  1.00  0.00     0.006 C 
BRANCH  20  21
ATOM     21  C   UNL     1      17.390  -4.089  24.006  1.00  0.00     0.053 C 
BRANCH  21  22
ATOM     22  C   UNL     1      16.358  -3.113  24.481  1.00  0.00     0.041 C 
ATOM     23  O   UNL     1      15.456  -3.486  25.276  1.00  0.00    -0.550 OA
ATOM     24  O   UNL     1      16.401  -1.789  24.064  1.00  0.00    -0.550 OA
ENDBRANCH  21  22
ENDBRANCH  20  21
ENDBRANCH  19  20
ENDBRANCH  18  19
ENDBRANCH  17  18
ENDBRANCH  16  17
ENDBRANCH  15  16
ENDBRANCH  14  15
ENDBRANCH  13  14
ENDBRANCH   1  13
TORSDOF 20
ENDMDL
MODEL 3
REMARK VINA RESULT:    -4.651     13.550     16.417
REMARK INTER + INTRA:         -13.680
REMARK INTER:                 -11.139
REMARK INTRA:                  -2.541
REMARK UNBOUND:                -3.592
REMARK SMILES CCCCCCCCCCCCCCCCCCCCCC(=O)[O-]
REMARK SMILES IDX 12 1 11 2 10 3 9 4 8 5 7 6 6 7 5 8 4 9 3 10 2 11 1 12 13 13
REMARK SMILES IDX 14 14 15 15 16 16 17 17 18 18 19 19 20 20 21 21 22 22 23 23
REMARK SMILES IDX 24 24
REMARK H PARENT
REMARK Flexibility Score: inf
ROOT
ATOM      1  C   UNL     1      13.949   4.989   6.279  1.00  0.00     0.000 C 
ENDROOT
BRANCH   1   2
ATOM      2  C   UNL     1      14.688   3.642   6.358  1.00  0.00     0.000 C 
BRANCH   2   3
ATOM      3  C   UNL     1      13.758   2.485   6.761  1.00  0.00     0.000 C 
BRANCH   3   4
ATOM      4  C   UNL     1      14.445   1.463   7.680  1.00  0.00    -0.000 C 
BRANCH   4   5
ATOM      5  C   UNL     1      14.784   2.044   9.062  1.00  0.00    -0.000 C 
BRANCH   5   6
ATOM      6  C   UNL     1      15.125   0.932  10.061  1.00  0.00    -0.000 C 
BRANCH   6   7
ATOM      7  C   UNL     1      15.984   1.472  11.214  1.00  0.00    -0.000 C 
BRANCH   7   8
ATOM      8  C   UNL     1      15.896   3.003  11.338  1.00  0.00    -0.000 C 
BRANCH   8   9
ATOM      9  C   UNL     1      15.689   3.459  12.794  1.00  0.00    -0.000 C 
BRANCH   9  10
ATOM     10  C   UNL     1      16.824   4.382  13.281  1.00  0.00    -0.000 C 
BRANCH  10  11
ATOM     11  C   UNL     1      16.911   4.492  14.812  1.00  0.00    -0.003 C 
ATOM     12  C   UNL     1      15.820   3.703  15.531  1.00  0.00     0.004 C 
ENDBRANCH  10  11
ENDBRANCH   9  10
ENDBRANCH   8   9
ENDBRANCH   7   8
ENDBRANCH   6   7
ENDBRANCH   5   6
ENDBRANCH   4   5
ENDBRANCH   3   4
ENDBRANCH   2   3
ENDBRANCH   1   2
BRANCH   1  13
ATOM     13  C   UNL     1      12.424   4.823   6.156  1.00  0.00     0.000 C 
BRANCH  13  14
ATOM     14  C   UNL     1      11.676   5.404   7.368  1.00  0.00     0.000 C 
BRANCH  14  15
ATOM     15  C   UNL     1      12.631   6.060   8.382  1.00  0.00     0.000 C 
BRANCH  15  16
ATOM     16  C   UNL     1      12.807   5.213   9.659  1.00  0.00     0.000 C 
BRANCH  16  17
ATOM     17  C   UNL     1      11.895   3.973   9.714  1.00  0.00     0.000 C 
BRANCH  17  18
ATOM     18  C   UNL     1      11.394   3.599  11.119  1.00  0.00     0.000 C 
BRANCH  18  19
ATOM     19  C   UNL     1      12.001   4.487  12.217  1.00  0.00     0.000 C 
BRANCH  19  20
ATOM     20  C   UNL     1      10.954   4.852  13.281  1.00  0.00     0.006 C 
BRANCH  20  21
ATOM     21  C   UNL     1      11.087   6.310  13.746  1.00  0.00     0.053 C 
BRANCH  21  22
ATOM     22  C   UNL     1      10.754   7.278  12.654  1.00  0.00     0.041 C 
ATOM     23  O   UNL     1      11.147   8.472  12.727  1.00  0.00    -0.550 OA
ATOM     24  O   UNL     1      10.026   6.861  11.546  1.00  0.00    -0.550 OA
ENDBRANCH  21  22
ENDBRANCH  20  21
ENDBRANCH  19  20
ENDBRANCH  18  19
ENDBRANCH  17  18
ENDBRANCH  16  17
ENDBRANCH  15  16
ENDBRANCH  14  15
ENDBRANCH  13  14
ENDBRANCH   1  13
TORSDOF 20
ENDMDL
MODEL 4
REMARK VINA RESULT:    -4.620      2.286      3.354
REMARK INTER + INTRA:         -13.614
REMARK INTER:                  -9.673
REMARK INTRA:                  -3.941
REMARK UNBOUND:                -3.592
REMARK SMILES CCCCCCCCCCCCCCCCCCCCCC(=O)[O-]
REMARK SMILES IDX 12 1 11 2 10 3 9 4 8 5 7 6 6 7 5 8 4 9 3 10 2 11 1 12 13 13
REMARK SMILES IDX 14 14 15 15 16 16 17 17 18 18 19 19 20 20 21 21 22 22 23 23
REMARK SMILES IDX 24 24
REMARK H PARENT
REMARK Flexibility Score: inf
ROOT
ATOM      1  C   UNL     1      18.673  -4.815  22.641  1.00  0.00     0.000 C 
ENDROOT
BRANCH   1   2
ATOM      2  C   UNL     1      19.331  -4.288  23.928  1.00  0.00     0.000 C 
BRANCH   2   3
ATOM      3  C   UNL     1      18.298  -3.784  24.950  1.00  0.00     0.000 C 
BRANCH   3   4
ATOM      4  C   UNL     1      16.851  -4.088  24.530  1.00  0.00    -0.000 C 
BRANCH   4   5
ATOM      5  C   UNL     1      15.983  -2.822  24.437  1.00  0.00    -0.000 C 
BRANCH   5   6
ATOM      6  C   UNL     1      16.541  -1.844  23.398  1.00  0.00    -0.000 C 
BRANCH   6   7
ATOM      7  C   UNL     1      17.082  -0.574  24.071  1.00  0.00    -0.000 C 
BRANCH   7   8
ATOM      8  C   UNL     1      18.348  -0.042  23.379  1.00  0.00    -0.000 C 
BRANCH   8   9
ATOM      9  C   UNL     1      18.582  -0.698  22.005  1.00  0.00    -0.000 C 
BRANCH   9  10
ATOM     10  C   UNL     1      19.995  -1.301  21.883  1.00  0.00    -0.000 C 
BRANCH  10  11
ATOM     11  C   UNL     1      20.913  -0.957  23.068  1.00  0.00    -0.003 C 
ATOM     12  C   UNL     1      22.354  -1.414  22.861  1.00  0.00     0.004 C 
ENDBRANCH  10  11
ENDBRANCH   9  10
ENDBRANCH   8   9
ENDBRANCH   7   8
ENDBRANCH   6   7
ENDBRANCH   5   6
ENDBRANCH   4   5
ENDBRANCH   3   4
ENDBRANCH   2   3
ENDBRANCH   1   2
BRANCH   1  13
ATOM     13  C   UNL     1      19.680  -5.487  21.692  1.00  0.00     0.000 C 
BRANCH  13  14
ATOM     14  C   UNL     1      21.049  -4.786  21.705  1.00  0.00     0.000 C 
BRANCH  14  15
ATOM     15  C   UNL     1      21.885  -5.116  20.455  1.00  0.00     0.000 C 
BRANCH  15  16
ATOM     16  C   UNL     1      22.915  -4.016  20.126  1.00  0.00     0.000 C 
BRANCH  16  17
ATOM     17  C   UNL     1      22.323  -2.821  19.353  1.00  0.00     0.000 C 
BRANCH  17  18
ATOM     18  C   UNL     1      21.871  -3.139  17.918  1.00  0.00     0.000 C 
BRANCH  18  19
ATOM     19  C   UNL     1      20.442  -2.651  17.628  1.00  0.00     0.000 C 
BRANCH  19  20
ATOM     20  C   UNL     1      19.398  -3.680  18.084  1.00  0.00     0.006 C 
BRANCH  20  21
ATOM     21  C   UNL     1      18.450  -3.109  19.150  1.00  0.00     0.053 C 
BRANCH  21  22
ATOM     22  C   UNL     1      17.053  -3.622  18.988  1.00  0.00     0.041 C 
ATOM     23  O   UNL     1      16.590  -4.459  19.806  1.00  0.00    -0.550 OA
ATOM     24  O   UNL     1      16.254  -3.163  17.948  1.00  0.00    -0.550 OA
ENDBRANCH  21  22
ENDBRANCH  20  21
ENDBRANCH  19  20
ENDBRANCH  18  19
ENDBRANCH  17  18
ENDBRANCH  16  17
ENDBRANCH  15  16
ENDBRANCH  14  15
ENDBRANCH  13  14
ENDBRANCH   1  13
TORSDOF 20
ENDMDL
MODEL 5
REMARK VINA RESULT:    -4.597      2.613      5.601
REMARK INTER + INTRA:         -13.564
REMARK INTER:                  -9.401
REMARK INTRA:                  -4.163
REMARK UNBOUND:                -3.592
REMARK SMILES CCCCCCCCCCCCCCCCCCCCCC(=O)[O-]
REMARK SMILES IDX 12 1 11 2 10 3 9 4 8 5 7 6 6 7 5 8 4 9 3 10 2 11 1 12 13 13
REMARK SMILES IDX 14 14 15 15 16 16 17 17 18 18 19 19 20 20 21 21 22 22 23 23
REMARK SMILES IDX 24 24
REMARK H PARENT
REMARK Flexibility Score: inf
ROOT
ATOM      1  C   UNL     1      22.782  -2.770  18.998  1.00  0.00     0.000 C 
ENDROOT
BRANCH   1   2
ATOM      2  C   UNL     1      22.991  -3.954  19.958  1.00  0.00     0.000 C 
BRANCH   2   3
ATOM      3  C   UNL     1      22.714  -3.577  21.423  1.00  0.00     0.000 C 
BRANCH   3   4
ATOM      4  C   UNL     1      21.618  -4.443  22.062  1.00  0.00    -0.000 C 
BRANCH   4   5
ATOM      5  C   UNL     1      21.693  -4.458  23.597  1.00  0.00    -0.000 C 
BRANCH   5   6
ATOM      6  C   UNL     1      20.334  -4.807  24.214  1.00  0.00    -0.000 C 
BRANCH   6   7
ATOM      7  C   UNL     1      19.264  -4.985  23.127  1.00  0.00    -0.000 C 
BRANCH   7   8
ATOM      8  C   UNL     1      17.909  -4.386  23.540  1.00  0.00    -0.000 C 
BRANCH   8   9
ATOM      9  C   UNL     1      17.980  -3.663  24.898  1.00  0.00    -0.000 C 
BRANCH   9  10
ATOM     10  C   UNL     1      16.701  -2.854  25.192  1.00  0.00    -0.000 C 
BRANCH  10  11
ATOM     11  C   UNL     1      16.972  -1.513  25.894  1.00  0.00    -0.003 C 
ATOM     12  C   UNL     1      16.854  -0.313  24.959  1.00  0.00     0.004 C 
ENDBRANCH  10  11
ENDBRANCH   9  10
ENDBRANCH   8   9
ENDBRANCH   7   8
ENDBRANCH   6   7
ENDBRANCH   5   6
ENDBRANCH   4   5
ENDBRANCH   3   4
ENDBRANCH   2   3
ENDBRANCH   1   2
BRANCH   1  13
ATOM     13  C   UNL     1      22.094  -3.184  17.686  1.00  0.00     0.000 C 
BRANCH  13  14
ATOM     14  C   UNL     1      21.357  -4.528  17.814  1.00  0.00     0.000 C 
BRANCH  14  15
ATOM     15  C   UNL     1      19.831  -4.348  17.909  1.00  0.00     0.000 C 
BRANCH  15  16
ATOM     16  C   UNL     1      19.292  -4.621  19.329  1.00  0.00     0.000 C 
BRANCH  16  17
ATOM     17  C   UNL     1      18.539  -3.428  19.949  1.00  0.00     0.000 C 
BRANCH  17  18
ATOM     18  C   UNL     1      19.006  -2.046  19.465  1.00  0.00     0.000 C 
BRANCH  18  19
ATOM     19  C   UNL     1      19.825  -1.294  20.526  1.00  0.00     0.000 C 
BRANCH  19  20
ATOM     20  C   UNL     1      19.125  -1.323  21.894  1.00  0.00     0.006 C 
BRANCH  20  21
ATOM     21  C   UNL     1      20.122  -1.199  23.056  1.00  0.00     0.053 C 
BRANCH  21  22
ATOM     22  C   UNL     1      20.256   0.215  23.529  1.00  0.00     0.041 C 
ATOM     23  O   UNL     1      21.062   0.497  24.453  1.00  0.00    -0.550 OA
ATOM     24  O   UNL     1      19.508   1.225  22.938  1.00  0.00    -0.550 OA
ENDBRANCH  21  22
ENDBRANCH  20  21
ENDBRANCH  19  20
ENDBRANCH  18  19
ENDBRANCH  17  18
ENDBRANCH  16  17
ENDBRANCH  15  16
ENDBRANCH  14  15
ENDBRANCH  13  14
ENDBRANCH   1  13
TORSDOF 20
ENDMDL
MODEL 6
REMARK VINA RESULT:    -4.577     13.486     16.087
REMARK INTER + INTRA:         -13.519
REMARK INTER:                 -10.354
REMARK INTRA:                  -3.165
REMARK UNBOUND:                -3.592
REMARK SMILES CCCCCCCCCCCCCCCCCCCCCC(=O)[O-]
REMARK SMILES IDX 12 1 11 2 10 3 9 4 8 5 7 6 6 7 5 8 4 9 3 10 2 11 1 12 13 13
REMARK SMILES IDX 14 14 15 15 16 16 17 17 18 18 19 19 20 20 21 21 22 22 23 23
REMARK SMILES IDX 24 24
REMARK H PARENT
REMARK Flexibility Score: inf
ROOT
ATOM      1  C   UNL     1       4.959   1.691  16.335  1.00  0.00     0.000 C 
ENDROOT
BRANCH   1   2
ATOM      2  C   UNL     1       3.891   0.881  17.090  1.00  0.00     0.000 C 
BRANCH   2   3
ATOM      3  C   UNL     1       2.935   0.143  16.138  1.00  0.00     0.000 C 
BRANCH   3   4
ATOM      4  C   UNL     1       3.424   0.155  14.680  1.00  0.00    -0.000 C 
BRANCH   4   5
ATOM      5  C   UNL     1       3.835  -1.240  14.182  1.00  0.00    -0.000 C 
BRANCH   5   6
ATOM      6  C   UNL     1       5.360  -1.390  14.154  1.00  0.00    -0.000 C 
BRANCH   6   7
ATOM      7  C   UNL     1       5.912  -1.143  12.741  1.00  0.00    -0.000 C 
BRANCH   7   8
ATOM      8  C   UNL     1       7.446  -1.044  12.724  1.00  0.00    -0.000 C 
BRANCH   8   9
ATOM      9  C   UNL     1       8.031  -0.805  14.129  1.00  0.00    -0.000 C 
BRANCH   9  10
ATOM     10  C   UNL     1       9.138  -1.819  14.477  1.00  0.00    -0.000 C 
BRANCH  10  11
ATOM     11  C   UNL     1       9.408  -1.938  15.986  1.00  0.00    -0.003 C 
ATOM     12  C   UNL     1       8.440  -2.882  16.694  1.00  0.00     0.004 C 
ENDBRANCH  10  11
ENDBRANCH   9  10
ENDBRANCH   8   9
ENDBRANCH   7   8
ENDBRANCH   6   7
ENDBRANCH   5   6
ENDBRANCH   4   5
ENDBRANCH   3   4
ENDBRANCH   2   3
ENDBRANCH   1   2
BRANCH   1  13
ATOM     13  C   UNL     1       6.382   1.144  16.553  1.00  0.00     0.000 C 
BRANCH  13  14
ATOM     14  C   UNL     1       6.444   0.128  17.705  1.00  0.00     0.000 C 
BRANCH  14  15
ATOM     15  C   UNL     1       7.690   0.324  18.588  1.00  0.00     0.000 C 
BRANCH  15  16
ATOM     16  C   UNL     1       8.115   1.804  18.688  1.00  0.00     0.000 C 
BRANCH  16  17
ATOM     17  C   UNL     1       7.293   2.620  19.704  1.00  0.00     0.000 C 
BRANCH  17  18
ATOM     18  C   UNL     1       7.323   4.142  19.488  1.00  0.00     0.000 C 
BRANCH  18  19
ATOM     19  C   UNL     1       6.495   4.581  18.269  1.00  0.00     0.000 C 
BRANCH  19  20
ATOM     20  C   UNL     1       7.295   5.531  17.365  1.00  0.00     0.006 C 
BRANCH  20  21
ATOM     21  C   UNL     1       8.024   4.782  16.240  1.00  0.00     0.053 C 
BRANCH  21  22
ATOM     22  C   UNL     1       8.402   5.694  15.114  1.00  0.00     0.041 C 
ATOM     23  O   UNL     1       9.105   6.714  15.339  1.00  0.00    -0.550 OA
ATOM     24  O   UNL     1       7.997   5.411  13.816  1.00  0.00    -0.550 OA
ENDBRANCH  21  22
ENDBRANCH  20  21
ENDBRANCH  19  20
ENDBRANCH  18  19
ENDBRANCH  17  18
ENDBRANCH  16  17
ENDBRANCH  15  16
ENDBRANCH  14  15
ENDBRANCH  13  14
ENDBRANCH   1  13
TORSDOF 20
ENDMDL
MODEL 7
REMARK VINA RESULT:    -4.528      3.114      6.316
REMARK INTER + INTRA:         -13.415
REMARK INTER:                  -9.183
REMARK INTRA:                  -4.232
REMARK UNBOUND:                -3.592
REMARK SMILES CCCCCCCCCCCCCCCCCCCCCC(=O)[O-]
REMARK SMILES IDX 12 1 11 2 10 3 9 4 8 5 7 6 6 7 5 8 4 9 3 10 2 11 1 12 13 13
REMARK SMILES IDX 14 14 15 15 16 16 17 17 18 18 19 19 20 20 21 21 22 22 23 23
REMARK SMILES IDX 24 24
REMARK H PARENT
REMARK Flexibility Score: inf
ROOT
ATOM      1  C   UNL     1      18.688  -2.353  20.628  1.00  0.00     0.000 C 
ENDROOT
BRANCH   1   2
ATOM      2  C   UNL     1      17.529  -3.291  21.005  1.00  0.00     0.000 C 
BRANCH   2   3
ATOM      3  C   UNL     1      17.734  -4.719  20.472  1.00  0.00     0.000 C 
BRANCH   3   4
ATOM      4  C   UNL     1      19.154  -4.952  19.932  1.00  0.00    -0.000 C 
BRANCH   4   5
ATOM      5  C   UNL     1      19.294  -6.292  19.192  1.00  0.00    -0.000 C 
BRANCH   5   6
ATOM      6  C   UNL     1      20.698  -6.453  18.599  1.00  0.00    -0.000 C 
BRANCH   6   7
ATOM      7  C   UNL     1      21.777  -6.208  19.663  1.00  0.00    -0.000 C 
BRANCH   7   8
ATOM      8  C   UNL     1      23.119  -5.780  19.045  1.00  0.00    -0.000 C 
BRANCH   8   9
ATOM      9  C   UNL     1      22.937  -4.766  17.900  1.00  0.00    -0.000 C 
BRANCH   9  10
ATOM     10  C   UNL     1      23.092  -3.311  18.384  1.00  0.00    -0.000 C 
BRANCH  10  11
ATOM     11  C   UNL     1      21.752  -2.604  18.643  1.00  0.00    -0.003 C 
ATOM     12  C   UNL     1      20.802  -2.666  17.449  1.00  0.00     0.004 C 
ENDBRANCH  10  11
ENDBRANCH   9  10
ENDBRANCH   8   9
ENDBRANCH   7   8
ENDBRANCH   6   7
ENDBRANCH   5   6
ENDBRANCH   4   5
ENDBRANCH   3   4
ENDBRANCH   2   3
ENDBRANCH   1   2
BRANCH   1  13
ATOM     13  C   UNL     1      18.789  -1.130  21.557  1.00  0.00     0.000 C 
BRANCH  13  14
ATOM     14  C   UNL     1      20.244  -0.683  21.774  1.00  0.00     0.000 C 
BRANCH  14  15
ATOM     15  C   UNL     1      20.638  -0.682  23.262  1.00  0.00     0.000 C 
BRANCH  15  16
ATOM     16  C   UNL     1      21.857  -1.583  23.550  1.00  0.00     0.000 C 
BRANCH  16  17
ATOM     17  C   UNL     1      22.392  -2.321  22.307  1.00  0.00     0.000 C 
BRANCH  17  18
ATOM     18  C   UNL     1      21.843  -3.745  22.114  1.00  0.00     0.000 C 
BRANCH  18  19
ATOM     19  C   UNL     1      21.497  -4.429  23.445  1.00  0.00     0.000 C 
BRANCH  19  20
ATOM     20  C   UNL     1      19.987  -4.687  23.563  1.00  0.00     0.006 C 
BRANCH  20  21
ATOM     21  C   UNL     1      19.384  -4.031  24.814  1.00  0.00     0.053 C 
BRANCH  21  22
ATOM     22  C   UNL     1      17.984  -3.557  24.577  1.00  0.00     0.041 C 
ATOM     23  O   UNL     1      17.693  -2.343  24.739  1.00  0.00    -0.550 OA
ATOM     24  O   UNL     1      17.004  -4.448  24.158  1.00  0.00    -0.550 OA
ENDBRANCH  21  22
ENDBRANCH  20  21
ENDBRANCH  19  20
ENDBRANCH  18  19
ENDBRANCH  17  18
ENDBRANCH  16  17
ENDBRANCH  15  16
ENDBRANCH  14  15
ENDBRANCH  13  14
ENDBRANCH   1  13
TORSDOF 20
ENDMDL
MODEL 8
REMARK VINA RESULT:    -4.480      2.868      6.300
REMARK INTER + INTRA:         -13.308
REMARK INTER:                  -9.295
REMARK INTRA:                  -4.014
REMARK UNBOUND:                -3.592
REMARK SMILES CCCCCCCCCCCCCCCCCCCCCC(=O)[O-]
REMARK SMILES IDX 12 1 11 2 10 3 9 4 8 5 7 6 6 7 5 8 4 9 3 10 2 11 1 12 13 13
REMARK SMILES IDX 14 14 15 15 16 16 17 17 18 18 19 19 20 20 21 21 22 22 23 23
REMARK SMILES IDX 24 24
REMARK H PARENT
REMARK Flexibility Score: inf
ROOT
ATOM      1  C   UNL     1      21.363  -3.794  22.303  1.00  0.00     0.000 C 
ENDROOT
BRANCH   1   2
ATOM      2  C   UNL     1      21.251  -4.939  21.282  1.00  0.00     0.000 C 
BRANCH   2   3
ATOM      3  C   UNL     1      19.878  -5.630  21.325  1.00  0.00     0.000 C 
BRANCH   3   4
ATOM      4  C   UNL     1      18.796  -4.759  21.983  1.00  0.00    -0.000 C 
BRANCH   4   5
ATOM      5  C   UNL     1      17.905  -4.044  20.956  1.00  0.00    -0.000 C 
BRANCH   5   6
ATOM      6  C   UNL     1      18.194  -2.539  20.925  1.00  0.00    -0.000 C 
BRANCH   6   7
ATOM      7  C   UNL     1      18.566  -2.078  19.508  1.00  0.00    -0.000 C 
BRANCH   7   8
ATOM      8  C   UNL     1      20.074  -1.819  19.357  1.00  0.00    -0.000 C 
BRANCH   8   9
ATOM      9  C   UNL     1      20.619  -2.310  18.003  1.00  0.00    -0.000 C 
BRANCH   9  10
ATOM     10  C   UNL     1      21.953  -3.066  18.154  1.00  0.00    -0.000 C 
BRANCH  10  11
ATOM     11  C   UNL     1      21.879  -4.536  17.710  1.00  0.00    -0.003 C 
ATOM     12  C   UNL     1      20.451  -5.072  17.653  1.00  0.00     0.004 C 
ENDBRANCH  10  11
ENDBRANCH   9  10
ENDBRANCH   8   9
ENDBRANCH   7   8
ENDBRANCH   6   7
ENDBRANCH   5   6
ENDBRANCH   4   5
ENDBRANCH   3   4
ENDBRANCH   2   3
ENDBRANCH   1   2
BRANCH   1  13
ATOM     13  C   UNL     1      22.491  -2.804  21.964  1.00  0.00     0.000 C 
BRANCH  13  14
ATOM     14  C   UNL     1      22.346  -1.475  22.723  1.00  0.00     0.000 C 
BRANCH  14  15
ATOM     15  C   UNL     1      20.920  -1.265  23.264  1.00  0.00     0.000 C 
BRANCH  15  16
ATOM     16  C   UNL     1      20.626   0.213  23.596  1.00  0.00     0.000 C 
BRANCH  16  17
ATOM     17  C   UNL     1      19.413   0.790  22.841  1.00  0.00     0.000 C 
BRANCH  17  18
ATOM     18  C   UNL     1      18.066   0.131  23.181  1.00  0.00     0.000 C 
BRANCH  18  19
ATOM     19  C   UNL     1      17.599   0.445  24.611  1.00  0.00     0.000 C 
BRANCH  19  20
ATOM     20  C   UNL     1      17.119  -0.823  25.333  1.00  0.00     0.006 C 
BRANCH  20  21
ATOM     21  C   UNL     1      17.567  -2.103  24.610  1.00  0.00     0.053 C 
BRANCH  21  22
ATOM     22  C   UNL     1      16.434  -3.065  24.425  1.00  0.00     0.041 C 
ATOM     23  O   UNL     1      16.262  -4.002  25.248  1.00  0.00    -0.550 OA
ATOM     24  O   UNL     1      15.558  -2.919  23.357  1.00  0.00    -0.550 OA
ENDBRANCH  21  22
ENDBRANCH  20  21
ENDBRANCH  19  20
ENDBRANCH  18  19
ENDBRANCH  17  18
ENDBRANCH  16  17
ENDBRANCH  15  16
ENDBRANCH  14  15
ENDBRANCH  13  14
ENDBRANCH   1  13
TORSDOF 20
ENDMDL
MODEL 9
REMARK VINA RESULT:    -4.457      1.815      5.535
REMARK INTER + INTRA:         -13.259
REMARK INTER:                  -9.445
REMARK INTRA:                  -3.814
REMARK UNBOUND:                -3.592
REMARK SMILES CCCCCCCCCCCCCCCCCCCCCC(=O)[O-]
REMARK SMILES IDX 12 1 11 2 10 3 9 4 8 5 7 6 6 7 5 8 4 9 3 10 2 11 1 12 13 13
REMARK SMILES IDX 14 14 15 15 16 16 17 17 18 18 19 19 20 20 21 21 22 22 23 23
REMARK SMILES IDX 24 24
REMARK H PARENT
REMARK Flexibility Score: inf
ROOT
ATOM      1  C   UNL     1      18.262  -3.713  23.447  1.00  0.00     0.000 C 
ENDROOT
BRANCH   1   2
ATOM      2  C   UNL     1      19.257  -4.872  23.637  1.00  0.00     0.000 C 
BRANCH   2   3
ATOM      3  C   UNL     1      20.400  -4.510  24.600  1.00  0.00     0.000 C 
BRANCH   3   4
ATOM      4  C   UNL     1      21.621  -3.923  23.876  1.00  0.00    -0.000 C 
BRANCH   4   5
ATOM      5  C   UNL     1      21.599  -2.386  23.827  1.00  0.00    -0.000 C 
BRANCH   5   6
ATOM      6  C   UNL     1      22.302  -1.863  22.570  1.00  0.00    -0.000 C 
BRANCH   6   7
ATOM      7  C   UNL     1      22.692  -3.018  21.635  1.00  0.00    -0.000 C 
BRANCH   7   8
ATOM      8  C   UNL     1      21.920  -2.976  20.305  1.00  0.00    -0.000 C 
BRANCH   8   9
ATOM      9  C   UNL     1      20.703  -3.919  20.307  1.00  0.00    -0.000 C 
BRANCH   9  10
ATOM     10  C   UNL     1      21.109  -5.392  20.516  1.00  0.00    -0.000 C 
BRANCH  10  11
ATOM     11  C   UNL     1      20.003  -6.392  20.144  1.00  0.00    -0.003 C 
ATOM     12  C   UNL     1      18.607  -5.773  20.160  1.00  0.00     0.004 C 
ENDBRANCH  10  11
ENDBRANCH   9  10
ENDBRANCH   8   9
ENDBRANCH   7   8
ENDBRANCH   6   7
ENDBRANCH   5   6
ENDBRANCH   4   5
ENDBRANCH   3   4
ENDBRANCH   2   3
ENDBRANCH   1   2
BRANCH   1  13
ATOM     13  C   UNL     1      16.806  -4.129  23.724  1.00  0.00     0.000 C 
BRANCH  13  14
ATOM     14  C   UNL     1      16.300  -3.603  25.078  1.00  0.00     0.000 C 
BRANCH  14  15
ATOM     15  C   UNL     1      17.239  -2.542  25.679  1.00  0.00     0.000 C 
BRANCH  15  16
ATOM     16  C   UNL     1      16.615  -1.131  25.673  1.00  0.00     0.000 C 
BRANCH  16  17
ATOM     17  C   UNL     1      17.642   0.003  25.490  1.00  0.00     0.000 C 
BRANCH  17  18
ATOM     18  C   UNL     1      18.676  -0.234  24.377  1.00  0.00     0.000 C 
BRANCH  18  19
ATOM     19  C   UNL     1      18.141   0.139  22.985  1.00  0.00     0.000 C 
BRANCH  19  20
ATOM     20  C   UNL     1      18.972  -0.520  21.874  1.00  0.00     0.006 C 
BRANCH  20  21
ATOM     21  C   UNL     1      18.089  -1.104  20.761  1.00  0.00     0.053 C 
BRANCH  21  22
ATOM     22  C   UNL     1      18.439  -0.544  19.417  1.00  0.00     0.041 C 
ATOM     23  O   UNL     1      17.825   0.462  18.974  1.00  0.00    -0.550 OA
ATOM     24  O   UNL     1      19.454  -1.117  18.661  1.00  0.00    -0.550 OA
ENDBRANCH  21  22
ENDBRANCH  20  21
ENDBRANCH  19  20
ENDBRANCH  18  19
ENDBRANCH  17  18
ENDBRANCH  16  17
ENDBRANCH  15  16
ENDBRANCH  14  15
ENDBRANCH  13  14
ENDBRANCH   1  13
TORSDOF 20
ENDMDL
