MODEL 1
REMARK VINA RESULT:    -3.672      0.000      0.000
REMARK INTER + INTRA:          -4.782
REMARK INTER:                  -4.530
REMARK INTRA:                  -0.252
REMARK UNBOUND:                -0.252
REMARK SMILES CCCCCC(=O)[O-]
REMARK SMILES IDX 4 1 5 2 6 3 7 4 8 5 3 6 2 7 1 8
REMARK H PARENT
REMARK Flexibility Score: inf
ROOT
ATOM      1  C   UNL     1      23.363  -6.744 -36.913  1.00  0.00     0.006 C 
ENDROOT
BRANCH   1   2
ATOM      2  C   UNL     1      22.363  -7.754 -37.490  1.00  0.00     0.053 C 
BRANCH   2   3
ATOM      3  C   UNL     1      22.581  -7.977 -38.956  1.00  0.00     0.041 C 
ATOM      4  O   UNL     1      21.764  -7.516 -39.796  1.00  0.00    -0.550 OA
ATOM      5  O   UNL     1      23.668  -8.723 -39.392  1.00  0.00    -0.550 OA
ENDBRANCH   2   3
ENDBRANCH   1   2
BRANCH   1   6
ATOM      6  C   UNL     1      23.012  -5.298 -37.290  1.00  0.00     0.000 C 
BRANCH   6   7
ATOM      7  C   UNL     1      21.542  -4.991 -36.983  1.00  0.00    -0.003 C 
ATOM      8  C   UNL     1      20.828  -4.425 -38.208  1.00  0.00     0.004 C 
ENDBRANCH   6   7
ENDBRANCH   1   6
TORSDOF 4
ENDMDL
MODEL 2
REMARK VINA RESULT:    -3.668      0.073      1.146
REMARK INTER + INTRA:          -4.778
REMARK INTER:                  -4.520
REMARK INTRA:                  -0.258
REMARK UNBOUND:                -0.252
REMARK SMILES CCCCCC(=O)[O-]
REMARK SMILES IDX 4 1 5 2 6 3 7 4 8 5 3 6 2 7 1 8
REMARK H PARENT
REMARK Flexibility Score: inf
ROOT
ATOM      1  C   UNL     1      23.381  -6.683 -36.903  1.00  0.00     0.006 C 
ENDROOT
BRANCH   1   2
ATOM      2  C   UNL     1      22.394  -7.725 -37.445  1.00  0.00     0.053 C 
BRANCH   2   3
ATOM      3  C   UNL     1      22.612  -7.991 -38.903  1.00  0.00     0.041 C 
ATOM      4  O   UNL     1      23.616  -8.649 -39.284  1.00  0.00    -0.550 OA
ATOM      5  O   UNL     1      21.724  -7.485 -39.843  1.00  0.00    -0.550 OA
ENDBRANCH   2   3
ENDBRANCH   1   2
BRANCH   1   6
ATOM      6  C   UNL     1      23.001  -5.253 -37.313  1.00  0.00     0.000 C 
BRANCH   6   7
ATOM      7  C   UNL     1      21.536  -4.956 -36.974  1.00  0.00    -0.003 C 
ATOM      8  C   UNL     1      20.782  -4.435 -38.195  1.00  0.00     0.004 C 
ENDBRANCH   6   7
ENDBRANCH   1   6
TORSDOF 4
ENDMDL
MODEL 3
REMARK VINA RESULT:    -3.552      1.483      1.954
REMARK INTER + INTRA:          -4.635
REMARK INTER:                  -4.427
REMARK INTRA:                  -0.209
REMARK UNBOUND:                -0.252
REMARK SMILES CCCCCC(=O)[O-]
REMARK SMILES IDX 4 1 5 2 6 3 7 4 8 5 3 6 2 7 1 8
REMARK H PARENT
REMARK Flexibility Score: inf
ROOT
ATOM      1  C   UNL     1      22.406  -7.904 -37.636  1.00  0.00     0.006 C 
ENDROOT
BRANCH   1   2
ATOM      2  C   UNL     1      22.968  -8.050 -39.056  1.00  0.00     0.053 C 
BRANCH   2   3
ATOM      3  C   UNL     1      24.432  -8.367 -39.045  1.00  0.00     0.041 C 
ATOM      4  O   UNL     1      25.255  -7.579 -39.584  1.00  0.00    -0.550 OA
ATOM      5  O   UNL     1      24.885  -9.547 -38.470  1.00  0.00    -0.550 OA
ENDBRANCH   2   3
ENDBRANCH   1   2
BRANCH   1   6
ATOM      6  C   UNL     1      23.108  -6.792 -36.844  1.00  0.00     0.000 C 
BRANCH   6   7
ATOM      7  C   UNL     1      22.724  -5.409 -37.381  1.00  0.00    -0.003 C 
ATOM      8  C   UNL     1      21.257  -5.095 -37.099  1.00  0.00     0.004 C 
ENDBRANCH   6   7
ENDBRANCH   1   6
TORSDOF 4
ENDMDL
MODEL 4
REMARK VINA RESULT:    -3.539      9.434     11.501
REMARK INTER + INTRA:          -4.619
REMARK INTER:                  -4.497
REMARK INTRA:                  -0.122
REMARK UNBOUND:                -0.252
REMARK SMILES CCCCCC(=O)[O-]
REMARK SMILES IDX 4 1 5 2 6 3 7 4 8 5 3 6 2 7 1 8
REMARK H PARENT
REMARK Flexibility Score: inf
ROOT
ATOM      1  C   UNL     1      24.487 -16.670 -42.186  1.00  0.00     0.006 C 
ENDROOT
BRANCH   1   2
ATOM      2  C   UNL     1      24.225 -15.401 -41.365  1.00  0.00     0.053 C 
BRANCH   2   3
ATOM      3  C   UNL     1      23.006 -15.537 -40.504  1.00  0.00     0.041 C 
ATOM      4  O   UNL     1      21.883 -15.768 -41.027  1.00  0.00    -0.550 OA
ATOM      5  O   UNL     1      23.104 -15.377 -39.128  1.00  0.00    -0.550 OA
ENDBRANCH   2   3
ENDBRANCH   1   2
BRANCH   1   6
ATOM      6  C   UNL     1      25.026 -17.820 -41.322  1.00  0.00     0.000 C 
BRANCH   6   7
ATOM      7  C   UNL     1      25.414 -19.022 -42.190  1.00  0.00    -0.003 C 
ATOM      8  C   UNL     1      26.761 -18.798 -42.873  1.00  0.00     0.004 C 
ENDBRANCH   6   7
ENDBRANCH   1   6
TORSDOF 4
ENDMDL
MODEL 5
REMARK VINA RESULT:    -3.539      1.737      3.149
REMARK INTER + INTRA:          -4.619
REMARK INTER:                  -4.367
REMARK INTRA:                  -0.252
REMARK UNBOUND:                -0.252
REMARK SMILES CCCCCC(=O)[O-]
REMARK SMILES IDX 4 1 5 2 6 3 7 4 8 5 3 6 2 7 1 8
REMARK H PARENT
REMARK Flexibility Score: inf
ROOT
ATOM      1  C   UNL     1      23.059  -7.214 -37.279  1.00  0.00     0.006 C 
ENDROOT
BRANCH   1   2
ATOM      2  C   UNL     1      22.086  -6.214 -37.918  1.00  0.00     0.053 C 
BRANCH   2   3
ATOM      3  C   UNL     1      21.988  -6.403 -39.401  1.00  0.00     0.041 C 
ATOM      4  O   UNL     1      22.132  -5.420 -40.176  1.00  0.00    -0.550 OA
ATOM      5  O   UNL     1      21.705  -7.657 -39.926  1.00  0.00    -0.550 OA
ENDBRANCH   2   3
ENDBRANCH   1   2
BRANCH   1   6
ATOM      6  C   UNL     1      24.517  -6.741 -37.365  1.00  0.00     0.000 C 
BRANCH   6   7
ATOM      7  C   UNL     1      25.325  -7.625 -38.321  1.00  0.00    -0.003 C 
ATOM      8  C   UNL     1      24.686  -9.003 -38.472  1.00  0.00     0.004 C 
ENDBRANCH   6   7
ENDBRANCH   1   6
TORSDOF 4
ENDMDL
MODEL 6
REMARK VINA RESULT:    -3.524      2.175      3.250
REMARK INTER + INTRA:          -4.600
REMARK INTER:                  -4.346
REMARK INTRA:                  -0.254
REMARK UNBOUND:                -0.252
REMARK SMILES CCCCCC(=O)[O-]
REMARK SMILES IDX 4 1 5 2 6 3 7 4 8 5 3 6 2 7 1 8
REMARK H PARENT
REMARK Flexibility Score: inf
ROOT
ATOM      1  C   UNL     1      22.807  -7.502 -38.687  1.00  0.00     0.006 C 
ENDROOT
BRANCH   1   2
ATOM      2  C   UNL     1      21.992  -6.760 -39.754  1.00  0.00     0.053 C 
BRANCH   2   3
ATOM      3  C   UNL     1      22.530  -5.385 -40.008  1.00  0.00     0.041 C 
ATOM      4  O   UNL     1      23.774  -5.188 -40.046  1.00  0.00    -0.550 OA
ATOM      5  O   UNL     1      21.659  -4.316 -40.170  1.00  0.00    -0.550 OA
ENDBRANCH   2   3
ENDBRANCH   1   2
BRANCH   1   6
ATOM      6  C   UNL     1      22.377  -7.127 -37.262  1.00  0.00     0.000 C 
BRANCH   6   7
ATOM      7  C   UNL     1      23.486  -6.356 -36.538  1.00  0.00    -0.003 C 
ATOM      8  C   UNL     1      24.867  -6.779 -37.035  1.00  0.00     0.004 C 
ENDBRANCH   6   7
ENDBRANCH   1   6
TORSDOF 4
ENDMDL
MODEL 7
REMARK VINA RESULT:    -3.510      2.733      4.339
REMARK INTER + INTRA:          -4.582
REMARK INTER:                  -4.467
REMARK INTRA:                  -0.115
REMARK UNBOUND:                -0.252
REMARK SMILES CCCCCC(=O)[O-]
REMARK SMILES IDX 4 1 5 2 6 3 7 4 8 5 3 6 2 7 1 8
REMARK H PARENT
REMARK Flexibility Score: inf
ROOT
ATOM      1  C   UNL     1      22.383  -7.376 -37.210  1.00  0.00     0.006 C 
ENDROOT
BRANCH   1   2
ATOM      2  C   UNL     1      23.467  -6.455 -36.635  1.00  0.00     0.053 C 
BRANCH   2   3
ATOM      3  C   UNL     1      23.012  -5.028 -36.578  1.00  0.00     0.041 C 
ATOM      4  O   UNL     1      23.858  -4.095 -36.547  1.00  0.00    -0.550 OA
ATOM      5  O   UNL     1      21.657  -4.731 -36.525  1.00  0.00    -0.550 OA
ENDBRANCH   2   3
ENDBRANCH   1   2
BRANCH   1   6
ATOM      6  C   UNL     1      22.956  -8.404 -38.195  1.00  0.00     0.000 C 
BRANCH   6   7
ATOM      7  C   UNL     1      24.489  -8.364 -38.201  1.00  0.00    -0.003 C 
ATOM      8  C   UNL     1      25.066  -9.469 -39.081  1.00  0.00     0.004 C 
ENDBRANCH   6   7
ENDBRANCH   1   6
TORSDOF 4
ENDMDL
MODEL 8
REMARK VINA RESULT:    -3.475      1.436      1.962
REMARK INTER + INTRA:          -4.539
REMARK INTER:                  -4.320
REMARK INTRA:                  -0.219
REMARK UNBOUND:                -0.252
REMARK SMILES CCCCCC(=O)[O-]
REMARK SMILES IDX 4 1 5 2 6 3 7 4 8 5 3 6 2 7 1 8
REMARK H PARENT
REMARK Flexibility Score: inf
ROOT
ATOM      1  C   UNL     1      22.693  -5.623 -39.661  1.00  0.00     0.006 C 
ENDROOT
BRANCH   1   2
ATOM      2  C   UNL     1      21.953  -6.965 -39.714  1.00  0.00     0.053 C 
BRANCH   2   3
ATOM      3  C   UNL     1      22.660  -8.023 -38.923  1.00  0.00     0.041 C 
ATOM      4  O   UNL     1      22.381  -8.199 -37.708  1.00  0.00    -0.550 OA
ATOM      5  O   UNL     1      23.652  -8.791 -39.519  1.00  0.00    -0.550 OA
ENDBRANCH   2   3
ENDBRANCH   1   2
BRANCH   1   6
ATOM      6  C   UNL     1      21.771  -4.465 -39.253  1.00  0.00     0.000 C 
BRANCH   6   7
ATOM      7  C   UNL     1      20.909  -4.850 -38.045  1.00  0.00    -0.003 C 
ATOM      8  C   UNL     1      21.679  -4.670 -36.739  1.00  0.00     0.004 C 
ENDBRANCH   6   7
ENDBRANCH   1   6
TORSDOF 4
ENDMDL
MODEL 9
REMARK VINA RESULT:    -3.458      1.963      3.589
REMARK INTER + INTRA:          -4.519
REMARK INTER:                  -4.313
REMARK INTRA:                  -0.207
REMARK UNBOUND:                -0.252
REMARK SMILES CCCCCC(=O)[O-]
REMARK SMILES IDX 4 1 5 2 6 3 7 4 8 5 3 6 2 7 1 8
REMARK H PARENT
REMARK Flexibility Score: inf
ROOT
ATOM      1  C   UNL     1      22.524  -5.023 -36.753  1.00  0.00     0.006 C 
ENDROOT
BRANCH   1   2
ATOM      2  C   UNL     1      21.193  -5.098 -37.513  1.00  0.00     0.053 C 
BRANCH   2   3
ATOM      3  C   UNL     1      21.259  -4.372 -38.823  1.00  0.00     0.041 C 
ATOM      4  O   UNL     1      21.903  -4.864 -39.788  1.00  0.00    -0.550 OA
ATOM      5  O   UNL     1      20.639  -3.139 -38.967  1.00  0.00    -0.550 OA
ENDBRANCH   2   3
ENDBRANCH   1   2
BRANCH   1   6
ATOM      6  C   UNL     1      23.243  -6.378 -36.704  1.00  0.00     0.000 C 
BRANCH   6   7
ATOM      7  C   UNL     1      22.330  -7.502 -37.210  1.00  0.00    -0.003 C 
ATOM      8  C   UNL     1      23.022  -8.330 -38.290  1.00  0.00     0.004 C 
ENDBRANCH   6   7
ENDBRANCH   1   6
TORSDOF 4
ENDMDL
