MODEL 1
REMARK VINA RESULT:    -4.024      0.000      0.000
REMARK INTER + INTRA:          -5.635
REMARK INTER:                  -5.435
REMARK INTRA:                  -0.200
REMARK UNBOUND:                -0.200
REMARK SMILES CCCCCCC=CC(=O)[O-]
REMARK SMILES IDX 5 1 6 2 7 3 8 4 9 5 10 6 11 7 4 8 3 9 2 10 1 11
REMARK H PARENT
REMARK Flexibility Score: inf
ROOT
ATOM      1  C   UNL     1     100.252 -69.309   6.137  1.00  0.00     0.004 C 
ENDROOT
BRANCH   1   2
ATOM      2  C   UNL     1     100.170 -68.884   4.662  1.00  0.00     0.027 C 
BRANCH   2   3
ATOM      3  C   UNL     1      98.774 -68.458   4.297  1.00  0.00    -0.025 C 
ATOM      4  C   UNL     1      98.327 -68.197   3.058  1.00  0.00     0.020 C 
BRANCH   4   5
ATOM      5  C   UNL     1      99.121 -68.230   1.810  1.00  0.00     0.064 C 
ATOM      6  O   UNL     1      99.894 -67.270   1.556  1.00  0.00    -0.545 OA
ATOM      7  O   UNL     1      99.063 -69.295   0.922  1.00  0.00    -0.545 OA
ENDBRANCH   4   5
ENDBRANCH   2   3
ENDBRANCH   1   2
BRANCH   1   8
ATOM      8  C   UNL     1     101.052 -68.314   6.993  1.00  0.00     0.000 C 
BRANCH   8   9
ATOM      9  C   UNL     1     101.089 -68.712   8.476  1.00  0.00    -0.000 C 
BRANCH   9  10
ATOM     10  C   UNL     1     100.661 -67.541   9.368  1.00  0.00    -0.003 C 
ATOM     11  C   UNL     1     100.295 -68.020  10.770  1.00  0.00     0.004 C 
ENDBRANCH   9  10
ENDBRANCH   8   9
ENDBRANCH   1   8
TORSDOF 6
ENDMDL
MODEL 2
REMARK VINA RESULT:    -3.973      1.178      1.510
REMARK INTER + INTRA:          -5.566
REMARK INTER:                  -5.246
REMARK INTRA:                  -0.320
REMARK UNBOUND:                -0.200
REMARK SMILES CCCCCCC=CC(=O)[O-]
REMARK SMILES IDX 5 1 6 2 7 3 8 4 9 5 10 6 11 7 4 8 3 9 2 10 1 11
REMARK H PARENT
REMARK Flexibility Score: inf
ROOT
ATOM      1  C   UNL     1     101.964 -69.230   6.719  1.00  0.00     0.004 C 
ENDROOT
BRANCH   1   2
ATOM      2  C   UNL     1     101.341 -69.668   5.384  1.00  0.00     0.027 C 
BRANCH   2   3
ATOM      3  C   UNL     1      99.860 -69.403   5.364  1.00  0.00    -0.025 C 
ATOM      4  C   UNL     1      99.198 -68.693   4.436  1.00  0.00     0.020 C 
BRANCH   4   5
ATOM      5  C   UNL     1      99.788 -67.994   3.275  1.00  0.00     0.064 C 
ATOM      6  O   UNL     1     100.167 -66.802   3.412  1.00  0.00    -0.545 OA
ATOM      7  O   UNL     1      99.964 -68.614   2.045  1.00  0.00    -0.545 OA
ENDBRANCH   4   5
ENDBRANCH   2   3
ENDBRANCH   1   2
BRANCH   1   8
ATOM      8  C   UNL     1     100.906 -68.896   7.782  1.00  0.00     0.000 C 
BRANCH   8   9
ATOM      9  C   UNL     1     101.529 -68.517   9.133  1.00  0.00    -0.000 C 
BRANCH   9  10
ATOM     10  C   UNL     1     100.496 -68.620  10.261  1.00  0.00    -0.003 C 
ATOM     11  C   UNL     1     100.128 -67.241  10.801  1.00  0.00     0.004 C 
ENDBRANCH   9  10
ENDBRANCH   8   9
ENDBRANCH   1   8
TORSDOF 6
ENDMDL
MODEL 3
REMARK VINA RESULT:    -3.957      1.630      2.774
REMARK INTER + INTRA:          -5.545
REMARK INTER:                  -5.346
REMARK INTRA:                  -0.200
REMARK UNBOUND:                -0.200
REMARK SMILES CCCCCCC=CC(=O)[O-]
REMARK SMILES IDX 5 1 6 2 7 3 8 4 9 5 10 6 11 7 4 8 3 9 2 10 1 11
REMARK H PARENT
REMARK Flexibility Score: inf
ROOT
ATOM      1  C   UNL     1      98.631 -68.204   4.280  1.00  0.00     0.004 C 
ENDROOT
BRANCH   1   2
ATOM      2  C   UNL     1      98.240 -68.186   2.794  1.00  0.00     0.027 C 
BRANCH   2   3
ATOM      3  C   UNL     1      99.419 -67.843   1.926  1.00  0.00    -0.025 C 
ATOM      4  C   UNL     1      99.650 -68.309   0.687  1.00  0.00     0.020 C 
BRANCH   4   5
ATOM      5  C   UNL     1      98.821 -69.283  -0.056  1.00  0.00     0.064 C 
ATOM      6  O   UNL     1      98.470 -69.008  -1.233  1.00  0.00    -0.545 OA
ATOM      7  O   UNL     1      98.438 -70.501   0.489  1.00  0.00    -0.545 OA
ENDBRANCH   4   5
ENDBRANCH   2   3
ENDBRANCH   1   2
BRANCH   1   8
ATOM      8  C   UNL     1     100.078 -68.673   4.502  1.00  0.00     0.000 C 
BRANCH   8   9
ATOM      9  C   UNL     1     100.212 -69.613   5.709  1.00  0.00    -0.000 C 
BRANCH   9  10
ATOM     10  C   UNL     1     101.397 -69.203   6.592  1.00  0.00    -0.003 C 
ATOM     11  C   UNL     1     100.925 -68.735   7.966  1.00  0.00     0.004 C 
ENDBRANCH   9  10
ENDBRANCH   8   9
ENDBRANCH   1   8
TORSDOF 6
ENDMDL
MODEL 4
REMARK VINA RESULT:    -3.902      4.510      6.931
REMARK INTER + INTRA:          -5.471
REMARK INTER:                  -5.051
REMARK INTRA:                  -0.421
REMARK UNBOUND:                -0.200
REMARK SMILES CCCCCCC=CC(=O)[O-]
REMARK SMILES IDX 5 1 6 2 7 3 8 4 9 5 10 6 11 7 4 8 3 9 2 10 1 11
REMARK H PARENT
REMARK Flexibility Score: inf
ROOT
ATOM      1  C   UNL     1     101.021 -67.007   7.653  1.00  0.00     0.004 C 
ENDROOT
BRANCH   1   2
ATOM      2  C   UNL     1     101.529 -66.394   8.968  1.00  0.00     0.027 C 
BRANCH   2   3
ATOM      3  C   UNL     1     100.387 -66.047   9.882  1.00  0.00    -0.025 C 
ATOM      4  C   UNL     1      99.989 -66.755  10.953  1.00  0.00     0.020 C 
BRANCH   4   5
ATOM      5  C   UNL     1     100.561 -68.035  11.424  1.00  0.00     0.064 C 
ATOM      6  O   UNL     1     100.077 -69.112  10.989  1.00  0.00    -0.545 OA
ATOM      7  O   UNL     1     101.629 -68.090  12.309  1.00  0.00    -0.545 OA
ENDBRANCH   4   5
ENDBRANCH   2   3
ENDBRANCH   1   2
BRANCH   1   8
ATOM      8  C   UNL     1     101.037 -68.543   7.674  1.00  0.00     0.000 C 
BRANCH   8   9
ATOM      9  C   UNL     1     101.423 -69.145   6.315  1.00  0.00    -0.000 C 
BRANCH   9  10
ATOM     10  C   UNL     1     100.222 -69.840   5.663  1.00  0.00    -0.003 C 
ATOM     11  C   UNL     1      99.451 -68.880   4.760  1.00  0.00     0.004 C 
ENDBRANCH   9  10
ENDBRANCH   8   9
ENDBRANCH   1   8
TORSDOF 6
ENDMDL
MODEL 5
REMARK VINA RESULT:    -3.885      1.479      2.559
REMARK INTER + INTRA:          -5.447
REMARK INTER:                  -5.055
REMARK INTRA:                  -0.392
REMARK UNBOUND:                -0.200
REMARK SMILES CCCCCCC=CC(=O)[O-]
REMARK SMILES IDX 5 1 6 2 7 3 8 4 9 5 10 6 11 7 4 8 3 9 2 10 1 11
REMARK H PARENT
REMARK Flexibility Score: inf
ROOT
ATOM      1  C   UNL     1     101.018 -66.744   7.522  1.00  0.00     0.004 C 
ENDROOT
BRANCH   1   2
ATOM      2  C   UNL     1     101.412 -67.585   6.297  1.00  0.00     0.027 C 
BRANCH   2   3
ATOM      3  C   UNL     1     100.752 -68.936   6.331  1.00  0.00    -0.025 C 
ATOM      4  C   UNL     1      99.861 -69.402   5.440  1.00  0.00     0.020 C 
BRANCH   4   5
ATOM      5  C   UNL     1      99.316 -68.672   4.275  1.00  0.00     0.064 C 
ATOM      6  O   UNL     1      98.205 -68.091   4.387  1.00  0.00    -0.545 OA
ATOM      7  O   UNL     1      99.998 -68.583   3.070  1.00  0.00    -0.545 OA
ENDBRANCH   4   5
ENDBRANCH   2   3
ENDBRANCH   1   2
BRANCH   1   8
ATOM      8  C   UNL     1     100.861 -67.594   8.793  1.00  0.00     0.000 C 
BRANCH   8   9
ATOM      9  C   UNL     1     100.240 -66.804   9.954  1.00  0.00    -0.000 C 
BRANCH   9  10
ATOM     10  C   UNL     1     100.240 -67.634  11.244  1.00  0.00    -0.003 C 
ATOM     11  C   UNL     1     100.903 -68.991  11.026  1.00  0.00     0.004 C 
ENDBRANCH   9  10
ENDBRANCH   8   9
ENDBRANCH   1   8
TORSDOF 6
ENDMDL
MODEL 6
REMARK VINA RESULT:    -3.885      1.230      2.090
REMARK INTER + INTRA:          -5.447
REMARK INTER:                  -5.103
REMARK INTRA:                  -0.344
REMARK UNBOUND:                -0.200
REMARK SMILES CCCCCCC=CC(=O)[O-]
REMARK SMILES IDX 5 1 6 2 7 3 8 4 9 5 10 6 11 7 4 8 3 9 2 10 1 11
REMARK H PARENT
REMARK Flexibility Score: inf
ROOT
ATOM      1  C   UNL     1      99.591 -68.220   4.708  1.00  0.00     0.004 C 
ENDROOT
BRANCH   1   2
ATOM      2  C   UNL     1      98.338 -68.244   3.817  1.00  0.00     0.027 C 
BRANCH   2   3
ATOM      3  C   UNL     1      98.365 -67.125   2.812  1.00  0.00    -0.025 C 
ATOM      4  C   UNL     1      98.949 -67.165   1.603  1.00  0.00     0.020 C 
BRANCH   4   5
ATOM      5  C   UNL     1      99.718 -68.292   1.033  1.00  0.00     0.064 C 
ATOM      6  O   UNL     1     100.975 -68.241   1.051  1.00  0.00    -0.545 OA
ATOM      7  O   UNL     1      99.103 -69.417   0.500  1.00  0.00    -0.545 OA
ENDBRANCH   4   5
ENDBRANCH   2   3
ENDBRANCH   1   2
BRANCH   1   8
ATOM      8  C   UNL     1      99.861 -69.576   5.379  1.00  0.00     0.000 C 
BRANCH   8   9
ATOM      9  C   UNL     1     101.288 -69.681   5.935  1.00  0.00    -0.000 C 
BRANCH   9  10
ATOM     10  C   UNL     1     101.615 -68.483   6.836  1.00  0.00    -0.003 C 
ATOM     11  C   UNL     1     100.990 -68.645   8.218  1.00  0.00     0.004 C 
ENDBRANCH   9  10
ENDBRANCH   8   9
ENDBRANCH   1   8
TORSDOF 6
ENDMDL
MODEL 7
REMARK VINA RESULT:    -3.791      1.828      3.206
REMARK INTER + INTRA:          -5.320
REMARK INTER:                  -4.697
REMARK INTRA:                  -0.623
REMARK UNBOUND:                -0.200
REMARK SMILES CCCCCCC=CC(=O)[O-]
REMARK SMILES IDX 5 1 6 2 7 3 8 4 9 5 10 6 11 7 4 8 3 9 2 10 1 11
REMARK H PARENT
REMARK Flexibility Score: inf
ROOT
ATOM      1  C   UNL     1      98.780 -66.517   4.345  1.00  0.00     0.004 C 
ENDROOT
BRANCH   1   2
ATOM      2  C   UNL     1      97.930 -67.059   3.185  1.00  0.00     0.027 C 
BRANCH   2   3
ATOM      3  C   UNL     1      98.287 -66.384   1.889  1.00  0.00    -0.025 C 
ATOM      4  C   UNL     1      99.105 -66.873   0.943  1.00  0.00     0.020 C 
BRANCH   4   5
ATOM      5  C   UNL     1      99.854 -68.147   0.999  1.00  0.00     0.064 C 
ATOM      6  O   UNL     1      99.280 -69.205   0.633  1.00  0.00    -0.545 OA
ATOM      7  O   UNL     1     101.176 -68.214   1.418  1.00  0.00    -0.545 OA
ENDBRANCH   4   5
ENDBRANCH   2   3
ENDBRANCH   1   2
BRANCH   1   8
ATOM      8  C   UNL     1      99.884 -67.498   4.774  1.00  0.00     0.000 C 
BRANCH   8   9
ATOM      9  C   UNL     1      99.443 -68.964   4.659  1.00  0.00    -0.000 C 
BRANCH   9  10
ATOM     10  C   UNL     1     100.101 -69.821   5.748  1.00  0.00    -0.003 C 
ATOM     11  C   UNL     1     100.838 -68.953   6.763  1.00  0.00     0.004 C 
ENDBRANCH   9  10
ENDBRANCH   8   9
ENDBRANCH   1   8
TORSDOF 6
ENDMDL
MODEL 8
REMARK VINA RESULT:    -3.743      3.032      4.571
REMARK INTER + INTRA:          -5.256
REMARK INTER:                  -4.863
REMARK INTRA:                  -0.393
REMARK UNBOUND:                -0.200
REMARK SMILES CCCCCCC=CC(=O)[O-]
REMARK SMILES IDX 5 1 6 2 7 3 8 4 9 5 10 6 11 7 4 8 3 9 2 10 1 11
REMARK H PARENT
REMARK Flexibility Score: inf
ROOT
ATOM      1  C   UNL     1      99.865 -67.885   2.063  1.00  0.00     0.004 C 
ENDROOT
BRANCH   1   2
ATOM      2  C   UNL     1      99.790 -68.049   0.537  1.00  0.00     0.027 C 
BRANCH   2   3
ATOM      3  C   UNL     1      98.881 -69.186   0.157  1.00  0.00    -0.025 C 
ATOM      4  C   UNL     1      98.225 -69.317  -1.008  1.00  0.00     0.020 C 
BRANCH   4   5
ATOM      5  C   UNL     1      98.226 -68.357  -2.132  1.00  0.00     0.064 C 
ATOM      6  O   UNL     1      99.209 -68.342  -2.918  1.00  0.00    -0.545 OA
ATOM      7  O   UNL     1      97.169 -67.487  -2.367  1.00  0.00    -0.545 OA
ENDBRANCH   4   5
ENDBRANCH   2   3
ENDBRANCH   1   2
BRANCH   1   8
ATOM      8  C   UNL     1      98.503 -68.096   2.745  1.00  0.00     0.000 C 
BRANCH   8   9
ATOM      9  C   UNL     1      98.640 -68.438   4.236  1.00  0.00    -0.000 C 
BRANCH   9  10
ATOM     10  C   UNL     1     100.106 -68.697   4.606  1.00  0.00    -0.003 C 
ATOM     11  C   UNL     1     100.223 -69.785   5.669  1.00  0.00     0.004 C 
ENDBRANCH   9  10
ENDBRANCH   8   9
ENDBRANCH   1   8
TORSDOF 6
ENDMDL
MODEL 9
REMARK VINA RESULT:    -3.659      4.309      6.609
REMARK INTER + INTRA:          -5.142
REMARK INTER:                  -4.800
REMARK INTRA:                  -0.342
REMARK UNBOUND:                -0.200
REMARK SMILES CCCCCCC=CC(=O)[O-]
REMARK SMILES IDX 5 1 6 2 7 3 8 4 9 5 10 6 11 7 4 8 3 9 2 10 1 11
REMARK H PARENT
REMARK Flexibility Score: inf
ROOT
ATOM      1  C   UNL     1     100.789 -69.208   7.050  1.00  0.00     0.004 C 
ENDROOT
BRANCH   1   2
ATOM      2  C   UNL     1     101.656 -68.302   7.940  1.00  0.00     0.027 C 
BRANCH   2   3
ATOM      3  C   UNL     1     100.876 -67.111   8.425  1.00  0.00    -0.025 C 
ATOM      4  C   UNL     1     100.438 -66.911   9.679  1.00  0.00     0.020 C 
BRANCH   4   5
ATOM      5  C   UNL     1     100.593 -67.835  10.823  1.00  0.00     0.064 C 
ATOM      6  O   UNL     1     101.386 -67.526  11.750  1.00  0.00    -0.545 OA
ATOM      7  O   UNL     1      99.876 -69.020  10.924  1.00  0.00    -0.545 OA
ENDBRANCH   4   5
ENDBRANCH   2   3
ENDBRANCH   1   2
BRANCH   1   8
ATOM      8  C   UNL     1     100.836 -68.797   5.570  1.00  0.00     0.000 C 
BRANCH   8   9
ATOM      9  C   UNL     1      99.476 -68.953   4.874  1.00  0.00    -0.000 C 
BRANCH   9  10
ATOM     10  C   UNL     1      99.041 -67.635   4.221  1.00  0.00    -0.003 C 
ATOM     11  C   UNL     1      97.556 -67.657   3.869  1.00  0.00     0.004 C 
ENDBRANCH   9  10
ENDBRANCH   8   9
ENDBRANCH   1   8
TORSDOF 6
ENDMDL
