MODEL 1
REMARK VINA RESULT:    -7.996      0.000      0.000
REMARK INTER + INTRA:         -13.021
REMARK INTER:                 -11.969
REMARK INTRA:                  -1.052
REMARK UNBOUND:                -1.052
REMARK SMILES C=C(CC[C@H](C(=O)[O-])[C@@H]1[C@H](O)C[C@]2(C)C3=C(CC[C@]12C)[C@]1(C)CC[C@@H](OC(C)=O)C(C)(C)[C@@H]1CC3)C(C)C
REMARK SMILES IDX 4 1 5 2 6 3 7 4 8 5 9 6 10 7 19 8 12 9 13 10 18 11 20 12
REMARK SMILES IDX 14 13 15 14 17 15 16 16 35 17 21 18 34 19 33 20 23 21 22 22
REMARK SMILES IDX 30 23 24 24 25 25 31 26 32 27 11 28 26 30 27 31 29 32 28 33
REMARK SMILES IDX 3 34 2 35 1 36 36 37 37 38 38 39
REMARK H PARENT 11 29
REMARK Flexibility Score: inf
ROOT
ATOM      1  C   UNL     1     -11.680 -27.364 -20.126  1.00  0.00     0.014 C 
ENDROOT
BRANCH   1   2
ATOM      2  C   UNL     1     -11.883 -28.016 -21.530  1.00  0.00     0.042 C 
BRANCH   2   3
ATOM      3  C   UNL     1     -12.735 -29.263 -21.479  1.00  0.00     0.045 C 
ATOM      4  O   UNL     1     -12.906 -29.881 -20.392  1.00  0.00    -0.550 OA
ATOM      5  O   UNL     1     -13.303 -29.761 -22.646  1.00  0.00    -0.550 OA
ENDBRANCH   2   3
BRANCH   2   6
ATOM      6  C   UNL     1     -10.596 -28.314 -22.387  1.00  0.00     0.033 C 
ATOM      7  C   UNL     1      -9.323 -28.740 -21.641  1.00  0.00     0.119 C 
ATOM      8  C   UNL     1     -10.137 -27.363 -23.539  1.00  0.00    -0.017 C 
ATOM      9  C   UNL     1      -8.180 -28.588 -22.649  1.00  0.00     0.043 C 
ATOM     10  C   UNL     1      -8.750 -27.990 -23.964  1.00  0.00    -0.003 C 
ATOM     11  C   UNL     1      -9.888 -25.909 -23.067  1.00  0.00     0.012 C 
ATOM     12  C   UNL     1     -11.207 -27.348 -24.670  1.00  0.00     0.013 C 
ATOM     13  C   UNL     1      -8.942 -29.125 -25.017  1.00  0.00     0.017 C 
ATOM     14  C   UNL     1      -7.725 -26.987 -24.537  1.00  0.00    -0.064 C 
ATOM     15  C   UNL     1      -9.260 -25.061 -24.174  1.00  0.00     0.032 C 
ATOM     16  C   UNL     1      -8.005 -25.678 -24.771  1.00  0.00    -0.064 C 
ATOM     17  C   UNL     1      -6.341 -27.475 -24.874  1.00  0.00     0.032 C 
ATOM     18  C   UNL     1      -7.029 -24.770 -25.584  1.00  0.00    -0.008 C 
ATOM     19  C   UNL     1      -6.066 -27.135 -26.321  1.00  0.00     0.009 C 
ATOM     20  C   UNL     1      -5.995 -25.600 -26.499  1.00  0.00     0.009 C 
ATOM     21  C   UNL     1      -7.880 -23.771 -26.436  1.00  0.00     0.015 C 
ATOM     22  C   UNL     1      -6.224 -23.936 -24.551  1.00  0.00     0.016 C 
ATOM     23  C   UNL     1      -5.953 -25.191 -28.021  1.00  0.00     0.005 C 
ATOM     24  C   UNL     1      -7.111 -22.942 -27.477  1.00  0.00     0.047 C 
ATOM     25  C   UNL     1      -5.895 -23.642 -28.115  1.00  0.00     0.182 C 
ATOM     26  C   UNL     1      -4.662 -25.742 -28.689  1.00  0.00     0.015 C 
ATOM     27  C   UNL     1      -7.165 -25.752 -28.824  1.00  0.00     0.015 C 
BRANCH   7  28
ATOM     28  O   UNL     1      -9.087 -27.936 -20.514  1.00  0.00    -0.393 OA
ATOM     29  H   UNL     1      -8.396 -27.275 -20.780  1.00  0.00     0.210 HD
ENDBRANCH   7  28
BRANCH  25  30
ATOM     30  O   UNL     1      -4.694 -23.165 -27.493  1.00  0.00    -0.462 OA
BRANCH  30  31
ATOM     31  C   UNL     1      -3.770 -22.326 -28.125  1.00  0.00     0.302 C 
ATOM     32  O   UNL     1      -4.006 -21.843 -29.267  1.00  0.00    -0.253 OA
ATOM     33  C   UNL     1      -2.474 -22.029 -27.447  1.00  0.00     0.139 C 
ENDBRANCH  30  31
ENDBRANCH  25  30
ENDBRANCH   2   6
ENDBRANCH   1   2
BRANCH   1  34
ATOM     34  C   UNL     1     -12.064 -25.870 -19.995  1.00  0.00     0.031 C 
BRANCH  34  35
ATOM     35  C   UNL     1     -13.458 -25.487 -20.496  1.00  0.00    -0.075 C 
ATOM     36  C   UNL     1     -13.609 -24.886 -21.692  1.00  0.00     0.008 C 
BRANCH  35  37
ATOM     37  C   UNL     1     -14.674 -25.522 -19.568  1.00  0.00     0.008 C 
ATOM     38  C   UNL     1     -15.153 -26.940 -19.204  1.00  0.00     0.012 C 
ATOM     39  C   UNL     1     -14.376 -24.722 -18.292  1.00  0.00     0.012 C 
ENDBRANCH  35  37
ENDBRANCH  34  35
ENDBRANCH   1  34
TORSDOF 9
ENDMDL
MODEL 2
REMARK VINA RESULT:    -7.894      5.574      8.339
REMARK INTER + INTRA:         -12.869
REMARK INTER:                 -11.253
REMARK INTRA:                  -1.616
REMARK UNBOUND:                -1.052
REMARK SMILES C=C(CC[C@H](C(=O)[O-])[C@@H]1[C@H](O)C[C@]2(C)C3=C(CC[C@]12C)[C@]1(C)CC[C@@H](OC(C)=O)C(C)(C)[C@@H]1CC3)C(C)C
REMARK SMILES IDX 4 1 5 2 6 3 7 4 8 5 9 6 10 7 19 8 12 9 13 10 18 11 20 12
REMARK SMILES IDX 14 13 15 14 17 15 16 16 35 17 21 18 34 19 33 20 23 21 22 22
REMARK SMILES IDX 30 23 24 24 25 25 31 26 32 27 11 28 26 30 27 31 29 32 28 33
REMARK SMILES IDX 3 34 2 35 1 36 36 37 37 38 38 39
REMARK H PARENT 11 29
REMARK Flexibility Score: inf
ROOT
ATOM      1  C   UNL     1      -7.739 -16.948 -23.327  1.00  0.00     0.014 C 
ENDROOT
BRANCH   1   2
ATOM      2  C   UNL     1      -8.806 -18.021 -23.710  1.00  0.00     0.042 C 
BRANCH   2   3
ATOM      3  C   UNL     1     -10.096 -17.867 -22.938  1.00  0.00     0.045 C 
ATOM      4  O   UNL     1     -10.960 -18.786 -22.938  1.00  0.00    -0.550 OA
ATOM      5  O   UNL     1     -10.355 -16.684 -22.254  1.00  0.00    -0.550 OA
ENDBRANCH   2   3
BRANCH   2   6
ATOM      6  C   UNL     1      -8.366 -19.532 -23.669  1.00  0.00     0.033 C 
ATOM      7  C   UNL     1      -7.474 -19.986 -22.504  1.00  0.00     0.119 C 
ATOM      8  C   UNL     1      -7.840 -20.270 -24.943  1.00  0.00    -0.017 C 
ATOM      9  C   UNL     1      -6.908 -21.347 -22.919  1.00  0.00     0.043 C 
ATOM     10  C   UNL     1      -7.387 -21.668 -24.361  1.00  0.00    -0.003 C 
ATOM     11  C   UNL     1      -6.605 -19.585 -25.578  1.00  0.00     0.012 C 
ATOM     12  C   UNL     1      -8.971 -20.356 -26.009  1.00  0.00     0.013 C 
ATOM     13  C   UNL     1      -8.579 -22.672 -24.308  1.00  0.00     0.017 C 
ATOM     14  C   UNL     1      -6.231 -22.352 -25.125  1.00  0.00    -0.064 C 
ATOM     15  C   UNL     1      -6.008 -20.437 -26.700  1.00  0.00     0.032 C 
ATOM     16  C   UNL     1      -5.700 -21.864 -26.277  1.00  0.00    -0.064 C 
ATOM     17  C   UNL     1      -5.664 -23.638 -24.585  1.00  0.00     0.032 C 
ATOM     18  C   UNL     1      -4.719 -22.715 -27.144  1.00  0.00    -0.008 C 
ATOM     19  C   UNL     1      -5.746 -24.679 -25.677  1.00  0.00     0.009 C 
ATOM     20  C   UNL     1      -4.807 -24.296 -26.845  1.00  0.00     0.009 C 
ATOM     21  C   UNL     1      -4.993 -22.398 -28.651  1.00  0.00     0.015 C 
ATOM     22  C   UNL     1      -3.284 -22.223 -26.815  1.00  0.00     0.016 C 
ATOM     23  C   UNL     1      -5.037 -25.215 -28.104  1.00  0.00     0.005 C 
ATOM     24  C   UNL     1      -4.285 -23.300 -29.674  1.00  0.00     0.047 C 
ATOM     25  C   UNL     1      -4.069 -24.761 -29.232  1.00  0.00     0.182 C 
ATOM     26  C   UNL     1      -4.686 -26.690 -27.763  1.00  0.00     0.015 C 
ATOM     27  C   UNL     1      -6.515 -25.194 -28.598  1.00  0.00     0.015 C 
BRANCH   7  28
ATOM     28  O   UNL     1      -6.429 -19.078 -22.266  1.00  0.00    -0.393 OA
ATOM     29  H   UNL     1      -5.629 -19.441 -22.728  1.00  0.00     0.210 HD
ENDBRANCH   7  28
BRANCH  25  30
ATOM     30  O   UNL     1      -2.712 -24.930 -28.799  1.00  0.00    -0.462 OA
BRANCH  30  31
ATOM     31  C   UNL     1      -1.600 -24.580 -29.573  1.00  0.00     0.302 C 
ATOM     32  O   UNL     1      -0.942 -23.531 -29.328  1.00  0.00    -0.253 OA
ATOM     33  C   UNL     1      -1.214 -25.447 -30.725  1.00  0.00     0.139 C 
ENDBRANCH  30  31
ENDBRANCH  25  30
ENDBRANCH   2   6
ENDBRANCH   1   2
BRANCH   1  34
ATOM     34  C   UNL     1      -7.451 -15.851 -24.381  1.00  0.00     0.031 C 
BRANCH  34  35
ATOM     35  C   UNL     1      -6.188 -16.042 -25.222  1.00  0.00    -0.075 C 
ATOM     36  C   UNL     1      -4.974 -16.019 -24.639  1.00  0.00     0.008 C 
BRANCH  35  37
ATOM     37  C   UNL     1      -6.236 -15.993 -26.751  1.00  0.00     0.008 C 
ATOM     38  C   UNL     1      -5.081 -16.738 -27.445  1.00  0.00     0.012 C 
ATOM     39  C   UNL     1      -7.586 -16.532 -27.246  1.00  0.00     0.012 C 
ENDBRANCH  35  37
ENDBRANCH  34  35
ENDBRANCH   1  34
TORSDOF 9
ENDMDL
MODEL 3
REMARK VINA RESULT:    -7.619      6.905      9.793
REMARK INTER + INTRA:         -12.457
REMARK INTER:                 -11.349
REMARK INTRA:                  -1.108
REMARK UNBOUND:                -1.052
REMARK SMILES C=C(CC[C@H](C(=O)[O-])[C@@H]1[C@H](O)C[C@]2(C)C3=C(CC[C@]12C)[C@]1(C)CC[C@@H](OC(C)=O)C(C)(C)[C@@H]1CC3)C(C)C
REMARK SMILES IDX 4 1 5 2 6 3 7 4 8 5 9 6 10 7 19 8 12 9 13 10 18 11 20 12
REMARK SMILES IDX 14 13 15 14 17 15 16 16 35 17 21 18 34 19 33 20 23 21 22 22
REMARK SMILES IDX 30 23 24 24 25 25 31 26 32 27 11 28 26 30 27 31 29 32 28 33
REMARK SMILES IDX 3 34 2 35 1 36 36 37 37 38 38 39
REMARK H PARENT 11 29
REMARK Flexibility Score: inf
ROOT
ATOM      1  C   UNL     1     -10.073 -15.849 -29.226  1.00  0.00     0.014 C 
ENDROOT
BRANCH   1   2
ATOM      2  C   UNL     1      -8.537 -16.130 -29.203  1.00  0.00     0.042 C 
BRANCH   2   3
ATOM      3  C   UNL     1      -7.959 -16.339 -30.584  1.00  0.00     0.045 C 
ATOM      4  O   UNL     1      -6.759 -16.039 -30.831  1.00  0.00    -0.550 OA
ATOM      5  O   UNL     1      -8.767 -16.825 -31.606  1.00  0.00    -0.550 OA
ENDBRANCH   2   3
BRANCH   2   6
ATOM      6  C   UNL     1      -8.021 -17.278 -28.257  1.00  0.00     0.033 C 
ATOM      7  C   UNL     1      -6.898 -16.937 -27.266  1.00  0.00     0.119 C 
ATOM      8  C   UNL     1      -7.714 -18.713 -28.796  1.00  0.00    -0.017 C 
ATOM      9  C   UNL     1      -6.355 -18.282 -26.774  1.00  0.00     0.043 C 
ATOM     10  C   UNL     1      -7.087 -19.423 -27.532  1.00  0.00    -0.003 C 
ATOM     11  C   UNL     1      -6.662 -18.725 -29.932  1.00  0.00     0.012 C 
ATOM     12  C   UNL     1      -9.025 -19.373 -29.317  1.00  0.00     0.013 C 
ATOM     13  C   UNL     1      -8.194 -20.034 -26.619  1.00  0.00     0.017 C 
ATOM     14  C   UNL     1      -6.067 -20.540 -27.846  1.00  0.00    -0.064 C 
ATOM     15  C   UNL     1      -6.251 -20.152 -30.299  1.00  0.00     0.032 C 
ATOM     16  C   UNL     1      -5.794 -20.976 -29.105  1.00  0.00    -0.064 C 
ATOM     17  C   UNL     1      -5.341 -21.204 -26.706  1.00  0.00     0.032 C 
ATOM     18  C   UNL     1      -4.958 -22.270 -29.354  1.00  0.00    -0.008 C 
ATOM     19  C   UNL     1      -5.581 -22.693 -26.804  1.00  0.00     0.009 C 
ATOM     20  C   UNL     1      -4.906 -23.253 -28.079  1.00  0.00     0.009 C 
ATOM     21  C   UNL     1      -5.534 -22.993 -30.616  1.00  0.00     0.015 C 
ATOM     22  C   UNL     1      -3.513 -21.815 -29.693  1.00  0.00     0.016 C 
ATOM     23  C   UNL     1      -5.328 -24.747 -28.353  1.00  0.00     0.005 C 
ATOM     24  C   UNL     1      -4.992 -24.404 -30.896  1.00  0.00     0.047 C 
ATOM     25  C   UNL     1      -4.621 -25.231 -29.649  1.00  0.00     0.182 C 
ATOM     26  C   UNL     1      -4.843 -25.663 -27.195  1.00  0.00     0.015 C 
ATOM     27  C   UNL     1      -6.873 -24.921 -28.464  1.00  0.00     0.015 C 
BRANCH   7  28
ATOM     28  O   UNL     1      -5.875 -16.193 -27.876  1.00  0.00    -0.393 OA
ATOM     29  H   UNL     1      -5.021 -16.634 -27.628  1.00  0.00     0.210 HD
ENDBRANCH   7  28
BRANCH  25  30
ATOM     30  O   UNL     1      -3.199 -25.197 -29.464  1.00  0.00    -0.462 OA
BRANCH  30  31
ATOM     31  C   UNL     1      -2.281 -25.676 -30.405  1.00  0.00     0.302 C 
ATOM     32  O   UNL     1      -2.462 -26.783 -30.984  1.00  0.00    -0.253 OA
ATOM     33  C   UNL     1      -1.054 -24.879 -30.696  1.00  0.00     0.139 C 
ENDBRANCH  30  31
ENDBRANCH  25  30
ENDBRANCH   2   6
ENDBRANCH   1   2
BRANCH   1  34
ATOM     34  C   UNL     1     -10.846 -16.120 -27.913  1.00  0.00     0.031 C 
BRANCH  34  35
ATOM     35  C   UNL     1     -11.871 -17.255 -27.958  1.00  0.00    -0.075 C 
ATOM     36  C   UNL     1     -12.777 -17.313 -28.953  1.00  0.00     0.008 C 
BRANCH  35  37
ATOM     37  C   UNL     1     -12.078 -18.186 -26.762  1.00  0.00     0.008 C 
ATOM     38  C   UNL     1     -12.021 -19.685 -27.109  1.00  0.00     0.012 C 
ATOM     39  C   UNL     1     -11.056 -17.859 -25.664  1.00  0.00     0.012 C 
ENDBRANCH  35  37
ENDBRANCH  34  35
ENDBRANCH   1  34
TORSDOF 9
ENDMDL
MODEL 4
REMARK VINA RESULT:    -7.556      2.363      8.855
REMARK INTER + INTRA:         -12.363
REMARK INTER:                 -10.503
REMARK INTRA:                  -1.860
REMARK UNBOUND:                -1.052
REMARK SMILES C=C(CC[C@H](C(=O)[O-])[C@@H]1[C@H](O)C[C@]2(C)C3=C(CC[C@]12C)[C@]1(C)CC[C@@H](OC(C)=O)C(C)(C)[C@@H]1CC3)C(C)C
REMARK SMILES IDX 4 1 5 2 6 3 7 4 8 5 9 6 10 7 19 8 12 9 13 10 18 11 20 12
REMARK SMILES IDX 14 13 15 14 17 15 16 16 35 17 21 18 34 19 33 20 23 21 22 22
REMARK SMILES IDX 30 23 24 24 25 25 31 26 32 27 11 28 26 30 27 31 29 32 28 33
REMARK SMILES IDX 3 34 2 35 1 36 36 37 37 38 38 39
REMARK H PARENT 11 29
REMARK Flexibility Score: inf
ROOT
ATOM      1  C   UNL     1      -5.566 -20.748 -27.087  1.00  0.00     0.014 C 
ENDROOT
BRANCH   1   2
ATOM      2  C   UNL     1      -4.276 -21.627 -27.085  1.00  0.00     0.042 C 
BRANCH   2   3
ATOM      3  C   UNL     1      -3.361 -21.327 -28.249  1.00  0.00     0.045 C 
ATOM      4  O   UNL     1      -3.825 -20.876 -29.333  1.00  0.00    -0.550 OA
ATOM      5  O   UNL     1      -2.000 -21.589 -28.145  1.00  0.00    -0.550 OA
ENDBRANCH   2   3
BRANCH   2   6
ATOM      6  C   UNL     1      -4.458 -23.187 -26.970  1.00  0.00     0.033 C 
ATOM      7  C   UNL     1      -4.675 -23.979 -28.268  1.00  0.00     0.119 C 
ATOM      8  C   UNL     1      -5.398 -23.828 -25.898  1.00  0.00    -0.017 C 
ATOM      9  C   UNL     1      -5.190 -25.355 -27.834  1.00  0.00     0.043 C 
ATOM     10  C   UNL     1      -5.366 -25.358 -26.292  1.00  0.00    -0.003 C 
ATOM     11  C   UNL     1      -6.862 -23.332 -25.996  1.00  0.00     0.012 C 
ATOM     12  C   UNL     1      -4.858 -23.522 -24.470  1.00  0.00     0.013 C 
ATOM     13  C   UNL     1      -4.158 -26.088 -25.627  1.00  0.00     0.017 C 
ATOM     14  C   UNL     1      -6.644 -26.152 -25.942  1.00  0.00    -0.064 C 
ATOM     15  C   UNL     1      -7.783 -24.120 -25.062  1.00  0.00     0.032 C 
ATOM     16  C   UNL     1      -7.689 -25.626 -25.249  1.00  0.00    -0.064 C 
ATOM     17  C   UNL     1      -6.745 -27.592 -26.370  1.00  0.00     0.032 C 
ATOM     18  C   UNL     1      -8.837 -26.530 -24.699  1.00  0.00    -0.008 C 
ATOM     19  C   UNL     1      -7.027 -28.426 -25.141  1.00  0.00     0.009 C 
ATOM     20  C   UNL     1      -8.427 -28.083 -24.580  1.00  0.00     0.009 C 
ATOM     21  C   UNL     1      -9.304 -25.950 -23.323  1.00  0.00     0.015 C 
ATOM     22  C   UNL     1     -10.025 -26.401 -25.689  1.00  0.00     0.016 C 
ATOM     23  C   UNL     1      -8.667 -28.745 -23.169  1.00  0.00     0.005 C 
ATOM     24  C   UNL     1     -10.273 -26.824 -22.512  1.00  0.00     0.047 C 
ATOM     25  C   UNL     1     -10.083 -28.346 -22.671  1.00  0.00     0.182 C 
ATOM     26  C   UNL     1      -8.641 -30.294 -23.291  1.00  0.00     0.015 C 
ATOM     27  C   UNL     1      -7.578 -28.344 -22.129  1.00  0.00     0.015 C 
BRANCH   7  28
ATOM     28  O   UNL     1      -5.609 -23.353 -29.109  1.00  0.00    -0.393 OA
ATOM     29  H   UNL     1      -5.383 -23.629 -30.035  1.00  0.00     0.210 HD
ENDBRANCH   7  28
BRANCH  25  30
ATOM     30  O   UNL     1     -11.074 -28.855 -23.575  1.00  0.00    -0.462 OA
BRANCH  30  31
ATOM     31  C   UNL     1     -12.452 -28.768 -23.348  1.00  0.00     0.302 C 
ATOM     32  O   UNL     1     -12.982 -29.325 -22.348  1.00  0.00    -0.253 OA
ATOM     33  C   UNL     1     -13.305 -28.034 -24.328  1.00  0.00     0.139 C 
ENDBRANCH  30  31
ENDBRANCH  25  30
ENDBRANCH   2   6
ENDBRANCH   1   2
BRANCH   1  34
ATOM     34  C   UNL     1      -5.685 -19.691 -25.962  1.00  0.00     0.031 C 
BRANCH  34  35
ATOM     35  C   UNL     1      -6.864 -19.860 -25.002  1.00  0.00    -0.075 C 
ATOM     36  C   UNL     1      -8.127 -19.852 -25.469  1.00  0.00     0.008 C 
BRANCH  35  37
ATOM     37  C   UNL     1      -6.674 -19.772 -23.486  1.00  0.00     0.008 C 
ATOM     38  C   UNL     1      -7.413 -18.597 -22.821  1.00  0.00     0.012 C 
ATOM     39  C   UNL     1      -7.093 -21.097 -22.832  1.00  0.00     0.012 C 
ENDBRANCH  35  37
ENDBRANCH  34  35
ENDBRANCH   1  34
TORSDOF 9
ENDMDL
MODEL 5
REMARK VINA RESULT:    -7.552      1.769      9.923
REMARK INTER + INTRA:         -12.357
REMARK INTER:                 -11.164
REMARK INTRA:                  -1.193
REMARK UNBOUND:                -1.052
REMARK SMILES C=C(CC[C@H](C(=O)[O-])[C@@H]1[C@H](O)C[C@]2(C)C3=C(CC[C@]12C)[C@]1(C)CC[C@@H](OC(C)=O)C(C)(C)[C@@H]1CC3)C(C)C
REMARK SMILES IDX 4 1 5 2 6 3 7 4 8 5 9 6 10 7 19 8 12 9 13 10 18 11 20 12
REMARK SMILES IDX 14 13 15 14 17 15 16 16 35 17 21 18 34 19 33 20 23 21 22 22
REMARK SMILES IDX 30 23 24 24 25 25 31 26 32 27 11 28 26 30 27 31 29 32 28 33
REMARK SMILES IDX 3 34 2 35 1 36 36 37 37 38 38 39
REMARK H PARENT 11 29
REMARK Flexibility Score: inf
ROOT
ATOM      1  C   UNL     1      -6.123 -22.594 -29.579  1.00  0.00     0.014 C 
ENDROOT
BRANCH   1   2
ATOM      2  C   UNL     1      -5.854 -22.788 -28.053  1.00  0.00     0.042 C 
BRANCH   2   3
ATOM      3  C   UNL     1      -4.561 -22.149 -27.601  1.00  0.00     0.045 C 
ATOM      4  O   UNL     1      -3.564 -22.859 -27.295  1.00  0.00    -0.550 OA
ATOM      5  O   UNL     1      -4.479 -20.767 -27.477  1.00  0.00    -0.550 OA
ENDBRANCH   2   3
BRANCH   2   6
ATOM      6  C   UNL     1      -5.923 -24.254 -27.482  1.00  0.00     0.033 C 
ATOM      7  C   UNL     1      -6.210 -25.394 -28.471  1.00  0.00     0.119 C 
ATOM      8  C   UNL     1      -6.716 -24.591 -26.177  1.00  0.00    -0.017 C 
ATOM      9  C   UNL     1      -6.592 -26.603 -27.613  1.00  0.00     0.043 C 
ATOM     10  C   UNL     1      -6.622 -26.168 -26.123  1.00  0.00    -0.003 C 
ATOM     11  C   UNL     1      -8.211 -24.195 -26.252  1.00  0.00     0.012 C 
ATOM     12  C   UNL     1      -6.065 -23.868 -24.962  1.00  0.00     0.013 C 
ATOM     13  C   UNL     1      -5.313 -26.632 -25.413  1.00  0.00     0.017 C 
ATOM     14  C   UNL     1      -7.809 -26.870 -25.426  1.00  0.00    -0.064 C 
ATOM     15  C   UNL     1      -8.988 -24.712 -25.040  1.00  0.00     0.032 C 
ATOM     16  C   UNL     1      -8.816 -26.204 -24.802  1.00  0.00    -0.064 C 
ATOM     17  C   UNL     1      -7.857 -28.376 -25.416  1.00  0.00     0.032 C 
ATOM     18  C   UNL     1      -9.847 -26.949 -23.898  1.00  0.00    -0.008 C 
ATOM     19  C   UNL     1      -7.968 -28.829 -23.978  1.00  0.00     0.009 C 
ATOM     20  C   UNL     1      -9.329 -28.388 -23.388  1.00  0.00     0.009 C 
ATOM     21  C   UNL     1     -10.219 -26.014 -22.701  1.00  0.00     0.015 C 
ATOM     22  C   UNL     1     -11.129 -27.153 -24.749  1.00  0.00     0.016 C 
ATOM     23  C   UNL     1      -9.393 -28.622 -21.831  1.00  0.00     0.005 C 
ATOM     24  C   UNL     1     -11.049 -26.650 -21.575  1.00  0.00     0.047 C 
ATOM     25  C   UNL     1     -10.778 -28.146 -21.315  1.00  0.00     0.182 C 
ATOM     26  C   UNL     1      -9.279 -30.139 -21.511  1.00  0.00     0.015 C 
ATOM     27  C   UNL     1      -8.239 -27.901 -21.070  1.00  0.00     0.015 C 
BRANCH   7  28
ATOM     28  O   UNL     1      -7.257 -25.069 -29.349  1.00  0.00    -0.393 OA
ATOM     29  H   UNL     1      -6.884 -25.132 -30.267  1.00  0.00     0.210 HD
ENDBRANCH   7  28
BRANCH  25  30
ATOM     30  O   UNL     1     -11.815 -28.927 -21.926  1.00  0.00    -0.462 OA
BRANCH  30  31
ATOM     31  C   UNL     1     -13.171 -28.806 -21.606  1.00  0.00     0.302 C 
ATOM     32  O   UNL     1     -14.027 -28.543 -22.495  1.00  0.00    -0.253 OA
ATOM     33  C   UNL     1     -13.600 -28.958 -20.185  1.00  0.00     0.139 C 
ENDBRANCH  30  31
ENDBRANCH  25  30
ENDBRANCH   2   6
ENDBRANCH   1   2
BRANCH   1  34
ATOM     34  C   UNL     1      -4.886 -22.333 -30.472  1.00  0.00     0.031 C 
BRANCH  34  35
ATOM     35  C   UNL     1      -4.243 -23.567 -31.107  1.00  0.00    -0.075 C 
ATOM     36  C   UNL     1      -5.007 -24.492 -31.720  1.00  0.00     0.008 C 
BRANCH  35  37
ATOM     37  C   UNL     1      -2.779 -23.927 -30.841  1.00  0.00     0.008 C 
ATOM     38  C   UNL     1      -1.931 -22.764 -30.293  1.00  0.00     0.012 C 
ATOM     39  C   UNL     1      -2.704 -25.129 -29.889  1.00  0.00     0.012 C 
ENDBRANCH  35  37
ENDBRANCH  34  35
ENDBRANCH   1  34
TORSDOF 9
ENDMDL
MODEL 6
REMARK VINA RESULT:    -7.358      6.052      8.938
REMARK INTER + INTRA:         -12.067
REMARK INTER:                 -10.683
REMARK INTRA:                  -1.383
REMARK UNBOUND:                -1.052
REMARK SMILES C=C(CC[C@H](C(=O)[O-])[C@@H]1[C@H](O)C[C@]2(C)C3=C(CC[C@]12C)[C@]1(C)CC[C@@H](OC(C)=O)C(C)(C)[C@@H]1CC3)C(C)C
REMARK SMILES IDX 4 1 5 2 6 3 7 4 8 5 9 6 10 7 19 8 12 9 13 10 18 11 20 12
REMARK SMILES IDX 14 13 15 14 17 15 16 16 35 17 21 18 34 19 33 20 23 21 22 22
REMARK SMILES IDX 30 23 24 24 25 25 31 26 32 27 11 28 26 30 27 31 29 32 28 33
REMARK SMILES IDX 3 34 2 35 1 36 36 37 37 38 38 39
REMARK H PARENT 11 29
REMARK Flexibility Score: inf
ROOT
ATOM      1  C   UNL     1      -8.188 -16.851 -26.241  1.00  0.00     0.014 C 
ENDROOT
BRANCH   1   2
ATOM      2  C   UNL     1      -8.649 -17.499 -24.898  1.00  0.00     0.042 C 
BRANCH   2   3
ATOM      3  C   UNL     1      -8.425 -16.598 -23.706  1.00  0.00     0.045 C 
ATOM      4  O   UNL     1      -7.533 -15.706 -23.732  1.00  0.00    -0.550 OA
ATOM      5  O   UNL     1      -9.177 -16.779 -22.551  1.00  0.00    -0.550 OA
ENDBRANCH   2   3
BRANCH   2   6
ATOM      6  C   UNL     1      -8.105 -18.937 -24.558  1.00  0.00     0.033 C 
ATOM      7  C   UNL     1      -6.944 -19.044 -23.558  1.00  0.00     0.119 C 
ATOM      8  C   UNL     1      -7.826 -19.996 -25.674  1.00  0.00    -0.017 C 
ATOM      9  C   UNL     1      -6.390 -20.463 -23.714  1.00  0.00     0.043 C 
ATOM     10  C   UNL     1      -7.156 -21.174 -24.863  1.00  0.00    -0.003 C 
ATOM     11  C   UNL     1      -6.817 -19.506 -26.741  1.00  0.00     0.012 C 
ATOM     12  C   UNL     1      -9.159 -20.381 -26.381  1.00  0.00     0.013 C 
ATOM     13  C   UNL     1      -8.231 -22.132 -24.263  1.00  0.00     0.017 C 
ATOM     14  C   UNL     1      -6.155 -22.036 -25.664  1.00  0.00    -0.064 C 
ATOM     15  C   UNL     1      -6.428 -20.631 -27.702  1.00  0.00     0.032 C 
ATOM     16  C   UNL     1      -5.932 -21.883 -26.997  1.00  0.00    -0.064 C 
ATOM     17  C   UNL     1      -5.391 -23.118 -24.948  1.00  0.00     0.032 C 
ATOM     18  C   UNL     1      -5.112 -22.934 -27.809  1.00  0.00    -0.008 C 
ATOM     19  C   UNL     1      -5.642 -24.422 -25.671  1.00  0.00     0.009 C 
ATOM     20  C   UNL     1      -5.018 -24.371 -27.085  1.00  0.00     0.009 C 
ATOM     21  C   UNL     1      -5.739 -23.049 -29.238  1.00  0.00     0.015 C 
ATOM     22  C   UNL     1      -3.679 -22.362 -27.971  1.00  0.00     0.016 C 
ATOM     23  C   UNL     1      -5.458 -25.605 -27.962  1.00  0.00     0.005 C 
ATOM     24  C   UNL     1      -5.216 -24.195 -30.118  1.00  0.00     0.047 C 
ATOM     25  C   UNL     1      -4.803 -25.475 -29.364  1.00  0.00     0.182 C 
ATOM     26  C   UNL     1      -4.936 -26.926 -27.330  1.00  0.00     0.015 C 
ATOM     27  C   UNL     1      -7.007 -25.731 -28.081  1.00  0.00     0.015 C 
BRANCH   7  28
ATOM     28  O   UNL     1      -5.940 -18.099 -23.824  1.00  0.00    -0.393 OA
ATOM     29  H   UNL     1      -5.911 -17.491 -23.039  1.00  0.00     0.210 HD
ENDBRANCH   7  28
BRANCH  25  30
ATOM     30  O   UNL     1      -3.375 -25.509 -29.234  1.00  0.00    -0.462 OA
BRANCH  30  31
ATOM     31  C   UNL     1      -2.497 -25.605 -30.319  1.00  0.00     0.302 C 
ATOM     32  O   UNL     1      -2.497 -26.622 -31.067  1.00  0.00    -0.253 OA
ATOM     33  C   UNL     1      -1.525 -24.501 -30.569  1.00  0.00     0.139 C 
ENDBRANCH  30  31
ENDBRANCH  25  30
ENDBRANCH   2   6
ENDBRANCH   1   2
BRANCH   1  34
ATOM     34  C   UNL     1      -9.287 -16.600 -27.302  1.00  0.00     0.031 C 
BRANCH  34  35
ATOM     35  C   UNL     1      -8.805 -16.444 -28.746  1.00  0.00    -0.075 C 
ATOM     36  C   UNL     1      -9.258 -15.429 -29.507  1.00  0.00     0.008 C 
BRANCH  35  37
ATOM     37  C   UNL     1      -8.025 -17.557 -29.449  1.00  0.00     0.008 C 
ATOM     38  C   UNL     1      -8.731 -18.141 -30.686  1.00  0.00     0.012 C 
ATOM     39  C   UNL     1      -6.626 -17.052 -29.828  1.00  0.00     0.012 C 
ENDBRANCH  35  37
ENDBRANCH  34  35
ENDBRANCH   1  34
TORSDOF 9
ENDMDL
MODEL 7
REMARK VINA RESULT:    -7.342      5.221      9.135
REMARK INTER + INTRA:         -12.042
REMARK INTER:                 -11.187
REMARK INTRA:                  -0.856
REMARK UNBOUND:                -1.052
REMARK SMILES C=C(CC[C@H](C(=O)[O-])[C@@H]1[C@H](O)C[C@]2(C)C3=C(CC[C@]12C)[C@]1(C)CC[C@@H](OC(C)=O)C(C)(C)[C@@H]1CC3)C(C)C
REMARK SMILES IDX 4 1 5 2 6 3 7 4 8 5 9 6 10 7 19 8 12 9 13 10 18 11 20 12
REMARK SMILES IDX 14 13 15 14 17 15 16 16 35 17 21 18 34 19 33 20 23 21 22 22
REMARK SMILES IDX 30 23 24 24 25 25 31 26 32 27 11 28 26 30 27 31 29 32 28 33
REMARK SMILES IDX 3 34 2 35 1 36 36 37 37 38 38 39
REMARK H PARENT 11 29
REMARK Flexibility Score: inf
ROOT
ATOM      1  C   UNL     1      -5.172 -25.868 -28.081  1.00  0.00     0.014 C 
ENDROOT
BRANCH   1   2
ATOM      2  C   UNL     1      -4.797 -25.888 -26.566  1.00  0.00     0.042 C 
BRANCH   2   3
ATOM      3  C   UNL     1      -5.003 -27.243 -25.930  1.00  0.00     0.045 C 
ATOM      4  O   UNL     1      -5.872 -28.040 -26.380  1.00  0.00    -0.550 OA
ATOM      5  O   UNL     1      -4.260 -27.603 -24.811  1.00  0.00    -0.550 OA
ENDBRANCH   2   3
BRANCH   2   6
ATOM      6  C   UNL     1      -5.442 -24.789 -25.641  1.00  0.00     0.033 C 
ATOM      7  C   UNL     1      -6.856 -25.050 -25.100  1.00  0.00     0.119 C 
ATOM      8  C   UNL     1      -5.381 -23.269 -26.004  1.00  0.00    -0.017 C 
ATOM      9  C   UNL     1      -7.357 -23.700 -24.579  1.00  0.00     0.043 C 
ATOM     10  C   UNL     1      -6.287 -22.618 -24.886  1.00  0.00    -0.003 C 
ATOM     11  C   UNL     1      -6.005 -22.947 -27.384  1.00  0.00     0.012 C 
ATOM     12  C   UNL     1      -3.902 -22.784 -25.995  1.00  0.00     0.013 C 
ATOM     13  C   UNL     1      -5.463 -22.313 -23.597  1.00  0.00     0.017 C 
ATOM     14  C   UNL     1      -7.006 -21.315 -25.302  1.00  0.00    -0.064 C 
ATOM     15  C   UNL     1      -6.098 -21.437 -27.617  1.00  0.00     0.032 C 
ATOM     16  C   UNL     1      -6.806 -20.695 -26.495  1.00  0.00    -0.064 C 
ATOM     17  C   UNL     1      -7.970 -20.677 -24.337  1.00  0.00     0.032 C 
ATOM     18  C   UNL     1      -7.352 -19.258 -26.766  1.00  0.00    -0.008 C 
ATOM     19  C   UNL     1      -7.530 -19.249 -24.113  1.00  0.00     0.009 C 
ATOM     20  C   UNL     1      -7.687 -18.437 -25.421  1.00  0.00     0.009 C 
ATOM     21  C   UNL     1      -6.319 -18.499 -27.662  1.00  0.00     0.015 C 
ATOM     22  C   UNL     1      -8.657 -19.419 -27.591  1.00  0.00     0.016 C 
ATOM     23  C   UNL     1      -7.019 -17.014 -25.308  1.00  0.00     0.005 C 
ATOM     24  C   UNL     1      -6.564 -16.994 -27.855  1.00  0.00     0.047 C 
ATOM     25  C   UNL     1      -7.208 -16.269 -26.657  1.00  0.00     0.182 C 
ATOM     26  C   UNL     1      -7.731 -16.171 -24.213  1.00  0.00     0.015 C 
ATOM     27  C   UNL     1      -5.510 -17.092 -24.923  1.00  0.00     0.015 C 
BRANCH   7  28
ATOM     28  O   UNL     1      -7.715 -25.533 -26.101  1.00  0.00    -0.393 OA
ATOM     29  H   UNL     1      -7.149 -25.699 -26.900  1.00  0.00     0.210 HD
ENDBRANCH   7  28
BRANCH  25  30
ATOM     30  O   UNL     1      -8.607 -16.084 -26.913  1.00  0.00    -0.462 OA
BRANCH  30  31
ATOM     31  C   UNL     1      -9.125 -15.666 -28.144  1.00  0.00     0.302 C 
ATOM     32  O   UNL     1     -10.125 -14.898 -28.202  1.00  0.00    -0.253 OA
ATOM     33  C   UNL     1      -8.502 -16.169 -29.404  1.00  0.00     0.139 C 
ENDBRANCH  30  31
ENDBRANCH  25  30
ENDBRANCH   2   6
ENDBRANCH   1   2
BRANCH   1  34
ATOM     34  C   UNL     1      -4.053 -25.451 -29.066  1.00  0.00     0.031 C 
BRANCH  34  35
ATOM     35  C   UNL     1      -4.485 -24.579 -30.246  1.00  0.00    -0.075 C 
ATOM     36  C   UNL     1      -5.354 -25.054 -31.159  1.00  0.00     0.008 C 
BRANCH  35  37
ATOM     37  C   UNL     1      -3.760 -23.272 -30.577  1.00  0.00     0.008 C 
ATOM     38  C   UNL     1      -4.695 -22.093 -30.902  1.00  0.00     0.012 C 
ATOM     39  C   UNL     1      -2.816 -22.896 -29.426  1.00  0.00     0.012 C 
ENDBRANCH  35  37
ENDBRANCH  34  35
ENDBRANCH   1  34
TORSDOF 9
ENDMDL
MODEL 8
REMARK VINA RESULT:    -7.305      2.270      9.921
REMARK INTER + INTRA:         -11.987
REMARK INTER:                 -10.448
REMARK INTRA:                  -1.539
REMARK UNBOUND:                -1.052
REMARK SMILES C=C(CC[C@H](C(=O)[O-])[C@@H]1[C@H](O)C[C@]2(C)C3=C(CC[C@]12C)[C@]1(C)CC[C@@H](OC(C)=O)C(C)(C)[C@@H]1CC3)C(C)C
REMARK SMILES IDX 4 1 5 2 6 3 7 4 8 5 9 6 10 7 19 8 12 9 13 10 18 11 20 12
REMARK SMILES IDX 14 13 15 14 17 15 16 16 35 17 21 18 34 19 33 20 23 21 22 22
REMARK SMILES IDX 30 23 24 24 25 25 31 26 32 27 11 28 26 30 27 31 29 32 28 33
REMARK SMILES IDX 3 34 2 35 1 36 36 37 37 38 38 39
REMARK H PARENT 11 29
REMARK Flexibility Score: inf
ROOT
ATOM      1  C   UNL     1      -4.890 -22.209 -28.192  1.00  0.00     0.014 C 
ENDROOT
BRANCH   1   2
ATOM      2  C   UNL     1      -5.706 -23.126 -29.156  1.00  0.00     0.042 C 
BRANCH   2   3
ATOM      3  C   UNL     1      -5.644 -22.665 -30.594  1.00  0.00     0.045 C 
ATOM      4  O   UNL     1      -5.747 -23.494 -31.540  1.00  0.00    -0.550 OA
ATOM      5  O   UNL     1      -5.429 -21.322 -30.881  1.00  0.00    -0.550 OA
ENDBRANCH   2   3
BRANCH   2   6
ATOM      6  C   UNL     1      -7.205 -23.427 -28.782  1.00  0.00     0.033 C 
ATOM      7  C   UNL     1      -8.045 -22.272 -28.215  1.00  0.00     0.119 C 
ATOM      8  C   UNL     1      -7.612 -24.705 -27.979  1.00  0.00    -0.017 C 
ATOM      9  C   UNL     1      -9.288 -22.924 -27.603  1.00  0.00     0.043 C 
ATOM     10  C   UNL     1      -9.152 -24.467 -27.721  1.00  0.00    -0.003 C 
ATOM     11  C   UNL     1      -6.901 -24.816 -26.608  1.00  0.00     0.012 C 
ATOM     12  C   UNL     1      -7.292 -25.978 -28.816  1.00  0.00     0.013 C 
ATOM     13  C   UNL     1     -10.012 -24.979 -28.918  1.00  0.00     0.017 C 
ATOM     14  C   UNL     1      -9.709 -25.112 -26.433  1.00  0.00    -0.064 C 
ATOM     15  C   UNL     1      -7.465 -25.970 -25.777  1.00  0.00     0.032 C 
ATOM     16  C   UNL     1      -8.977 -25.921 -25.622  1.00  0.00    -0.064 C 
ATOM     17  C   UNL     1     -11.142 -24.854 -26.051  1.00  0.00     0.032 C 
ATOM     18  C   UNL     1      -9.647 -26.751 -24.482  1.00  0.00    -0.008 C 
ATOM     19  C   UNL     1     -11.831 -26.190 -25.892  1.00  0.00     0.009 C 
ATOM     20  C   UNL     1     -11.233 -26.951 -24.684  1.00  0.00     0.009 C 
ATOM     21  C   UNL     1      -8.903 -28.122 -24.368  1.00  0.00     0.015 C 
ATOM     22  C   UNL     1      -9.406 -25.977 -23.159  1.00  0.00     0.016 C 
ATOM     23  C   UNL     1     -11.745 -28.441 -24.623  1.00  0.00     0.005 C 
ATOM     24  C   UNL     1      -9.554 -29.174 -23.456  1.00  0.00     0.047 C 
ATOM     25  C   UNL     1     -11.094 -29.137 -23.396  1.00  0.00     0.182 C 
ATOM     26  C   UNL     1     -13.284 -28.471 -24.407  1.00  0.00     0.015 C 
ATOM     27  C   UNL     1     -11.445 -29.230 -25.934  1.00  0.00     0.015 C 
BRANCH   7  28
ATOM     28  O   UNL     1      -7.343 -21.550 -27.237  1.00  0.00    -0.393 OA
ATOM     29  H   UNL     1      -7.751 -20.645 -27.209  1.00  0.00     0.210 HD
ENDBRANCH   7  28
BRANCH  25  30
ATOM     30  O   UNL     1     -11.506 -28.476 -22.192  1.00  0.00    -0.462 OA
BRANCH  30  31
ATOM     31  C   UNL     1     -11.780 -29.142 -20.993  1.00  0.00     0.302 C 
ATOM     32  O   UNL     1     -10.862 -29.392 -20.163  1.00  0.00    -0.253 OA
ATOM     33  C   UNL     1     -13.175 -29.594 -20.714  1.00  0.00     0.139 C 
ENDBRANCH  30  31
ENDBRANCH  25  30
ENDBRANCH   2   6
ENDBRANCH   1   2
BRANCH   1  34
ATOM     34  C   UNL     1      -3.454 -22.673 -27.844  1.00  0.00     0.031 C 
BRANCH  34  35
ATOM     35  C   UNL     1      -3.152 -24.155 -28.078  1.00  0.00    -0.075 C 
ATOM     36  C   UNL     1      -3.312 -25.046 -27.080  1.00  0.00     0.008 C 
BRANCH  35  37
ATOM     37  C   UNL     1      -2.415 -24.627 -29.333  1.00  0.00     0.008 C 
ATOM     38  C   UNL     1      -3.208 -25.629 -30.193  1.00  0.00     0.012 C 
ATOM     39  C   UNL     1      -2.001 -23.415 -30.180  1.00  0.00     0.012 C 
ENDBRANCH  35  37
ENDBRANCH  34  35
ENDBRANCH   1  34
TORSDOF 9
ENDMDL
MODEL 9
REMARK VINA RESULT:    -7.155      5.476      7.808
REMARK INTER + INTRA:         -11.763
REMARK INTER:                  -9.963
REMARK INTRA:                  -1.800
REMARK UNBOUND:                -1.052
REMARK SMILES C=C(CC[C@H](C(=O)[O-])[C@@H]1[C@H](O)C[C@]2(C)C3=C(CC[C@]12C)[C@]1(C)CC[C@@H](OC(C)=O)C(C)(C)[C@@H]1CC3)C(C)C
REMARK SMILES IDX 4 1 5 2 6 3 7 4 8 5 9 6 10 7 19 8 12 9 13 10 18 11 20 12
REMARK SMILES IDX 14 13 15 14 17 15 16 16 35 17 21 18 34 19 33 20 23 21 22 22
REMARK SMILES IDX 30 23 24 24 25 25 31 26 32 27 11 28 26 30 27 31 29 32 28 33
REMARK SMILES IDX 3 34 2 35 1 36 36 37 37 38 38 39
REMARK H PARENT 11 29
REMARK Flexibility Score: inf
ROOT
ATOM      1  C   UNL     1     -11.238 -17.771 -25.599  1.00  0.00     0.014 C 
ENDROOT
BRANCH   1   2
ATOM      2  C   UNL     1     -11.470 -18.880 -24.524  1.00  0.00     0.042 C 
BRANCH   2   3
ATOM      3  C   UNL     1     -12.071 -18.340 -23.246  1.00  0.00     0.045 C 
ATOM      4  O   UNL     1     -12.960 -18.988 -22.629  1.00  0.00    -0.550 OA
ATOM      5  O   UNL     1     -11.674 -17.096 -22.767  1.00  0.00    -0.550 OA
ENDBRANCH   2   3
BRANCH   2   6
ATOM      6  C   UNL     1     -10.252 -19.808 -24.160  1.00  0.00     0.033 C 
ATOM      7  C   UNL     1      -9.149 -19.222 -23.266  1.00  0.00     0.119 C 
ATOM      8  C   UNL     1      -9.530 -20.678 -25.240  1.00  0.00    -0.017 C 
ATOM      9  C   UNL     1      -7.957 -20.176 -23.398  1.00  0.00     0.043 C 
ATOM     10  C   UNL     1      -8.311 -21.277 -24.433  1.00  0.00    -0.003 C 
ATOM     11  C   UNL     1      -8.970 -19.846 -26.419  1.00  0.00     0.012 C 
ATOM     12  C   UNL     1     -10.514 -21.746 -25.802  1.00  0.00     0.013 C 
ATOM     13  C   UNL     1      -8.715 -22.587 -23.689  1.00  0.00     0.017 C 
ATOM     14  C   UNL     1      -7.054 -21.585 -25.277  1.00  0.00    -0.064 C 
ATOM     15  C   UNL     1      -8.111 -20.703 -27.351  1.00  0.00     0.032 C 
ATOM     16  C   UNL     1      -7.010 -21.463 -26.630  1.00  0.00    -0.064 C 
ATOM     17  C   UNL     1      -5.809 -22.063 -24.578  1.00  0.00     0.032 C 
ATOM     18  C   UNL     1      -5.812 -22.026 -27.458  1.00  0.00    -0.008 C 
ATOM     19  C   UNL     1      -5.397 -23.375 -25.205  1.00  0.00     0.009 C 
ATOM     20  C   UNL     1      -4.961 -23.146 -26.671  1.00  0.00     0.009 C 
ATOM     21  C   UNL     1      -6.365 -22.571 -28.816  1.00  0.00     0.015 C 
ATOM     22  C   UNL     1      -4.882 -20.826 -27.779  1.00  0.00     0.016 C 
ATOM     23  C   UNL     1      -4.754 -24.507 -27.438  1.00  0.00     0.005 C 
ATOM     24  C   UNL     1      -5.377 -23.372 -29.679  1.00  0.00     0.047 C 
ATOM     25  C   UNL     1      -4.331 -24.193 -28.899  1.00  0.00     0.182 C 
ATOM     26  C   UNL     1      -3.599 -25.319 -26.789  1.00  0.00     0.015 C 
ATOM     27  C   UNL     1      -6.026 -25.408 -27.409  1.00  0.00     0.015 C 
BRANCH   7  28
ATOM     28  O   UNL     1      -8.783 -17.929 -23.671  1.00  0.00    -0.393 OA
ATOM     29  H   UNL     1      -8.243 -17.544 -22.932  1.00  0.00     0.210 HD
ENDBRANCH   7  28
BRANCH  25  30
ATOM     30  O   UNL     1      -3.081 -23.489 -28.899  1.00  0.00    -0.462 OA
BRANCH  30  31
ATOM     31  C   UNL     1      -2.122 -23.606 -29.910  1.00  0.00     0.302 C 
ATOM     32  O   UNL     1      -1.936 -22.673 -30.740  1.00  0.00    -0.253 OA
ATOM     33  C   UNL     1      -1.335 -24.869 -30.026  1.00  0.00     0.139 C 
ENDBRANCH  30  31
ENDBRANCH  25  30
ENDBRANCH   2   6
ENDBRANCH   1   2
BRANCH   1  34
ATOM     34  C   UNL     1     -12.158 -17.812 -26.844  1.00  0.00     0.031 C 
BRANCH  34  35
ATOM     35  C   UNL     1     -11.521 -17.373 -28.164  1.00  0.00    -0.075 C 
ATOM     36  C   UNL     1     -11.323 -16.065 -28.421  1.00  0.00     0.008 C 
BRANCH  35  37
ATOM     37  C   UNL     1     -11.342 -18.354 -29.325  1.00  0.00     0.008 C 
ATOM     38  C   UNL     1      -9.918 -18.388 -29.911  1.00  0.00     0.012 C 
ATOM     39  C   UNL     1     -11.766 -19.762 -28.885  1.00  0.00     0.012 C 
ENDBRANCH  35  37
ENDBRANCH  34  35
ENDBRANCH   1  34
TORSDOF 9
ENDMDL
