MODEL 1
REMARK VINA RESULT:    -4.539      0.000      0.000
REMARK INTER + INTRA:          -4.539
REMARK INTER:                  -4.539
REMARK INTRA:                   0.000
REMARK UNBOUND:                 0.000
REMARK SMILES CC1=CC(=O)[C@@H]2C[C@H]1C2(C)C
REMARK SMILES IDX 1 1 2 2 3 3 4 4 5 5 6 6 7 7 8 8 9 9 10 10 11 11
REMARK H PARENT
REMARK Flexibility Score: inf
ROOT
ATOM      1  C   UNL     1      32.180  26.674 -12.643  1.00  0.00     0.040 C 
ATOM      2  C   UNL     1      32.349  28.158 -12.549  1.00  0.00    -0.066 C 
ATOM      3  C   UNL     1      31.392  29.028 -12.979  1.00  0.00     0.047 C 
ATOM      4  C   UNL     1      31.702  30.486 -12.818  1.00  0.00     0.159 C 
ATOM      5  O   UNL     1      30.883  31.386 -13.137  1.00  0.00    -0.295 OA
ATOM      6  C   UNL     1      33.083  30.801 -12.242  1.00  0.00     0.067 C 
ATOM      7  C   UNL     1      34.039  29.872 -13.022  1.00  0.00     0.021 C 
ATOM      8  C   UNL     1      33.656  28.772 -12.007  1.00  0.00     0.022 C 
ATOM      9  C   UNL     1      33.315  29.903 -10.994  1.00  0.00    -0.019 C 
ATOM     10  C   UNL     1      32.129  29.680 -10.014  1.00  0.00     0.012 C 
ATOM     11  C   UNL     1      34.550  30.347 -10.170  1.00  0.00     0.012 C 
ENDROOT
TORSDOF 0
ENDMDL
MODEL 2
REMARK VINA RESULT:    -4.489      1.764      3.103
REMARK INTER + INTRA:          -4.489
REMARK INTER:                  -4.489
REMARK INTRA:                   0.000
REMARK UNBOUND:                 0.000
REMARK SMILES CC1=CC(=O)[C@@H]2C[C@H]1C2(C)C
REMARK SMILES IDX 1 1 2 2 3 3 4 4 5 5 6 6 7 7 8 8 9 9 10 10 11 11
REMARK H PARENT
REMARK Flexibility Score: inf
ROOT
ATOM      1  C   UNL     1      30.876  31.267 -10.250  1.00  0.00     0.040 C 
ATOM      2  C   UNL     1      31.797  30.380 -11.030  1.00  0.00    -0.066 C 
ATOM      3  C   UNL     1      31.417  29.151 -11.476  1.00  0.00     0.047 C 
ATOM      4  C   UNL     1      32.446  28.378 -12.245  1.00  0.00     0.159 C 
ATOM      5  O   UNL     1      32.204  27.250 -12.747  1.00  0.00    -0.295 OA
ATOM      6  C   UNL     1      33.810  29.057 -12.375  1.00  0.00     0.067 C 
ATOM      7  C   UNL     1      34.112  29.575 -10.951  1.00  0.00     0.021 C 
ATOM      8  C   UNL     1      33.251  30.806 -11.312  1.00  0.00     0.022 C 
ATOM      9  C   UNL     1      33.589  30.534 -12.807  1.00  0.00    -0.019 C 
ATOM     10  C   UNL     1      32.499  30.836 -13.874  1.00  0.00     0.012 C 
ATOM     11  C   UNL     1      34.905  31.222 -13.249  1.00  0.00     0.012 C 
ENDROOT
TORSDOF 0
ENDMDL
MODEL 3
REMARK VINA RESULT:    -4.440     16.597     17.829
REMARK INTER + INTRA:          -4.440
REMARK INTER:                  -4.440
REMARK INTRA:                   0.000
REMARK UNBOUND:                 0.000
REMARK SMILES CC1=CC(=O)[C@@H]2C[C@H]1C2(C)C
REMARK SMILES IDX 1 1 2 2 3 3 4 4 5 5 6 6 7 7 8 8 9 9 10 10 11 11
REMARK H PARENT
REMARK Flexibility Score: inf
ROOT
ATOM      1  C   UNL     1      21.121  27.120 -24.205  1.00  0.00     0.040 C 
ATOM      2  C   UNL     1      21.033  25.627 -24.269  1.00  0.00    -0.066 C 
ATOM      3  C   UNL     1      20.085  24.985 -25.008  1.00  0.00     0.047 C 
ATOM      4  C   UNL     1      20.123  23.487 -24.975  1.00  0.00     0.159 C 
ATOM      5  O   UNL     1      19.329  22.780 -25.650  1.00  0.00    -0.295 OA
ATOM      6  C   UNL     1      21.191  22.879 -24.066  1.00  0.00     0.067 C 
ATOM      7  C   UNL     1      21.083  23.694 -22.759  1.00  0.00     0.021 C 
ATOM      8  C   UNL     1      21.989  24.744 -23.442  1.00  0.00     0.022 C 
ATOM      9  C   UNL     1      22.542  23.599 -24.340  1.00  0.00    -0.019 C 
ATOM     10  C   UNL     1      22.916  23.935 -25.812  1.00  0.00     0.012 C 
ATOM     11  C   UNL     1      23.743  22.867 -23.690  1.00  0.00     0.012 C 
ENDROOT
TORSDOF 0
ENDMDL
MODEL 4
REMARK VINA RESULT:    -4.433     10.092     11.610
REMARK INTER + INTRA:          -4.433
REMARK INTER:                  -4.433
REMARK INTRA:                   0.000
REMARK UNBOUND:                 0.000
REMARK SMILES CC1=CC(=O)[C@@H]2C[C@H]1C2(C)C
REMARK SMILES IDX 1 1 2 2 3 3 4 4 5 5 6 6 7 7 8 8 9 9 10 10 11 11
REMARK H PARENT
REMARK Flexibility Score: inf
ROOT
ATOM      1  C   UNL     1      23.464  27.272 -10.539  1.00  0.00     0.040 C 
ATOM      2  C   UNL     1      22.532  28.324 -11.054  1.00  0.00    -0.066 C 
ATOM      3  C   UNL     1      22.921  29.618 -11.230  1.00  0.00     0.047 C 
ATOM      4  C   UNL     1      21.877  30.557 -11.754  1.00  0.00     0.159 C 
ATOM      5  O   UNL     1      22.124  31.767 -12.000  1.00  0.00    -0.295 OA
ATOM      6  C   UNL     1      20.494  29.943 -11.969  1.00  0.00     0.067 C 
ATOM      7  C   UNL     1      20.242  29.121 -10.687  1.00  0.00     0.021 C 
ATOM      8  C   UNL     1      21.057  27.992 -11.356  1.00  0.00     0.022 C 
ATOM      9  C   UNL     1      20.662  28.599 -12.734  1.00  0.00    -0.019 C 
ATOM     10  C   UNL     1      21.697  28.532 -13.891  1.00  0.00     0.012 C 
ATOM     11  C   UNL     1      19.312  28.046 -13.256  1.00  0.00     0.012 C 
ENDROOT
TORSDOF 0
ENDMDL
MODEL 5
REMARK VINA RESULT:    -4.389      9.729     10.970
REMARK INTER + INTRA:          -4.389
REMARK INTER:                  -4.389
REMARK INTRA:                   0.000
REMARK UNBOUND:                 0.000
REMARK SMILES CC1=CC(=O)[C@@H]2C[C@H]1C2(C)C
REMARK SMILES IDX 1 1 2 2 3 3 4 4 5 5 6 6 7 7 8 8 9 9 10 10 11 11
REMARK H PARENT
REMARK Flexibility Score: inf
ROOT
ATOM      1  C   UNL     1      19.512  28.795 -10.055  1.00  0.00     0.040 C 
ATOM      2  C   UNL     1      20.659  28.749 -11.014  1.00  0.00    -0.066 C 
ATOM      3  C   UNL     1      20.484  28.540 -12.349  1.00  0.00     0.047 C 
ATOM      4  C   UNL     1      21.728  28.522 -13.185  1.00  0.00     0.159 C 
ATOM      5  O   UNL     1      21.695  28.381 -14.435  1.00  0.00    -0.295 OA
ATOM      6  C   UNL     1      23.037  28.684 -12.413  1.00  0.00     0.067 C 
ATOM      7  C   UNL     1      22.884  27.734 -11.205  1.00  0.00     0.021 C 
ATOM      8  C   UNL     1      22.112  28.880 -10.514  1.00  0.00     0.022 C 
ATOM      9  C   UNL     1      22.885  29.876 -11.426  1.00  0.00    -0.019 C 
ATOM     10  C   UNL     1      22.143  31.152 -11.917  1.00  0.00     0.012 C 
ATOM     11  C   UNL     1      24.240  30.309 -10.811  1.00  0.00     0.012 C 
ENDROOT
TORSDOF 0
ENDMDL
MODEL 6
REMARK VINA RESULT:    -4.320      2.277      3.517
REMARK INTER + INTRA:          -4.320
REMARK INTER:                  -4.320
REMARK INTRA:                   0.000
REMARK UNBOUND:                 0.000
REMARK SMILES CC1=CC(=O)[C@@H]2C[C@H]1C2(C)C
REMARK SMILES IDX 1 1 2 2 3 3 4 4 5 5 6 6 7 7 8 8 9 9 10 10 11 11
REMARK H PARENT
REMARK Flexibility Score: inf
ROOT
ATOM      1  C   UNL     1      30.583  28.718  -8.356  1.00  0.00     0.040 C 
ATOM      2  C   UNL     1      31.561  29.632  -9.024  1.00  0.00    -0.066 C 
ATOM      3  C   UNL     1      31.731  29.653 -10.376  1.00  0.00     0.047 C 
ATOM      4  C   UNL     1      32.746  30.623 -10.901  1.00  0.00     0.159 C 
ATOM      5  O   UNL     1      32.964  30.767 -12.132  1.00  0.00    -0.295 OA
ATOM      6  C   UNL     1      33.497  31.423  -9.837  1.00  0.00     0.067 C 
ATOM      7  C   UNL     1      33.887  30.369  -8.777  1.00  0.00     0.021 C 
ATOM      8  C   UNL     1      32.469  30.560  -8.193  1.00  0.00     0.022 C 
ATOM      9  C   UNL     1      32.464  31.985  -8.819  1.00  0.00    -0.019 C 
ATOM     10  C   UNL     1      31.119  32.544  -9.364  1.00  0.00     0.012 C 
ATOM     11  C   UNL     1      33.084  33.046  -7.875  1.00  0.00     0.012 C 
ENDROOT
TORSDOF 0
ENDMDL
MODEL 7
REMARK VINA RESULT:    -4.312      1.705      2.843
REMARK INTER + INTRA:          -4.312
REMARK INTER:                  -4.312
REMARK INTRA:                   0.000
REMARK UNBOUND:                 0.000
REMARK SMILES CC1=CC(=O)[C@@H]2C[C@H]1C2(C)C
REMARK SMILES IDX 1 1 2 2 3 3 4 4 5 5 6 6 7 7 8 8 9 9 10 10 11 11
REMARK H PARENT
REMARK Flexibility Score: inf
ROOT
ATOM      1  C   UNL     1      32.228  27.137 -12.694  1.00  0.00     0.040 C 
ATOM      2  C   UNL     1      32.538  28.484 -12.120  1.00  0.00    -0.066 C 
ATOM      3  C   UNL     1      33.743  29.093 -12.305  1.00  0.00     0.047 C 
ATOM      4  C   UNL     1      33.907  30.442 -11.671  1.00  0.00     0.159 C 
ATOM      5  O   UNL     1      34.956  31.124 -11.805  1.00  0.00    -0.295 OA
ATOM      6  C   UNL     1      32.712  30.928 -10.850  1.00  0.00     0.067 C 
ATOM      7  C   UNL     1      32.311  29.701 -10.003  1.00  0.00     0.021 C 
ATOM      8  C   UNL     1      31.513  29.221 -11.236  1.00  0.00     0.022 C 
ATOM      9  C   UNL     1      31.417  30.708 -11.684  1.00  0.00    -0.019 C 
ATOM     10  C   UNL     1      31.456  31.022 -13.206  1.00  0.00     0.012 C 
ATOM     11  C   UNL     1      30.192  31.431 -11.070  1.00  0.00     0.012 C 
ENDROOT
TORSDOF 0
ENDMDL
MODEL 8
REMARK VINA RESULT:    -4.297     15.799     17.578
REMARK INTER + INTRA:          -4.297
REMARK INTER:                  -4.297
REMARK INTRA:                   0.000
REMARK UNBOUND:                 0.000
REMARK SMILES CC1=CC(=O)[C@@H]2C[C@H]1C2(C)C
REMARK SMILES IDX 1 1 2 2 3 3 4 4 5 5 6 6 7 7 8 8 9 9 10 10 11 11
REMARK H PARENT
REMARK Flexibility Score: inf
ROOT
ATOM      1  C   UNL     1      24.784  22.880 -24.924  1.00  0.00     0.040 C 
ATOM      2  C   UNL     1      23.429  23.260 -24.417  1.00  0.00    -0.066 C 
ATOM      3  C   UNL     1      23.256  24.012 -23.294  1.00  0.00     0.047 C 
ATOM      4  C   UNL     1      21.839  24.314 -22.910  1.00  0.00     0.159 C 
ATOM      5  O   UNL     1      21.550  25.034 -21.919  1.00  0.00    -0.295 OA
ATOM      6  C   UNL     1      20.771  23.687 -23.806  1.00  0.00     0.067 C 
ATOM      7  C   UNL     1      21.244  22.228 -23.993  1.00  0.00     0.021 C 
ATOM      8  C   UNL     1      22.152  22.761 -25.124  1.00  0.00     0.022 C 
ATOM      9  C   UNL     1      21.157  23.945 -25.291  1.00  0.00    -0.019 C 
ATOM     10  C   UNL     1      21.729  25.339 -25.674  1.00  0.00     0.012 C 
ATOM     11  C   UNL     1      20.000  23.610 -26.267  1.00  0.00     0.012 C 
ENDROOT
TORSDOF 0
ENDMDL
MODEL 9
REMARK VINA RESULT:    -4.280      1.803      2.860
REMARK INTER + INTRA:          -4.280
REMARK INTER:                  -4.280
REMARK INTRA:                   0.000
REMARK UNBOUND:                 0.000
REMARK SMILES CC1=CC(=O)[C@@H]2C[C@H]1C2(C)C
REMARK SMILES IDX 1 1 2 2 3 3 4 4 5 5 6 6 7 7 8 8 9 9 10 10 11 11
REMARK H PARENT
REMARK Flexibility Score: inf
ROOT
ATOM      1  C   UNL     1      31.521  30.637 -14.901  1.00  0.00     0.040 C 
ATOM      2  C   UNL     1      32.315  30.389 -13.657  1.00  0.00    -0.066 C 
ATOM      3  C   UNL     1      33.408  31.135 -13.330  1.00  0.00     0.047 C 
ATOM      4  C   UNL     1      34.100  30.770 -12.052  1.00  0.00     0.159 C 
ATOM      5  O   UNL     1      35.094  31.410 -11.619  1.00  0.00    -0.295 OA
ATOM      6  C   UNL     1      33.516  29.567 -11.312  1.00  0.00     0.067 C 
ATOM      7  C   UNL     1      33.296  28.513 -12.419  1.00  0.00     0.021 C 
ATOM      8  C   UNL     1      31.957  29.226 -12.710  1.00  0.00     0.022 C 
ATOM      9  C   UNL     1      31.971  29.733 -11.239  1.00  0.00    -0.019 C 
ATOM     10  C   UNL     1      31.393  31.146 -10.942  1.00  0.00     0.012 C 
ATOM     11  C   UNL     1      31.315  28.725 -10.262  1.00  0.00     0.012 C 
ENDROOT
TORSDOF 0
ENDMDL
