MODEL 1
REMARK VINA RESULT:    -2.004      0.000      0.000
REMARK INTER + INTRA:          -4.030
REMARK INTER:                  -2.472
REMARK INTRA:                  -1.558
REMARK UNBOUND:                -1.558
REMARK SMILES CC(C)=CCC[C@H](C)c1ccc(C)cc1
REMARK SMILES IDX 6 1 7 2 8 3 9 4 13 5 12 6 11 7 14 8 10 9 15 10 5 11 4 12
REMARK SMILES IDX 2 13 1 14 3 15
REMARK H PARENT
REMARK Flexibility Score: inf
ROOT
ATOM      1  C   UNL     1       1.606 -11.801  23.733  1.00  0.00     0.012 C 
ENDROOT
BRANCH   1   2
ATOM      2  C   UNL     1       0.902 -10.438  23.545  1.00  0.00     0.016 C 
ATOM      3  C   UNL     1       1.268  -9.772  22.209  1.00  0.00     0.013 C 
BRANCH   2   4
ATOM      4  C   UNL     1       1.225  -9.511  24.703  1.00  0.00    -0.045 A 
ATOM      5  C   UNL     1       2.161  -6.852  27.976  1.00  0.00     0.044 C 
ATOM      6  C   UNL     1       1.807  -7.768  26.843  1.00  0.00    -0.051 A 
ATOM      7  C   UNL     1       1.813  -7.296  25.522  1.00  0.00     0.004 A 
ATOM      8  C   UNL     1       1.532  -9.122  27.087  1.00  0.00     0.004 A 
ATOM      9  C   UNL     1       1.518  -8.157  24.462  1.00  0.00     0.004 A 
ATOM     10  C   UNL     1       1.236  -9.984  26.028  1.00  0.00     0.004 A 
ENDBRANCH   2   4
ENDBRANCH   1   2
BRANCH   1  11
ATOM     11  C   UNL     1       3.099 -11.750  23.375  1.00  0.00     0.028 C 
BRANCH  11  12
ATOM     12  C   UNL     1       3.948 -12.023  24.591  1.00  0.00    -0.028 C 
ATOM     13  C   UNL     1       4.762 -11.114  25.174  1.00  0.00    -0.080 C 
ATOM     14  C   UNL     1       4.855  -9.689  24.680  1.00  0.00     0.039 C 
ATOM     15  C   UNL     1       5.584 -11.542  26.363  1.00  0.00     0.039 C 
ENDBRANCH  11  12
ENDBRANCH   1  11
TORSDOF 4
ENDMDL
MODEL 2
REMARK VINA RESULT:    -1.977      1.360      2.489
REMARK INTER + INTRA:          -3.997
REMARK INTER:                  -2.437
REMARK INTRA:                  -1.559
REMARK UNBOUND:                -1.558
REMARK SMILES CC(C)=CCC[C@H](C)c1ccc(C)cc1
REMARK SMILES IDX 6 1 7 2 8 3 9 4 13 5 12 6 11 7 14 8 10 9 15 10 5 11 4 12
REMARK SMILES IDX 2 13 1 14 3 15
REMARK H PARENT
REMARK Flexibility Score: inf
ROOT
ATOM      1  C   UNL     1       2.437 -11.959  27.242  1.00  0.00     0.012 C 
ENDROOT
BRANCH   1   2
ATOM      2  C   UNL     1       1.366 -11.422  26.266  1.00  0.00     0.016 C 
ATOM      3  C   UNL     1       1.447 -12.092  24.886  1.00  0.00     0.013 C 
BRANCH   2   4
ATOM      4  C   UNL     1       1.481  -9.914  26.130  1.00  0.00    -0.045 A 
ATOM      5  C   UNL     1       1.802  -5.622  25.778  1.00  0.00     0.044 C 
ATOM      6  C   UNL     1       1.721  -7.114  25.896  1.00  0.00    -0.051 A 
ATOM      7  C   UNL     1       1.826  -7.732  27.150  1.00  0.00     0.004 A 
ATOM      8  C   UNL     1       1.471  -7.900  24.761  1.00  0.00     0.004 A 
ATOM      9  C   UNL     1       1.714  -9.120  27.266  1.00  0.00     0.004 A 
ATOM     10  C   UNL     1       1.360  -9.289  24.875  1.00  0.00     0.004 A 
ENDBRANCH   2   4
ENDBRANCH   1   2
BRANCH   1  11
ATOM     11  C   UNL     1       3.813 -12.124  26.578  1.00  0.00     0.028 C 
BRANCH  11  12
ATOM     12  C   UNL     1       4.785 -11.098  27.104  1.00  0.00    -0.028 C 
ATOM     13  C   UNL     1       5.298 -10.085  26.371  1.00  0.00    -0.080 C 
ATOM     14  C   UNL     1       4.891  -9.851  24.934  1.00  0.00     0.039 C 
ATOM     15  C   UNL     1       6.293  -9.158  27.020  1.00  0.00     0.039 C 
ENDBRANCH  11  12
ENDBRANCH   1  11
TORSDOF 4
ENDMDL
MODEL 3
REMARK VINA RESULT:    -1.955      1.378      4.699
REMARK INTER + INTRA:          -3.969
REMARK INTER:                  -2.409
REMARK INTRA:                  -1.560
REMARK UNBOUND:                -1.558
REMARK SMILES CC(C)=CCC[C@H](C)c1ccc(C)cc1
REMARK SMILES IDX 6 1 7 2 8 3 9 4 13 5 12 6 11 7 14 8 10 9 15 10 5 11 4 12
REMARK SMILES IDX 2 13 1 14 3 15
REMARK H PARENT
REMARK Flexibility Score: inf
ROOT
ATOM      1  C   UNL     1       1.983 -11.209  27.141  1.00  0.00     0.012 C 
ENDROOT
BRANCH   1   2
ATOM      2  C   UNL     1       2.784 -12.125  26.186  1.00  0.00     0.016 C 
ATOM      3  C   UNL     1       4.297 -12.049  26.439  1.00  0.00     0.013 C 
BRANCH   2   4
ATOM      4  C   UNL     1       2.471 -11.784  24.740  1.00  0.00    -0.045 A 
ATOM      5  C   UNL     1       1.617 -10.802  20.622  1.00  0.00     0.044 C 
ATOM      6  C   UNL     1       1.910 -11.172  22.045  1.00  0.00    -0.051 A 
ATOM      7  C   UNL     1       3.228 -11.413  22.457  1.00  0.00     0.004 A 
ATOM      8  C   UNL     1       0.875 -11.214  22.992  1.00  0.00     0.004 A 
ATOM      9  C   UNL     1       3.507 -11.723  23.791  1.00  0.00     0.004 A 
ATOM     10  C   UNL     1       1.152 -11.524  24.326  1.00  0.00     0.004 A 
ENDBRANCH   2   4
ENDBRANCH   1   2
BRANCH   1  11
ATOM     11  C   UNL     1       2.676  -9.859  27.385  1.00  0.00     0.028 C 
BRANCH  11  12
ATOM     12  C   UNL     1       2.042  -8.776  26.549  1.00  0.00    -0.028 C 
ATOM     13  C   UNL     1       2.671  -8.114  25.553  1.00  0.00    -0.080 C 
ATOM     14  C   UNL     1       4.086  -8.444  25.140  1.00  0.00     0.039 C 
ATOM     15  C   UNL     1       1.922  -7.024  24.829  1.00  0.00     0.039 C 
ENDBRANCH  11  12
ENDBRANCH   1  11
TORSDOF 4
ENDMDL
MODEL 4
REMARK VINA RESULT:    -1.915      1.396      3.932
REMARK INTER + INTRA:          -3.920
REMARK INTER:                  -2.362
REMARK INTRA:                  -1.558
REMARK UNBOUND:                -1.558
REMARK SMILES CC(C)=CCC[C@H](C)c1ccc(C)cc1
REMARK SMILES IDX 6 1 7 2 8 3 9 4 13 5 12 6 11 7 14 8 10 9 15 10 5 11 4 12
REMARK SMILES IDX 2 13 1 14 3 15
REMARK H PARENT
REMARK Flexibility Score: inf
ROOT
ATOM      1  C   UNL     1       2.153  -9.392  27.032  1.00  0.00     0.012 C 
ENDROOT
BRANCH   1   2
ATOM      2  C   UNL     1       1.230 -10.492  26.459  1.00  0.00     0.016 C 
ATOM      3  C   UNL     1       1.687 -11.903  26.859  1.00  0.00     0.013 C 
BRANCH   2   4
ATOM      4  C   UNL     1       1.141 -10.373  24.947  1.00  0.00    -0.045 A 
ATOM      5  C   UNL     1       0.875 -10.002  20.653  1.00  0.00     0.044 C 
ATOM      6  C   UNL     1       0.998 -10.131  22.141  1.00  0.00    -0.051 A 
ATOM      7  C   UNL     1       1.036  -8.986  22.950  1.00  0.00     0.004 A 
ATOM      8  C   UNL     1       1.008 -11.398  22.743  1.00  0.00     0.004 A 
ATOM      9  C   UNL     1       1.114  -9.105  24.341  1.00  0.00     0.004 A 
ATOM     10  C   UNL     1       1.086 -11.519  24.132  1.00  0.00     0.004 A 
ENDBRANCH   2   4
ENDBRANCH   1   2
BRANCH   1  11
ATOM     11  C   UNL     1       3.630  -9.815  27.061  1.00  0.00     0.028 C 
BRANCH  11  12
ATOM     12  C   UNL     1       4.382  -9.203  25.906  1.00  0.00    -0.028 C 
ATOM     13  C   UNL     1       4.899  -9.905  24.873  1.00  0.00    -0.080 C 
ATOM     14  C   UNL     1       4.720 -11.400  24.752  1.00  0.00     0.039 C 
ATOM     15  C   UNL     1       5.663  -9.160  23.809  1.00  0.00     0.039 C 
ENDBRANCH  11  12
ENDBRANCH   1  11
TORSDOF 4
ENDMDL
MODEL 5
REMARK VINA RESULT:    -1.886      1.394      2.703
REMARK INTER + INTRA:          -3.884
REMARK INTER:                  -2.455
REMARK INTRA:                  -1.429
REMARK UNBOUND:                -1.558
REMARK SMILES CC(C)=CCC[C@H](C)c1ccc(C)cc1
REMARK SMILES IDX 6 1 7 2 8 3 9 4 13 5 12 6 11 7 14 8 10 9 15 10 5 11 4 12
REMARK SMILES IDX 2 13 1 14 3 15
REMARK H PARENT
REMARK Flexibility Score: inf
ROOT
ATOM      1  C   UNL     1       3.521 -12.065  26.848  1.00  0.00     0.012 C 
ENDROOT
BRANCH   1   2
ATOM      2  C   UNL     1       2.097 -11.536  27.134  1.00  0.00     0.016 C 
ATOM      3  C   UNL     1       1.061 -12.083  26.140  1.00  0.00     0.013 C 
BRANCH   2   4
ATOM      4  C   UNL     1       2.086 -10.017  27.127  1.00  0.00    -0.045 A 
ATOM      5  C   UNL     1       2.044  -5.699  27.072  1.00  0.00     0.044 C 
ATOM      6  C   UNL     1       2.035  -7.197  27.111  1.00  0.00    -0.051 A 
ATOM      7  C   UNL     1       1.271  -7.925  26.188  1.00  0.00     0.004 A 
ATOM      8  C   UNL     1       2.845  -7.886  28.027  1.00  0.00     0.004 A 
ATOM      9  C   UNL     1       1.289  -9.323  26.200  1.00  0.00     0.004 A 
ATOM     10  C   UNL     1       2.865  -9.283  28.040  1.00  0.00     0.004 A 
ENDBRANCH   2   4
ENDBRANCH   1   2
BRANCH   1  11
ATOM     11  C   UNL     1       3.839 -12.125  25.346  1.00  0.00     0.028 C 
BRANCH  11  12
ATOM     12  C   UNL     1       4.473 -10.836  24.884  1.00  0.00    -0.028 C 
ATOM     13  C   UNL     1       4.030 -10.098  23.842  1.00  0.00    -0.080 C 
ATOM     14  C   UNL     1       2.795 -10.478  23.058  1.00  0.00     0.039 C 
ATOM     15  C   UNL     1       4.790  -8.851  23.469  1.00  0.00     0.039 C 
ENDBRANCH  11  12
ENDBRANCH   1  11
TORSDOF 4
ENDMDL
MODEL 6
REMARK VINA RESULT:    -1.866      1.499      4.430
REMARK INTER + INTRA:          -3.860
REMARK INTER:                  -2.390
REMARK INTRA:                  -1.470
REMARK UNBOUND:                -1.558
REMARK SMILES CC(C)=CCC[C@H](C)c1ccc(C)cc1
REMARK SMILES IDX 6 1 7 2 8 3 9 4 13 5 12 6 11 7 14 8 10 9 15 10 5 11 4 12
REMARK SMILES IDX 2 13 1 14 3 15
REMARK H PARENT
REMARK Flexibility Score: inf
ROOT
ATOM      1  C   UNL     1       1.208 -10.353  25.941  1.00  0.00     0.012 C 
ENDROOT
BRANCH   1   2
ATOM      2  C   UNL     1       2.199 -10.851  24.864  1.00  0.00     0.016 C 
ATOM      3  C   UNL     1       1.704 -12.124  24.161  1.00  0.00     0.013 C 
BRANCH   2   4
ATOM      4  C   UNL     1       3.570 -11.082  25.474  1.00  0.00    -0.045 A 
ATOM      5  C   UNL     1       7.486 -11.735  27.174  1.00  0.00     0.044 C 
ATOM      6  C   UNL     1       6.125 -11.482  26.599  1.00  0.00    -0.051 A 
ATOM      7  C   UNL     1       5.986 -10.799  25.383  1.00  0.00     0.004 A 
ATOM      8  C   UNL     1       4.982 -11.987  27.239  1.00  0.00     0.004 A 
ATOM      9  C   UNL     1       4.720 -10.594  24.828  1.00  0.00     0.004 A 
ATOM     10  C   UNL     1       3.716 -11.782  26.685  1.00  0.00     0.004 A 
ENDBRANCH   2   4
ENDBRANCH   1   2
BRANCH   1  11
ATOM     11  C   UNL     1       1.407  -8.869  26.287  1.00  0.00     0.028 C 
BRANCH  11  12
ATOM     12  C   UNL     1       1.744  -8.704  27.747  1.00  0.00    -0.028 C 
ATOM     13  C   UNL     1       2.952  -8.316  28.213  1.00  0.00    -0.080 C 
ATOM     14  C   UNL     1       4.088  -7.950  27.286  1.00  0.00     0.039 C 
ATOM     15  C   UNL     1       3.156  -8.234  29.704  1.00  0.00     0.039 C 
ENDBRANCH  11  12
ENDBRANCH   1  11
TORSDOF 4
ENDMDL
