MODEL 1
REMARK VINA RESULT:     0.000      0.000      0.000
REMARK INTER + INTRA:          -3.637
REMARK INTER:                   0.000
REMARK INTRA:                  -3.637
REMARK UNBOUND:                -3.637
REMARK SMILES COc1ccc([C@H]2CC(=O)c3c(O)cc(O[C@H]4O[C@@H](CO[C@H]5O[C@H](C)[C@H](O)[C@@H](O)[C@@H]5O)[C@@H](O)[C@@H](O)[C@@H]4O)cc3O2)cc1O
REMARK SMILES IDX 19 1 32 2 34 3 36 4 17 5 18 6 20 7 21 8 22 9 25 10 24 11
REMARK SMILES IDX 26 12 23 13 28 14 30 15 27 16 29 18 31 20 33 22 35 24 16 26
REMARK SMILES IDX 15 27 14 28 38 29 12 30 39 31 11 32 40 33 9 34 7 35 10 36
REMARK SMILES IDX 8 37 13 38 6 40 41 41 5 42 42 43 4 44 3 45 43 46 2 48 1 49
REMARK SMILES IDX 37 50
REMARK H PARENT 27 17 29 19 31 21 33 23 35 25 13 39 43 47 37 51
REMARK Flexibility Score: inf
ROOT
ATOM      1  C   UNL     1      11.441  14.624  51.632  1.00  0.00     0.180 C 
ATOM      2  C   UNL     1      10.434  13.918  50.668  1.00  0.00     0.177 C 
ATOM      3  C   UNL     1      11.080  13.376  49.349  1.00  0.00     0.180 C 
ATOM      4  C   UNL     1      12.629  13.521  49.311  1.00  0.00     0.214 C 
ATOM      5  C   UNL     1      13.233  14.865  49.913  1.00  0.00     0.339 C 
ATOM      6  O   UNL     1      12.535  15.360  51.057  1.00  0.00    -0.332 OA
ENDROOT
BRANCH   1   7
ATOM      7  C   UNL     1      10.822  15.404  52.852  1.00  0.00     0.198 C 
BRANCH   7   8
ATOM      8  O   UNL     1       9.666  14.921  53.482  1.00  0.00    -0.347 OA
BRANCH   8   9
ATOM      9  C   UNL     1       8.700  15.887  53.907  1.00  0.00     0.281 C 
ATOM     10  C   UNL     1       9.684  18.032  55.804  1.00  0.00     0.041 C 
ATOM     11  C   UNL     1       8.769  18.132  54.581  1.00  0.00     0.150 C 
ATOM     12  C   UNL     1       7.223  17.955  54.834  1.00  0.00     0.174 C 
ATOM     13  O   UNL     1       9.234  17.159  53.633  1.00  0.00    -0.344 OA
ATOM     14  C   UNL     1       6.536  17.164  53.623  1.00  0.00     0.179 C 
ATOM     15  C   UNL     1       7.336  15.850  53.238  1.00  0.00     0.202 C 
BRANCH  12  16
ATOM     16  O   UNL     1       7.029  17.297  56.041  1.00  0.00    -0.388 OA
ATOM     17  H   UNL     1       6.282  16.627  55.981  1.00  0.00     0.211 HD
ENDBRANCH  12  16
BRANCH  14  18
ATOM     18  O   UNL     1       6.460  17.982  52.484  1.00  0.00    -0.387 OA
ATOM     19  H   UNL     1       7.275  18.529  52.452  1.00  0.00     0.211 HD
ENDBRANCH  14  18
BRANCH  15  20
ATOM     20  O   UNL     1       6.606  14.723  53.652  1.00  0.00    -0.385 OA
ATOM     21  H   UNL     1       6.041  14.454  52.883  1.00  0.00     0.211 HD
ENDBRANCH  15  20
ENDBRANCH   8   9
ENDBRANCH   7   8
ENDBRANCH   1   7
BRANCH   2  22
ATOM     22  O   UNL     1       9.295  14.691  50.372  1.00  0.00    -0.387 OA
ATOM     23  H   UNL     1       8.723  14.197  49.752  1.00  0.00     0.211 HD
ENDBRANCH   2  22
BRANCH   3  24
ATOM     24  O   UNL     1      10.404  13.908  48.217  1.00  0.00    -0.387 OA
ATOM     25  H   UNL     1      10.251  14.899  48.325  1.00  0.00     0.211 HD
ENDBRANCH   3  24
BRANCH   5  26
ATOM     26  O   UNL     1      13.338  15.946  48.947  1.00  0.00    -0.462 OA
BRANCH  26  27
ATOM     27  C   UNL     1      12.564  17.113  48.980  1.00  0.00     0.130 A 
ATOM     28  C   UNL     1      11.232  17.162  48.490  1.00  0.00     0.093 A 
ATOM     29  C   UNL     1      13.013  18.224  49.711  1.00  0.00     0.094 A 
ATOM     30  C   UNL     1      10.287  18.057  49.005  1.00  0.00     0.133 A 
ATOM     31  C   UNL     1      12.076  18.948  50.448  1.00  0.00     0.138 A 
ATOM     32  C   UNL     1      10.687  18.920  50.096  1.00  0.00     0.102 A 
ATOM     33  O   UNL     1      12.480  19.560  51.644  1.00  0.00    -0.484 OA
ATOM     34  C   UNL     1       9.738  19.590  51.072  1.00  0.00     0.174 C 
ATOM     35  C   UNL     1      11.520  19.670  52.709  1.00  0.00     0.211 C 
ATOM     36  O   UNL     1       8.509  19.373  51.046  1.00  0.00    -0.294 OA
ATOM     37  C   UNL     1      10.324  20.476  52.172  1.00  0.00     0.131 C 
BRANCH  30  38
ATOM     38  O   UNL     1       9.012  18.061  48.458  1.00  0.00    -0.507 OA
ATOM     39  H   UNL     1       8.843  18.011  47.453  1.00  0.00     0.293 HD
ENDBRANCH  30  38
BRANCH  35  40
ATOM     40  C   UNL     1      12.173  20.183  53.962  1.00  0.00    -0.003 A 
ATOM     41  C   UNL     1      11.485  21.185  54.708  1.00  0.00     0.057 A 
ATOM     42  C   UNL     1      13.187  19.466  54.577  1.00  0.00     0.011 A 
ATOM     43  C   UNL     1      11.695  21.340  56.094  1.00  0.00     0.158 A 
ATOM     44  C   UNL     1      13.425  19.650  55.957  1.00  0.00     0.051 A 
ATOM     45  C   UNL     1      12.657  20.549  56.721  1.00  0.00     0.160 A 
BRANCH  43  46
ATOM     46  O   UNL     1      10.888  22.194  56.838  1.00  0.00    -0.504 OA
ATOM     47  H   UNL     1       9.917  22.399  56.587  1.00  0.00     0.293 HD
ENDBRANCH  43  46
BRANCH  45  48
ATOM     48  O   UNL     1      12.818  20.603  58.126  1.00  0.00    -0.493 OA
ATOM     49  C   UNL     1      12.207  19.651  59.013  1.00  0.00     0.278 C 
ENDBRANCH  45  48
ENDBRANCH  35  40
ENDBRANCH  26  27
ENDBRANCH   5  26
BRANCH   4  50
ATOM     50  O   UNL     1      13.258  12.425  49.953  1.00  0.00    -0.384 OA
ATOM     51  H   UNL     1      12.609  12.071  50.609  1.00  0.00     0.211 HD
ENDBRANCH   4  50
TORSDOF 15
ENDMDL
MODEL 2
REMARK VINA RESULT:     0.000      3.706      6.213
REMARK INTER + INTRA:          -3.637
REMARK INTER:                   0.000
REMARK INTRA:                  -3.637
REMARK UNBOUND:                -3.637
REMARK SMILES COc1ccc([C@H]2CC(=O)c3c(O)cc(O[C@H]4O[C@@H](CO[C@H]5O[C@H](C)[C@H](O)[C@@H](O)[C@@H]5O)[C@@H](O)[C@@H](O)[C@@H]4O)cc3O2)cc1O
REMARK SMILES IDX 19 1 32 2 34 3 36 4 17 5 18 6 20 7 21 8 22 9 25 10 24 11
REMARK SMILES IDX 26 12 23 13 28 14 30 15 27 16 29 18 31 20 33 22 35 24 16 26
REMARK SMILES IDX 15 27 14 28 38 29 12 30 39 31 11 32 40 33 9 34 7 35 10 36
REMARK SMILES IDX 8 37 13 38 6 40 41 41 5 42 42 43 4 44 3 45 43 46 2 48 1 49
REMARK SMILES IDX 37 50
REMARK H PARENT 27 17 29 19 31 21 33 23 35 25 13 39 43 47 37 51
REMARK Flexibility Score: inf
ROOT
ATOM      1  C   UNL     1      10.479  16.655  46.365  1.00  0.00     0.180 C 
ATOM      2  C   UNL     1       9.487  17.541  45.545  1.00  0.00     0.177 C 
ATOM      3  C   UNL     1      10.143  18.802  44.890  1.00  0.00     0.180 C 
ATOM      4  C   UNL     1      11.689  18.859  45.064  1.00  0.00     0.214 C 
ATOM      5  C   UNL     1      12.264  18.395  46.474  1.00  0.00     0.339 C 
ATOM      6  O   UNL     1      11.556  17.304  47.065  1.00  0.00    -0.332 OA
ENDROOT
BRANCH   1   7
ATOM      7  C   UNL     1       9.844  15.516  47.249  1.00  0.00     0.198 C 
BRANCH   7   8
ATOM      8  O   UNL     1       8.699  14.839  46.806  1.00  0.00    -0.347 OA
BRANCH   8   9
ATOM      9  C   UNL     1       7.713  14.507  47.787  1.00  0.00     0.281 C 
ATOM     10  C   UNL     1       8.652  12.836  50.131  1.00  0.00     0.041 C 
ATOM     11  C   UNL     1       7.734  14.060  50.089  1.00  0.00     0.150 C 
ATOM     12  C   UNL     1       6.192  13.785  49.905  1.00  0.00     0.174 C 
ATOM     13  O   UNL     1       8.219  14.908  49.037  1.00  0.00    -0.344 OA
ATOM     14  C   UNL     1       5.522  14.909  48.983  1.00  0.00     0.179 C 
ATOM     15  C   UNL     1       6.349  15.165  47.654  1.00  0.00     0.202 C 
BRANCH  12  16
ATOM     16  O   UNL     1       6.014  12.518  49.366  1.00  0.00    -0.388 OA
ATOM     17  H   UNL     1       6.893  12.072  49.171  1.00  0.00     0.211 HD
ENDBRANCH  12  16
BRANCH  14  18
ATOM     18  O   UNL     1       5.426  16.123  49.682  1.00  0.00    -0.387 OA
ATOM     19  H   UNL     1       6.299  16.570  49.630  1.00  0.00     0.211 HD
ENDBRANCH  14  18
BRANCH  15  20
ATOM     20  O   UNL     1       5.645  14.638  46.559  1.00  0.00    -0.385 OA
ATOM     21  H   UNL     1       4.985  13.998  46.928  1.00  0.00     0.211 HD
ENDBRANCH  15  20
ENDBRANCH   8   9
ENDBRANCH   7   8
ENDBRANCH   1   7
BRANCH   2  22
ATOM     22  O   UNL     1       8.330  17.909  46.260  1.00  0.00    -0.387 OA
ATOM     23  H   UNL     1       7.582  17.352  45.969  1.00  0.00     0.211 HD
ENDBRANCH   2  22
BRANCH   3  24
ATOM     24  O   UNL     1       9.454  19.979  45.292  1.00  0.00    -0.387 OA
ATOM     25  H   UNL     1       8.680  19.751  45.898  1.00  0.00     0.211 HD
ENDBRANCH   3  24
BRANCH   5  26
ATOM     26  O   UNL     1      12.343  19.464  47.456  1.00  0.00    -0.462 OA
BRANCH  26  27
ATOM     27  C   UNL     1      11.543  19.544  48.604  1.00  0.00     0.130 A 
ATOM     28  C   UNL     1      10.210  20.032  48.574  1.00  0.00     0.093 A 
ATOM     29  C   UNL     1      11.968  18.929  49.791  1.00  0.00     0.094 A 
ATOM     30  C   UNL     1       9.246  19.605  49.494  1.00  0.00     0.133 A 
ATOM     31  C   UNL     1      11.016  18.264  50.564  1.00  0.00     0.138 A 
ATOM     32  C   UNL     1       9.628  18.606  50.470  1.00  0.00     0.102 A 
ATOM     33  O   UNL     1      11.408  17.136  51.301  1.00  0.00    -0.484 OA
ATOM     34  C   UNL     1       8.665  17.699  51.213  1.00  0.00     0.174 C 
ATOM     35  C   UNL     1      10.448  16.084  51.494  1.00  0.00     0.211 C 
ATOM     36  O   UNL     1       7.441  17.699  50.968  1.00  0.00    -0.294 OA
ATOM     37  C   UNL     1       9.233  16.694  52.216  1.00  0.00     0.131 C 
BRANCH  30  38
ATOM     38  O   UNL     1       7.970  20.145  49.416  1.00  0.00    -0.507 OA
ATOM     39  H   UNL     1       7.311  20.118  50.194  1.00  0.00     0.293 HD
ENDBRANCH  30  38
BRANCH  35  40
ATOM     40  C   UNL     1      11.091  14.890  52.144  1.00  0.00    -0.003 A 
ATOM     41  C   UNL     1      10.381  14.245  53.199  1.00  0.00     0.057 A 
ATOM     42  C   UNL     1      12.121  14.211  51.514  1.00  0.00     0.011 A 
ATOM     43  C   UNL     1      10.590  12.882  53.496  1.00  0.00     0.158 A 
ATOM     44  C   UNL     1      12.357  12.857  51.839  1.00  0.00     0.051 A 
ATOM     45  C   UNL     1      11.571  12.183  52.792  1.00  0.00     0.160 A 
BRANCH  43  46
ATOM     46  O   UNL     1       9.766  12.224  54.401  1.00  0.00    -0.504 OA
ATOM     47  H   UNL     1       9.986  12.144  55.398  1.00  0.00     0.293 HD
ENDBRANCH  43  46
BRANCH  45  48
ATOM     48  O   UNL     1      11.732  10.791  52.989  1.00  0.00    -0.493 OA
ATOM     49  C   UNL     1      11.143   9.811  52.117  1.00  0.00     0.278 C 
ENDBRANCH  45  48
ENDBRANCH  35  40
ENDBRANCH  26  27
ENDBRANCH   5  26
BRANCH   4  50
ATOM     50  O   UNL     1      12.342  18.114  44.052  1.00  0.00    -0.384 OA
ATOM     51  H   UNL     1      12.760  18.770  43.442  1.00  0.00     0.211 HD
ENDBRANCH   4  50
TORSDOF 15
ENDMDL
MODEL 3
REMARK VINA RESULT:     0.000      2.331      4.562
REMARK INTER + INTRA:          -3.637
REMARK INTER:                   0.000
REMARK INTRA:                  -3.637
REMARK UNBOUND:                -3.637
REMARK SMILES COc1ccc([C@H]2CC(=O)c3c(O)cc(O[C@H]4O[C@@H](CO[C@H]5O[C@H](C)[C@H](O)[C@@H](O)[C@@H]5O)[C@@H](O)[C@@H](O)[C@@H]4O)cc3O2)cc1O
REMARK SMILES IDX 19 1 32 2 34 3 36 4 17 5 18 6 20 7 21 8 22 9 25 10 24 11
REMARK SMILES IDX 26 12 23 13 28 14 30 15 27 16 29 18 31 20 33 22 35 24 16 26
REMARK SMILES IDX 15 27 14 28 38 29 12 30 39 31 11 32 40 33 9 34 7 35 10 36
REMARK SMILES IDX 8 37 13 38 6 40 41 41 5 42 42 43 4 44 3 45 43 46 2 48 1 49
REMARK SMILES IDX 37 50
REMARK H PARENT 27 17 29 19 31 21 33 23 35 25 13 39 43 47 37 51
REMARK Flexibility Score: inf
ROOT
ATOM      1  C   UNL     1       7.347  16.322  52.094  1.00  0.00     0.180 C 
ATOM      2  C   UNL     1       6.076  16.136  51.204  1.00  0.00     0.177 C 
ATOM      3  C   UNL     1       5.741  14.645  50.868  1.00  0.00     0.180 C 
ATOM      4  C   UNL     1       6.657  13.622  51.600  1.00  0.00     0.214 C 
ATOM      5  C   UNL     1       8.197  14.006  51.723  1.00  0.00     0.339 C 
ATOM      6  O   UNL     1       8.438  15.399  51.929  1.00  0.00    -0.332 OA
ENDROOT
BRANCH   1   7
ATOM      7  C   UNL     1       7.881  17.795  52.264  1.00  0.00     0.198 C 
BRANCH   7   8
ATOM      8  O   UNL     1       6.980  18.868  52.317  1.00  0.00    -0.347 OA
BRANCH   8   9
ATOM      9  C   UNL     1       7.361  20.076  51.655  1.00  0.00     0.281 C 
ATOM     10  C   UNL     1       9.981  21.321  52.524  1.00  0.00     0.041 C 
ATOM     11  C   UNL     1       9.394  21.120  51.125  1.00  0.00     0.150 C 
ATOM     12  C   UNL     1       8.487  22.281  50.562  1.00  0.00     0.174 C 
ATOM     13  O   UNL     1       8.662  19.885  51.155  1.00  0.00    -0.344 OA
ATOM     14  C   UNL     1       7.271  21.686  49.706  1.00  0.00     0.179 C 
ATOM     15  C   UNL     1       6.516  20.519  50.471  1.00  0.00     0.202 C 
BRANCH  12  16
ATOM     16  O   UNL     1       8.029  23.058  51.617  1.00  0.00    -0.388 OA
ATOM     17  H   UNL     1       7.758  23.975  51.311  1.00  0.00     0.211 HD
ENDBRANCH  12  16
BRANCH  14  18
ATOM     18  O   UNL     1       7.734  21.181  48.481  1.00  0.00    -0.387 OA
ATOM     19  H   UNL     1       8.663  20.888  48.608  1.00  0.00     0.211 HD
ENDBRANCH  14  18
BRANCH  15  20
ATOM     20  O   UNL     1       5.259  20.978  50.898  1.00  0.00    -0.385 OA
ATOM     21  H   UNL     1       5.104  20.585  51.794  1.00  0.00     0.211 HD
ENDBRANCH  15  20
ENDBRANCH   8   9
ENDBRANCH   7   8
ENDBRANCH   1   7
BRANCH   2  22
ATOM     22  O   UNL     1       6.090  16.911  50.027  1.00  0.00    -0.387 OA
ATOM     23  H   UNL     1       5.240  17.386  49.946  1.00  0.00     0.211 HD
ENDBRANCH   2  22
BRANCH   3  24
ATOM     24  O   UNL     1       5.655  14.467  49.459  1.00  0.00    -0.387 OA
ATOM     25  H   UNL     1       5.208  13.590  49.237  1.00  0.00     0.211 HD
ENDBRANCH   3  24
BRANCH   5  26
ATOM     26  O   UNL     1       9.003  13.573  50.594  1.00  0.00    -0.462 OA
BRANCH  26  27
ATOM     27  C   UNL     1       9.589  14.440  49.662  1.00  0.00     0.130 A 
ATOM     28  C   UNL     1       8.861  15.007  48.583  1.00  0.00     0.093 A 
ATOM     29  C   UNL     1      10.874  14.951  49.901  1.00  0.00     0.094 A 
ATOM     30  C   UNL     1       9.208  16.244  48.027  1.00  0.00     0.133 A 
ATOM     31  C   UNL     1      11.117  16.288  49.586  1.00  0.00     0.138 A 
ATOM     32  C   UNL     1      10.318  16.968  48.610  1.00  0.00     0.102 A 
ATOM     33  O   UNL     1      12.035  17.012  50.363  1.00  0.00    -0.484 OA
ATOM     34  C   UNL     1      10.549  18.462  48.482  1.00  0.00     0.174 C 
ATOM     35  C   UNL     1      11.803  18.418  50.552  1.00  0.00     0.211 C 
ATOM     36  O   UNL     1       9.727  19.207  47.909  1.00  0.00    -0.294 OA
ATOM     37  C   UNL     1      11.775  19.074  49.161  1.00  0.00     0.131 C 
BRANCH  30  38
ATOM     38  O   UNL     1       8.463  16.723  46.958  1.00  0.00    -0.507 OA
ATOM     39  H   UNL     1       7.617  16.260  46.626  1.00  0.00     0.293 HD
ENDBRANCH  30  38
BRANCH  35  40
ATOM     40  C   UNL     1      12.777  18.986  51.548  1.00  0.00    -0.003 A 
ATOM     41  C   UNL     1      13.383  20.241  51.243  1.00  0.00     0.057 A 
ATOM     42  C   UNL     1      12.799  18.531  52.857  1.00  0.00     0.011 A 
ATOM     43  C   UNL     1      13.848  21.097  52.263  1.00  0.00     0.158 A 
ATOM     44  C   UNL     1      13.300  19.373  53.874  1.00  0.00     0.051 A 
ATOM     45  C   UNL     1      13.782  20.664  53.587  1.00  0.00     0.160 A 
BRANCH  43  46
ATOM     46  O   UNL     1      14.269  22.387  51.962  1.00  0.00    -0.504 OA
ATOM     47  H   UNL     1      15.087  22.583  51.379  1.00  0.00     0.293 HD
ENDBRANCH  43  46
BRANCH  45  48
ATOM     48  O   UNL     1      14.139  21.538  54.640  1.00  0.00    -0.493 OA
ATOM     49  C   UNL     1      13.167  22.290  55.386  1.00  0.00     0.278 C 
ENDBRANCH  45  48
ENDBRANCH  35  40
ENDBRANCH  26  27
ENDBRANCH   5  26
BRANCH   4  50
ATOM     50  O   UNL     1       6.166  13.337  52.898  1.00  0.00    -0.384 OA
ATOM     51  H   UNL     1       5.643  14.126  53.181  1.00  0.00     0.211 HD
ENDBRANCH   4  50
TORSDOF 15
ENDMDL
MODEL 4
REMARK VINA RESULT:     0.000      3.951      8.982
REMARK INTER + INTRA:          -3.636
REMARK INTER:                   0.000
REMARK INTRA:                  -3.636
REMARK UNBOUND:                -3.637
REMARK SMILES COc1ccc([C@H]2CC(=O)c3c(O)cc(O[C@H]4O[C@@H](CO[C@H]5O[C@H](C)[C@H](O)[C@@H](O)[C@@H]5O)[C@@H](O)[C@@H](O)[C@@H]4O)cc3O2)cc1O
REMARK SMILES IDX 19 1 32 2 34 3 36 4 17 5 18 6 20 7 21 8 22 9 25 10 24 11
REMARK SMILES IDX 26 12 23 13 28 14 30 15 27 16 29 18 31 20 33 22 35 24 16 26
REMARK SMILES IDX 15 27 14 28 38 29 12 30 39 31 11 32 40 33 9 34 7 35 10 36
REMARK SMILES IDX 8 37 13 38 6 40 41 41 5 42 42 43 4 44 3 45 43 46 2 48 1 49
REMARK SMILES IDX 37 50
REMARK H PARENT 27 17 29 19 31 21 33 23 35 25 13 39 43 47 37 51
REMARK Flexibility Score: inf
ROOT
ATOM      1  C   UNL     1       4.479  21.633  55.985  1.00  0.00     0.180 C 
ATOM      2  C   UNL     1       3.277  21.035  56.784  1.00  0.00     0.177 C 
ATOM      3  C   UNL     1       2.656  22.013  57.836  1.00  0.00     0.180 C 
ATOM      4  C   UNL     1       3.266  23.444  57.790  1.00  0.00     0.214 C 
ATOM      5  C   UNL     1       4.837  23.541  57.552  1.00  0.00     0.339 C 
ATOM      6  O   UNL     1       5.355  22.555  56.657  1.00  0.00    -0.332 OA
ENDROOT
BRANCH   1   7
ATOM      7  C   UNL     1       5.303  20.629  55.092  1.00  0.00     0.198 C 
BRANCH   7   8
ATOM      8  O   UNL     1       4.653  19.568  54.446  1.00  0.00    -0.347 OA
BRANCH   8   9
ATOM      9  C   UNL     1       5.341  18.315  54.392  1.00  0.00     0.281 C 
ATOM     10  C   UNL     1       8.086  18.337  53.115  1.00  0.00     0.041 C 
ATOM     11  C   UNL     1       7.588  17.642  54.385  1.00  0.00     0.150 C 
ATOM     12  C   UNL     1       7.004  16.187  54.216  1.00  0.00     0.174 C 
ATOM     13  O   UNL     1       6.607  18.509  54.975  1.00  0.00    -0.344 OA
ATOM     14  C   UNL     1       5.763  15.957  55.202  1.00  0.00     0.179 C 
ATOM     15  C   UNL     1       4.713  17.143  55.130  1.00  0.00     0.202 C 
BRANCH  12  16
ATOM     16  O   UNL     1       6.638  15.991  52.891  1.00  0.00    -0.388 OA
ATOM     17  H   UNL     1       5.728  16.371  52.698  1.00  0.00     0.211 HD
ENDBRANCH  12  16
BRANCH  14  18
ATOM     18  O   UNL     1       6.207  15.841  56.529  1.00  0.00    -0.387 OA
ATOM     19  H   UNL     1       6.107  14.903  56.799  1.00  0.00     0.211 HD
ENDBRANCH  14  18
BRANCH  15  20
ATOM     20  O   UNL     1       3.554  16.701  54.471  1.00  0.00    -0.385 OA
ATOM     21  H   UNL     1       3.844  16.007  53.826  1.00  0.00     0.211 HD
ENDBRANCH  15  20
ENDBRANCH   8   9
ENDBRANCH   7   8
ENDBRANCH   1   7
BRANCH   2  22
ATOM     22  O   UNL     1       3.554  19.789  57.379  1.00  0.00    -0.387 OA
ATOM     23  H   UNL     1       3.170  19.078  56.830  1.00  0.00     0.211 HD
ENDBRANCH   2  22
BRANCH   3  24
ATOM     24  O   UNL     1       2.650  21.409  59.124  1.00  0.00    -0.387 OA
ATOM     25  H   UNL     1       1.811  21.650  59.628  1.00  0.00     0.211 HD
ENDBRANCH   3  24
BRANCH   5  26
ATOM     26  O   UNL     1       5.620  23.494  58.775  1.00  0.00    -0.462 OA
BRANCH  26  27
ATOM     27  C   UNL     1       6.456  22.430  59.139  1.00  0.00     0.130 A 
ATOM     28  C   UNL     1       5.960  21.236  59.727  1.00  0.00     0.093 A 
ATOM     29  C   UNL     1       7.796  22.425  58.723  1.00  0.00     0.094 A 
ATOM     30  C   UNL     1       6.611  20.008  59.567  1.00  0.00     0.133 A 
ATOM     31  C   UNL     1       8.348  21.216  58.301  1.00  0.00     0.138 A 
ATOM     32  C   UNL     1       7.799  19.967  58.740  1.00  0.00     0.102 A 
ATOM     33  O   UNL     1       9.333  21.232  57.301  1.00  0.00    -0.484 OA
ATOM     34  C   UNL     1       8.357  18.722  58.076  1.00  0.00     0.174 C 
ATOM     35  C   UNL     1       9.396  20.119  56.393  1.00  0.00     0.211 C 
ATOM     36  O   UNL     1       7.767  17.624  58.136  1.00  0.00    -0.294 OA
ATOM     37  C   UNL     1       9.626  18.850  57.231  1.00  0.00     0.131 C 
BRANCH  30  38
ATOM     38  O   UNL     1       6.079  18.889  60.192  1.00  0.00    -0.507 OA
ATOM     39  H   UNL     1       5.311  18.348  59.793  1.00  0.00     0.293 HD
ENDBRANCH  30  38
BRANCH  35  40
ATOM     40  C   UNL     1      10.383  20.389  55.290  1.00  0.00    -0.003 A 
ATOM     41  C   UNL     1      11.269  19.336  54.918  1.00  0.00     0.057 A 
ATOM     42  C   UNL     1      10.197  21.450  54.418  1.00  0.00     0.011 A 
ATOM     43  C   UNL     1      11.821  19.266  53.622  1.00  0.00     0.158 A 
ATOM     44  C   UNL     1      10.781  21.398  53.133  1.00  0.00     0.051 A 
ATOM     45  C   UNL     1      11.554  20.296  52.721  1.00  0.00     0.160 A 
BRANCH  43  46
ATOM     46  O   UNL     1      12.534  18.142  53.220  1.00  0.00    -0.504 OA
ATOM     47  H   UNL     1      12.086  17.312  52.823  1.00  0.00     0.293 HD
ENDBRANCH  43  46
BRANCH  45  48
ATOM     48  O   UNL     1      12.002  20.204  51.382  1.00  0.00    -0.493 OA
ATOM     49  C   UNL     1      11.157  19.750  50.311  1.00  0.00     0.278 C 
ENDBRANCH  45  48
ENDBRANCH  35  40
ENDBRANCH  26  27
ENDBRANCH   5  26
BRANCH   4  50
ATOM     50  O   UNL     1       2.619  24.241  56.814  1.00  0.00    -0.384 OA
ATOM     51  H   UNL     1       3.325  24.765  56.363  1.00  0.00     0.211 HD
ENDBRANCH   4  50
TORSDOF 15
ENDMDL
MODEL 5
REMARK VINA RESULT:     0.001      4.635      8.190
REMARK INTER + INTRA:          -3.636
REMARK INTER:                   0.000
REMARK INTRA:                  -3.636
REMARK UNBOUND:                -3.637
REMARK SMILES COc1ccc([C@H]2CC(=O)c3c(O)cc(O[C@H]4O[C@@H](CO[C@H]5O[C@H](C)[C@H](O)[C@@H](O)[C@@H]5O)[C@@H](O)[C@@H](O)[C@@H]4O)cc3O2)cc1O
REMARK SMILES IDX 19 1 32 2 34 3 36 4 17 5 18 6 20 7 21 8 22 9 25 10 24 11
REMARK SMILES IDX 26 12 23 13 28 14 30 15 27 16 29 18 31 20 33 22 35 24 16 26
REMARK SMILES IDX 15 27 14 28 38 29 12 30 39 31 11 32 40 33 9 34 7 35 10 36
REMARK SMILES IDX 8 37 13 38 6 40 41 41 5 42 42 43 4 44 3 45 43 46 2 48 1 49
REMARK SMILES IDX 37 50
REMARK H PARENT 27 17 29 19 31 21 33 23 35 25 13 39 43 47 37 51
REMARK Flexibility Score: inf
ROOT
ATOM      1  C   UNL     1      14.966  17.547  54.128  1.00  0.00     0.180 C 
ATOM      2  C   UNL     1      16.467  17.893  54.395  1.00  0.00     0.177 C 
ATOM      3  C   UNL     1      17.265  18.315  53.117  1.00  0.00     0.180 C 
ATOM      4  C   UNL     1      16.379  18.444  51.844  1.00  0.00     0.214 C 
ATOM      5  C   UNL     1      15.240  17.347  51.656  1.00  0.00     0.339 C 
ATOM      6  O   UNL     1      14.620  16.932  52.874  1.00  0.00    -0.332 OA
ENDROOT
BRANCH   1   7
ATOM      7  C   UNL     1      14.173  16.881  55.315  1.00  0.00     0.198 C 
BRANCH   7   8
ATOM      8  O   UNL     1      14.453  17.246  56.639  1.00  0.00    -0.347 OA
BRANCH   8   9
ATOM      9  C   UNL     1      14.435  16.208  57.622  1.00  0.00     0.281 C 
ATOM     10  C   UNL     1      11.869  14.619  57.860  1.00  0.00     0.041 C 
ATOM     11  C   UNL     1      13.327  14.155  57.863  1.00  0.00     0.150 C 
ATOM     12  C   UNL     1      14.050  14.091  59.263  1.00  0.00     0.174 C 
ATOM     13  O   UNL     1      14.042  15.025  56.971  1.00  0.00    -0.344 OA
ATOM     14  C   UNL     1      15.583  14.534  59.130  1.00  0.00     0.179 C 
ATOM     15  C   UNL     1      15.746  15.888  58.321  1.00  0.00     0.202 C 
BRANCH  12  16
ATOM     16  O   UNL     1      13.368  14.895  60.167  1.00  0.00    -0.388 OA
ATOM     17  H   UNL     1      13.475  14.565  61.110  1.00  0.00     0.211 HD
ENDBRANCH  12  16
BRANCH  14  18
ATOM     18  O   UNL     1      16.326  13.538  58.476  1.00  0.00    -0.387 OA
ATOM     19  H   UNL     1      16.146  12.684  58.926  1.00  0.00     0.211 HD
ENDBRANCH  14  18
BRANCH  15  20
ATOM     20  O   UNL     1      16.106  16.919  59.206  1.00  0.00    -0.385 OA
ATOM     21  H   UNL     1      16.206  16.502  60.099  1.00  0.00     0.211 HD
ENDBRANCH  15  20
ENDBRANCH   8   9
ENDBRANCH   7   8
ENDBRANCH   1   7
BRANCH   2  22
ATOM     22  O   UNL     1      17.164  16.890  55.097  1.00  0.00    -0.387 OA
ATOM     23  H   UNL     1      17.103  17.068  56.056  1.00  0.00     0.211 HD
ENDBRANCH   2  22
BRANCH   3  24
ATOM     24  O   UNL     1      18.414  17.491  52.961  1.00  0.00    -0.387 OA
ATOM     25  H   UNL     1      19.045  17.882  52.279  1.00  0.00     0.211 HD
ENDBRANCH   3  24
BRANCH   5  26
ATOM     26  O   UNL     1      15.682  16.158  50.948  1.00  0.00    -0.462 OA
BRANCH  26  27
ATOM     27  C   UNL     1      15.817  14.893  51.535  1.00  0.00     0.130 A 
ATOM     28  C   UNL     1      16.949  14.527  52.310  1.00  0.00     0.093 A 
ATOM     29  C   UNL     1      14.721  14.017  51.557  1.00  0.00     0.094 A 
ATOM     30  C   UNL     1      16.868  13.576  53.334  1.00  0.00     0.133 A 
ATOM     31  C   UNL     1      14.501  13.270  52.714  1.00  0.00     0.138 A 
ATOM     32  C   UNL     1      15.575  12.990  53.621  1.00  0.00     0.102 A 
ATOM     33  O   UNL     1      13.184  12.946  53.072  1.00  0.00    -0.484 OA
ATOM     34  C   UNL     1      15.187  12.333  54.932  1.00  0.00     0.174 C 
ATOM     35  C   UNL     1      12.866  12.845  54.470  1.00  0.00     0.211 C 
ATOM     36  O   UNL     1      15.958  12.319  55.913  1.00  0.00    -0.294 OA
ATOM     37  C   UNL     1      13.775  11.761  55.075  1.00  0.00     0.131 C 
BRANCH  30  38
ATOM     38  O   UNL     1      18.022  13.254  54.032  1.00  0.00    -0.507 OA
ATOM     39  H   UNL     1      18.954  13.332  53.623  1.00  0.00     0.293 HD
ENDBRANCH  30  38
BRANCH  35  40
ATOM     40  C   UNL     1      11.385  12.671  54.667  1.00  0.00    -0.003 A 
ATOM     41  C   UNL     1      10.950  11.701  55.617  1.00  0.00     0.057 A 
ATOM     42  C   UNL     1      10.496  13.649  54.252  1.00  0.00     0.011 A 
ATOM     43  C   UNL     1       9.703  11.818  56.265  1.00  0.00     0.158 A 
ATOM     44  C   UNL     1       9.231  13.743  54.873  1.00  0.00     0.051 A 
ATOM     45  C   UNL     1       8.851  12.860  55.902  1.00  0.00     0.160 A 
BRANCH  43  46
ATOM     46  O   UNL     1       9.373  10.968  57.315  1.00  0.00    -0.504 OA
ATOM     47  H   UNL     1       9.425   9.948  57.243  1.00  0.00     0.293 HD
ENDBRANCH  43  46
BRANCH  45  48
ATOM     48  O   UNL     1       7.642  13.069  56.606  1.00  0.00    -0.493 OA
ATOM     49  C   UNL     1       7.518  14.031  57.667  1.00  0.00     0.278 C 
ENDBRANCH  45  48
ENDBRANCH  35  40
ENDBRANCH  26  27
ENDBRANCH   5  26
BRANCH   4  50
ATOM     50  O   UNL     1      15.777  19.725  51.772  1.00  0.00    -0.384 OA
ATOM     51  H   UNL     1      15.076  19.748  52.467  1.00  0.00     0.211 HD
ENDBRANCH   4  50
TORSDOF 15
ENDMDL
MODEL 6
REMARK VINA RESULT:     0.001      5.223      9.836
REMARK INTER + INTRA:          -3.635
REMARK INTER:                   0.000
REMARK INTRA:                  -3.635
REMARK UNBOUND:                -3.637
REMARK SMILES COc1ccc([C@H]2CC(=O)c3c(O)cc(O[C@H]4O[C@@H](CO[C@H]5O[C@H](C)[C@H](O)[C@@H](O)[C@@H]5O)[C@@H](O)[C@@H](O)[C@@H]4O)cc3O2)cc1O
REMARK SMILES IDX 19 1 32 2 34 3 36 4 17 5 18 6 20 7 21 8 22 9 25 10 24 11
REMARK SMILES IDX 26 12 23 13 28 14 30 15 27 16 29 18 31 20 33 22 35 24 16 26
REMARK SMILES IDX 15 27 14 28 38 29 12 30 39 31 11 32 40 33 9 34 7 35 10 36
REMARK SMILES IDX 8 37 13 38 6 40 41 41 5 42 42 43 4 44 3 45 43 46 2 48 1 49
REMARK SMILES IDX 37 50
REMARK H PARENT 27 17 29 19 31 21 33 23 35 25 13 39 43 47 37 51
REMARK Flexibility Score: inf
ROOT
ATOM      1  C   UNL     1      17.939  23.158  57.513  1.00  0.00     0.180 C 
ATOM      2  C   UNL     1      19.044  22.423  58.340  1.00  0.00     0.177 C 
ATOM      3  C   UNL     1      20.471  23.051  58.204  1.00  0.00     0.180 C 
ATOM      4  C   UNL     1      20.493  24.372  57.381  1.00  0.00     0.214 C 
ATOM      5  C   UNL     1      19.554  24.426  56.096  1.00  0.00     0.339 C 
ATOM      6  O   UNL     1      18.308  23.747  56.253  1.00  0.00    -0.332 OA
ENDROOT
BRANCH   1   7
ATOM      7  C   UNL     1      16.541  22.439  57.407  1.00  0.00     0.198 C 
BRANCH   7   8
ATOM      8  O   UNL     1      16.052  21.692  58.488  1.00  0.00    -0.347 OA
BRANCH   8   9
ATOM      9  C   UNL     1      15.359  20.478  58.184  1.00  0.00     0.281 C 
ATOM     10  C   UNL     1      12.963  20.714  56.349  1.00  0.00     0.041 C 
ATOM     11  C   UNL     1      14.095  19.684  56.376  1.00  0.00     0.150 C 
ATOM     12  C   UNL     1      13.873  18.408  57.275  1.00  0.00     0.174 C 
ATOM     13  O   UNL     1      15.282  20.381  56.783  1.00  0.00    -0.344 OA
ATOM     14  C   UNL     1      15.243  17.961  57.973  1.00  0.00     0.179 C 
ATOM     15  C   UNL     1      15.989  19.179  58.661  1.00  0.00     0.202 C 
BRANCH  12  16
ATOM     16  O   UNL     1      12.891  18.678  58.218  1.00  0.00    -0.388 OA
ATOM     17  H   UNL     1      12.127  19.197  57.820  1.00  0.00     0.211 HD
ENDBRANCH  12  16
BRANCH  14  18
ATOM     18  O   UNL     1      16.111  17.391  57.027  1.00  0.00    -0.387 OA
ATOM     19  H   UNL     1      16.422  18.108  56.434  1.00  0.00     0.211 HD
ENDBRANCH  14  18
BRANCH  15  20
ATOM     20  O   UNL     1      15.888  19.058  60.057  1.00  0.00    -0.385 OA
ATOM     21  H   UNL     1      16.490  19.743  60.445  1.00  0.00     0.211 HD
ENDBRANCH  15  20
ENDBRANCH   8   9
ENDBRANCH   7   8
ENDBRANCH   1   7
BRANCH   2  22
ATOM     22  O   UNL     1      19.097  21.035  58.108  1.00  0.00    -0.387 OA
ATOM     23  H   UNL     1      19.930  20.818  57.646  1.00  0.00     0.211 HD
ENDBRANCH   2  22
BRANCH   3  24
ATOM     24  O   UNL     1      21.402  22.066  57.774  1.00  0.00    -0.387 OA
ATOM     25  H   UNL     1      21.377  21.964  56.771  1.00  0.00     0.211 HD
ENDBRANCH   3  24
BRANCH   5  26
ATOM     26  O   UNL     1      20.187  23.930  54.886  1.00  0.00    -0.462 OA
BRANCH  26  27
ATOM     27  C   UNL     1      19.821  22.747  54.230  1.00  0.00     0.130 A 
ATOM     28  C   UNL     1      20.256  21.466  54.663  1.00  0.00     0.093 A 
ATOM     29  C   UNL     1      18.821  22.779  53.246  1.00  0.00     0.094 A 
ATOM     30  C   UNL     1      19.499  20.312  54.434  1.00  0.00     0.133 A 
ATOM     31  C   UNL     1      17.898  21.734  53.214  1.00  0.00     0.138 A 
ATOM     32  C   UNL     1      18.219  20.454  53.772  1.00  0.00     0.102 A 
ATOM     33  O   UNL     1      16.586  22.001  52.791  1.00  0.00    -0.484 OA
ATOM     34  C   UNL     1      17.081  19.454  53.848  1.00  0.00     0.174 C 
ATOM     35  C   UNL     1      15.516  21.241  53.378  1.00  0.00     0.211 C 
ATOM     36  O   UNL     1      17.144  18.442  54.575  1.00  0.00    -0.294 OA
ATOM     37  C   UNL     1      15.790  19.755  53.086  1.00  0.00     0.131 C 
BRANCH  30  38
ATOM     38  O   UNL     1      20.001  19.093  54.867  1.00  0.00    -0.507 OA
ATOM     39  H   UNL     1      19.775  18.697  55.780  1.00  0.00     0.293 HD
ENDBRANCH  30  38
BRANCH  35  40
ATOM     40  C   UNL     1      14.182  21.780  52.943  1.00  0.00    -0.003 A 
ATOM     41  C   UNL     1      13.177  20.843  52.563  1.00  0.00     0.057 A 
ATOM     42  C   UNL     1      13.805  23.077  53.258  1.00  0.00     0.011 A 
ATOM     43  C   UNL     1      11.805  21.156  52.667  1.00  0.00     0.158 A 
ATOM     44  C   UNL     1      12.432  23.401  53.324  1.00  0.00     0.051 A 
ATOM     45  C   UNL     1      11.437  22.438  53.071  1.00  0.00     0.160 A 
BRANCH  43  46
ATOM     46  O   UNL     1      10.842  20.173  52.466  1.00  0.00    -0.504 OA
ATOM     47  H   UNL     1      10.364  19.697  53.236  1.00  0.00     0.293 HD
ENDBRANCH  43  46
BRANCH  45  48
ATOM     48  O   UNL     1      10.075  22.751  53.288  1.00  0.00    -0.493 OA
ATOM     49  C   UNL     1       9.473  22.729  54.594  1.00  0.00     0.278 C 
ENDBRANCH  45  48
ENDBRANCH  35  40
ENDBRANCH  26  27
ENDBRANCH   5  26
BRANCH   4  50
ATOM     50  O   UNL     1      20.188  25.487  58.200  1.00  0.00    -0.384 OA
ATOM     51  H   UNL     1      20.974  25.637  58.779  1.00  0.00     0.211 HD
ENDBRANCH   4  50
TORSDOF 15
ENDMDL
MODEL 7
REMARK VINA RESULT:     0.002      4.475      7.053
REMARK INTER + INTRA:          -3.634
REMARK INTER:                   0.000
REMARK INTRA:                  -3.634
REMARK UNBOUND:                -3.637
REMARK SMILES COc1ccc([C@H]2CC(=O)c3c(O)cc(O[C@H]4O[C@@H](CO[C@H]5O[C@H](C)[C@H](O)[C@@H](O)[C@@H]5O)[C@@H](O)[C@@H](O)[C@@H]4O)cc3O2)cc1O
REMARK SMILES IDX 19 1 32 2 34 3 36 4 17 5 18 6 20 7 21 8 22 9 25 10 24 11
REMARK SMILES IDX 26 12 23 13 28 14 30 15 27 16 29 18 31 20 33 22 35 24 16 26
REMARK SMILES IDX 15 27 14 28 38 29 12 30 39 31 11 32 40 33 9 34 7 35 10 36
REMARK SMILES IDX 8 37 13 38 6 40 41 41 5 42 42 43 4 44 3 45 43 46 2 48 1 49
REMARK SMILES IDX 37 50
REMARK H PARENT 27 17 29 19 31 21 33 23 35 25 13 39 43 47 37 51
REMARK Flexibility Score: inf
ROOT
ATOM      1  C   UNL     1       7.733  19.200  47.489  1.00  0.00     0.180 C 
ATOM      2  C   UNL     1       8.144  19.805  46.109  1.00  0.00     0.177 C 
ATOM      3  C   UNL     1       9.456  19.198  45.507  1.00  0.00     0.180 C 
ATOM      4  C   UNL     1      10.025  18.008  46.333  1.00  0.00     0.214 C 
ATOM      5  C   UNL     1       9.951  18.141  47.918  1.00  0.00     0.339 C 
ATOM      6  O   UNL     1       8.774  18.795  48.396  1.00  0.00    -0.332 OA
ENDROOT
BRANCH   1   7
ATOM      7  C   UNL     1       6.571  19.931  48.263  1.00  0.00     0.198 C 
BRANCH   7   8
ATOM      8  O   UNL     1       5.514  20.517  47.553  1.00  0.00    -0.347 OA
BRANCH   8   9
ATOM      9  C   UNL     1       5.012  21.765  48.038  1.00  0.00     0.281 C 
ATOM     10  C   UNL     1       4.041  21.805  50.906  1.00  0.00     0.041 C 
ATOM     11  C   UNL     1       4.890  22.816  50.131  1.00  0.00     0.150 C 
ATOM     12  C   UNL     1       4.115  23.950  49.358  1.00  0.00     0.174 C 
ATOM     13  O   UNL     1       5.708  22.062  49.223  1.00  0.00    -0.344 OA
ATOM     14  C   UNL     1       4.840  24.287  47.970  1.00  0.00     0.179 C 
ATOM     15  C   UNL     1       5.176  22.979  47.138  1.00  0.00     0.202 C 
BRANCH  12  16
ATOM     16  O   UNL     1       2.801  23.552  49.158  1.00  0.00    -0.388 OA
ATOM     17  H   UNL     1       2.157  24.130  49.669  1.00  0.00     0.211 HD
ENDBRANCH  12  16
BRANCH  14  18
ATOM     18  O   UNL     1       6.037  24.983  48.199  1.00  0.00    -0.387 OA
ATOM     19  H   UNL     1       6.632  24.817  47.435  1.00  0.00     0.211 HD
ENDBRANCH  14  18
BRANCH  15  20
ATOM     20  O   UNL     1       4.317  22.899  46.029  1.00  0.00    -0.385 OA
ATOM     21  H   UNL     1       4.896  22.824  45.228  1.00  0.00     0.211 HD
ENDBRANCH  15  20
ENDBRANCH   8   9
ENDBRANCH   7   8
ENDBRANCH   1   7
BRANCH   2  22
ATOM     22  O   UNL     1       8.210  21.212  46.103  1.00  0.00    -0.387 OA
ATOM     23  H   UNL     1       7.768  21.558  46.903  1.00  0.00     0.211 HD
ENDBRANCH   2  22
BRANCH   3  24
ATOM     24  O   UNL     1      10.392  20.232  45.228  1.00  0.00    -0.387 OA
ATOM     25  H   UNL     1      11.335  19.914  45.392  1.00  0.00     0.211 HD
ENDBRANCH   3  24
BRANCH   5  26
ATOM     26  O   UNL     1      11.103  18.802  48.506  1.00  0.00    -0.462 OA
BRANCH  26  27
ATOM     27  C   UNL     1      11.068  20.068  49.105  1.00  0.00     0.130 A 
ATOM     28  C   UNL     1      11.095  21.272  48.352  1.00  0.00     0.093 A 
ATOM     29  C   UNL     1      10.777  20.181  50.473  1.00  0.00     0.094 A 
ATOM     30  C   UNL     1      10.503  22.450  48.820  1.00  0.00     0.133 A 
ATOM     31  C   UNL     1       9.946  21.223  50.884  1.00  0.00     0.138 A 
ATOM     32  C   UNL     1       9.811  22.409  50.091  1.00  0.00     0.102 A 
ATOM     33  O   UNL     1       9.105  21.024  51.990  1.00  0.00    -0.484 OA
ATOM     34  C   UNL     1       8.744  23.392  50.536  1.00  0.00     0.174 C 
ATOM     35  C   UNL     1       7.835  21.697  52.007  1.00  0.00     0.211 C 
ATOM     36  O   UNL     1       8.321  24.289  49.779  1.00  0.00    -0.294 OA
ATOM     37  C   UNL     1       8.109  23.208  51.916  1.00  0.00     0.131 C 
BRANCH  30  38
ATOM     38  O   UNL     1      10.591  23.592  48.037  1.00  0.00    -0.507 OA
ATOM     39  H   UNL     1       9.915  23.812  47.305  1.00  0.00     0.293 HD
ENDBRANCH  30  38
BRANCH  35  40
ATOM     40  C   UNL     1       7.002  21.230  53.169  1.00  0.00    -0.003 A 
ATOM     41  C   UNL     1       6.302  22.217  53.924  1.00  0.00     0.057 A 
ATOM     42  C   UNL     1       6.615  19.904  53.275  1.00  0.00     0.011 A 
ATOM     43  C   UNL     1       5.126  21.897  54.635  1.00  0.00     0.158 A 
ATOM     44  C   UNL     1       5.460  19.579  54.020  1.00  0.00     0.051 A 
ATOM     45  C   UNL     1       4.695  20.571  54.661  1.00  0.00     0.160 A 
BRANCH  43  46
ATOM     46  O   UNL     1       4.359  22.902  55.214  1.00  0.00    -0.504 OA
ATOM     47  H   UNL     1       4.752  23.799  55.514  1.00  0.00     0.293 HD
ENDBRANCH  43  46
BRANCH  45  48
ATOM     48  O   UNL     1       3.466  20.235  55.274  1.00  0.00    -0.493 OA
ATOM     49  C   UNL     1       2.247  20.074  54.529  1.00  0.00     0.278 C 
ENDBRANCH  45  48
ENDBRANCH  35  40
ENDBRANCH  26  27
ENDBRANCH   5  26
BRANCH   4  50
ATOM     50  O   UNL     1       9.406  16.789  45.960  1.00  0.00    -0.384 OA
ATOM     51  H   UNL     1      10.130  16.125  45.855  1.00  0.00     0.211 HD
ENDBRANCH   4  50
TORSDOF 15
ENDMDL
MODEL 8
REMARK VINA RESULT:     0.002      6.809     11.273
REMARK INTER + INTRA:          -3.634
REMARK INTER:                   0.000
REMARK INTRA:                  -3.634
REMARK UNBOUND:                -3.637
REMARK SMILES COc1ccc([C@H]2CC(=O)c3c(O)cc(O[C@H]4O[C@@H](CO[C@H]5O[C@H](C)[C@H](O)[C@@H](O)[C@@H]5O)[C@@H](O)[C@@H](O)[C@@H]4O)cc3O2)cc1O
REMARK SMILES IDX 19 1 32 2 34 3 36 4 17 5 18 6 20 7 21 8 22 9 25 10 24 11
REMARK SMILES IDX 26 12 23 13 28 14 30 15 27 16 29 18 31 20 33 22 35 24 16 26
REMARK SMILES IDX 15 27 14 28 38 29 12 30 39 31 11 32 40 33 9 34 7 35 10 36
REMARK SMILES IDX 8 37 13 38 6 40 41 41 5 42 42 43 4 44 3 45 43 46 2 48 1 49
REMARK SMILES IDX 37 50
REMARK H PARENT 27 17 29 19 31 21 33 23 35 25 13 39 43 47 37 51
REMARK Flexibility Score: inf
ROOT
ATOM      1  C   UNL     1      19.168  20.834  49.296  1.00  0.00     0.180 C 
ATOM      2  C   UNL     1      20.701  21.138  49.317  1.00  0.00     0.177 C 
ATOM      3  C   UNL     1      21.095  22.493  48.640  1.00  0.00     0.180 C 
ATOM      4  C   UNL     1      19.871  23.346  48.198  1.00  0.00     0.214 C 
ATOM      5  C   UNL     1      18.642  22.554  47.568  1.00  0.00     0.339 C 
ATOM      6  O   UNL     1      18.399  21.280  48.165  1.00  0.00    -0.332 OA
ENDROOT
BRANCH   1   7
ATOM      7  C   UNL     1      18.730  19.385  49.735  1.00  0.00     0.198 C 
BRANCH   7   8
ATOM      8  O   UNL     1      19.438  18.711  50.740  1.00  0.00    -0.347 OA
BRANCH   8   9
ATOM      9  C   UNL     1      19.640  17.306  50.569  1.00  0.00     0.281 C 
ATOM     10  C   UNL     1      17.152  15.619  50.210  1.00  0.00     0.041 C 
ATOM     11  C   UNL     1      18.495  15.575  49.477  1.00  0.00     0.150 C 
ATOM     12  C   UNL     1      19.608  14.643  50.091  1.00  0.00     0.174 C 
ATOM     13  O   UNL     1      18.967  16.928  49.393  1.00  0.00    -0.344 OA
ATOM     14  C   UNL     1      21.056  15.310  49.933  1.00  0.00     0.179 C 
ATOM     15  C   UNL     1      21.072  16.823  50.407  1.00  0.00     0.202 C 
BRANCH  12  16
ATOM     16  O   UNL     1      19.312  14.391  51.423  1.00  0.00    -0.388 OA
ATOM     17  H   UNL     1      18.337  14.186  51.553  1.00  0.00     0.211 HD
ENDBRANCH  12  16
BRANCH  14  18
ATOM     18  O   UNL     1      21.473  15.264  48.593  1.00  0.00    -0.387 OA
ATOM     19  H   UNL     1      21.559  16.188  48.273  1.00  0.00     0.211 HD
ENDBRANCH  14  18
BRANCH  15  20
ATOM     20  O   UNL     1      21.774  16.923  51.620  1.00  0.00    -0.385 OA
ATOM     21  H   UNL     1      21.329  17.636  52.146  1.00  0.00     0.211 HD
ENDBRANCH  15  20
ENDBRANCH   8   9
ENDBRANCH   7   8
ENDBRANCH   1   7
BRANCH   2  22
ATOM     22  O   UNL     1      21.494  20.090  48.810  1.00  0.00    -0.387 OA
ATOM     23  H   UNL     1      20.965  19.561  48.183  1.00  0.00     0.211 HD
ENDBRANCH   2  22
BRANCH   3  24
ATOM     24  O   UNL     1      22.065  22.270  47.623  1.00  0.00    -0.387 OA
ATOM     25  H   UNL     1      22.571  21.414  47.794  1.00  0.00     0.211 HD
ENDBRANCH   3  24
BRANCH   5  26
ATOM     26  O   UNL     1      18.740  22.366  46.130  1.00  0.00    -0.462 OA
BRANCH  26  27
ATOM     27  C   UNL     1      18.945  21.127  45.508  1.00  0.00     0.130 A 
ATOM     28  C   UNL     1      20.228  20.526  45.406  1.00  0.00     0.093 A 
ATOM     29  C   UNL     1      17.842  20.334  45.158  1.00  0.00     0.094 A 
ATOM     30  C   UNL     1      20.390  19.137  45.342  1.00  0.00     0.133 A 
ATOM     31  C   UNL     1      17.932  18.957  45.365  1.00  0.00     0.138 A 
ATOM     32  C   UNL     1      19.207  18.306  45.424  1.00  0.00     0.102 A 
ATOM     33  O   UNL     1      16.769  18.243  45.691  1.00  0.00    -0.484 OA
ATOM     34  C   UNL     1      19.193  16.846  45.835  1.00  0.00     0.174 C 
ATOM     35  C   UNL     1      16.895  17.099  46.553  1.00  0.00     0.211 C 
ATOM     36  O   UNL     1      20.227  16.262  46.218  1.00  0.00    -0.294 OA
ATOM     37  C   UNL     1      17.854  16.108  45.870  1.00  0.00     0.131 C 
BRANCH  30  38
ATOM     38  O   UNL     1      21.674  18.625  45.220  1.00  0.00    -0.507 OA
ATOM     39  H   UNL     1      22.396  19.076  44.658  1.00  0.00     0.293 HD
ENDBRANCH  30  38
BRANCH  35  40
ATOM     40  C   UNL     1      15.540  16.572  46.937  1.00  0.00    -0.003 A 
ATOM     41  C   UNL     1      15.343  15.159  46.908  1.00  0.00     0.057 A 
ATOM     42  C   UNL     1      14.649  17.359  47.650  1.00  0.00     0.011 A 
ATOM     43  C   UNL     1      14.373  14.538  47.722  1.00  0.00     0.158 A 
ATOM     44  C   UNL     1      13.653  16.738  48.435  1.00  0.00     0.051 A 
ATOM     45  C   UNL     1      13.540  15.337  48.505  1.00  0.00     0.160 A 
BRANCH  43  46
ATOM     46  O   UNL     1      14.317  13.152  47.817  1.00  0.00    -0.504 OA
ATOM     47  H   UNL     1      14.480  12.647  48.693  1.00  0.00     0.293 HD
ENDBRANCH  43  46
BRANCH  45  48
ATOM     48  O   UNL     1      12.631  14.742  49.411  1.00  0.00    -0.493 OA
ATOM     49  C   UNL     1      12.925  14.580  50.810  1.00  0.00     0.278 C 
ENDBRANCH  45  48
ENDBRANCH  35  40
ENDBRANCH  26  27
ENDBRANCH   5  26
BRANCH   4  50
ATOM     50  O   UNL     1      19.388  24.136  49.270  1.00  0.00    -0.384 OA
ATOM     51  H   UNL     1      20.086  24.122  49.969  1.00  0.00     0.211 HD
ENDBRANCH   4  50
TORSDOF 15
ENDMDL
MODEL 9
REMARK VINA RESULT:     0.002      3.683      6.868
REMARK INTER + INTRA:          -3.634
REMARK INTER:                   0.000
REMARK INTRA:                  -3.634
REMARK UNBOUND:                -3.637
REMARK SMILES COc1ccc([C@H]2CC(=O)c3c(O)cc(O[C@H]4O[C@@H](CO[C@H]5O[C@H](C)[C@H](O)[C@@H](O)[C@@H]5O)[C@@H](O)[C@@H](O)[C@@H]4O)cc3O2)cc1O
REMARK SMILES IDX 19 1 32 2 34 3 36 4 17 5 18 6 20 7 21 8 22 9 25 10 24 11
REMARK SMILES IDX 26 12 23 13 28 14 30 15 27 16 29 18 31 20 33 22 35 24 16 26
REMARK SMILES IDX 15 27 14 28 38 29 12 30 39 31 11 32 40 33 9 34 7 35 10 36
REMARK SMILES IDX 8 37 13 38 6 40 41 41 5 42 42 43 4 44 3 45 43 46 2 48 1 49
REMARK SMILES IDX 37 50
REMARK H PARENT 27 17 29 19 31 21 33 23 35 25 13 39 43 47 37 51
REMARK Flexibility Score: inf
ROOT
ATOM      1  C   UNL     1      11.317  16.110  45.978  1.00  0.00     0.180 C 
ATOM      2  C   UNL     1      11.875  14.870  45.207  1.00  0.00     0.177 C 
ATOM      3  C   UNL     1      11.920  15.048  43.653  1.00  0.00     0.180 C 
ATOM      4  C   UNL     1      11.532  16.479  43.179  1.00  0.00     0.214 C 
ATOM      5  C   UNL     1      10.331  17.183  43.952  1.00  0.00     0.339 C 
ATOM      6  O   UNL     1      10.289  16.898  45.351  1.00  0.00    -0.332 OA
ENDROOT
BRANCH   1   7
ATOM      7  C   UNL     1      11.013  15.911  47.511  1.00  0.00     0.198 C 
BRANCH   7   8
ATOM      8  O   UNL     1      11.826  15.070  48.284  1.00  0.00    -0.347 OA
BRANCH   8   9
ATOM      9  C   UNL     1      11.179  14.263  49.272  1.00  0.00     0.281 C 
ATOM     10  C   UNL     1       9.521  15.729  51.338  1.00  0.00     0.041 C 
ATOM     11  C   UNL     1       9.228  14.444  50.561  1.00  0.00     0.150 C 
ATOM     12  C   UNL     1       9.706  13.092  51.217  1.00  0.00     0.174 C 
ATOM     13  O   UNL     1       9.814  14.602  49.260  1.00  0.00    -0.344 OA
ATOM     14  C   UNL     1      10.225  12.071  50.098  1.00  0.00     0.179 C 
ATOM     15  C   UNL     1      11.240  12.755  49.089  1.00  0.00     0.202 C 
BRANCH  12  16
ATOM     16  O   UNL     1      10.696  13.362  52.152  1.00  0.00    -0.388 OA
ATOM     17  H   UNL     1      10.376  13.193  53.089  1.00  0.00     0.211 HD
ENDBRANCH  12  16
BRANCH  14  18
ATOM     18  O   UNL     1       9.145  11.563  49.358  1.00  0.00    -0.387 OA
ATOM     19  H   UNL     1       8.317  11.893  49.770  1.00  0.00     0.211 HD
ENDBRANCH  14  18
BRANCH  15  20
ATOM     20  O   UNL     1      12.536  12.273  49.334  1.00  0.00    -0.385 OA
ATOM     21  H   UNL     1      13.077  13.051  49.625  1.00  0.00     0.211 HD
ENDBRANCH  15  20
ENDBRANCH   8   9
ENDBRANCH   7   8
ENDBRANCH   1   7
BRANCH   2  22
ATOM     22  O   UNL     1      11.236  13.660  45.541  1.00  0.00    -0.387 OA
ATOM     23  H   UNL     1      11.838  12.915  45.347  1.00  0.00     0.211 HD
ENDBRANCH   2  22
BRANCH   3  24
ATOM     24  O   UNL     1      11.206  13.995  43.017  1.00  0.00    -0.387 OA
ATOM     25  H   UNL     1      11.839  13.280  42.691  1.00  0.00     0.211 HD
ENDBRANCH   3  24
BRANCH   5  26
ATOM     26  O   UNL     1       9.022  16.890  43.394  1.00  0.00    -0.462 OA
BRANCH  26  27
ATOM     27  C   UNL     1       8.045  16.115  44.033  1.00  0.00     0.130 A 
ATOM     28  C   UNL     1       8.070  14.695  44.026  1.00  0.00     0.093 A 
ATOM     29  C   UNL     1       7.125  16.730  44.896  1.00  0.00     0.094 A 
ATOM     30  C   UNL     1       7.512  13.941  45.064  1.00  0.00     0.133 A 
ATOM     31  C   UNL     1       6.790  16.069  46.078  1.00  0.00     0.138 A 
ATOM     32  C   UNL     1       6.935  14.647  46.189  1.00  0.00     0.102 A 
ATOM     33  O   UNL     1       6.479  16.829  47.216  1.00  0.00    -0.484 OA
ATOM     34  C   UNL     1       6.719  14.060  47.571  1.00  0.00     0.174 C 
ATOM     35  C   UNL     1       6.821  16.292  48.505  1.00  0.00     0.211 C 
ATOM     36  O   UNL     1       7.109  12.912  47.864  1.00  0.00    -0.294 OA
ATOM     37  C   UNL     1       6.094  14.944  48.652  1.00  0.00     0.131 C 
BRANCH  30  38
ATOM     38  O   UNL     1       7.555  12.557  44.975  1.00  0.00    -0.507 OA
ATOM     39  H   UNL     1       8.295  12.059  44.479  1.00  0.00     0.293 HD
ENDBRANCH  30  38
BRANCH  35  40
ATOM     40  C   UNL     1       6.581  17.310  49.585  1.00  0.00    -0.003 A 
ATOM     41  C   UNL     1       5.947  16.871  50.784  1.00  0.00     0.057 A 
ATOM     42  C   UNL     1       7.274  18.511  49.593  1.00  0.00     0.011 A 
ATOM     43  C   UNL     1       6.153  17.539  52.009  1.00  0.00     0.158 A 
ATOM     44  C   UNL     1       7.447  19.200  50.813  1.00  0.00     0.051 A 
ATOM     45  C   UNL     1       6.927  18.699  52.021  1.00  0.00     0.160 A 
BRANCH  43  46
ATOM     46  O   UNL     1       5.675  16.995  53.196  1.00  0.00    -0.504 OA
ATOM     47  H   UNL     1       5.814  16.014  53.454  1.00  0.00     0.293 HD
ENDBRANCH  43  46
BRANCH  45  48
ATOM     48  O   UNL     1       7.241  19.332  53.247  1.00  0.00    -0.493 OA
ATOM     49  C   UNL     1       8.486  19.117  53.934  1.00  0.00     0.278 C 
ENDBRANCH  45  48
ENDBRANCH  35  40
ENDBRANCH  26  27
ENDBRANCH   5  26
BRANCH   4  50
ATOM     50  O   UNL     1      12.651  17.347  43.213  1.00  0.00    -0.384 OA
ATOM     51  H   UNL     1      13.255  17.002  43.914  1.00  0.00     0.211 HD
ENDBRANCH   4  50
TORSDOF 15
ENDMDL
