MODEL 1
REMARK VINA RESULT:    -3.538      0.000      0.000
REMARK INTER + INTRA:          -3.975
REMARK INTER:                  -3.849
REMARK INTRA:                  -0.126
REMARK UNBOUND:                -0.126
REMARK SMILES Cc1ccc(C(C)C)cc1O
REMARK SMILES IDX 1 1 2 2 10 3 9 4 5 5 4 6 3 7 11 8 6 10 7 11 8 12
REMARK H PARENT 11 9
REMARK Flexibility Score: inf
ROOT
ATOM      1  C   UNL     1     136.072 139.505 141.377  1.00  0.00     0.048 C 
ATOM      2  C   UNL     1     137.345 138.813 141.782  1.00  0.00    -0.009 A 
ATOM      3  C   UNL     1     137.568 138.416 143.119  1.00  0.00     0.118 A 
ATOM      4  C   UNL     1     138.762 137.773 143.464  1.00  0.00     0.050 A 
ATOM      5  C   UNL     1     139.750 137.515 142.496  1.00  0.00    -0.042 A 
ATOM      6  C   UNL     1     139.520 137.913 141.170  1.00  0.00     0.004 A 
ATOM      7  C   UNL     1     138.331 138.555 140.817  1.00  0.00     0.007 A 
ENDROOT
BRANCH   3   8
ATOM      8  O   UNL     1     136.626 138.644 144.125  1.00  0.00    -0.508 OA
ATOM      9  H   UNL     1     135.634 138.496 143.994  1.00  0.00     0.293 HD
ENDBRANCH   3   8
BRANCH   5  10
ATOM     10  C   UNL     1     141.047 136.819 142.865  1.00  0.00     0.013 C 
ATOM     11  C   UNL     1     141.589 136.001 141.686  1.00  0.00     0.012 C 
ATOM     12  C   UNL     1     140.870 135.944 144.110  1.00  0.00     0.012 C 
ENDBRANCH   5  10
TORSDOF 2
ENDMDL
MODEL 2
REMARK VINA RESULT:    -3.483      4.431      5.754
REMARK INTER + INTRA:          -3.915
REMARK INTER:                  -3.789
REMARK INTRA:                  -0.126
REMARK UNBOUND:                -0.126
REMARK SMILES Cc1ccc(C(C)C)cc1O
REMARK SMILES IDX 1 1 2 2 10 3 9 4 5 5 4 6 3 7 11 8 6 10 7 11 8 12
REMARK H PARENT 11 9
REMARK Flexibility Score: inf
ROOT
ATOM      1  C   UNL     1     141.996 136.034 141.356  1.00  0.00     0.048 C 
ATOM      2  C   UNL     1     142.701 137.300 141.760  1.00  0.00    -0.009 A 
ATOM      3  C   UNL     1     143.067 137.537 143.104  1.00  0.00     0.118 A 
ATOM      4  C   UNL     1     143.723 138.724 143.448  1.00  0.00     0.050 A 
ATOM      5  C   UNL     1     144.025 139.692 142.472  1.00  0.00    -0.042 A 
ATOM      6  C   UNL     1     143.657 139.449 141.140  1.00  0.00     0.004 A 
ATOM      7  C   UNL     1     143.003 138.266 140.788  1.00  0.00     0.007 A 
ENDROOT
BRANCH   3   8
ATOM      8  O   UNL     1     142.796 136.614 144.117  1.00  0.00    -0.508 OA
ATOM      9  H   UNL     1     142.032 135.953 144.070  1.00  0.00     0.293 HD
ENDBRANCH   3   8
BRANCH   5  10
ATOM     10  C   UNL     1     144.735 140.982 142.840  1.00  0.00     0.013 C 
ATOM     11  C   UNL     1     145.580 141.499 141.670  1.00  0.00     0.012 C 
ATOM     12  C   UNL     1     145.588 140.803 144.100  1.00  0.00     0.012 C 
ENDBRANCH   5  10
TORSDOF 2
ENDMDL
MODEL 3
REMARK VINA RESULT:    -3.463      5.048      6.493
REMARK INTER + INTRA:          -3.893
REMARK INTER:                  -3.766
REMARK INTRA:                  -0.127
REMARK UNBOUND:                -0.126
REMARK SMILES Cc1ccc(C(C)C)cc1O
REMARK SMILES IDX 1 1 2 2 10 3 9 4 5 5 4 6 3 7 11 8 6 10 7 11 8 12
REMARK H PARENT 11 9
REMARK Flexibility Score: inf
ROOT
ATOM      1  C   UNL     1     142.552 136.239 142.242  1.00  0.00     0.048 C 
ATOM      2  C   UNL     1     143.138 137.624 142.288  1.00  0.00    -0.009 A 
ATOM      3  C   UNL     1     143.586 138.268 141.113  1.00  0.00     0.118 A 
ATOM      4  C   UNL     1     144.124 139.557 141.189  1.00  0.00     0.050 A 
ATOM      5  C   UNL     1     144.229 140.226 142.422  1.00  0.00    -0.042 A 
ATOM      6  C   UNL     1     143.782 139.579 143.584  1.00  0.00     0.004 A 
ATOM      7  C   UNL     1     143.242 138.292 143.518  1.00  0.00     0.007 A 
ENDROOT
BRANCH   3   8
ATOM      8  O   UNL     1     143.508 137.656 139.860  1.00  0.00    -0.508 OA
ATOM      9  H   UNL     1     143.375 138.174 139.001  1.00  0.00     0.293 HD
ENDBRANCH   3   8
BRANCH   5  10
ATOM     10  C   UNL     1     144.814 141.623 142.510  1.00  0.00     0.013 C 
ATOM     11  C   UNL     1     145.986 141.792 141.536  1.00  0.00     0.012 C 
ATOM     12  C   UNL     1     145.236 141.957 143.945  1.00  0.00     0.012 C 
ENDBRANCH   5  10
TORSDOF 2
ENDMDL
MODEL 4
REMARK VINA RESULT:    -3.456      4.398      5.689
REMARK INTER + INTRA:          -3.885
REMARK INTER:                  -3.761
REMARK INTRA:                  -0.124
REMARK UNBOUND:                -0.126
REMARK SMILES Cc1ccc(C(C)C)cc1O
REMARK SMILES IDX 1 1 2 2 10 3 9 4 5 5 4 6 3 7 11 8 6 10 7 11 8 12
REMARK H PARENT 11 9
REMARK Flexibility Score: inf
ROOT
ATOM      1  C   UNL     1     139.482 145.376 141.384  1.00  0.00     0.048 C 
ATOM      2  C   UNL     1     138.797 144.092 141.766  1.00  0.00    -0.009 A 
ATOM      3  C   UNL     1     138.387 143.849 143.095  1.00  0.00     0.118 A 
ATOM      4  C   UNL     1     137.751 142.645 143.419  1.00  0.00     0.050 A 
ATOM      5  C   UNL     1     137.512 141.667 142.436  1.00  0.00    -0.042 A 
ATOM      6  C   UNL     1     137.923 141.917 141.117  1.00  0.00     0.004 A 
ATOM      7  C   UNL     1     138.558 143.116 140.786  1.00  0.00     0.007 A 
ENDROOT
BRANCH   3   8
ATOM      8  O   UNL     1     138.596 144.781 144.115  1.00  0.00    -0.508 OA
ATOM      9  H   UNL     1     138.848 145.744 143.938  1.00  0.00     0.293 HD
ENDBRANCH   3   8
BRANCH   5  10
ATOM     10  C   UNL     1     136.824 140.359 142.781  1.00  0.00     0.013 C 
ATOM     11  C   UNL     1     135.869 139.927 141.663  1.00  0.00     0.012 C 
ATOM     12  C   UNL     1     136.093 140.457 144.124  1.00  0.00     0.012 C 
ENDBRANCH   5  10
TORSDOF 2
ENDMDL
MODEL 5
REMARK VINA RESULT:    -3.447      4.271      5.739
REMARK INTER + INTRA:          -3.875
REMARK INTER:                  -3.748
REMARK INTRA:                  -0.127
REMARK UNBOUND:                -0.126
REMARK SMILES Cc1ccc(C(C)C)cc1O
REMARK SMILES IDX 1 1 2 2 10 3 9 4 5 5 4 6 3 7 11 8 6 10 7 11 8 12
REMARK H PARENT 11 9
REMARK Flexibility Score: inf
ROOT
ATOM      1  C   UNL     1     139.073 145.372 142.260  1.00  0.00     0.048 C 
ATOM      2  C   UNL     1     138.489 143.987 142.306  1.00  0.00    -0.009 A 
ATOM      3  C   UNL     1     138.041 143.342 141.132  1.00  0.00     0.118 A 
ATOM      4  C   UNL     1     137.504 142.052 141.207  1.00  0.00     0.050 A 
ATOM      5  C   UNL     1     137.401 141.383 142.441  1.00  0.00    -0.042 A 
ATOM      6  C   UNL     1     137.849 142.030 143.603  1.00  0.00     0.004 A 
ATOM      7  C   UNL     1     138.387 143.318 143.536  1.00  0.00     0.007 A 
ENDROOT
BRANCH   3   8
ATOM      8  O   UNL     1     138.116 143.954 139.878  1.00  0.00    -0.508 OA
ATOM      9  H   UNL     1     137.364 144.505 139.488  1.00  0.00     0.293 HD
ENDBRANCH   3   8
BRANCH   5  10
ATOM     10  C   UNL     1     136.818 139.985 142.529  1.00  0.00     0.013 C 
ATOM     11  C   UNL     1     135.667 139.804 141.533  1.00  0.00     0.012 C 
ATOM     12  C   UNL     1     136.368 139.662 143.958  1.00  0.00     0.012 C 
ENDBRANCH   5  10
TORSDOF 2
ENDMDL
MODEL 6
REMARK VINA RESULT:    -3.444      7.323      8.597
REMARK INTER + INTRA:          -3.871
REMARK INTER:                  -3.743
REMARK INTRA:                  -0.128
REMARK UNBOUND:                -0.126
REMARK SMILES Cc1ccc(C(C)C)cc1O
REMARK SMILES IDX 1 1 2 2 10 3 9 4 5 5 4 6 3 7 11 8 6 10 7 11 8 12
REMARK H PARENT 11 9
REMARK Flexibility Score: inf
ROOT
ATOM      1  C   UNL     1     138.057 142.955 142.638  1.00  0.00     0.048 C 
ATOM      2  C   UNL     1     138.700 144.080 141.874  1.00  0.00    -0.009 A 
ATOM      3  C   UNL     1     139.141 145.251 142.528  1.00  0.00     0.118 A 
ATOM      4  C   UNL     1     139.736 146.280 141.789  1.00  0.00     0.050 A 
ATOM      5  C   UNL     1     139.902 146.167 140.396  1.00  0.00    -0.042 A 
ATOM      6  C   UNL     1     139.460 145.000 139.753  1.00  0.00     0.004 A 
ATOM      7  C   UNL     1     138.865 143.968 140.484  1.00  0.00     0.007 A 
ENDROOT
BRANCH   3   8
ATOM      8  O   UNL     1     139.006 145.423 143.907  1.00  0.00    -0.508 OA
ATOM      9  H   UNL     1     139.322 146.252 144.394  1.00  0.00     0.293 HD
ENDBRANCH   3   8
BRANCH   5  10
ATOM     10  C   UNL     1     140.545 147.279 139.589  1.00  0.00     0.013 C 
ATOM     11  C   UNL     1     139.484 148.150 138.906  1.00  0.00     0.012 C 
ATOM     12  C   UNL     1     141.539 146.717 138.567  1.00  0.00     0.012 C 
ENDBRANCH   5  10
TORSDOF 2
ENDMDL
MODEL 7
REMARK VINA RESULT:    -3.399      7.207      8.238
REMARK INTER + INTRA:          -3.823
REMARK INTER:                  -3.695
REMARK INTRA:                  -0.127
REMARK UNBOUND:                -0.126
REMARK SMILES Cc1ccc(C(C)C)cc1O
REMARK SMILES IDX 1 1 2 2 10 3 9 4 5 5 4 6 3 7 11 8 6 10 7 11 8 12
REMARK H PARENT 11 9
REMARK Flexibility Score: inf
ROOT
ATOM      1  C   UNL     1     145.623 142.004 141.339  1.00  0.00     0.048 C 
ATOM      2  C   UNL     1     144.363 142.689 141.795  1.00  0.00    -0.009 A 
ATOM      3  C   UNL     1     144.173 143.043 143.149  1.00  0.00     0.118 A 
ATOM      4  C   UNL     1     142.991 143.681 143.542  1.00  0.00     0.050 A 
ATOM      5  C   UNL     1     141.983 143.976 142.606  1.00  0.00    -0.042 A 
ATOM      6  C   UNL     1     142.180 143.621 141.262  1.00  0.00     0.004 A 
ATOM      7  C   UNL     1     143.357 142.985 140.862  1.00  0.00     0.007 A 
ENDROOT
BRANCH   3   8
ATOM      8  O   UNL     1     145.136 142.777 144.125  1.00  0.00    -0.508 OA
ATOM      9  H   UNL     1     145.194 141.895 144.616  1.00  0.00     0.293 HD
ENDBRANCH   3   8
BRANCH   5  10
ATOM     10  C   UNL     1     140.698 144.666 143.027  1.00  0.00     0.013 C 
ATOM     11  C   UNL     1     139.995 145.304 141.823  1.00  0.00     0.012 C 
ATOM     12  C   UNL     1     140.962 145.702 144.125  1.00  0.00     0.012 C 
ENDBRANCH   5  10
TORSDOF 2
ENDMDL
MODEL 8
REMARK VINA RESULT:    -3.342      1.844      5.070
REMARK INTER + INTRA:          -3.761
REMARK INTER:                  -3.633
REMARK INTRA:                  -0.128
REMARK UNBOUND:                -0.126
REMARK SMILES Cc1ccc(C(C)C)cc1O
REMARK SMILES IDX 1 1 2 2 10 3 9 4 5 5 4 6 3 7 11 8 6 10 7 11 8 12
REMARK H PARENT 11 9
REMARK Flexibility Score: inf
ROOT
ATOM      1  C   UNL     1     138.537 137.595 143.355  1.00  0.00     0.048 C 
ATOM      2  C   UNL     1     137.711 138.378 142.371  1.00  0.00    -0.009 A 
ATOM      3  C   UNL     1     136.571 139.102 142.785  1.00  0.00     0.118 A 
ATOM      4  C   UNL     1     135.824 139.822 141.846  1.00  0.00     0.050 A 
ATOM      5  C   UNL     1     136.191 139.837 140.488  1.00  0.00    -0.042 A 
ATOM      6  C   UNL     1     137.325 139.115 140.085  1.00  0.00     0.004 A 
ATOM      7  C   UNL     1     138.077 138.394 141.016  1.00  0.00     0.007 A 
ENDROOT
BRANCH   3   8
ATOM      8  O   UNL     1     136.156 139.126 144.119  1.00  0.00    -0.508 OA
ATOM      9  H   UNL     1     136.415 138.415 144.790  1.00  0.00     0.293 HD
ENDBRANCH   3   8
BRANCH   5  10
ATOM     10  C   UNL     1     135.384 140.615 139.466  1.00  0.00     0.013 C 
ATOM     11  C   UNL     1     133.886 140.321 139.606  1.00  0.00     0.012 C 
ATOM     12  C   UNL     1     135.872 140.327 138.041  1.00  0.00     0.012 C 
ENDBRANCH   5  10
TORSDOF 2
ENDMDL
MODEL 9
REMARK VINA RESULT:    -3.333      1.481      2.068
REMARK INTER + INTRA:          -3.751
REMARK INTER:                  -3.623
REMARK INTRA:                  -0.128
REMARK UNBOUND:                -0.126
REMARK SMILES Cc1ccc(C(C)C)cc1O
REMARK SMILES IDX 1 1 2 2 10 3 9 4 5 5 4 6 3 7 11 8 6 10 7 11 8 12
REMARK H PARENT 11 9
REMARK Flexibility Score: inf
ROOT
ATOM      1  C   UNL     1     136.266 139.121 142.256  1.00  0.00     0.048 C 
ATOM      2  C   UNL     1     137.630 138.493 142.346  1.00  0.00    -0.009 A 
ATOM      3  C   UNL     1     138.385 138.211 141.186  1.00  0.00     0.118 A 
ATOM      4  C   UNL     1     139.651 137.627 141.304  1.00  0.00     0.050 A 
ATOM      5  C   UNL     1     140.188 137.314 142.566  1.00  0.00    -0.042 A 
ATOM      6  C   UNL     1     139.432 137.597 143.714  1.00  0.00     0.004 A 
ATOM      7  C   UNL     1     138.167 138.180 143.605  1.00  0.00     0.007 A 
ENDROOT
BRANCH   3   8
ATOM      8  O   UNL     1     137.907 138.499 139.906  1.00  0.00    -0.508 OA
ATOM      9  H   UNL     1     136.924 138.624 139.699  1.00  0.00     0.293 HD
ENDBRANCH   3   8
BRANCH   5  10
ATOM     10  C   UNL     1     141.560 136.679 142.699  1.00  0.00     0.013 C 
ATOM     11  C   UNL     1     141.751 135.557 141.672  1.00  0.00     0.012 C 
ATOM     12  C   UNL     1     141.797 136.169 144.125  1.00  0.00     0.012 C 
ENDBRANCH   5  10
TORSDOF 2
ENDMDL
