MODEL 1
REMARK VINA RESULT:    -5.451      0.000      0.000
REMARK INTER + INTRA:         -12.171
REMARK INTER:                 -10.231
REMARK INTRA:                  -1.939
REMARK UNBOUND:                -1.939
REMARK SMILES CCCCCC=CCC=CCCCCCCCC(=O)OC
REMARK SMILES IDX 11 1 10 2 9 3 8 4 7 5 6 6 5 7 4 8 3 9 2 10 1 11 12 12 13 13
REMARK SMILES IDX 14 14 15 15 16 16 17 17 18 18 19 19 20 20 21 21
REMARK H PARENT
REMARK Flexibility Score: inf
ROOT
ATOM      1  C   UNL     1      32.913   0.055  18.069  1.00  0.00     0.027 C 
ENDROOT
BRANCH   1   2
ATOM      2  C   UNL     1      31.856  -0.946  17.686  1.00  0.00    -0.031 C 
ATOM      3  C   UNL     1      31.226  -0.886  16.504  1.00  0.00    -0.027 C 
BRANCH   3   4
ATOM      4  C   UNL     1      30.167  -1.892  16.146  1.00  0.00     0.054 C 
BRANCH   4   5
ATOM      5  C   UNL     1      30.130  -3.024  17.136  1.00  0.00    -0.027 C 
ATOM      6  C   UNL     1      29.145  -3.936  17.119  1.00  0.00    -0.031 C 
BRANCH   6   7
ATOM      7  C   UNL     1      29.093  -5.063  18.116  1.00  0.00     0.027 C 
BRANCH   7   8
ATOM      8  C   UNL     1      29.265  -4.587  19.570  1.00  0.00     0.004 C 
BRANCH   8   9
ATOM      9  C   UNL     1      27.994  -3.979  20.199  1.00  0.00     0.000 C 
BRANCH   9  10
ATOM     10  C   UNL     1      28.191  -2.601  20.857  1.00  0.00    -0.003 C 
ATOM     11  C   UNL     1      29.519  -1.948  20.485  1.00  0.00     0.004 C 
ENDBRANCH   9  10
ENDBRANCH   8   9
ENDBRANCH   7   8
ENDBRANCH   6   7
ENDBRANCH   4   5
ENDBRANCH   3   4
ENDBRANCH   1   2
BRANCH   1  12
ATOM     12  C   UNL     1      33.983  -0.543  19.004  1.00  0.00     0.004 C 
BRANCH  12  13
ATOM     13  C   UNL     1      34.678  -1.793  18.430  1.00  0.00     0.000 C 
BRANCH  13  14
ATOM     14  C   UNL     1      36.080  -1.499  17.875  1.00  0.00     0.000 C 
BRANCH  14  15
ATOM     15  C   UNL     1      36.184  -1.908  16.401  1.00  0.00     0.001 C 
BRANCH  15  16
ATOM     16  C   UNL     1      35.099  -1.218  15.562  1.00  0.00     0.012 C 
BRANCH  16  17
ATOM     17  C   UNL     1      35.675  -0.122  14.654  1.00  0.00     0.123 C 
BRANCH  17  18
ATOM     18  C   UNL     1      35.790   1.192  15.365  1.00  0.00     0.305 C 
ATOM     19  O   UNL     1      34.749   1.865  15.609  1.00  0.00    -0.252 OA
BRANCH  18  20
ATOM     20  O   UNL     1      37.050   1.655  15.757  1.00  0.00    -0.469 OA
ATOM     21  C   UNL     1      38.253   0.996  15.385  1.00  0.00     0.282 C 
ENDBRANCH  18  20
ENDBRANCH  17  18
ENDBRANCH  16  17
ENDBRANCH  15  16
ENDBRANCH  14  15
ENDBRANCH  13  14
ENDBRANCH  12  13
ENDBRANCH   1  12
TORSDOF 15
ENDMDL
MODEL 2
REMARK VINA RESULT:    -5.362      1.354      2.159
REMARK INTER + INTRA:         -12.004
REMARK INTER:                 -10.342
REMARK INTRA:                  -1.662
REMARK UNBOUND:                -1.939
REMARK SMILES CCCCCC=CCC=CCCCCCCCC(=O)OC
REMARK SMILES IDX 11 1 10 2 9 3 8 4 7 5 6 6 5 7 4 8 3 9 2 10 1 11 12 12 13 13
REMARK SMILES IDX 14 14 15 15 16 16 17 17 18 18 19 19 20 20 21 21
REMARK H PARENT
REMARK Flexibility Score: inf
ROOT
ATOM      1  C   UNL     1      34.474  -0.709  18.896  1.00  0.00     0.027 C 
ENDROOT
BRANCH   1   2
ATOM      2  C   UNL     1      33.211  -0.372  18.149  1.00  0.00    -0.031 C 
ATOM      3  C   UNL     1      32.481  -1.318  17.540  1.00  0.00    -0.027 C 
BRANCH   3   4
ATOM      4  C   UNL     1      31.227  -0.957  16.793  1.00  0.00     0.054 C 
BRANCH   4   5
ATOM      5  C   UNL     1      30.339  -2.156  16.602  1.00  0.00    -0.027 C 
ATOM      6  C   UNL     1      30.141  -3.044  17.589  1.00  0.00    -0.031 C 
BRANCH   6   7
ATOM      7  C   UNL     1      29.264  -4.254  17.400  1.00  0.00     0.027 C 
BRANCH   7   8
ATOM      8  C   UNL     1      28.059  -4.277  18.357  1.00  0.00     0.004 C 
BRANCH   8   9
ATOM      9  C   UNL     1      28.429  -4.395  19.851  1.00  0.00     0.000 C 
BRANCH   9  10
ATOM     10  C   UNL     1      27.917  -3.247  20.739  1.00  0.00    -0.003 C 
ATOM     11  C   UNL     1      28.924  -2.109  20.879  1.00  0.00     0.004 C 
ENDBRANCH   9  10
ENDBRANCH   8   9
ENDBRANCH   7   8
ENDBRANCH   6   7
ENDBRANCH   4   5
ENDBRANCH   3   4
ENDBRANCH   1   2
BRANCH   1  12
ATOM     12  C   UNL     1      35.242  -1.883  18.256  1.00  0.00     0.004 C 
BRANCH  12  13
ATOM     13  C   UNL     1      36.296  -1.444  17.220  1.00  0.00     0.000 C 
BRANCH  13  14
ATOM     14  C   UNL     1      35.800  -1.566  15.771  1.00  0.00     0.000 C 
BRANCH  14  15
ATOM     15  C   UNL     1      35.926  -0.227  15.035  1.00  0.00     0.001 C 
BRANCH  15  16
ATOM     16  C   UNL     1      36.232   0.914  16.016  1.00  0.00     0.012 C 
BRANCH  16  17
ATOM     17  C   UNL     1      37.379   1.809  15.528  1.00  0.00     0.123 C 
BRANCH  17  18
ATOM     18  C   UNL     1      38.706   1.120  15.623  1.00  0.00     0.305 C 
ATOM     19  O   UNL     1      39.320   0.793  14.569  1.00  0.00    -0.252 OA
BRANCH  18  20
ATOM     20  O   UNL     1      39.254   0.853  16.883  1.00  0.00    -0.469 OA
ATOM     21  C   UNL     1      39.638   1.886  17.781  1.00  0.00     0.282 C 
ENDBRANCH  18  20
ENDBRANCH  17  18
ENDBRANCH  16  17
ENDBRANCH  15  16
ENDBRANCH  14  15
ENDBRANCH  13  14
ENDBRANCH  12  13
ENDBRANCH   1  12
TORSDOF 15
ENDMDL
MODEL 3
REMARK VINA RESULT:    -5.342      1.425      3.387
REMARK INTER + INTRA:         -11.966
REMARK INTER:                  -9.590
REMARK INTRA:                  -2.375
REMARK UNBOUND:                -1.939
REMARK SMILES CCCCCC=CCC=CCCCCCCCC(=O)OC
REMARK SMILES IDX 11 1 10 2 9 3 8 4 7 5 6 6 5 7 4 8 3 9 2 10 1 11 12 12 13 13
REMARK SMILES IDX 14 14 15 15 16 16 17 17 18 18 19 19 20 20 21 21
REMARK H PARENT
REMARK Flexibility Score: inf
ROOT
ATOM      1  C   UNL     1      30.038  -0.147  17.589  1.00  0.00     0.027 C 
ENDROOT
BRANCH   1   2
ATOM      2  C   UNL     1      29.296  -0.822  18.712  1.00  0.00    -0.031 C 
ATOM      3  C   UNL     1      29.940  -1.519  19.660  1.00  0.00    -0.027 C 
BRANCH   3   4
ATOM      4  C   UNL     1      29.178  -2.193  20.768  1.00  0.00     0.054 C 
BRANCH   4   5
ATOM      5  C   UNL     1      28.259  -3.257  20.233  1.00  0.00    -0.027 C 
ATOM      6  C   UNL     1      28.713  -4.236  19.435  1.00  0.00    -0.031 C 
BRANCH   6   7
ATOM      7  C   UNL     1      27.796  -5.297  18.884  1.00  0.00     0.027 C 
BRANCH   7   8
ATOM      8  C   UNL     1      27.676  -5.249  17.350  1.00  0.00     0.004 C 
BRANCH   8   9
ATOM      9  C   UNL     1      28.579  -4.199  16.669  1.00  0.00     0.000 C 
BRANCH   9  10
ATOM     10  C   UNL     1      27.830  -3.127  15.858  1.00  0.00    -0.003 C 
ATOM     11  C   UNL     1      26.730  -2.435  16.659  1.00  0.00     0.004 C 
ENDBRANCH   9  10
ENDBRANCH   8   9
ENDBRANCH   7   8
ENDBRANCH   6   7
ENDBRANCH   4   5
ENDBRANCH   3   4
ENDBRANCH   1   2
BRANCH   1  12
ATOM     12  C   UNL     1      30.970  -1.114  16.832  1.00  0.00     0.004 C 
BRANCH  12  13
ATOM     13  C   UNL     1      32.426  -0.619  16.730  1.00  0.00     0.000 C 
BRANCH  13  14
ATOM     14  C   UNL     1      32.790   0.403  17.817  1.00  0.00     0.000 C 
BRANCH  14  15
ATOM     15  C   UNL     1      33.582  -0.261  18.950  1.00  0.00     0.001 C 
BRANCH  15  16
ATOM     16  C   UNL     1      34.650  -1.212  18.390  1.00  0.00     0.012 C 
BRANCH  16  17
ATOM     17  C   UNL     1      36.068  -0.638  18.524  1.00  0.00     0.123 C 
BRANCH  17  18
ATOM     18  C   UNL     1      36.395   0.310  17.412  1.00  0.00     0.305 C 
ATOM     19  O   UNL     1      36.395   1.554  17.628  1.00  0.00    -0.252 OA
BRANCH  18  20
ATOM     20  O   UNL     1      36.703  -0.195  16.144  1.00  0.00    -0.469 OA
ATOM     21  C   UNL     1      35.833  -0.041  15.031  1.00  0.00     0.282 C 
ENDBRANCH  18  20
ENDBRANCH  17  18
ENDBRANCH  16  17
ENDBRANCH  15  16
ENDBRANCH  14  15
ENDBRANCH  13  14
ENDBRANCH  12  13
ENDBRANCH   1  12
TORSDOF 15
ENDMDL
MODEL 4
REMARK VINA RESULT:    -5.319      3.058      7.904
REMARK INTER + INTRA:         -11.923
REMARK INTER:                  -9.925
REMARK INTRA:                  -1.998
REMARK UNBOUND:                -1.939
REMARK SMILES CCCCCC=CCC=CCCCCCCCC(=O)OC
REMARK SMILES IDX 11 1 10 2 9 3 8 4 7 5 6 6 5 7 4 8 3 9 2 10 1 11 12 12 13 13
REMARK SMILES IDX 14 14 15 15 16 16 17 17 18 18 19 19 20 20 21 21
REMARK H PARENT
REMARK Flexibility Score: inf
ROOT
ATOM      1  C   UNL     1      31.459  -1.193  16.979  1.00  0.00     0.027 C 
ENDROOT
BRANCH   1   2
ATOM      2  C   UNL     1      32.645  -1.321  17.897  1.00  0.00    -0.031 C 
ATOM      3  C   UNL     1      33.756  -1.973  17.523  1.00  0.00    -0.027 C 
BRANCH   3   4
ATOM      4  C   UNL     1      34.927  -2.096  18.459  1.00  0.00     0.054 C 
BRANCH   4   5
ATOM      5  C   UNL     1      35.812  -0.881  18.393  1.00  0.00    -0.027 C 
ATOM      6  C   UNL     1      36.731  -0.739  17.425  1.00  0.00    -0.031 C 
BRANCH   6   7
ATOM      7  C   UNL     1      37.630   0.468  17.360  1.00  0.00     0.027 C 
BRANCH   7   8
ATOM      8  C   UNL     1      36.857   1.780  17.131  1.00  0.00     0.004 C 
BRANCH   8   9
ATOM      9  C   UNL     1      36.049   1.826  15.817  1.00  0.00     0.000 C 
BRANCH   9  10
ATOM     10  C   UNL     1      34.525   1.941  15.997  1.00  0.00    -0.003 C 
ATOM     11  C   UNL     1      34.105   2.055  17.459  1.00  0.00     0.004 C 
ENDBRANCH   9  10
ENDBRANCH   8   9
ENDBRANCH   7   8
ENDBRANCH   6   7
ENDBRANCH   4   5
ENDBRANCH   3   4
ENDBRANCH   1   2
BRANCH   1  12
ATOM     12  C   UNL     1      30.482  -0.088  17.427  1.00  0.00     0.004 C 
BRANCH  12  13
ATOM     13  C   UNL     1      29.063  -0.603  17.739  1.00  0.00     0.000 C 
BRANCH  13  14
ATOM     14  C   UNL     1      28.699  -0.498  19.228  1.00  0.00     0.000 C 
BRANCH  14  15
ATOM     15  C   UNL     1      29.617  -1.382  20.080  1.00  0.00     0.001 C 
BRANCH  15  16
ATOM     16  C   UNL     1      28.810  -2.461  20.818  1.00  0.00     0.012 C 
BRANCH  16  17
ATOM     17  C   UNL     1      28.352  -3.587  19.881  1.00  0.00     0.123 C 
BRANCH  17  18
ATOM     18  C   UNL     1      29.505  -4.231  19.174  1.00  0.00     0.305 C 
ATOM     19  O   UNL     1      30.346  -4.905  19.832  1.00  0.00    -0.252 OA
BRANCH  18  20
ATOM     20  O   UNL     1      29.634  -4.082  17.788  1.00  0.00    -0.469 OA
ATOM     21  C   UNL     1      28.530  -4.217  16.903  1.00  0.00     0.282 C 
ENDBRANCH  18  20
ENDBRANCH  17  18
ENDBRANCH  16  17
ENDBRANCH  15  16
ENDBRANCH  14  15
ENDBRANCH  13  14
ENDBRANCH  12  13
ENDBRANCH   1  12
TORSDOF 15
ENDMDL
MODEL 5
REMARK VINA RESULT:    -5.311      3.019      8.640
REMARK INTER + INTRA:         -11.908
REMARK INTER:                 -10.352
REMARK INTRA:                  -1.556
REMARK UNBOUND:                -1.939
REMARK SMILES CCCCCC=CCC=CCCCCCCCC(=O)OC
REMARK SMILES IDX 11 1 10 2 9 3 8 4 7 5 6 6 5 7 4 8 3 9 2 10 1 11 12 12 13 13
REMARK SMILES IDX 14 14 15 15 16 16 17 17 18 18 19 19 20 20 21 21
REMARK H PARENT
REMARK Flexibility Score: inf
ROOT
ATOM      1  C   UNL     1      32.332  -1.136  18.037  1.00  0.00     0.027 C 
ENDROOT
BRANCH   1   2
ATOM      2  C   UNL     1      33.505  -0.217  18.252  1.00  0.00    -0.031 C 
ATOM      3  C   UNL     1      33.789   0.772  17.391  1.00  0.00    -0.027 C 
BRANCH   3   4
ATOM      4  C   UNL     1      34.971   1.673  17.620  1.00  0.00     0.054 C 
BRANCH   4   5
ATOM      5  C   UNL     1      36.264   0.906  17.562  1.00  0.00    -0.027 C 
ATOM      6  C   UNL     1      36.731   0.410  16.405  1.00  0.00    -0.031 C 
BRANCH   6   7
ATOM      7  C   UNL     1      38.018  -0.370  16.341  1.00  0.00     0.027 C 
BRANCH   7   8
ATOM      8  C   UNL     1      39.246   0.518  16.070  1.00  0.00     0.004 C 
BRANCH   8   9
ATOM      9  C   UNL     1      39.129   1.405  14.812  1.00  0.00     0.000 C 
BRANCH   9  10
ATOM     10  C   UNL     1      39.120   2.919  15.084  1.00  0.00    -0.003 C 
ATOM     11  C   UNL     1      39.281   3.259  16.563  1.00  0.00     0.004 C 
ENDBRANCH   9  10
ENDBRANCH   8   9
ENDBRANCH   7   8
ENDBRANCH   6   7
ENDBRANCH   4   5
ENDBRANCH   3   4
ENDBRANCH   1   2
BRANCH   1  12
ATOM     12  C   UNL     1      31.220  -0.486  17.190  1.00  0.00     0.004 C 
BRANCH  12  13
ATOM     13  C   UNL     1      30.282  -1.504  16.512  1.00  0.00     0.000 C 
BRANCH  13  14
ATOM     14  C   UNL     1      30.450  -2.931  17.057  1.00  0.00     0.000 C 
BRANCH  14  15
ATOM     15  C   UNL     1      29.201  -3.375  17.826  1.00  0.00     0.001 C 
BRANCH  15  16
ATOM     16  C   UNL     1      29.576  -3.935  19.206  1.00  0.00     0.012 C 
BRANCH  16  17
ATOM     17  C   UNL     1      28.686  -3.373  20.324  1.00  0.00     0.123 C 
BRANCH  17  18
ATOM     18  C   UNL     1      28.887  -1.901  20.513  1.00  0.00     0.305 C 
ATOM     19  O   UNL     1      29.946  -1.477  21.056  1.00  0.00    -0.252 OA
BRANCH  18  20
ATOM     20  O   UNL     1      27.900  -1.009  20.079  1.00  0.00    -0.469 OA
ATOM     21  C   UNL     1      28.190   0.095  19.232  1.00  0.00     0.282 C 
ENDBRANCH  18  20
ENDBRANCH  17  18
ENDBRANCH  16  17
ENDBRANCH  15  16
ENDBRANCH  14  15
ENDBRANCH  13  14
ENDBRANCH  12  13
ENDBRANCH   1  12
TORSDOF 15
ENDMDL
MODEL 6
REMARK VINA RESULT:    -5.275      3.070      7.888
REMARK INTER + INTRA:         -11.840
REMARK INTER:                  -9.825
REMARK INTRA:                  -2.014
REMARK UNBOUND:                -1.939
REMARK SMILES CCCCCC=CCC=CCCCCCCCC(=O)OC
REMARK SMILES IDX 11 1 10 2 9 3 8 4 7 5 6 6 5 7 4 8 3 9 2 10 1 11 12 12 13 13
REMARK SMILES IDX 14 14 15 15 16 16 17 17 18 18 19 19 20 20 21 21
REMARK H PARENT
REMARK Flexibility Score: inf
ROOT
ATOM      1  C   UNL     1      31.827  -0.241  17.612  1.00  0.00     0.027 C 
ENDROOT
BRANCH   1   2
ATOM      2  C   UNL     1      32.761   0.398  16.619  1.00  0.00    -0.031 C 
ATOM      3  C   UNL     1      33.176   1.666  16.760  1.00  0.00    -0.027 C 
BRANCH   3   4
ATOM      4  C   UNL     1      34.103   2.286  15.751  1.00  0.00     0.054 C 
BRANCH   4   5
ATOM      5  C   UNL     1      35.509   1.777  15.913  1.00  0.00    -0.027 C 
ATOM      6  C   UNL     1      36.144   1.842  17.094  1.00  0.00    -0.031 C 
BRANCH   6   7
ATOM      7  C   UNL     1      37.557   1.347  17.261  1.00  0.00     0.027 C 
BRANCH   7   8
ATOM      8  C   UNL     1      37.646  -0.186  17.377  1.00  0.00     0.004 C 
BRANCH   8   9
ATOM      9  C   UNL     1      36.542  -0.828  18.243  1.00  0.00     0.000 C 
BRANCH   9  10
ATOM     10  C   UNL     1      35.633  -1.824  17.501  1.00  0.00    -0.003 C 
ATOM     11  C   UNL     1      35.896  -1.865  15.999  1.00  0.00     0.004 C 
ENDBRANCH   9  10
ENDBRANCH   8   9
ENDBRANCH   7   8
ENDBRANCH   6   7
ENDBRANCH   4   5
ENDBRANCH   3   4
ENDBRANCH   1   2
BRANCH   1  12
ATOM     12  C   UNL     1      31.089  -1.462  17.028  1.00  0.00     0.004 C 
BRANCH  12  13
ATOM     13  C   UNL     1      29.604  -1.196  16.712  1.00  0.00     0.000 C 
BRANCH  13  14
ATOM     14  C   UNL     1      29.006  -0.057  17.552  1.00  0.00     0.000 C 
BRANCH  14  15
ATOM     15  C   UNL     1      27.680  -0.485  18.192  1.00  0.00     0.001 C 
BRANCH  15  16
ATOM     16  C   UNL     1      27.598  -2.014  18.315  1.00  0.00     0.012 C 
BRANCH  16  17
ATOM     17  C   UNL     1      27.719  -2.488  19.770  1.00  0.00     0.123 C 
BRANCH  17  18
ATOM     18  C   UNL     1      29.146  -2.558  20.219  1.00  0.00     0.305 C 
ATOM     19  O   UNL     1      29.561  -1.771  21.115  1.00  0.00    -0.252 OA
BRANCH  18  20
ATOM     20  O   UNL     1      30.004  -3.501  19.642  1.00  0.00    -0.469 OA
ATOM     21  C   UNL     1      29.567  -4.802  19.272  1.00  0.00     0.282 C 
ENDBRANCH  18  20
ENDBRANCH  17  18
ENDBRANCH  16  17
ENDBRANCH  15  16
ENDBRANCH  14  15
ENDBRANCH  13  14
ENDBRANCH  12  13
ENDBRANCH   1  12
TORSDOF 15
ENDMDL
MODEL 7
REMARK VINA RESULT:    -5.269      1.861      2.963
REMARK INTER + INTRA:         -11.829
REMARK INTER:                 -10.301
REMARK INTRA:                  -1.529
REMARK UNBOUND:                -1.939
REMARK SMILES CCCCCC=CCC=CCCCCCCCC(=O)OC
REMARK SMILES IDX 11 1 10 2 9 3 8 4 7 5 6 6 5 7 4 8 3 9 2 10 1 11 12 12 13 13
REMARK SMILES IDX 14 14 15 15 16 16 17 17 18 18 19 19 20 20 21 21
REMARK H PARENT
REMARK Flexibility Score: inf
ROOT
ATOM      1  C   UNL     1      33.758  -0.739  18.297  1.00  0.00     0.027 C 
ENDROOT
BRANCH   1   2
ATOM      2  C   UNL     1      32.267  -0.577  18.160  1.00  0.00    -0.031 C 
ATOM      3  C   UNL     1      31.596  -1.093  17.119  1.00  0.00    -0.027 C 
BRANCH   3   4
ATOM      4  C   UNL     1      30.108  -0.911  16.999  1.00  0.00     0.054 C 
BRANCH   4   5
ATOM      5  C   UNL     1      29.366  -2.114  17.515  1.00  0.00    -0.027 C 
ATOM      6  C   UNL     1      29.952  -3.320  17.585  1.00  0.00    -0.031 C 
BRANCH   6   7
ATOM      7  C   UNL     1      29.211  -4.531  18.087  1.00  0.00     0.027 C 
BRANCH   7   8
ATOM      8  C   UNL     1      28.558  -5.347  16.957  1.00  0.00     0.004 C 
BRANCH   8   9
ATOM      9  C   UNL     1      27.086  -4.982  16.671  1.00  0.00     0.000 C 
BRANCH   9  10
ATOM     10  C   UNL     1      26.847  -4.238  15.345  1.00  0.00    -0.003 C 
ATOM     11  C   UNL     1      26.355  -2.807  15.547  1.00  0.00     0.004 C 
ENDBRANCH   9  10
ENDBRANCH   8   9
ENDBRANCH   7   8
ENDBRANCH   6   7
ENDBRANCH   4   5
ENDBRANCH   3   4
ENDBRANCH   1   2
BRANCH   1  12
ATOM     12  C   UNL     1      34.238  -2.146  17.888  1.00  0.00     0.004 C 
BRANCH  12  13
ATOM     13  C   UNL     1      35.062  -2.165  16.585  1.00  0.00     0.000 C 
BRANCH  13  14
ATOM     14  C   UNL     1      35.055  -0.817  15.850  1.00  0.00     0.000 C 
BRANCH  14  15
ATOM     15  C   UNL     1      36.445  -0.487  15.295  1.00  0.00     0.001 C 
BRANCH  15  16
ATOM     16  C   UNL     1      37.521  -0.642  16.380  1.00  0.00     0.012 C 
BRANCH  16  17
ATOM     17  C   UNL     1      37.666   0.622  17.240  1.00  0.00     0.123 C 
BRANCH  17  18
ATOM     18  C   UNL     1      38.897   1.400  16.887  1.00  0.00     0.305 C 
ATOM     19  O   UNL     1      39.655   1.823  17.804  1.00  0.00    -0.252 OA
BRANCH  18  20
ATOM     20  O   UNL     1      39.196   1.644  15.542  1.00  0.00    -0.469 OA
ATOM     21  C   UNL     1      39.143   2.947  14.975  1.00  0.00     0.282 C 
ENDBRANCH  18  20
ENDBRANCH  17  18
ENDBRANCH  16  17
ENDBRANCH  15  16
ENDBRANCH  14  15
ENDBRANCH  13  14
ENDBRANCH  12  13
ENDBRANCH   1  12
TORSDOF 15
ENDMDL
MODEL 8
REMARK VINA RESULT:    -5.250      1.722      2.563
REMARK INTER + INTRA:         -11.793
REMARK INTER:                  -9.868
REMARK INTRA:                  -1.925
REMARK UNBOUND:                -1.939
REMARK SMILES CCCCCC=CCC=CCCCCCCCC(=O)OC
REMARK SMILES IDX 11 1 10 2 9 3 8 4 7 5 6 6 5 7 4 8 3 9 2 10 1 11 12 12 13 13
REMARK SMILES IDX 14 14 15 15 16 16 17 17 18 18 19 19 20 20 21 21
REMARK H PARENT
REMARK Flexibility Score: inf
ROOT
ATOM      1  C   UNL     1      30.456  -0.356  17.332  1.00  0.00     0.027 C 
ENDROOT
BRANCH   1   2
ATOM      2  C   UNL     1      29.169  -1.036  16.946  1.00  0.00    -0.031 C 
ATOM      3  C   UNL     1      29.076  -1.788  15.840  1.00  0.00    -0.027 C 
BRANCH   3   4
ATOM      4  C   UNL     1      27.778  -2.451  15.469  1.00  0.00     0.054 C 
BRANCH   4   5
ATOM      5  C   UNL     1      27.419  -3.536  16.447  1.00  0.00    -0.027 C 
ATOM      6  C   UNL     1      28.252  -4.559  16.693  1.00  0.00    -0.031 C 
BRANCH   6   7
ATOM      7  C   UNL     1      27.892  -5.657  17.661  1.00  0.00     0.027 C 
BRANCH   7   8
ATOM      8  C   UNL     1      27.598  -5.134  19.079  1.00  0.00     0.004 C 
BRANCH   8   9
ATOM      9  C   UNL     1      28.709  -4.248  19.679  1.00  0.00     0.000 C 
BRANCH   9  10
ATOM     10  C   UNL     1      28.261  -2.836  20.095  1.00  0.00    -0.003 C 
ATOM     11  C   UNL     1      29.390  -2.009  20.703  1.00  0.00     0.004 C 
ENDBRANCH   9  10
ENDBRANCH   8   9
ENDBRANCH   7   8
ENDBRANCH   6   7
ENDBRANCH   4   5
ENDBRANCH   3   4
ENDBRANCH   1   2
BRANCH   1  12
ATOM     12  C   UNL     1      31.589  -1.359  17.625  1.00  0.00     0.004 C 
BRANCH  12  13
ATOM     13  C   UNL     1      32.996  -0.731  17.597  1.00  0.00     0.000 C 
BRANCH  13  14
ATOM     14  C   UNL     1      33.337  -0.083  16.246  1.00  0.00     0.000 C 
BRANCH  14  15
ATOM     15  C   UNL     1      33.515   1.433  16.395  1.00  0.00     0.001 C 
BRANCH  15  16
ATOM     16  C   UNL     1      34.204   1.777  17.724  1.00  0.00     0.012 C 
BRANCH  16  17
ATOM     17  C   UNL     1      35.691   2.110  17.539  1.00  0.00     0.123 C 
BRANCH  17  18
ATOM     18  C   UNL     1      36.550   0.884  17.589  1.00  0.00     0.305 C 
ATOM     19  O   UNL     1      36.400   0.051  18.527  1.00  0.00    -0.252 OA
BRANCH  18  20
ATOM     20  O   UNL     1      37.506   0.671  16.590  1.00  0.00    -0.469 OA
ATOM     21  C   UNL     1      37.150   0.407  15.239  1.00  0.00     0.282 C 
ENDBRANCH  18  20
ENDBRANCH  17  18
ENDBRANCH  16  17
ENDBRANCH  15  16
ENDBRANCH  14  15
ENDBRANCH  13  14
ENDBRANCH  12  13
ENDBRANCH   1  12
TORSDOF 15
ENDMDL
MODEL 9
REMARK VINA RESULT:    -5.249      1.781      2.530
REMARK INTER + INTRA:         -11.792
REMARK INTER:                  -9.930
REMARK INTRA:                  -1.862
REMARK UNBOUND:                -1.939
REMARK SMILES CCCCCC=CCC=CCCCCCCCC(=O)OC
REMARK SMILES IDX 11 1 10 2 9 3 8 4 7 5 6 6 5 7 4 8 3 9 2 10 1 11 12 12 13 13
REMARK SMILES IDX 14 14 15 15 16 16 17 17 18 18 19 19 20 20 21 21
REMARK H PARENT
REMARK Flexibility Score: inf
ROOT
ATOM      1  C   UNL     1      32.407  -1.103  18.518  1.00  0.00     0.027 C 
ENDROOT
BRANCH   1   2
ATOM      2  C   UNL     1      31.350  -1.360  17.477  1.00  0.00    -0.031 C 
ATOM      3  C   UNL     1      30.294  -0.545  17.332  1.00  0.00    -0.027 C 
BRANCH   3   4
ATOM      4  C   UNL     1      29.245  -0.826  16.291  1.00  0.00     0.054 C 
BRANCH   4   5
ATOM      5  C   UNL     1      29.074  -2.304  16.070  1.00  0.00    -0.027 C 
ATOM      6  C   UNL     1      27.969  -2.948  16.475  1.00  0.00    -0.031 C 
BRANCH   6   7
ATOM      7  C   UNL     1      27.797  -4.431  16.268  1.00  0.00     0.027 C 
BRANCH   7   8
ATOM      8  C   UNL     1      28.709  -5.273  17.180  1.00  0.00     0.004 C 
BRANCH   8   9
ATOM      9  C   UNL     1      28.512  -5.023  18.689  1.00  0.00     0.000 C 
BRANCH   9  10
ATOM     10  C   UNL     1      29.683  -4.308  19.387  1.00  0.00    -0.003 C 
ATOM     11  C   UNL     1      29.266  -3.007  20.066  1.00  0.00     0.004 C 
ENDBRANCH   9  10
ENDBRANCH   8   9
ENDBRANCH   7   8
ENDBRANCH   6   7
ENDBRANCH   4   5
ENDBRANCH   3   4
ENDBRANCH   1   2
BRANCH   1  12
ATOM     12  C   UNL     1      33.686  -0.484  17.920  1.00  0.00     0.004 C 
BRANCH  12  13
ATOM     13  C   UNL     1      33.607   1.044  17.735  1.00  0.00     0.000 C 
BRANCH  13  14
ATOM     14  C   UNL     1      33.477   1.465  16.263  1.00  0.00     0.000 C 
BRANCH  14  15
ATOM     15  C   UNL     1      34.733   2.206  15.792  1.00  0.00     0.001 C 
BRANCH  15  16
ATOM     16  C   UNL     1      35.856   1.218  15.443  1.00  0.00     0.012 C 
BRANCH  16  17
ATOM     17  C   UNL     1      37.225   1.688  15.954  1.00  0.00     0.123 C 
BRANCH  17  18
ATOM     18  C   UNL     1      37.834   0.706  16.907  1.00  0.00     0.305 C 
ATOM     19  O   UNL     1      37.161  -0.290  17.296  1.00  0.00    -0.252 OA
BRANCH  18  20
ATOM     20  O   UNL     1      39.147   0.899  17.350  1.00  0.00    -0.469 OA
ATOM     21  C   UNL     1      40.108  -0.148  17.364  1.00  0.00     0.282 C 
ENDBRANCH  18  20
ENDBRANCH  17  18
ENDBRANCH  16  17
ENDBRANCH  15  16
ENDBRANCH  14  15
ENDBRANCH  13  14
ENDBRANCH  12  13
ENDBRANCH   1  12
TORSDOF 15
ENDMDL
