MODEL 1
REMARK VINA RESULT:    -3.818      0.000      0.000
REMARK INTER + INTRA:         -13.374
REMARK INTER:                  -8.728
REMARK INTRA:                  -4.646
REMARK UNBOUND:                -4.646
REMARK SMILES CCCCCCCCCCCCCCCCCCCCCCCC(=O)[O-]
REMARK SMILES IDX 13 1 14 2 15 3 16 4 17 5 18 6 19 7 20 8 21 9 22 10 23 11
REMARK SMILES IDX 24 12 25 13 26 14 12 15 11 16 10 17 9 18 8 19 7 20 6 21 5 22
REMARK SMILES IDX 4 23 3 24 2 25 1 26
REMARK H PARENT
REMARK Flexibility Score: inf
ROOT
ATOM      1  C   UNL     1      31.085   8.114  33.686  1.00  0.00     0.000 C 
ENDROOT
BRANCH   1   2
ATOM      2  C   UNL     1      31.171   7.201  32.452  1.00  0.00     0.000 C 
BRANCH   2   3
ATOM      3  C   UNL     1      32.369   7.535  31.548  1.00  0.00     0.000 C 
BRANCH   3   4
ATOM      4  C   UNL     1      32.849   8.986  31.707  1.00  0.00     0.000 C 
BRANCH   4   5
ATOM      5  C   UNL     1      33.194   9.600  30.345  1.00  0.00     0.000 C 
BRANCH   5   6
ATOM      6  C   UNL     1      33.144   8.541  29.234  1.00  0.00     0.000 C 
BRANCH   6   7
ATOM      7  C   UNL     1      32.223   8.944  28.068  1.00  0.00     0.000 C 
BRANCH   7   8
ATOM      8  C   UNL     1      30.738   8.568  28.253  1.00  0.00     0.000 C 
BRANCH   8   9
ATOM      9  C   UNL     1      29.840   9.700  28.791  1.00  0.00     0.000 C 
BRANCH   9  10
ATOM     10  C   UNL     1      29.339   9.503  30.236  1.00  0.00     0.006 C 
BRANCH  10  11
ATOM     11  C   UNL     1      29.542  10.721  31.151  1.00  0.00     0.053 C 
BRANCH  11  12
ATOM     12  C   UNL     1      28.796  11.923  30.658  1.00  0.00     0.041 C 
ATOM     13  O   UNL     1      27.545  11.883  30.525  1.00  0.00    -0.550 OA
ATOM     14  O   UNL     1      29.490  13.078  30.316  1.00  0.00    -0.550 OA
ENDBRANCH  11  12
ENDBRANCH  10  11
ENDBRANCH   9  10
ENDBRANCH   8   9
ENDBRANCH   7   8
ENDBRANCH   6   7
ENDBRANCH   5   6
ENDBRANCH   4   5
ENDBRANCH   3   4
ENDBRANCH   2   3
ENDBRANCH   1   2
BRANCH   1  15
ATOM     15  C   UNL     1      30.991   7.283  34.975  1.00  0.00     0.000 C 
BRANCH  15  16
ATOM     16  C   UNL     1      32.343   6.691  35.406  1.00  0.00     0.000 C 
BRANCH  16  17
ATOM     17  C   UNL     1      33.455   7.750  35.496  1.00  0.00     0.000 C 
BRANCH  17  18
ATOM     18  C   UNL     1      34.852   7.155  35.261  1.00  0.00    -0.000 C 
BRANCH  18  19
ATOM     19  C   UNL     1      35.028   6.601  33.835  1.00  0.00    -0.000 C 
BRANCH  19  20
ATOM     20  C   UNL     1      35.983   7.467  32.986  1.00  0.00    -0.000 C 
BRANCH  20  21
ATOM     21  C   UNL     1      36.051   7.045  31.508  1.00  0.00    -0.000 C 
BRANCH  21  22
ATOM     22  C   UNL     1      36.734   8.094  30.620  1.00  0.00    -0.000 C 
BRANCH  22  23
ATOM     23  C   UNL     1      36.990   9.394  31.393  1.00  0.00    -0.000 C 
BRANCH  23  24
ATOM     24  C   UNL     1      36.653  10.650  30.573  1.00  0.00    -0.000 C 
BRANCH  24  25
ATOM     25  C   UNL     1      36.136  11.827  31.428  1.00  0.00    -0.003 C 
ATOM     26  C   UNL     1      35.507  11.361  32.740  1.00  0.00     0.004 C 
ENDBRANCH  24  25
ENDBRANCH  23  24
ENDBRANCH  22  23
ENDBRANCH  21  22
ENDBRANCH  20  21
ENDBRANCH  19  20
ENDBRANCH  18  19
ENDBRANCH  17  18
ENDBRANCH  16  17
ENDBRANCH  15  16
ENDBRANCH   1  15
TORSDOF 22
ENDMDL
MODEL 2
REMARK VINA RESULT:    -3.789      1.467      3.170
REMARK INTER + INTRA:         -13.308
REMARK INTER:                  -9.308
REMARK INTRA:                  -4.000
REMARK UNBOUND:                -4.646
REMARK SMILES CCCCCCCCCCCCCCCCCCCCCCCC(=O)[O-]
REMARK SMILES IDX 13 1 14 2 15 3 16 4 17 5 18 6 19 7 20 8 21 9 22 10 23 11
REMARK SMILES IDX 24 12 25 13 26 14 12 15 11 16 10 17 9 18 8 19 7 20 6 21 5 22
REMARK SMILES IDX 4 23 3 24 2 25 1 26
REMARK H PARENT
REMARK Flexibility Score: inf
ROOT
ATOM      1  C   UNL     1      31.116   8.698  32.916  1.00  0.00     0.000 C 
ENDROOT
BRANCH   1   2
ATOM      2  C   UNL     1      31.236   7.206  32.566  1.00  0.00     0.000 C 
BRANCH   2   3
ATOM      3  C   UNL     1      31.385   6.959  31.056  1.00  0.00     0.000 C 
BRANCH   3   4
ATOM      4  C   UNL     1      30.040   6.970  30.315  1.00  0.00     0.000 C 
BRANCH   4   5
ATOM      5  C   UNL     1      30.233   7.329  28.837  1.00  0.00     0.000 C 
BRANCH   5   6
ATOM      6  C   UNL     1      31.527   8.129  28.628  1.00  0.00     0.000 C 
BRANCH   6   7
ATOM      7  C   UNL     1      31.282   9.496  27.966  1.00  0.00     0.000 C 
BRANCH   7   8
ATOM      8  C   UNL     1      29.844   9.724  27.456  1.00  0.00     0.000 C 
BRANCH   8   9
ATOM      9  C   UNL     1      29.249  11.110  27.776  1.00  0.00     0.000 C 
BRANCH   9  10
ATOM     10  C   UNL     1      28.320  11.153  29.005  1.00  0.00     0.006 C 
BRANCH  10  11
ATOM     11  C   UNL     1      28.916  10.526  30.275  1.00  0.00     0.053 C 
BRANCH  11  12
ATOM     12  C   UNL     1      29.289  11.564  31.290  1.00  0.00     0.041 C 
ATOM     13  O   UNL     1      28.817  11.510  32.455  1.00  0.00    -0.550 OA
ATOM     14  O   UNL     1      30.135  12.609  30.935  1.00  0.00    -0.550 OA
ENDBRANCH  11  12
ENDBRANCH  10  11
ENDBRANCH   9  10
ENDBRANCH   8   9
ENDBRANCH   7   8
ENDBRANCH   6   7
ENDBRANCH   5   6
ENDBRANCH   4   5
ENDBRANCH   3   4
ENDBRANCH   2   3
ENDBRANCH   1   2
BRANCH   1  15
ATOM     15  C   UNL     1      32.479   9.398  32.798  1.00  0.00     0.000 C 
BRANCH  15  16
ATOM     16  C   UNL     1      32.649  10.159  31.474  1.00  0.00     0.000 C 
BRANCH  16  17
ATOM     17  C   UNL     1      33.778  11.203  31.528  1.00  0.00     0.000 C 
BRANCH  17  18
ATOM     18  C   UNL     1      34.824  10.881  32.605  1.00  0.00    -0.000 C 
BRANCH  18  19
ATOM     19  C   UNL     1      36.232  11.379  32.232  1.00  0.00    -0.000 C 
BRANCH  19  20
ATOM     20  C   UNL     1      36.474  11.361  30.708  1.00  0.00    -0.000 C 
BRANCH  20  21
ATOM     21  C   UNL     1      37.196  10.096  30.211  1.00  0.00    -0.000 C 
BRANCH  21  22
ATOM     22  C   UNL     1      37.935   9.353  31.333  1.00  0.00    -0.000 C 
BRANCH  22  23
ATOM     23  C   UNL     1      37.465   7.897  31.438  1.00  0.00    -0.000 C 
BRANCH  23  24
ATOM     24  C   UNL     1      36.018   7.701  30.955  1.00  0.00    -0.000 C 
BRANCH  24  25
ATOM     25  C   UNL     1      35.119   6.972  31.976  1.00  0.00    -0.003 C 
ATOM     26  C   UNL     1      35.480   7.317  33.421  1.00  0.00     0.004 C 
ENDBRANCH  24  25
ENDBRANCH  23  24
ENDBRANCH  22  23
ENDBRANCH  21  22
ENDBRANCH  20  21
ENDBRANCH  19  20
ENDBRANCH  18  19
ENDBRANCH  17  18
ENDBRANCH  16  17
ENDBRANCH  15  16
ENDBRANCH   1  15
TORSDOF 22
ENDMDL
MODEL 3
REMARK VINA RESULT:    -3.764      1.530      3.383
REMARK INTER + INTRA:         -13.251
REMARK INTER:                  -8.886
REMARK INTRA:                  -4.365
REMARK UNBOUND:                -4.646
REMARK SMILES CCCCCCCCCCCCCCCCCCCCCCCC(=O)[O-]
REMARK SMILES IDX 13 1 14 2 15 3 16 4 17 5 18 6 19 7 20 8 21 9 22 10 23 11
REMARK SMILES IDX 24 12 25 13 26 14 12 15 11 16 10 17 9 18 8 19 7 20 6 21 5 22
REMARK SMILES IDX 4 23 3 24 2 25 1 26
REMARK H PARENT
REMARK Flexibility Score: inf
ROOT
ATOM      1  C   UNL     1      32.077   8.784  34.888  1.00  0.00     0.000 C 
ENDROOT
BRANCH   1   2
ATOM      2  C   UNL     1      31.227   7.728  34.165  1.00  0.00     0.000 C 
BRANCH   2   3
ATOM      3  C   UNL     1      31.941   7.119  32.948  1.00  0.00     0.000 C 
BRANCH   3   4
ATOM      4  C   UNL     1      30.970   6.725  31.824  1.00  0.00     0.000 C 
BRANCH   4   5
ATOM      5  C   UNL     1      30.658   7.927  30.924  1.00  0.00     0.000 C 
BRANCH   5   6
ATOM      6  C   UNL     1      30.559   7.502  29.452  1.00  0.00     0.000 C 
BRANCH   6   7
ATOM      7  C   UNL     1      31.636   8.156  28.569  1.00  0.00     0.000 C 
BRANCH   7   8
ATOM      8  C   UNL     1      31.313   9.591  28.103  1.00  0.00     0.000 C 
BRANCH   8   9
ATOM      9  C   UNL     1      29.818   9.876  27.854  1.00  0.00     0.000 C 
BRANCH   9  10
ATOM     10  C   UNL     1      29.345  11.284  28.269  1.00  0.00     0.006 C 
BRANCH  10  11
ATOM     11  C   UNL     1      28.083  11.299  29.145  1.00  0.00     0.053 C 
BRANCH  11  12
ATOM     12  C   UNL     1      28.136  12.376  30.185  1.00  0.00     0.041 C 
ATOM     13  O   UNL     1      29.072  13.217  30.180  1.00  0.00    -0.550 OA
ATOM     14  O   UNL     1      27.164  12.430  31.178  1.00  0.00    -0.550 OA
ENDBRANCH  11  12
ENDBRANCH  10  11
ENDBRANCH   9  10
ENDBRANCH   8   9
ENDBRANCH   7   8
ENDBRANCH   6   7
ENDBRANCH   5   6
ENDBRANCH   4   5
ENDBRANCH   3   4
ENDBRANCH   2   3
ENDBRANCH   1   2
BRANCH   1  15
ATOM     15  C   UNL     1      31.371  10.149  34.885  1.00  0.00     0.000 C 
BRANCH  15  16
ATOM     16  C   UNL     1      30.012  10.119  34.169  1.00  0.00     0.000 C 
BRANCH  16  17
ATOM     17  C   UNL     1      29.958  11.058  32.952  1.00  0.00     0.000 C 
BRANCH  17  18
ATOM     18  C   UNL     1      31.313  11.723  32.664  1.00  0.00    -0.000 C 
BRANCH  18  19
ATOM     19  C   UNL     1      31.836  11.415  31.249  1.00  0.00    -0.000 C 
BRANCH  19  20
ATOM     20  C   UNL     1      33.357  11.155  31.234  1.00  0.00    -0.000 C 
BRANCH  20  21
ATOM     21  C   UNL     1      33.731   9.664  31.314  1.00  0.00    -0.000 C 
BRANCH  21  22
ATOM     22  C   UNL     1      34.797   9.261  30.286  1.00  0.00    -0.000 C 
BRANCH  22  23
ATOM     23  C   UNL     1      35.347   7.859  30.575  1.00  0.00    -0.000 C 
BRANCH  23  24
ATOM     24  C   UNL     1      36.229   7.814  31.834  1.00  0.00    -0.000 C 
BRANCH  24  25
ATOM     25  C   UNL     1      35.594   7.036  33.007  1.00  0.00    -0.003 C 
ATOM     26  C   UNL     1      35.666   7.809  34.324  1.00  0.00     0.004 C 
ENDBRANCH  24  25
ENDBRANCH  23  24
ENDBRANCH  22  23
ENDBRANCH  21  22
ENDBRANCH  20  21
ENDBRANCH  19  20
ENDBRANCH  18  19
ENDBRANCH  17  18
ENDBRANCH  16  17
ENDBRANCH  15  16
ENDBRANCH   1  15
TORSDOF 22
ENDMDL
MODEL 4
REMARK VINA RESULT:    -3.758      2.004      4.941
REMARK INTER + INTRA:         -13.237
REMARK INTER:                  -8.576
REMARK INTRA:                  -4.660
REMARK UNBOUND:                -4.646
REMARK SMILES CCCCCCCCCCCCCCCCCCCCCCCC(=O)[O-]
REMARK SMILES IDX 13 1 14 2 15 3 16 4 17 5 18 6 19 7 20 8 21 9 22 10 23 11
REMARK SMILES IDX 24 12 25 13 26 14 12 15 11 16 10 17 9 18 8 19 7 20 6 21 5 22
REMARK SMILES IDX 4 23 3 24 2 25 1 26
REMARK H PARENT
REMARK Flexibility Score: inf
ROOT
ATOM      1  C   UNL     1      34.051  10.028  30.736  1.00  0.00     0.000 C 
ENDROOT
BRANCH   1   2
ATOM      2  C   UNL     1      34.977  11.171  31.178  1.00  0.00     0.000 C 
BRANCH   2   3
ATOM      3  C   UNL     1      35.181  11.217  32.701  1.00  0.00     0.000 C 
BRANCH   3   4
ATOM      4  C   UNL     1      35.227  12.650  33.253  1.00  0.00     0.000 C 
BRANCH   4   5
ATOM      5  C   UNL     1      34.914  13.670  32.152  1.00  0.00     0.000 C 
BRANCH   5   6
ATOM      6  C   UNL     1      33.680  14.511  32.513  1.00  0.00     0.000 C 
BRANCH   6   7
ATOM      7  C   UNL     1      32.404  14.034  31.797  1.00  0.00     0.000 C 
BRANCH   7   8
ATOM      8  C   UNL     1      31.733  12.793  32.420  1.00  0.00     0.000 C 
BRANCH   8   9
ATOM      9  C   UNL     1      30.739  12.056  31.501  1.00  0.00     0.000 C 
BRANCH   9  10
ATOM     10  C   UNL     1      30.559  12.681  30.102  1.00  0.00     0.006 C 
BRANCH  10  11
ATOM     11  C   UNL     1      30.620  11.673  28.944  1.00  0.00     0.053 C 
BRANCH  11  12
ATOM     12  C   UNL     1      29.268  11.417  28.351  1.00  0.00     0.041 C 
ATOM     13  O   UNL     1      28.253  12.002  28.811  1.00  0.00    -0.550 OA
ATOM     14  O   UNL     1      29.127  10.507  27.310  1.00  0.00    -0.550 OA
ENDBRANCH  11  12
ENDBRANCH  10  11
ENDBRANCH   9  10
ENDBRANCH   8   9
ENDBRANCH   7   8
ENDBRANCH   6   7
ENDBRANCH   5   6
ENDBRANCH   4   5
ENDBRANCH   3   4
ENDBRANCH   2   3
ENDBRANCH   1   2
BRANCH   1  15
ATOM     15  C   UNL     1      34.862   8.869  30.134  1.00  0.00     0.000 C 
BRANCH  15  16
ATOM     16  C   UNL     1      34.727   7.565  30.935  1.00  0.00     0.000 C 
BRANCH  16  17
ATOM     17  C   UNL     1      35.930   7.306  31.859  1.00  0.00     0.000 C 
BRANCH  17  18
ATOM     18  C   UNL     1      35.561   7.413  33.347  1.00  0.00    -0.000 C 
BRANCH  18  19
ATOM     19  C   UNL     1      34.063   7.169  33.605  1.00  0.00    -0.000 C 
BRANCH  19  20
ATOM     20  C   UNL     1      33.393   8.359  34.324  1.00  0.00    -0.000 C 
BRANCH  20  21
ATOM     21  C   UNL     1      32.156   8.908  33.590  1.00  0.00    -0.000 C 
BRANCH  21  22
ATOM     22  C   UNL     1      31.395   7.824  32.815  1.00  0.00    -0.000 C 
BRANCH  22  23
ATOM     23  C   UNL     1      30.913   8.348  31.456  1.00  0.00    -0.000 C 
BRANCH  23  24
ATOM     24  C   UNL     1      31.057   7.309  30.332  1.00  0.00    -0.000 C 
BRANCH  24  25
ATOM     25  C   UNL     1      30.663   7.845  28.939  1.00  0.00    -0.003 C 
ATOM     26  C   UNL     1      31.875   8.295  28.124  1.00  0.00     0.004 C 
ENDBRANCH  24  25
ENDBRANCH  23  24
ENDBRANCH  22  23
ENDBRANCH  21  22
ENDBRANCH  20  21
ENDBRANCH  19  20
ENDBRANCH  18  19
ENDBRANCH  17  18
ENDBRANCH  16  17
ENDBRANCH  15  16
ENDBRANCH   1  15
TORSDOF 22
ENDMDL
MODEL 5
REMARK VINA RESULT:    -3.731      1.946      4.585
REMARK INTER + INTRA:         -13.176
REMARK INTER:                  -8.659
REMARK INTRA:                  -4.517
REMARK UNBOUND:                -4.646
REMARK SMILES CCCCCCCCCCCCCCCCCCCCCCCC(=O)[O-]
REMARK SMILES IDX 13 1 14 2 15 3 16 4 17 5 18 6 19 7 20 8 21 9 22 10 23 11
REMARK SMILES IDX 24 12 25 13 26 14 12 15 11 16 10 17 9 18 8 19 7 20 6 21 5 22
REMARK SMILES IDX 4 23 3 24 2 25 1 26
REMARK H PARENT
REMARK Flexibility Score: inf
ROOT
ATOM      1  C   UNL     1      31.223   6.793  31.699  1.00  0.00     0.000 C 
ENDROOT
BRANCH   1   2
ATOM      2  C   UNL     1      31.100   8.210  32.281  1.00  0.00     0.000 C 
BRANCH   2   3
ATOM      3  C   UNL     1      31.054   8.220  33.818  1.00  0.00     0.000 C 
BRANCH   3   4
ATOM      4  C   UNL     1      30.459   9.517  34.387  1.00  0.00     0.000 C 
BRANCH   4   5
ATOM      5  C   UNL     1      31.407  10.148  35.415  1.00  0.00     0.000 C 
BRANCH   5   6
ATOM      6  C   UNL     1      31.787  11.579  35.009  1.00  0.00     0.000 C 
BRANCH   6   7
ATOM      7  C   UNL     1      32.496  11.643  33.644  1.00  0.00     0.000 C 
BRANCH   7   8
ATOM      8  C   UNL     1      31.764  12.470  32.568  1.00  0.00     0.000 C 
BRANCH   8   9
ATOM      9  C   UNL     1      31.752  11.846  31.159  1.00  0.00     0.000 C 
BRANCH   9  10
ATOM     10  C   UNL     1      30.350  11.554  30.586  1.00  0.00     0.006 C 
BRANCH  10  11
ATOM     11  C   UNL     1      30.179  11.923  29.104  1.00  0.00     0.053 C 
BRANCH  11  12
ATOM     12  C   UNL     1      28.898  11.391  28.539  1.00  0.00     0.041 C 
ATOM     13  O   UNL     1      28.853  10.971  27.353  1.00  0.00    -0.550 OA
ATOM     14  O   UNL     1      27.744  11.389  29.316  1.00  0.00    -0.550 OA
ENDBRANCH  11  12
ENDBRANCH  10  11
ENDBRANCH   9  10
ENDBRANCH   8   9
ENDBRANCH   7   8
ENDBRANCH   6   7
ENDBRANCH   5   6
ENDBRANCH   4   5
ENDBRANCH   3   4
ENDBRANCH   2   3
ENDBRANCH   1   2
BRANCH   1  15
ATOM     15  C   UNL     1      30.415   6.665  30.398  1.00  0.00     0.000 C 
BRANCH  15  16
ATOM     16  C   UNL     1      30.232   8.007  29.672  1.00  0.00     0.000 C 
BRANCH  16  17
ATOM     17  C   UNL     1      30.625   7.940  28.186  1.00  0.00     0.000 C 
BRANCH  17  18
ATOM     18  C   UNL     1      32.120   8.214  27.963  1.00  0.00    -0.000 C 
BRANCH  18  19
ATOM     19  C   UNL     1      32.716   9.155  29.025  1.00  0.00    -0.000 C 
BRANCH  19  20
ATOM     20  C   UNL     1      34.022   8.599  29.631  1.00  0.00    -0.000 C 
BRANCH  20  21
ATOM     21  C   UNL     1      34.488   9.350  30.891  1.00  0.00    -0.000 C 
BRANCH  21  22
ATOM     22  C   UNL     1      35.485   8.541  31.731  1.00  0.00    -0.000 C 
BRANCH  22  23
ATOM     23  C   UNL     1      34.870   7.218  32.203  1.00  0.00    -0.000 C 
BRANCH  23  24
ATOM     24  C   UNL     1      34.729   7.139  33.732  1.00  0.00    -0.000 C 
BRANCH  24  25
ATOM     25  C   UNL     1      34.564   8.516  34.410  1.00  0.00    -0.003 C 
ATOM     26  C   UNL     1      35.067   8.518  35.853  1.00  0.00     0.004 C 
ENDBRANCH  24  25
ENDBRANCH  23  24
ENDBRANCH  22  23
ENDBRANCH  21  22
ENDBRANCH  20  21
ENDBRANCH  19  20
ENDBRANCH  18  19
ENDBRANCH  17  18
ENDBRANCH  16  17
ENDBRANCH  15  16
ENDBRANCH   1  15
TORSDOF 22
ENDMDL
MODEL 6
REMARK VINA RESULT:    -3.707      2.789      6.589
REMARK INTER + INTRA:         -13.120
REMARK INTER:                  -8.715
REMARK INTRA:                  -4.405
REMARK UNBOUND:                -4.646
REMARK SMILES CCCCCCCCCCCCCCCCCCCCCCCC(=O)[O-]
REMARK SMILES IDX 13 1 14 2 15 3 16 4 17 5 18 6 19 7 20 8 21 9 22 10 23 11
REMARK SMILES IDX 24 12 25 13 26 14 12 15 11 16 10 17 9 18 8 19 7 20 6 21 5 22
REMARK SMILES IDX 4 23 3 24 2 25 1 26
REMARK H PARENT
REMARK Flexibility Score: inf
ROOT
ATOM      1  C   UNL     1      32.882   9.222  28.866  1.00  0.00     0.000 C 
ENDROOT
BRANCH   1   2
ATOM      2  C   UNL     1      34.018   8.634  29.717  1.00  0.00     0.000 C 
BRANCH   2   3
ATOM      3  C   UNL     1      34.722   9.691  30.583  1.00  0.00     0.000 C 
BRANCH   3   4
ATOM      4  C   UNL     1      36.232   9.771  30.315  1.00  0.00     0.000 C 
BRANCH   4   5
ATOM      5  C   UNL     1      36.880   8.385  30.419  1.00  0.00     0.000 C 
BRANCH   5   6
ATOM      6  C   UNL     1      37.730   8.267  31.693  1.00  0.00     0.000 C 
BRANCH   6   7
ATOM      7  C   UNL     1      37.441   6.980  32.485  1.00  0.00     0.000 C 
BRANCH   7   8
ATOM      8  C   UNL     1      36.633   7.183  33.784  1.00  0.00     0.000 C 
BRANCH   8   9
ATOM      9  C   UNL     1      35.983   8.573  33.938  1.00  0.00     0.000 C 
BRANCH   9  10
ATOM     10  C   UNL     1      34.442   8.570  33.995  1.00  0.00     0.006 C 
BRANCH  10  11
ATOM     11  C   UNL     1      33.791   7.257  33.534  1.00  0.00     0.053 C 
BRANCH  11  12
ATOM     12  C   UNL     1      32.849   6.708  34.561  1.00  0.00     0.041 C 
ATOM     13  O   UNL     1      33.266   6.410  35.710  1.00  0.00    -0.550 OA
ATOM     14  O   UNL     1      31.513   6.497  34.235  1.00  0.00    -0.550 OA
ENDBRANCH  11  12
ENDBRANCH  10  11
ENDBRANCH   9  10
ENDBRANCH   8   9
ENDBRANCH   7   8
ENDBRANCH   6   7
ENDBRANCH   5   6
ENDBRANCH   4   5
ENDBRANCH   3   4
ENDBRANCH   2   3
ENDBRANCH   1   2
BRANCH   1  15
ATOM     15  C   UNL     1      32.101   8.107  28.152  1.00  0.00     0.000 C 
BRANCH  15  16
ATOM     16  C   UNL     1      30.612   8.082  28.531  1.00  0.00     0.000 C 
BRANCH  16  17
ATOM     17  C   UNL     1      30.284   7.009  29.584  1.00  0.00     0.000 C 
BRANCH  17  18
ATOM     18  C   UNL     1      30.731   7.417  30.996  1.00  0.00    -0.000 C 
BRANCH  18  19
ATOM     19  C   UNL     1      30.261   8.831  31.382  1.00  0.00    -0.000 C 
BRANCH  19  20
ATOM     20  C   UNL     1      31.313   9.587  32.221  1.00  0.00    -0.000 C 
BRANCH  20  21
ATOM     21  C   UNL     1      31.076  11.106  32.287  1.00  0.00    -0.000 C 
BRANCH  21  22
ATOM     22  C   UNL     1      31.668  11.853  31.084  1.00  0.00    -0.000 C 
BRANCH  22  23
ATOM     23  C   UNL     1      30.572  12.550  30.268  1.00  0.00    -0.000 C 
BRANCH  23  24
ATOM     24  C   UNL     1      30.262  11.826  28.947  1.00  0.00    -0.000 C 
BRANCH  24  25
ATOM     25  C   UNL     1      28.815  11.295  28.857  1.00  0.00    -0.003 C 
ATOM     26  C   UNL     1      28.006  11.593  30.119  1.00  0.00     0.004 C 
ENDBRANCH  24  25
ENDBRANCH  23  24
ENDBRANCH  22  23
ENDBRANCH  21  22
ENDBRANCH  20  21
ENDBRANCH  19  20
ENDBRANCH  18  19
ENDBRANCH  17  18
ENDBRANCH  16  17
ENDBRANCH  15  16
ENDBRANCH   1  15
TORSDOF 22
ENDMDL
MODEL 7
REMARK VINA RESULT:    -3.695      1.799      3.746
REMARK INTER + INTRA:         -13.093
REMARK INTER:                  -8.778
REMARK INTRA:                  -4.314
REMARK UNBOUND:                -4.646
REMARK SMILES CCCCCCCCCCCCCCCCCCCCCCCC(=O)[O-]
REMARK SMILES IDX 13 1 14 2 15 3 16 4 17 5 18 6 19 7 20 8 21 9 22 10 23 11
REMARK SMILES IDX 24 12 25 13 26 14 12 15 11 16 10 17 9 18 8 19 7 20 6 21 5 22
REMARK SMILES IDX 4 23 3 24 2 25 1 26
REMARK H PARENT
REMARK Flexibility Score: inf
ROOT
ATOM      1  C   UNL     1      30.514   7.926  30.268  1.00  0.00     0.000 C 
ENDROOT
BRANCH   1   2
ATOM      2  C   UNL     1      30.823   6.670  31.098  1.00  0.00     0.000 C 
BRANCH   2   3
ATOM      3  C   UNL     1      31.549   6.991  32.415  1.00  0.00     0.000 C 
BRANCH   3   4
ATOM      4  C   UNL     1      31.024   8.268  33.089  1.00  0.00     0.000 C 
BRANCH   4   5
ATOM      5  C   UNL     1      32.168   9.250  33.366  1.00  0.00     0.000 C 
BRANCH   5   6
ATOM      6  C   UNL     1      31.642  10.688  33.493  1.00  0.00     0.000 C 
BRANCH   6   7
ATOM      7  C   UNL     1      32.476  11.700  32.687  1.00  0.00     0.000 C 
BRANCH   7   8
ATOM      8  C   UNL     1      31.737  13.002  32.316  1.00  0.00     0.000 C 
BRANCH   8   9
ATOM      9  C   UNL     1      31.358  13.138  30.828  1.00  0.00     0.000 C 
BRANCH   9  10
ATOM     10  C   UNL     1      30.189  12.243  30.368  1.00  0.00     0.006 C 
BRANCH  10  11
ATOM     11  C   UNL     1      30.195  11.910  28.868  1.00  0.00     0.053 C 
BRANCH  11  12
ATOM     12  C   UNL     1      28.987  11.120  28.465  1.00  0.00     0.041 C 
ATOM     13  O   UNL     1      29.007  10.418  27.421  1.00  0.00    -0.550 OA
ATOM     14  O   UNL     1      27.828  11.186  29.230  1.00  0.00    -0.550 OA
ENDBRANCH  11  12
ENDBRANCH  10  11
ENDBRANCH   9  10
ENDBRANCH   8   9
ENDBRANCH   7   8
ENDBRANCH   6   7
ENDBRANCH   5   6
ENDBRANCH   4   5
ENDBRANCH   3   4
ENDBRANCH   2   3
ENDBRANCH   1   2
BRANCH   1  15
ATOM     15  C   UNL     1      31.048   7.779  28.835  1.00  0.00     0.000 C 
BRANCH  15  16
ATOM     16  C   UNL     1      32.184   8.763  28.514  1.00  0.00     0.000 C 
BRANCH  16  17
ATOM     17  C   UNL     1      32.683   9.522  29.756  1.00  0.00     0.000 C 
BRANCH  17  18
ATOM     18  C   UNL     1      34.202   9.395  29.950  1.00  0.00    -0.000 C 
BRANCH  18  19
ATOM     19  C   UNL     1      34.625   7.990  30.415  1.00  0.00    -0.000 C 
BRANCH  19  20
ATOM     20  C   UNL     1      35.194   7.996  31.850  1.00  0.00    -0.000 C 
BRANCH  20  21
ATOM     21  C   UNL     1      36.691   7.651  31.923  1.00  0.00    -0.000 C 
BRANCH  21  22
ATOM     22  C   UNL     1      37.517   8.350  30.834  1.00  0.00    -0.000 C 
BRANCH  22  23
ATOM     23  C   UNL     1      37.992   9.732  31.299  1.00  0.00    -0.000 C 
BRANCH  23  24
ATOM     24  C   UNL     1      37.615  10.852  30.315  1.00  0.00    -0.000 C 
BRANCH  24  25
ATOM     25  C   UNL     1      36.563  11.835  30.871  1.00  0.00    -0.003 C 
ATOM     26  C   UNL     1      36.237  11.569  32.340  1.00  0.00     0.004 C 
ENDBRANCH  24  25
ENDBRANCH  23  24
ENDBRANCH  22  23
ENDBRANCH  21  22
ENDBRANCH  20  21
ENDBRANCH  19  20
ENDBRANCH  18  19
ENDBRANCH  17  18
ENDBRANCH  16  17
ENDBRANCH  15  16
ENDBRANCH   1  15
TORSDOF 22
ENDMDL
MODEL 8
REMARK VINA RESULT:    -3.670      2.190      5.885
REMARK INTER + INTRA:         -13.037
REMARK INTER:                  -8.112
REMARK INTRA:                  -4.925
REMARK UNBOUND:                -4.646
REMARK SMILES CCCCCCCCCCCCCCCCCCCCCCCC(=O)[O-]
REMARK SMILES IDX 13 1 14 2 15 3 16 4 17 5 18 6 19 7 20 8 21 9 22 10 23 11
REMARK SMILES IDX 24 12 25 13 26 14 12 15 11 16 10 17 9 18 8 19 7 20 6 21 5 22
REMARK SMILES IDX 4 23 3 24 2 25 1 26
REMARK H PARENT
REMARK Flexibility Score: inf
ROOT
ATOM      1  C   UNL     1      34.333   9.243  30.018  1.00  0.00     0.000 C 
ENDROOT
BRANCH   1   2
ATOM      2  C   UNL     1      35.745   9.753  30.346  1.00  0.00     0.000 C 
BRANCH   2   3
ATOM      3  C   UNL     1      36.654   8.659  30.930  1.00  0.00     0.000 C 
BRANCH   3   4
ATOM      4  C   UNL     1      35.922   7.324  31.133  1.00  0.00     0.000 C 
BRANCH   4   5
ATOM      5  C   UNL     1      35.757   7.013  32.626  1.00  0.00     0.000 C 
BRANCH   5   6
ATOM      6  C   UNL     1      36.394   8.110  33.491  1.00  0.00     0.000 C 
BRANCH   6   7
ATOM      7  C   UNL     1      35.351   9.025  34.158  1.00  0.00     0.000 C 
BRANCH   7   8
ATOM      8  C   UNL     1      35.660  10.534  34.072  1.00  0.00     0.000 C 
BRANCH   8   9
ATOM      9  C   UNL     1      34.423  11.452  34.012  1.00  0.00     0.000 C 
BRANCH   9  10
ATOM     10  C   UNL     1      34.640  12.792  33.280  1.00  0.00     0.006 C 
BRANCH  10  11
ATOM     11  C   UNL     1      33.584  13.110  32.210  1.00  0.00     0.053 C 
BRANCH  11  12
ATOM     12  C   UNL     1      32.637  14.181  32.659  1.00  0.00     0.041 C 
ATOM     13  O   UNL     1      32.180  14.173  33.831  1.00  0.00    -0.550 OA
ATOM     14  O   UNL     1      32.235  15.170  31.768  1.00  0.00    -0.550 OA
ENDBRANCH  11  12
ENDBRANCH  10  11
ENDBRANCH   9  10
ENDBRANCH   8   9
ENDBRANCH   7   8
ENDBRANCH   6   7
ENDBRANCH   5   6
ENDBRANCH   4   5
ENDBRANCH   3   4
ENDBRANCH   2   3
ENDBRANCH   1   2
BRANCH   1  15
ATOM     15  C   UNL     1      33.290   9.890  30.942  1.00  0.00     0.000 C 
BRANCH  15  16
ATOM     16  C   UNL     1      32.557   8.869  31.827  1.00  0.00     0.000 C 
BRANCH  16  17
ATOM     17  C   UNL     1      32.173   7.589  31.066  1.00  0.00     0.000 C 
BRANCH  17  18
ATOM     18  C   UNL     1      30.654   7.361  31.028  1.00  0.00    -0.000 C 
BRANCH  18  19
ATOM     19  C   UNL     1      30.045   7.652  29.645  1.00  0.00    -0.000 C 
BRANCH  19  20
ATOM     20  C   UNL     1      31.125   7.933  28.578  1.00  0.00    -0.000 C 
BRANCH  20  21
ATOM     21  C   UNL     1      31.073   9.361  28.007  1.00  0.00    -0.000 C 
BRANCH  21  22
ATOM     22  C   UNL     1      30.000  10.231  28.677  1.00  0.00    -0.000 C 
BRANCH  22  23
ATOM     23  C   UNL     1      30.535  11.636  28.982  1.00  0.00    -0.000 C 
BRANCH  23  24
ATOM     24  C   UNL     1      30.353  12.035  30.455  1.00  0.00    -0.000 C 
BRANCH  24  25
ATOM     25  C   UNL     1      29.530  11.018  31.275  1.00  0.00    -0.003 C 
ATOM     26  C   UNL     1      29.835  11.093  32.770  1.00  0.00     0.004 C 
ENDBRANCH  24  25
ENDBRANCH  23  24
ENDBRANCH  22  23
ENDBRANCH  21  22
ENDBRANCH  20  21
ENDBRANCH  19  20
ENDBRANCH  18  19
ENDBRANCH  17  18
ENDBRANCH  16  17
ENDBRANCH  15  16
ENDBRANCH   1  15
TORSDOF 22
ENDMDL
MODEL 9
REMARK VINA RESULT:    -3.632      1.672      4.205
REMARK INTER + INTRA:         -12.950
REMARK INTER:                  -9.145
REMARK INTRA:                  -3.804
REMARK UNBOUND:                -4.646
REMARK SMILES CCCCCCCCCCCCCCCCCCCCCCCC(=O)[O-]
REMARK SMILES IDX 13 1 14 2 15 3 16 4 17 5 18 6 19 7 20 8 21 9 22 10 23 11
REMARK SMILES IDX 24 12 25 13 26 14 12 15 11 16 10 17 9 18 8 19 7 20 6 21 5 22
REMARK SMILES IDX 4 23 3 24 2 25 1 26
REMARK H PARENT
REMARK Flexibility Score: inf
ROOT
ATOM      1  C   UNL     1      30.353   7.006  29.299  1.00  0.00     0.000 C 
ENDROOT
BRANCH   1   2
ATOM      2  C   UNL     1      30.612   6.552  30.743  1.00  0.00     0.000 C 
BRANCH   2   3
ATOM      3  C   UNL     1      30.861   7.727  31.702  1.00  0.00     0.000 C 
BRANCH   3   4
ATOM      4  C   UNL     1      32.015   7.462  32.681  1.00  0.00     0.000 C 
BRANCH   4   5
ATOM      5  C   UNL     1      32.262   8.682  33.577  1.00  0.00     0.000 C 
BRANCH   5   6
ATOM      6  C   UNL     1      30.977   9.503  33.758  1.00  0.00     0.000 C 
BRANCH   6   7
ATOM      7  C   UNL     1      31.205  11.015  33.579  1.00  0.00     0.000 C 
BRANCH   7   8
ATOM      8  C   UNL     1      32.125  11.399  32.402  1.00  0.00     0.000 C 
BRANCH   8   9
ATOM      9  C   UNL     1      31.408  11.604  31.052  1.00  0.00     0.000 C 
BRANCH   9  10
ATOM     10  C   UNL     1      29.869  11.649  31.132  1.00  0.00     0.006 C 
BRANCH  10  11
ATOM     11  C   UNL     1      29.204  12.549  30.078  1.00  0.00     0.053 C 
BRANCH  11  12
ATOM     12  C   UNL     1      28.528  11.749  29.006  1.00  0.00     0.041 C 
ATOM     13  O   UNL     1      27.409  11.216  29.223  1.00  0.00    -0.550 OA
ATOM     14  O   UNL     1      29.152  11.569  27.776  1.00  0.00    -0.550 OA
ENDBRANCH  11  12
ENDBRANCH  10  11
ENDBRANCH   9  10
ENDBRANCH   8   9
ENDBRANCH   7   8
ENDBRANCH   6   7
ENDBRANCH   5   6
ENDBRANCH   4   5
ENDBRANCH   3   4
ENDBRANCH   2   3
ENDBRANCH   1   2
BRANCH   1  15
ATOM     15  C   UNL     1      30.427   8.537  29.186  1.00  0.00     0.000 C 
BRANCH  15  16
ATOM     16  C   UNL     1      31.516   9.014  28.212  1.00  0.00     0.000 C 
BRANCH  16  17
ATOM     17  C   UNL     1      32.905   8.441  28.544  1.00  0.00     0.000 C 
BRANCH  17  18
ATOM     18  C   UNL     1      33.563   9.153  29.736  1.00  0.00    -0.000 C 
BRANCH  18  19
ATOM     19  C   UNL     1      34.713   8.337  30.354  1.00  0.00    -0.000 C 
BRANCH  19  20
ATOM     20  C   UNL     1      35.928   9.218  30.712  1.00  0.00    -0.000 C 
BRANCH  20  21
ATOM     21  C   UNL     1      37.284   8.538  30.448  1.00  0.00    -0.000 C 
BRANCH  21  22
ATOM     22  C   UNL     1      38.064   8.245  31.737  1.00  0.00    -0.000 C 
BRANCH  22  23
ATOM     23  C   UNL     1      37.753   6.840  32.268  1.00  0.00    -0.000 C 
BRANCH  23  24
ATOM     24  C   UNL     1      37.350   6.839  33.751  1.00  0.00    -0.000 C 
BRANCH  24  25
ATOM     25  C   UNL     1      35.823   6.858  33.977  1.00  0.00    -0.003 C 
ATOM     26  C   UNL     1      35.411   7.816  35.094  1.00  0.00     0.004 C 
ENDBRANCH  24  25
ENDBRANCH  23  24
ENDBRANCH  22  23
ENDBRANCH  21  22
ENDBRANCH  20  21
ENDBRANCH  19  20
ENDBRANCH  18  19
ENDBRANCH  17  18
ENDBRANCH  16  17
ENDBRANCH  15  16
ENDBRANCH   1  15
TORSDOF 22
ENDMDL
