MODEL 1
REMARK VINA RESULT:    -4.263      0.000      0.000
REMARK INTER + INTRA:          -8.623
REMARK INTER:                  -7.751
REMARK INTRA:                  -0.871
REMARK UNBOUND:                -0.871
REMARK SMILES CCCCCCCCCCCCCCCC(=O)[O-]
REMARK SMILES IDX 9 1 10 2 11 3 12 4 13 5 14 6 15 7 16 8 17 9 18 10 8 11 7 12
REMARK SMILES IDX 6 13 5 14 4 15 3 16 2 17 1 18
REMARK H PARENT
REMARK Flexibility Score: inf
ROOT
ATOM      1  C   UNL     1     -35.818  -8.882  -0.022  1.00  0.00     0.000 C 
ENDROOT
BRANCH   1   2
ATOM      2  C   UNL     1     -36.325  -8.663   1.412  1.00  0.00     0.000 C 
BRANCH   2   3
ATOM      3  C   UNL     1     -36.146  -9.931   2.256  1.00  0.00     0.000 C 
BRANCH   3   4
ATOM      4  C   UNL     1     -36.393 -11.191   1.417  1.00  0.00     0.000 C 
BRANCH   4   5
ATOM      5  C   UNL     1     -35.091 -11.980   1.214  1.00  0.00     0.000 C 
BRANCH   5   6
ATOM      6  C   UNL     1     -34.140 -11.883   2.422  1.00  0.00     0.006 C 
BRANCH   6   7
ATOM      7  C   UNL     1     -32.648 -11.896   2.055  1.00  0.00     0.053 C 
BRANCH   7   8
ATOM      8  C   UNL     1     -31.796 -11.320   3.143  1.00  0.00     0.041 C 
ATOM      9  O   UNL     1     -30.612 -10.964   2.900  1.00  0.00    -0.550 OA
ATOM     10  O   UNL     1     -32.320 -11.144   4.417  1.00  0.00    -0.550 OA
ENDBRANCH   7   8
ENDBRANCH   6   7
ENDBRANCH   5   6
ENDBRANCH   4   5
ENDBRANCH   3   4
ENDBRANCH   2   3
ENDBRANCH   1   2
BRANCH   1  11
ATOM     11  C   UNL     1     -36.853  -8.478  -1.085  1.00  0.00     0.000 C 
BRANCH  11  12
ATOM     12  C   UNL     1     -38.123  -7.866  -0.469  1.00  0.00    -0.000 C 
BRANCH  12  13
ATOM     13  C   UNL     1     -38.124  -6.326  -0.502  1.00  0.00    -0.000 C 
BRANCH  13  14
ATOM     14  C   UNL     1     -37.730  -5.699  -1.852  1.00  0.00    -0.000 C 
BRANCH  14  15
ATOM     15  C   UNL     1     -37.658  -4.162  -1.804  1.00  0.00    -0.000 C 
BRANCH  15  16
ATOM     16  C   UNL     1     -37.972  -3.604  -0.399  1.00  0.00    -0.000 C 
BRANCH  16  17
ATOM     17  C   UNL     1     -37.134  -2.373  -0.020  1.00  0.00    -0.003 C 
ATOM     18  C   UNL     1     -36.636  -1.590  -1.233  1.00  0.00     0.004 C 
ENDBRANCH  16  17
ENDBRANCH  15  16
ENDBRANCH  14  15
ENDBRANCH  13  14
ENDBRANCH  12  13
ENDBRANCH  11  12
ENDBRANCH   1  11
TORSDOF 14
ENDMDL
MODEL 2
REMARK VINA RESULT:    -4.215      1.220      2.040
REMARK INTER + INTRA:          -8.537
REMARK INTER:                  -8.074
REMARK INTRA:                  -0.463
REMARK UNBOUND:                -0.871
REMARK SMILES CCCCCCCCCCCCCCCC(=O)[O-]
REMARK SMILES IDX 9 1 10 2 11 3 12 4 13 5 14 6 15 7 16 8 17 9 18 10 8 11 7 12
REMARK SMILES IDX 6 13 5 14 4 15 3 16 2 17 1 18
REMARK H PARENT
REMARK Flexibility Score: inf
ROOT
ATOM      1  C   UNL     1     -35.815 -10.673   0.850  1.00  0.00     0.000 C 
ENDROOT
BRANCH   1   2
ATOM      2  C   UNL     1     -35.490  -9.881   2.126  1.00  0.00     0.000 C 
BRANCH   2   3
ATOM      3  C   UNL     1     -35.031 -10.819   3.250  1.00  0.00     0.000 C 
BRANCH   3   4
ATOM      4  C   UNL     1     -34.377 -12.084   2.680  1.00  0.00     0.000 C 
BRANCH   4   5
ATOM      5  C   UNL     1     -32.968 -11.782   2.149  1.00  0.00     0.000 C 
BRANCH   5   6
ATOM      6  C   UNL     1     -31.887 -11.863   3.244  1.00  0.00     0.006 C 
BRANCH   6   7
ATOM      7  C   UNL     1     -30.639 -11.011   2.965  1.00  0.00     0.053 C 
BRANCH   7   8
ATOM      8  C   UNL     1     -29.783 -10.852   4.183  1.00  0.00     0.041 C 
ATOM      9  O   UNL     1     -30.304 -10.860   5.330  1.00  0.00    -0.550 OA
ATOM     10  O   UNL     1     -28.405 -10.731   4.054  1.00  0.00    -0.550 OA
ENDBRANCH   7   8
ENDBRANCH   6   7
ENDBRANCH   5   6
ENDBRANCH   4   5
ENDBRANCH   3   4
ENDBRANCH   2   3
ENDBRANCH   1   2
BRANCH   1  11
ATOM     11  C   UNL     1     -36.318  -9.775  -0.292  1.00  0.00     0.000 C 
BRANCH  11  12
ATOM     12  C   UNL     1     -36.723  -8.373   0.194  1.00  0.00    -0.000 C 
BRANCH  12  13
ATOM     13  C   UNL     1     -37.742  -7.687  -0.734  1.00  0.00    -0.000 C 
BRANCH  13  14
ATOM     14  C   UNL     1     -38.030  -6.209  -0.413  1.00  0.00    -0.000 C 
BRANCH  14  15
ATOM     15  C   UNL     1     -38.061  -5.315  -1.667  1.00  0.00    -0.000 C 
BRANCH  15  16
ATOM     16  C   UNL     1     -37.032  -4.166  -1.593  1.00  0.00    -0.000 C 
BRANCH  16  17
ATOM     17  C   UNL     1     -37.306  -3.162  -0.462  1.00  0.00    -0.003 C 
ATOM     18  C   UNL     1     -36.901  -1.733  -0.817  1.00  0.00     0.004 C 
ENDBRANCH  16  17
ENDBRANCH  15  16
ENDBRANCH  14  15
ENDBRANCH  13  14
ENDBRANCH  12  13
ENDBRANCH  11  12
ENDBRANCH   1  11
TORSDOF 14
ENDMDL
MODEL 3
REMARK VINA RESULT:    -3.968     19.967     21.983
REMARK INTER + INTRA:          -8.086
REMARK INTER:                  -5.800
REMARK INTRA:                  -2.286
REMARK UNBOUND:                -0.871
REMARK SMILES CCCCCCCCCCCCCCCC(=O)[O-]
REMARK SMILES IDX 9 1 10 2 11 3 12 4 13 5 14 6 15 7 16 8 17 9 18 10 8 11 7 12
REMARK SMILES IDX 6 13 5 14 4 15 3 16 2 17 1 18
REMARK H PARENT
REMARK Flexibility Score: inf
ROOT
ATOM      1  C   UNL     1     -19.051   4.751   9.448  1.00  0.00     0.000 C 
ENDROOT
BRANCH   1   2
ATOM      2  C   UNL     1     -18.346   3.916  10.528  1.00  0.00     0.000 C 
BRANCH   2   3
ATOM      3  C   UNL     1     -19.040   4.080  11.886  1.00  0.00     0.000 C 
BRANCH   3   4
ATOM      4  C   UNL     1     -19.899   2.854  12.219  1.00  0.00     0.000 C 
BRANCH   4   5
ATOM      5  C   UNL     1     -21.388   3.227  12.280  1.00  0.00     0.000 C 
BRANCH   5   6
ATOM      6  C   UNL     1     -22.079   3.151  10.905  1.00  0.00     0.006 C 
BRANCH   6   7
ATOM      7  C   UNL     1     -22.308   1.720  10.392  1.00  0.00     0.053 C 
BRANCH   7   8
ATOM      8  C   UNL     1     -21.637   1.482   9.075  1.00  0.00     0.041 C 
ATOM      9  O   UNL     1     -20.381   1.418   9.005  1.00  0.00    -0.550 OA
ATOM     10  O   UNL     1     -22.400   1.295   7.929  1.00  0.00    -0.550 OA
ENDBRANCH   7   8
ENDBRANCH   6   7
ENDBRANCH   5   6
ENDBRANCH   4   5
ENDBRANCH   3   4
ENDBRANCH   2   3
ENDBRANCH   1   2
BRANCH   1  11
ATOM     11  C   UNL     1     -19.478   6.138   9.956  1.00  0.00     0.000 C 
BRANCH  11  12
ATOM     12  C   UNL     1     -20.990   6.379   9.808  1.00  0.00    -0.000 C 
BRANCH  12  13
ATOM     13  C   UNL     1     -21.543   7.376  10.843  1.00  0.00    -0.000 C 
BRANCH  13  14
ATOM     14  C   UNL     1     -21.276   7.009  12.314  1.00  0.00    -0.000 C 
BRANCH  14  15
ATOM     15  C   UNL     1     -22.538   6.529  13.054  1.00  0.00    -0.000 C 
BRANCH  15  16
ATOM     16  C   UNL     1     -23.817   6.709  12.208  1.00  0.00    -0.000 C 
BRANCH  16  17
ATOM     17  C   UNL     1     -24.785   5.518  12.288  1.00  0.00    -0.003 C 
ATOM     18  C   UNL     1     -26.239   5.909  12.031  1.00  0.00     0.004 C 
ENDBRANCH  16  17
ENDBRANCH  15  16
ENDBRANCH  14  15
ENDBRANCH  13  14
ENDBRANCH  12  13
ENDBRANCH  11  12
ENDBRANCH   1  11
TORSDOF 14
ENDMDL
MODEL 4
REMARK VINA RESULT:    -3.964     16.143     18.048
REMARK INTER + INTRA:          -8.079
REMARK INTER:                  -7.678
REMARK INTRA:                  -0.401
REMARK UNBOUND:                -0.871
REMARK SMILES CCCCCCCCCCCCCCCC(=O)[O-]
REMARK SMILES IDX 9 1 10 2 11 3 12 4 13 5 14 6 15 7 16 8 17 9 18 10 8 11 7 12
REMARK SMILES IDX 6 13 5 14 4 15 3 16 2 17 1 18
REMARK H PARENT
REMARK Flexibility Score: inf
ROOT
ATOM      1  C   UNL     1     -19.774  -0.503  -3.366  1.00  0.00     0.000 C 
ENDROOT
BRANCH   1   2
ATOM      2  C   UNL     1     -19.958  -1.983  -2.996  1.00  0.00     0.000 C 
BRANCH   2   3
ATOM      3  C   UNL     1     -20.237  -2.141  -1.496  1.00  0.00     0.000 C 
BRANCH   3   4
ATOM      4  C   UNL     1     -19.671  -3.465  -0.967  1.00  0.00     0.000 C 
BRANCH   4   5
ATOM      5  C   UNL     1     -19.692  -3.497   0.569  1.00  0.00     0.000 C 
BRANCH   5   6
ATOM      6  C   UNL     1     -19.176  -4.829   1.145  1.00  0.00     0.006 C 
BRANCH   6   7
ATOM      7  C   UNL     1     -20.188  -5.566   2.036  1.00  0.00     0.053 C 
BRANCH   7   8
ATOM      8  C   UNL     1     -20.269  -7.024   1.707  1.00  0.00     0.041 C 
ATOM      9  O   UNL     1     -19.287  -7.611   1.181  1.00  0.00    -0.550 OA
ATOM     10  O   UNL     1     -21.418  -7.744   2.012  1.00  0.00    -0.550 OA
ENDBRANCH   7   8
ENDBRANCH   6   7
ENDBRANCH   5   6
ENDBRANCH   4   5
ENDBRANCH   3   4
ENDBRANCH   2   3
ENDBRANCH   1   2
BRANCH   1  11
ATOM     11  C   UNL     1     -18.606  -0.275  -4.338  1.00  0.00     0.000 C 
BRANCH  11  12
ATOM     12  C   UNL     1     -17.875   1.055  -4.081  1.00  0.00    -0.000 C 
BRANCH  12  13
ATOM     13  C   UNL     1     -18.813   2.275  -4.138  1.00  0.00    -0.000 C 
BRANCH  13  14
ATOM     14  C   UNL     1     -18.134   3.636  -3.900  1.00  0.00    -0.000 C 
BRANCH  14  15
ATOM     15  C   UNL     1     -18.664   4.744  -4.827  1.00  0.00    -0.000 C 
BRANCH  15  16
ATOM     16  C   UNL     1     -20.132   5.112  -4.520  1.00  0.00    -0.000 C 
BRANCH  16  17
ATOM     17  C   UNL     1     -20.502   4.993  -3.033  1.00  0.00    -0.003 C 
ATOM     18  C   UNL     1     -22.005   4.865  -2.797  1.00  0.00     0.004 C 
ENDBRANCH  16  17
ENDBRANCH  15  16
ENDBRANCH  14  15
ENDBRANCH  13  14
ENDBRANCH  12  13
ENDBRANCH  11  12
ENDBRANCH   1  11
TORSDOF 14
ENDMDL
MODEL 5
REMARK VINA RESULT:    -3.764     19.927     21.867
REMARK INTER + INTRA:          -7.716
REMARK INTER:                  -5.709
REMARK INTRA:                  -2.007
REMARK UNBOUND:                -0.871
REMARK SMILES CCCCCCCCCCCCCCCC(=O)[O-]
REMARK SMILES IDX 9 1 10 2 11 3 12 4 13 5 14 6 15 7 16 8 17 9 18 10 8 11 7 12
REMARK SMILES IDX 6 13 5 14 4 15 3 16 2 17 1 18
REMARK H PARENT
REMARK Flexibility Score: inf
ROOT
ATOM      1  C   UNL     1     -22.253   3.127  12.034  1.00  0.00     0.000 C 
ENDROOT
BRANCH   1   2
ATOM      2  C   UNL     1     -22.372   2.977  10.510  1.00  0.00     0.000 C 
BRANCH   2   3
ATOM      3  C   UNL     1     -22.228   1.508  10.091  1.00  0.00     0.000 C 
BRANCH   3   4
ATOM      4  C   UNL     1     -21.138   1.343   9.025  1.00  0.00     0.000 C 
BRANCH   4   5
ATOM      5  C   UNL     1     -19.738   1.474   9.646  1.00  0.00     0.000 C 
BRANCH   5   6
ATOM      6  C   UNL     1     -18.818   2.417   8.848  1.00  0.00     0.006 C 
BRANCH   6   7
ATOM      7  C   UNL     1     -18.985   3.905   9.195  1.00  0.00     0.053 C 
BRANCH   7   8
ATOM      8  C   UNL     1     -19.600   4.678   8.069  1.00  0.00     0.041 C 
ATOM      9  O   UNL     1     -20.141   5.795   8.288  1.00  0.00    -0.550 OA
ATOM     10  O   UNL     1     -19.546   4.182   6.773  1.00  0.00    -0.550 OA
ENDBRANCH   7   8
ENDBRANCH   6   7
ENDBRANCH   5   6
ENDBRANCH   4   5
ENDBRANCH   3   4
ENDBRANCH   2   3
ENDBRANCH   1   2
BRANCH   1  11
ATOM     11  C   UNL     1     -20.856   3.591  12.477  1.00  0.00     0.000 C 
BRANCH  11  12
ATOM     12  C   UNL     1     -20.840   5.058  12.940  1.00  0.00    -0.000 C 
BRANCH  12  13
ATOM     13  C   UNL     1     -20.625   6.051  11.783  1.00  0.00    -0.000 C 
BRANCH  13  14
ATOM     14  C   UNL     1     -21.899   6.747  11.271  1.00  0.00    -0.000 C 
BRANCH  14  15
ATOM     15  C   UNL     1     -22.602   7.588  12.354  1.00  0.00    -0.000 C 
BRANCH  15  16
ATOM     16  C   UNL     1     -24.135   7.406  12.333  1.00  0.00    -0.000 C 
BRANCH  16  17
ATOM     17  C   UNL     1     -24.584   5.936  12.345  1.00  0.00    -0.003 C 
ATOM     18  C   UNL     1     -26.057   5.757  11.983  1.00  0.00     0.004 C 
ENDBRANCH  16  17
ENDBRANCH  15  16
ENDBRANCH  14  15
ENDBRANCH  13  14
ENDBRANCH  12  13
ENDBRANCH  11  12
ENDBRANCH   1  11
TORSDOF 14
ENDMDL
MODEL 6
REMARK VINA RESULT:    -3.742     19.748     21.726
REMARK INTER + INTRA:          -7.675
REMARK INTER:                  -5.469
REMARK INTRA:                  -2.207
REMARK UNBOUND:                -0.871
REMARK SMILES CCCCCCCCCCCCCCCC(=O)[O-]
REMARK SMILES IDX 9 1 10 2 11 3 12 4 13 5 14 6 15 7 16 8 17 9 18 10 8 11 7 12
REMARK SMILES IDX 6 13 5 14 4 15 3 16 2 17 1 18
REMARK H PARENT
REMARK Flexibility Score: inf
ROOT
ATOM      1  C   UNL     1     -22.928   4.111  11.542  1.00  0.00     0.000 C 
ENDROOT
BRANCH   1   2
ATOM      2  C   UNL     1     -22.095   2.915  12.026  1.00  0.00     0.000 C 
BRANCH   2   3
ATOM      3  C   UNL     1     -20.696   3.364  12.468  1.00  0.00     0.000 C 
BRANCH   3   4
ATOM      4  C   UNL     1     -19.606   2.584  11.723  1.00  0.00     0.000 C 
BRANCH   4   5
ATOM      5  C   UNL     1     -19.275   3.250  10.379  1.00  0.00     0.000 C 
BRANCH   5   6
ATOM      6  C   UNL     1     -19.423   2.289   9.184  1.00  0.00     0.006 C 
BRANCH   6   7
ATOM      7  C   UNL     1     -20.672   2.538   8.323  1.00  0.00     0.053 C 
BRANCH   7   8
ATOM      8  C   UNL     1     -21.707   1.473   8.512  1.00  0.00     0.041 C 
ATOM      9  O   UNL     1     -21.601   0.648   9.458  1.00  0.00    -0.550 OA
ATOM     10  O   UNL     1     -22.806   1.413   7.665  1.00  0.00    -0.550 OA
ENDBRANCH   7   8
ENDBRANCH   6   7
ENDBRANCH   5   6
ENDBRANCH   4   5
ENDBRANCH   3   4
ENDBRANCH   2   3
ENDBRANCH   1   2
BRANCH   1  11
ATOM     11  C   UNL     1     -23.548   4.909  12.700  1.00  0.00     0.000 C 
BRANCH  11  12
ATOM     12  C   UNL     1     -24.459   6.049  12.210  1.00  0.00    -0.000 C 
BRANCH  12  13
ATOM     13  C   UNL     1     -23.869   7.446  12.480  1.00  0.00    -0.000 C 
BRANCH  13  14
ATOM     14  C   UNL     1     -22.786   7.903  11.487  1.00  0.00    -0.000 C 
BRANCH  14  15
ATOM     15  C   UNL     1     -21.356   7.704  12.021  1.00  0.00    -0.000 C 
BRANCH  15  16
ATOM     16  C   UNL     1     -20.482   6.869  11.060  1.00  0.00    -0.000 C 
BRANCH  16  17
ATOM     17  C   UNL     1     -21.047   6.776   9.634  1.00  0.00    -0.003 C 
ATOM     18  C   UNL     1     -20.048   6.204   8.630  1.00  0.00     0.004 C 
ENDBRANCH  16  17
ENDBRANCH  15  16
ENDBRANCH  14  15
ENDBRANCH  13  14
ENDBRANCH  12  13
ENDBRANCH  11  12
ENDBRANCH   1  11
TORSDOF 14
ENDMDL
MODEL 7
REMARK VINA RESULT:    -3.721     20.065     22.093
REMARK INTER + INTRA:          -7.638
REMARK INTER:                  -5.392
REMARK INTRA:                  -2.246
REMARK UNBOUND:                -0.871
REMARK SMILES CCCCCCCCCCCCCCCC(=O)[O-]
REMARK SMILES IDX 9 1 10 2 11 3 12 4 13 5 14 6 15 7 16 8 17 9 18 10 8 11 7 12
REMARK SMILES IDX 6 13 5 14 4 15 3 16 2 17 1 18
REMARK H PARENT
REMARK Flexibility Score: inf
ROOT
ATOM      1  C   UNL     1     -20.909   1.912   8.632  1.00  0.00     0.000 C 
ENDROOT
BRANCH   1   2
ATOM      2  C   UNL     1     -19.848   1.409   9.622  1.00  0.00     0.000 C 
BRANCH   2   3
ATOM      3  C   UNL     1     -18.732   2.446   9.802  1.00  0.00     0.000 C 
BRANCH   3   4
ATOM      4  C   UNL     1     -19.012   3.353  11.007  1.00  0.00     0.000 C 
BRANCH   4   5
ATOM      5  C   UNL     1     -18.364   4.733  10.819  1.00  0.00     0.000 C 
BRANCH   5   6
ATOM      6  C   UNL     1     -19.392   5.840  10.519  1.00  0.00     0.006 C 
BRANCH   6   7
ATOM      7  C   UNL     1     -20.367   5.506   9.378  1.00  0.00     0.053 C 
BRANCH   7   8
ATOM      8  C   UNL     1     -19.792   5.832   8.035  1.00  0.00     0.041 C 
ATOM      9  O   UNL     1     -19.641   7.033   7.685  1.00  0.00    -0.550 OA
ATOM     10  O   UNL     1     -19.391   4.811   7.183  1.00  0.00    -0.550 OA
ENDBRANCH   7   8
ENDBRANCH   6   7
ENDBRANCH   5   6
ENDBRANCH   4   5
ENDBRANCH   3   4
ENDBRANCH   2   3
ENDBRANCH   1   2
BRANCH   1  11
ATOM     11  C   UNL     1     -22.321   1.939   9.239  1.00  0.00     0.000 C 
BRANCH  11  12
ATOM     12  C   UNL     1     -22.301   2.032  10.775  1.00  0.00    -0.000 C 
BRANCH  12  13
ATOM     13  C   UNL     1     -22.731   3.415  11.299  1.00  0.00    -0.000 C 
BRANCH  13  14
ATOM     14  C   UNL     1     -22.318   3.724  12.749  1.00  0.00    -0.000 C 
BRANCH  14  15
ATOM     15  C   UNL     1     -22.211   5.233  13.036  1.00  0.00    -0.000 C 
BRANCH  15  16
ATOM     16  C   UNL     1     -22.873   6.087  11.934  1.00  0.00    -0.000 C 
BRANCH  16  17
ATOM     17  C   UNL     1     -24.189   6.750  12.372  1.00  0.00    -0.003 C 
ATOM     18  C   UNL     1     -25.406   5.845  12.187  1.00  0.00     0.004 C 
ENDBRANCH  16  17
ENDBRANCH  15  16
ENDBRANCH  14  15
ENDBRANCH  13  14
ENDBRANCH  12  13
ENDBRANCH  11  12
ENDBRANCH   1  11
TORSDOF 14
ENDMDL
MODEL 8
REMARK VINA RESULT:    -3.647     20.264     22.803
REMARK INTER + INTRA:          -7.504
REMARK INTER:                  -5.515
REMARK INTRA:                  -1.989
REMARK UNBOUND:                -0.871
REMARK SMILES CCCCCCCCCCCCCCCC(=O)[O-]
REMARK SMILES IDX 9 1 10 2 11 3 12 4 13 5 14 6 15 7 16 8 17 9 18 10 8 11 7 12
REMARK SMILES IDX 6 13 5 14 4 15 3 16 2 17 1 18
REMARK H PARENT
REMARK Flexibility Score: inf
ROOT
ATOM      1  C   UNL     1     -23.031   3.982  11.598  1.00  0.00     0.000 C 
ENDROOT
BRANCH   1   2
ATOM      2  C   UNL     1     -23.521   4.886  12.740  1.00  0.00     0.000 C 
BRANCH   2   3
ATOM      3  C   UNL     1     -24.652   5.806  12.263  1.00  0.00     0.000 C 
BRANCH   3   4
ATOM      4  C   UNL     1     -24.195   7.269  12.229  1.00  0.00     0.000 C 
BRANCH   4   5
ATOM      5  C   UNL     1     -22.845   7.440  12.943  1.00  0.00     0.000 C 
BRANCH   5   6
ATOM      6  C   UNL     1     -21.746   7.995  12.017  1.00  0.00     0.006 C 
BRANCH   6   7
ATOM      7  C   UNL     1     -21.805   7.462  10.577  1.00  0.00     0.053 C 
BRANCH   7   8
ATOM      8  C   UNL     1     -20.698   6.496  10.289  1.00  0.00     0.041 C 
ATOM      9  O   UNL     1     -20.768   5.730   9.292  1.00  0.00    -0.550 OA
ATOM     10  O   UNL     1     -19.573   6.465  11.103  1.00  0.00    -0.550 OA
ENDBRANCH   7   8
ENDBRANCH   6   7
ENDBRANCH   5   6
ENDBRANCH   4   5
ENDBRANCH   3   4
ENDBRANCH   2   3
ENDBRANCH   1   2
BRANCH   1  11
ATOM     11  C   UNL     1     -22.016   2.929  12.069  1.00  0.00     0.000 C 
BRANCH  11  12
ATOM     12  C   UNL     1     -20.788   3.556  12.750  1.00  0.00    -0.000 C 
BRANCH  12  13
ATOM     13  C   UNL     1     -19.484   2.786  12.465  1.00  0.00    -0.000 C 
BRANCH  13  14
ATOM     14  C   UNL     1     -18.893   2.996  11.059  1.00  0.00    -0.000 C 
BRANCH  14  15
ATOM     15  C   UNL     1     -18.458   1.681  10.387  1.00  0.00    -0.000 C 
BRANCH  15  16
ATOM     16  C   UNL     1     -19.532   1.133   9.422  1.00  0.00    -0.000 C 
BRANCH  16  17
ATOM     17  C   UNL     1     -20.426   2.222   8.808  1.00  0.00    -0.003 C 
ATOM     18  C   UNL     1     -21.839   1.733   8.498  1.00  0.00     0.004 C 
ENDBRANCH  16  17
ENDBRANCH  15  16
ENDBRANCH  14  15
ENDBRANCH  13  14
ENDBRANCH  12  13
ENDBRANCH  11  12
ENDBRANCH   1  11
TORSDOF 14
ENDMDL
