MODEL 1
REMARK VINA RESULT:    -3.242      0.000      0.000
REMARK INTER + INTRA:          -5.218
REMARK INTER:                  -4.948
REMARK INTRA:                  -0.270
REMARK UNBOUND:                -0.270
REMARK SMILES CC1=CCC[C@@H](C)C(=O)C[C@H](C(C)C)C(=O)C1
REMARK SMILES IDX 8 1 9 2 6 3 7 4 5 5 4 6 3 7 2 8 1 9 10 11 11 12 15 13 16 14
REMARK SMILES IDX 17 15 12 17 13 18 14 19
REMARK H PARENT
REMARK Flexibility Score: 70.00
ROOT
ATOM      1  C   UNL     1      -2.218  13.145 -22.971  1.00  0.00     0.136 C 
ATOM      2  O   UNL     1      -1.026  13.406 -23.062  1.00  0.00    -0.299 OA
ENDROOT
BRANCH   1   3
ATOM      3  C   UNL     1      -2.700  11.740 -23.279  1.00  0.00     0.053 C 
ATOM      4  C   UNL     1      -1.969  10.718 -22.397  1.00  0.00     0.016 C 
BRANCH   3   5
ATOM      5  C   UNL     1      -2.505  11.416 -24.777  1.00  0.00     0.015 C 
BRANCH   5   6
ATOM      6  C   UNL     1      -3.713  11.873 -25.618  1.00  0.00     0.028 C 
BRANCH   6   7
ATOM      7  C   UNL     1      -5.027  11.320 -25.123  1.00  0.00    -0.028 C 
ATOM      8  C   UNL     1      -6.079  12.062 -24.694  1.00  0.00    -0.070 CG0
ATOM      9  C   UNL     1      -7.273  11.325 -24.142  1.00  0.00     0.039 C 
ATOM     10  G   UNL     1      -6.133  13.582 -24.784  1.00  0.00     0.000 G0
ENDBRANCH   6   7
ENDBRANCH   5   6
ENDBRANCH   3   5
ENDBRANCH   1   3
BRANCH   1  11
ATOM     11  C   UNL     1      -3.175  14.233 -22.539  1.00  0.00     0.087 C 
BRANCH  11  12
ATOM     12  C   UNL     1      -4.035  14.762 -23.717  1.00  0.00     0.066 C 
BRANCH  12  13
ATOM     13  C   UNL     1      -5.481  14.300 -23.594  1.00  0.00     0.140 C 
ATOM     14  O   UNL     1      -6.122  14.535 -22.579  1.00  0.00    -0.299 OA
BRANCH  13  15
ATOM     15  C   UNL     1      -6.151  13.601 -24.752  1.00  0.00     0.106 CG0
ATOM     16  G   UNL     1      -6.084  12.081 -24.679  1.00  0.00     0.000 G0
ENDBRANCH  13  15
ENDBRANCH  12  13
BRANCH  12  17
ATOM     17  C   UNL     1      -3.933  16.310 -23.916  1.00  0.00    -0.006 C 
ATOM     18  C   UNL     1      -3.286  17.050 -22.731  1.00  0.00     0.008 C 
ATOM     19  C   UNL     1      -3.191  16.663 -25.216  1.00  0.00     0.008 C 
ENDBRANCH  12  17
ENDBRANCH  11  12
ENDBRANCH   1  11
TORSDOF 1
ENDMDL
MODEL 2
REMARK VINA RESULT:    -3.192     10.730     12.592
REMARK INTER + INTRA:          -5.142
REMARK INTER:                  -4.818
REMARK INTRA:                  -0.323
REMARK UNBOUND:                -0.270
REMARK SMILES CC1=CCC[C@@H](C)C(=O)C[C@H](C(C)C)C(=O)C1
REMARK SMILES IDX 8 1 9 2 6 3 7 4 5 5 4 6 3 7 2 8 1 9 10 11 11 12 15 13 16 14
REMARK SMILES IDX 17 15 12 17 13 18 14 19
REMARK H PARENT
REMARK Flexibility Score: 70.00
ROOT
ATOM      1  C   UNL     1     -13.095  12.793 -17.731  1.00  0.00     0.136 C 
ATOM      2  O   UNL     1     -13.977  13.436 -18.283  1.00  0.00    -0.299 OA
ENDROOT
BRANCH   1   3
ATOM      3  C   UNL     1     -12.872  11.344 -18.122  1.00  0.00     0.053 C 
ATOM      4  C   UNL     1     -12.533  11.238 -19.616  1.00  0.00     0.016 C 
BRANCH   3   5
ATOM      5  C   UNL     1     -14.114  10.492 -17.777  1.00  0.00     0.015 C 
BRANCH   5   6
ATOM      6  C   UNL     1     -14.454  10.567 -16.275  1.00  0.00     0.028 C 
BRANCH   6   7
ATOM      7  C   UNL     1     -13.412   9.923 -15.396  1.00  0.00    -0.028 C 
ATOM      8  C   UNL     1     -12.851  10.490 -14.299  1.00  0.00    -0.070 CG0
ATOM      9  C   UNL     1     -11.750   9.728 -13.604  1.00  0.00     0.039 C 
ATOM     10  G   UNL     1     -13.302  11.821 -13.712  1.00  0.00     0.000 G0
ENDBRANCH   6   7
ENDBRANCH   5   6
ENDBRANCH   3   5
ENDBRANCH   1   3
BRANCH   1  11
ATOM     11  C   UNL     1     -12.241  13.469 -16.683  1.00  0.00     0.087 C 
BRANCH  11  12
ATOM     12  C   UNL     1     -13.043  13.806 -15.398  1.00  0.00     0.066 C 
BRANCH  12  13
ATOM     13  C   UNL     1     -12.523  13.021 -14.202  1.00  0.00     0.140 C 
ATOM     14  O   UNL     1     -11.509  13.380 -13.619  1.00  0.00    -0.299 OA
BRANCH  13  15
ATOM     15  C   UNL     1     -13.292  11.828 -13.689  1.00  0.00     0.106 CG0
ATOM     16  G   UNL     1     -12.862  10.503 -14.307  1.00  0.00     0.000 G0
ENDBRANCH  13  15
ENDBRANCH  12  13
BRANCH  12  17
ATOM     17  C   UNL     1     -13.124  15.339 -15.099  1.00  0.00    -0.006 C 
ATOM     18  C   UNL     1     -13.329  16.209 -16.353  1.00  0.00     0.008 C 
ATOM     19  C   UNL     1     -14.218  15.655 -14.065  1.00  0.00     0.008 C 
ENDBRANCH  12  17
ENDBRANCH  11  12
ENDBRANCH   1  11
TORSDOF 1
ENDMDL
MODEL 3
REMARK VINA RESULT:    -3.153     13.133     14.394
REMARK INTER + INTRA:          -5.082
REMARK INTER:                  -5.040
REMARK INTRA:                  -0.042
REMARK UNBOUND:                -0.270
REMARK SMILES CC1=CCC[C@@H](C)C(=O)C[C@H](C(C)C)C(=O)C1
REMARK SMILES IDX 8 1 9 2 6 3 7 4 5 5 4 6 3 7 2 8 1 9 10 11 11 12 15 13 16 14
REMARK SMILES IDX 17 15 12 17 13 18 14 19
REMARK H PARENT
REMARK Flexibility Score: 70.00
ROOT
ATOM      1  C   UNL     1     -10.419  11.301 -12.173  1.00  0.00     0.136 C 
ATOM      2  O   UNL     1     -11.602  11.527 -11.957  1.00  0.00    -0.299 OA
ENDROOT
BRANCH   1   3
ATOM      3  C   UNL     1     -10.003   9.940 -12.699  1.00  0.00     0.053 C 
ATOM      4  C   UNL     1     -10.686   9.653 -14.043  1.00  0.00     0.016 C 
BRANCH   3   5
ATOM      5  C   UNL     1     -10.331   8.837 -11.667  1.00  0.00     0.015 C 
BRANCH   5   6
ATOM      6  C   UNL     1      -9.333   8.843 -10.492  1.00  0.00     0.028 C 
BRANCH   6   7
ATOM      7  C   UNL     1      -7.901   8.659 -10.927  1.00  0.00    -0.028 C 
ATOM      8  C   UNL     1      -6.882   9.513 -10.657  1.00  0.00    -0.070 CG0
ATOM      9  C   UNL     1      -5.535   9.208 -11.263  1.00  0.00     0.039 C 
ATOM     10  G   UNL     1      -7.016  10.726  -9.745  1.00  0.00     0.000 G0
ENDBRANCH   6   7
ENDBRANCH   5   6
ENDBRANCH   3   5
ENDBRANCH   1   3
BRANCH   1  11
ATOM     11  C   UNL     1      -9.406  12.395 -11.923  1.00  0.00     0.087 C 
BRANCH  11  12
ATOM     12  C   UNL     1      -8.891  12.397 -10.459  1.00  0.00     0.066 C 
BRANCH  12  13
ATOM     13  C   UNL     1      -7.421  12.007 -10.391  1.00  0.00     0.140 C 
ATOM     14  O   UNL     1      -6.561  12.756 -10.834  1.00  0.00    -0.299 OA
BRANCH  13  15
ATOM     15  C   UNL     1      -7.012  10.719  -9.720  1.00  0.00     0.106 CG0
ATOM     16  G   UNL     1      -6.898   9.535 -10.672  1.00  0.00     0.000 G0
ENDBRANCH  13  15
ENDBRANCH  12  13
BRANCH  12  17
ATOM     17  C   UNL     1      -9.175  13.735  -9.700  1.00  0.00    -0.006 C 
ATOM     18  C   UNL     1      -8.591  13.780  -8.276  1.00  0.00     0.008 C 
ATOM     19  C   UNL     1      -8.683  14.952 -10.500  1.00  0.00     0.008 C 
ENDBRANCH  12  17
ENDBRANCH  11  12
ENDBRANCH   1  11
TORSDOF 1
ENDMDL
MODEL 4
REMARK VINA RESULT:    -3.097      4.558      6.176
REMARK INTER + INTRA:          -4.996
REMARK INTER:                  -4.740
REMARK INTRA:                  -0.257
REMARK UNBOUND:                -0.270
REMARK SMILES CC1=CCC[C@@H](C)C(=O)C[C@H](C(C)C)C(=O)C1
REMARK SMILES IDX 8 1 9 2 6 3 7 4 5 5 4 6 3 7 2 8 1 9 10 11 11 12 15 13 16 14
REMARK SMILES IDX 17 15 12 17 13 18 14 19
REMARK H PARENT
REMARK Flexibility Score: 70.00
ROOT
ATOM      1  C   UNL     1       0.390  11.357 -17.648  1.00  0.00     0.136 C 
ATOM      2  O   UNL     1       0.996  11.470 -16.591  1.00  0.00    -0.299 OA
ENDROOT
BRANCH   1   3
ATOM      3  C   UNL     1       0.489  10.060 -18.430  1.00  0.00     0.053 C 
ATOM      4  C   UNL     1       1.808  10.006 -19.212  1.00  0.00     0.016 C 
BRANCH   3   5
ATOM      5  C   UNL     1      -0.721   9.905 -19.379  1.00  0.00     0.015 C 
BRANCH   5   6
ATOM      6  C   UNL     1      -0.275   9.753 -20.847  1.00  0.00     0.028 C 
BRANCH   6   7
ATOM      7  C   UNL     1      -1.239  10.371 -21.829  1.00  0.00    -0.028 C 
ATOM      8  C   UNL     1      -1.278  11.683 -22.172  1.00  0.00    -0.070 CG0
ATOM      9  C   UNL     1      -2.380  12.131 -23.099  1.00  0.00     0.039 C 
ATOM     10  G   UNL     1      -0.249  12.707 -21.710  1.00  0.00     0.000 G0
ENDBRANCH   6   7
ENDBRANCH   5   6
ENDBRANCH   3   5
ENDBRANCH   1   3
BRANCH   1  11
ATOM     11  C   UNL     1      -0.453  12.512 -18.137  1.00  0.00     0.087 C 
BRANCH  11  12
ATOM     12  C   UNL     1       0.262  13.339 -19.239  1.00  0.00     0.066 C 
BRANCH  12  13
ATOM     13  C   UNL     1      -0.609  13.472 -20.480  1.00  0.00     0.140 C 
ATOM     14  O   UNL     1      -1.571  14.227 -20.484  1.00  0.00    -0.299 OA
BRANCH  13  15
ATOM     15  C   UNL     1      -0.251  12.717 -21.738  1.00  0.00     0.106 CG0
ATOM     16  G   UNL     1      -1.280  11.671 -22.146  1.00  0.00     0.000 G0
ENDBRANCH  13  15
ENDBRANCH  12  13
BRANCH  12  17
ATOM     17  C   UNL     1       0.780  14.727 -18.738  1.00  0.00    -0.006 C 
ATOM     18  C   UNL     1       0.509  14.991 -17.245  1.00  0.00     0.008 C 
ATOM     19  C   UNL     1       2.277  14.911 -19.034  1.00  0.00     0.008 C 
ENDBRANCH  12  17
ENDBRANCH  11  12
ENDBRANCH   1  11
TORSDOF 1
ENDMDL
MODEL 5
REMARK VINA RESULT:    -3.010     10.245     12.010
REMARK INTER + INTRA:          -4.863
REMARK INTER:                  -4.496
REMARK INTRA:                  -0.367
REMARK UNBOUND:                -0.270
REMARK SMILES CC1=CCC[C@@H](C)C(=O)C[C@H](C(C)C)C(=O)C1
REMARK SMILES IDX 8 1 9 2 6 3 7 4 5 5 4 6 3 7 2 8 1 9 10 11 11 12 15 13 16 14
REMARK SMILES IDX 17 15 12 17 13 18 14 19
REMARK H PARENT
REMARK Flexibility Score: 70.00
ROOT
ATOM      1  C   UNL     1      -3.505   9.862 -11.685  1.00  0.00     0.136 C 
ATOM      2  O   UNL     1      -3.751   9.714 -10.496  1.00  0.00    -0.299 OA
ENDROOT
BRANCH   1   3
ATOM      3  C   UNL     1      -3.432   8.646 -12.590  1.00  0.00     0.053 C 
ATOM      4  C   UNL     1      -4.776   7.906 -12.601  1.00  0.00     0.016 C 
BRANCH   3   5
ATOM      5  C   UNL     1      -2.288   7.707 -12.144  1.00  0.00     0.015 C 
BRANCH   5   6
ATOM      6  C   UNL     1      -0.981   8.003 -12.905  1.00  0.00     0.028 C 
BRANCH   6   7
ATOM      7  C   UNL     1      -1.198   8.296 -14.369  1.00  0.00    -0.028 C 
ATOM      8  C   UNL     1      -0.984   9.493 -14.970  1.00  0.00    -0.070 CG0
ATOM      9  C   UNL     1      -1.353   9.619 -16.427  1.00  0.00     0.039 C 
ATOM     10  G   UNL     1      -0.352  10.689 -14.269  1.00  0.00     0.000 G0
ENDBRANCH   6   7
ENDBRANCH   5   6
ENDBRANCH   3   5
ENDBRANCH   1   3
BRANCH   1  11
ATOM     11  C   UNL     1      -3.294  11.260 -12.221  1.00  0.00     0.087 C 
BRANCH  11  12
ATOM     12  C   UNL     1      -1.792  11.638 -12.307  1.00  0.00     0.066 C 
BRANCH  12  13
ATOM     13  C   UNL     1      -1.325  11.714 -13.754  1.00  0.00     0.140 C 
ATOM     14  O   UNL     1      -1.698  12.627 -14.478  1.00  0.00    -0.299 OA
BRANCH  13  15
ATOM     15  C   UNL     1      -0.348  10.695 -14.287  1.00  0.00     0.106 CG0
ATOM     16  G   UNL     1      -1.007   9.499 -14.962  1.00  0.00     0.000 G0
ENDBRANCH  13  15
ENDBRANCH  12  13
BRANCH  12  17
ATOM     17  C   UNL     1      -1.428  12.933 -11.509  1.00  0.00    -0.006 C 
ATOM     18  C   UNL     1      -2.080  13.009 -10.115  1.00  0.00     0.008 C 
ATOM     19  C   UNL     1       0.094  13.107 -11.379  1.00  0.00     0.008 C 
ENDBRANCH  12  17
ENDBRANCH  11  12
ENDBRANCH   1  11
TORSDOF 1
ENDMDL
MODEL 6
REMARK VINA RESULT:    -2.962     12.485     13.844
REMARK INTER + INTRA:          -4.791
REMARK INTER:                  -4.389
REMARK INTRA:                  -0.401
REMARK UNBOUND:                -0.270
REMARK SMILES CC1=CCC[C@@H](C)C(=O)C[C@H](C(C)C)C(=O)C1
REMARK SMILES IDX 8 1 9 2 6 3 7 4 5 5 4 6 3 7 2 8 1 9 10 11 11 12 15 13 16 14
REMARK SMILES IDX 17 15 12 17 13 18 14 19
REMARK H PARENT
REMARK Flexibility Score: 70.00
ROOT
ATOM      1  C   UNL     1      -7.329   7.050 -11.029  1.00  0.00     0.136 C 
ATOM      2  O   UNL     1      -6.624   6.052 -11.097  1.00  0.00    -0.299 OA
ENDROOT
BRANCH   1   3
ATOM      3  C   UNL     1      -8.837   6.904 -11.108  1.00  0.00     0.053 C 
ATOM      4  C   UNL     1      -9.292   6.832 -12.572  1.00  0.00     0.016 C 
BRANCH   3   5
ATOM      5  C   UNL     1      -9.534   8.070 -10.370  1.00  0.00     0.015 C 
BRANCH   5   6
ATOM      6  C   UNL     1     -10.193   9.053 -11.358  1.00  0.00     0.028 C 
BRANCH   6   7
ATOM      7  C   UNL     1     -10.059  10.496 -10.940  1.00  0.00    -0.028 C 
ATOM      8  C   UNL     1      -9.145  11.373 -11.426  1.00  0.00    -0.070 CG0
ATOM      9  C   UNL     1      -9.103  12.750 -10.811  1.00  0.00     0.039 C 
ATOM     10  G   UNL     1      -8.201  11.057 -12.579  1.00  0.00     0.000 G0
ENDBRANCH   6   7
ENDBRANCH   5   6
ENDBRANCH   3   5
ENDBRANCH   1   3
BRANCH   1  11
ATOM     11  C   UNL     1      -6.673   8.401 -10.854  1.00  0.00     0.087 C 
BRANCH  11  12
ATOM     12  C   UNL     1      -6.441   9.123 -12.208  1.00  0.00     0.066 C 
BRANCH  12  13
ATOM     13  C   UNL     1      -6.818  10.595 -12.119  1.00  0.00     0.140 C 
ATOM     14  O   UNL     1      -6.004  11.420 -11.729  1.00  0.00    -0.299 OA
BRANCH  13  15
ATOM     15  C   UNL     1      -8.183  11.053 -12.572  1.00  0.00     0.106 CG0
ATOM     16  G   UNL     1      -9.133  11.389 -11.429  1.00  0.00     0.000 G0
ENDBRANCH  13  15
ENDBRANCH  12  13
BRANCH  12  17
ATOM     17  C   UNL     1      -4.999   8.924 -12.781  1.00  0.00    -0.006 C 
ATOM     18  C   UNL     1      -3.930   8.673 -11.702  1.00  0.00     0.008 C 
ATOM     19  C   UNL     1      -4.958   7.795 -13.824  1.00  0.00     0.008 C 
ENDBRANCH  12  17
ENDBRANCH  11  12
ENDBRANCH   1  11
TORSDOF 1
ENDMDL
MODEL 7
REMARK VINA RESULT:    -2.935      9.343     11.608
REMARK INTER + INTRA:          -4.749
REMARK INTER:                  -4.708
REMARK INTRA:                  -0.041
REMARK UNBOUND:                -0.270
REMARK SMILES CC1=CCC[C@@H](C)C(=O)C[C@H](C(C)C)C(=O)C1
REMARK SMILES IDX 8 1 9 2 6 3 7 4 5 5 4 6 3 7 2 8 1 9 10 11 11 12 15 13 16 14
REMARK SMILES IDX 17 15 12 17 13 18 14 19
REMARK H PARENT
REMARK Flexibility Score: 70.00
ROOT
ATOM      1  C   UNL     1      -2.135   8.025 -14.399  1.00  0.00     0.136 C 
ATOM      2  O   UNL     1      -3.119   8.205 -15.104  1.00  0.00    -0.299 OA
ENDROOT
BRANCH   1   3
ATOM      3  C   UNL     1      -2.292   7.320 -13.064  1.00  0.00     0.053 C 
ATOM      4  C   UNL     1      -3.737   6.833 -12.883  1.00  0.00     0.016 C 
BRANCH   3   5
ATOM      5  C   UNL     1      -1.875   8.253 -11.905  1.00  0.00     0.015 C 
BRANCH   5   6
ATOM      6  C   UNL     1      -2.650   9.585 -11.943  1.00  0.00     0.028 C 
BRANCH   6   7
ATOM      7  C   UNL     1      -1.814  10.772 -11.531  1.00  0.00    -0.028 C 
ATOM      8  C   UNL     1      -1.271  11.682 -12.377  1.00  0.00    -0.070 CG0
ATOM      9  C   UNL     1      -0.381  12.745 -11.782  1.00  0.00     0.039 C 
ATOM     10  G   UNL     1      -1.547  11.713 -13.875  1.00  0.00     0.000 G0
ENDBRANCH   6   7
ENDBRANCH   5   6
ENDBRANCH   3   5
ENDBRANCH   1   3
BRANCH   1  11
ATOM     11  C   UNL     1      -0.786   8.501 -14.888  1.00  0.00     0.087 C 
BRANCH  11  12
ATOM     12  C   UNL     1      -0.876   9.856 -15.637  1.00  0.00     0.066 C 
BRANCH  12  13
ATOM     13  C   UNL     1      -0.499  11.016 -14.726  1.00  0.00     0.140 C 
ATOM     14  O   UNL     1       0.649  11.438 -14.702  1.00  0.00    -0.299 OA
BRANCH  13  15
ATOM     15  C   UNL     1      -1.558  11.693 -13.890  1.00  0.00     0.106 CG0
ATOM     16  G   UNL     1      -1.267  11.679 -12.394  1.00  0.00     0.000 G0
ENDBRANCH  13  15
ENDBRANCH  12  13
BRANCH  12  17
ATOM     17  C   UNL     1      -0.068   9.882 -16.977  1.00  0.00    -0.006 C 
ATOM     18  C   UNL     1      -0.247   8.616 -17.836  1.00  0.00     0.008 C 
ATOM     19  C   UNL     1      -0.403  11.128 -17.813  1.00  0.00     0.008 C 
ENDBRANCH  12  17
ENDBRANCH  11  12
ENDBRANCH   1  11
TORSDOF 1
ENDMDL
MODEL 8
REMARK VINA RESULT:    -2.918     12.554     14.204
REMARK INTER + INTRA:          -4.723
REMARK INTER:                  -4.483
REMARK INTRA:                  -0.241
REMARK UNBOUND:                -0.270
REMARK SMILES CC1=CCC[C@@H](C)C(=O)C[C@H](C(C)C)C(=O)C1
REMARK SMILES IDX 8 1 9 2 6 3 7 4 5 5 4 6 3 7 2 8 1 9 10 11 11 12 15 13 16 14
REMARK SMILES IDX 17 15 12 17 13 18 14 19
REMARK H PARENT
REMARK Flexibility Score: 70.00
ROOT
ATOM      1  C   UNL     1      -9.504   7.116 -12.375  1.00  0.00     0.136 C 
ATOM      2  O   UNL     1      -9.642   5.919 -12.588  1.00  0.00    -0.299 OA
ENDROOT
BRANCH   1   3
ATOM      3  C   UNL     1      -8.894   7.576 -11.064  1.00  0.00     0.053 C 
ATOM      4  C   UNL     1      -9.993   7.840 -10.026  1.00  0.00     0.016 C 
BRANCH   3   5
ATOM      5  C   UNL     1      -8.027   8.836 -11.282  1.00  0.00     0.015 C 
BRANCH   5   6
ATOM      6  C   UNL     1      -8.629  10.068 -10.576  1.00  0.00     0.028 C 
BRANCH   6   7
ATOM      7  C   UNL     1      -8.954  11.197 -11.521  1.00  0.00    -0.028 C 
ATOM      8  C   UNL     1     -10.124  11.348 -12.190  1.00  0.00    -0.070 CG0
ATOM      9  C   UNL     1     -10.226  12.491 -13.170  1.00  0.00     0.039 C 
ATOM     10  G   UNL     1     -11.343  10.461 -11.972  1.00  0.00     0.000 G0
ENDBRANCH   6   7
ENDBRANCH   5   6
ENDBRANCH   3   5
ENDBRANCH   1   3
BRANCH   1  11
ATOM     11  C   UNL     1      -9.934   8.103 -13.436  1.00  0.00     0.087 C 
BRANCH  11  12
ATOM     12  C   UNL     1     -11.473   8.307 -13.462  1.00  0.00     0.066 C 
BRANCH  12  13
ATOM     13  C   UNL     1     -11.839   9.764 -13.217  1.00  0.00     0.140 C 
ATOM     14  O   UNL     1     -12.577  10.356 -13.992  1.00  0.00    -0.299 OA
BRANCH  13  15
ATOM     15  C   UNL     1     -11.342  10.469 -11.978  1.00  0.00     0.106 CG0
ATOM     16  G   UNL     1     -10.130  11.360 -12.218  1.00  0.00     0.000 G0
ENDBRANCH  13  15
ENDBRANCH  12  13
BRANCH  12  17
ATOM     17  C   UNL     1     -12.154   7.743 -14.752  1.00  0.00    -0.006 C 
ATOM     18  C   UNL     1     -11.173   7.473 -15.907  1.00  0.00     0.008 C 
ATOM     19  C   UNL     1     -12.965   6.472 -14.452  1.00  0.00     0.008 C 
ENDBRANCH  12  17
ENDBRANCH  11  12
ENDBRANCH   1  11
TORSDOF 1
ENDMDL
MODEL 9
REMARK VINA RESULT:    -2.868     11.408     13.405
REMARK INTER + INTRA:          -4.647
REMARK INTER:                  -4.548
REMARK INTRA:                  -0.099
REMARK UNBOUND:                -0.270
REMARK SMILES CC1=CCC[C@@H](C)C(=O)C[C@H](C(C)C)C(=O)C1
REMARK SMILES IDX 8 1 9 2 6 3 7 4 5 5 4 6 3 7 2 8 1 9 10 11 11 12 15 13 16 14
REMARK SMILES IDX 17 15 12 17 13 18 14 19
REMARK H PARENT
REMARK Flexibility Score: 70.00
ROOT
ATOM      1  C   UNL     1     -14.588  14.498 -15.401  1.00  0.00     0.136 C 
ATOM      2  O   UNL     1     -15.080  15.191 -16.282  1.00  0.00    -0.299 OA
ENDROOT
BRANCH   1   3
ATOM      3  C   UNL     1     -13.879  15.165 -14.236  1.00  0.00     0.053 C 
ATOM      4  C   UNL     1     -14.873  15.989 -13.407  1.00  0.00     0.016 C 
BRANCH   3   5
ATOM      5  C   UNL     1     -12.717  16.048 -14.742  1.00  0.00     0.015 C 
BRANCH   5   6
ATOM      6  C   UNL     1     -11.418  15.234 -14.909  1.00  0.00     0.028 C 
BRANCH   6   7
ATOM      7  C   UNL     1     -11.038  14.459 -13.672  1.00  0.00    -0.028 C 
ATOM      8  C   UNL     1     -10.990  13.107 -13.576  1.00  0.00    -0.070 CG0
ATOM      9  C   UNL     1     -10.683  12.513 -12.224  1.00  0.00     0.039 C 
ATOM     10  G   UNL     1     -11.182  12.169 -14.761  1.00  0.00     0.000 G0
ENDBRANCH   6   7
ENDBRANCH   5   6
ENDBRANCH   3   5
ENDBRANCH   1   3
BRANCH   1  11
ATOM     11  C   UNL     1     -14.714  12.995 -15.494  1.00  0.00     0.087 C 
BRANCH  11  12
ATOM     12  C   UNL     1     -13.436  12.331 -16.071  1.00  0.00     0.066 C 
BRANCH  12  13
ATOM     13  C   UNL     1     -12.594  11.705 -14.968  1.00  0.00     0.140 C 
ATOM     14  O   UNL     1     -13.045  10.797 -14.284  1.00  0.00    -0.299 OA
BRANCH  13  15
ATOM     15  C   UNL     1     -11.172  12.164 -14.752  1.00  0.00     0.106 CG0
ATOM     16  G   UNL     1     -10.998  13.102 -13.564  1.00  0.00     0.000 G0
ENDBRANCH  13  15
ENDBRANCH  12  13
BRANCH  12  17
ATOM     17  C   UNL     1     -13.728  11.318 -17.227  1.00  0.00    -0.006 C 
ATOM     18  C   UNL     1     -12.504  10.482 -17.646  1.00  0.00     0.008 C 
ATOM     19  C   UNL     1     -14.898  10.384 -16.876  1.00  0.00     0.008 C 
ENDBRANCH  12  17
ENDBRANCH  11  12
ENDBRANCH   1  11
TORSDOF 1
ENDMDL
