MODEL 1
REMARK VINA RESULT:    -4.041      0.000      0.000
REMARK INTER + INTRA:          -6.232
REMARK INTER:                  -5.930
REMARK INTRA:                  -0.302
REMARK UNBOUND:                -0.302
REMARK SMILES O=C([O-])CCCCCCCC(=O)[O-]
REMARK SMILES IDX 7 1 6 2 5 3 4 4 2 5 1 6 3 7 8 8 9 9 10 10 11 11 12 12 13 13
REMARK H PARENT
REMARK Flexibility Score: inf
ROOT
ATOM      1  C   UNL     1     -16.692   5.169  31.594  1.00  0.00     0.000 C 
ENDROOT
BRANCH   1   2
ATOM      2  C   UNL     1     -15.524   4.168  31.604  1.00  0.00     0.000 C 
BRANCH   2   3
ATOM      3  C   UNL     1     -15.290   3.504  32.977  1.00  0.00     0.006 C 
BRANCH   3   4
ATOM      4  C   UNL     1     -16.606   3.138  33.677  1.00  0.00     0.053 C 
BRANCH   4   5
ATOM      5  C   UNL     1     -16.596   1.701  34.093  1.00  0.00     0.041 C 
ATOM      6  O   UNL     1     -17.111   0.823  33.351  1.00  0.00    -0.550 OA
ATOM      7  O   UNL     1     -16.063   1.338  35.322  1.00  0.00    -0.550 OA
ENDBRANCH   4   5
ENDBRANCH   3   4
ENDBRANCH   2   3
ENDBRANCH   1   2
BRANCH   1   8
ATOM      8  C   UNL     1     -16.344   6.484  30.886  1.00  0.00     0.000 C 
BRANCH   8   9
ATOM      9  C   UNL     1     -15.279   6.262  29.802  1.00  0.00     0.006 C 
BRANCH   9  10
ATOM     10  C   UNL     1     -14.801   7.581  29.179  1.00  0.00     0.053 C 
BRANCH  10  11
ATOM     11  C   UNL     1     -13.360   7.515  28.774  1.00  0.00     0.041 C 
ATOM     12  O   UNL     1     -12.589   6.677  29.311  1.00  0.00    -0.550 OA
ATOM     13  O   UNL     1     -12.878   8.356  27.780  1.00  0.00    -0.550 OA
ENDBRANCH  10  11
ENDBRANCH   9  10
ENDBRANCH   8   9
ENDBRANCH   1   8
TORSDOF 8
ENDMDL
MODEL 2
REMARK VINA RESULT:    -4.022      1.136      1.654
REMARK INTER + INTRA:          -6.205
REMARK INTER:                  -5.897
REMARK INTRA:                  -0.308
REMARK UNBOUND:                -0.302
REMARK SMILES O=C([O-])CCCCCCCC(=O)[O-]
REMARK SMILES IDX 7 1 6 2 5 3 4 4 2 5 1 6 3 7 8 8 9 9 10 10 11 11 12 12 13 13
REMARK H PARENT
REMARK Flexibility Score: inf
ROOT
ATOM      1  C   UNL     1     -16.637   4.304  30.718  1.00  0.00     0.000 C 
ENDROOT
BRANCH   1   2
ATOM      2  C   UNL     1     -16.808   3.072  31.623  1.00  0.00     0.000 C 
BRANCH   2   3
ATOM      3  C   UNL     1     -16.258   3.271  33.051  1.00  0.00     0.006 C 
BRANCH   3   4
ATOM      4  C   UNL     1     -17.022   2.437  34.089  1.00  0.00     0.053 C 
BRANCH   4   5
ATOM      5  C   UNL     1     -16.252   1.204  34.439  1.00  0.00     0.041 C 
ATOM      6  O   UNL     1     -15.860   1.016  35.621  1.00  0.00    -0.550 OA
ATOM      7  O   UNL     1     -15.925   0.286  33.450  1.00  0.00    -0.550 OA
ENDBRANCH   4   5
ENDBRANCH   3   4
ENDBRANCH   2   3
ENDBRANCH   1   2
BRANCH   1   8
ATOM      8  C   UNL     1     -16.574   5.618  31.506  1.00  0.00     0.000 C 
BRANCH   8   9
ATOM      9  C   UNL     1     -16.223   6.797  30.586  1.00  0.00     0.006 C 
BRANCH   9  10
ATOM     10  C   UNL     1     -15.058   6.470  29.643  1.00  0.00     0.053 C 
BRANCH  10  11
ATOM     11  C   UNL     1     -14.579   7.685  28.908  1.00  0.00     0.041 C 
ATOM     12  O   UNL     1     -14.920   8.833  29.294  1.00  0.00    -0.550 OA
ATOM     13  O   UNL     1     -13.727   7.549  27.820  1.00  0.00    -0.550 OA
ENDBRANCH  10  11
ENDBRANCH   9  10
ENDBRANCH   8   9
ENDBRANCH   1   8
TORSDOF 8
ENDMDL
MODEL 3
REMARK VINA RESULT:    -4.013      1.132      7.246
REMARK INTER + INTRA:          -6.192
REMARK INTER:                  -5.922
REMARK INTRA:                  -0.271
REMARK UNBOUND:                -0.302
REMARK SMILES O=C([O-])CCCCCCCC(=O)[O-]
REMARK SMILES IDX 7 1 6 2 5 3 4 4 2 5 1 6 3 7 8 8 9 9 10 10 11 11 12 12 13 13
REMARK H PARENT
REMARK Flexibility Score: inf
ROOT
ATOM      1  C   UNL     1     -16.418   5.994  31.137  1.00  0.00     0.000 C 
ENDROOT
BRANCH   1   2
ATOM      2  C   UNL     1     -15.710   5.495  29.866  1.00  0.00     0.000 C 
BRANCH   2   3
ATOM      3  C   UNL     1     -14.595   6.439  29.368  1.00  0.00     0.006 C 
BRANCH   3   4
ATOM      4  C   UNL     1     -15.041   7.908  29.357  1.00  0.00     0.053 C 
BRANCH   4   5
ATOM      5  C   UNL     1     -14.158   8.716  28.460  1.00  0.00     0.041 C 
ATOM      6  O   UNL     1     -13.041   9.125  28.872  1.00  0.00    -0.550 OA
ATOM      7  O   UNL     1     -14.590   9.060  27.186  1.00  0.00    -0.550 OA
ENDBRANCH   4   5
ENDBRANCH   3   4
ENDBRANCH   2   3
ENDBRANCH   1   2
BRANCH   1   8
ATOM      8  C   UNL     1     -16.951   4.851  32.010  1.00  0.00     0.000 C 
BRANCH   8   9
ATOM      9  C   UNL     1     -15.844   3.831  32.319  1.00  0.00     0.006 C 
BRANCH   9  10
ATOM     10  C   UNL     1     -15.891   3.347  33.775  1.00  0.00     0.053 C 
BRANCH  10  11
ATOM     11  C   UNL     1     -15.979   1.854  33.862  1.00  0.00     0.041 C 
ATOM     12  O   UNL     1     -15.814   1.149  32.833  1.00  0.00    -0.550 OA
ATOM     13  O   UNL     1     -16.209   1.242  35.087  1.00  0.00    -0.550 OA
ENDBRANCH  10  11
ENDBRANCH   9  10
ENDBRANCH   8   9
ENDBRANCH   1   8
TORSDOF 8
ENDMDL
MODEL 4
REMARK VINA RESULT:    -3.865      1.882      2.962
REMARK INTER + INTRA:          -5.974
REMARK INTER:                  -5.630
REMARK INTRA:                  -0.344
REMARK UNBOUND:                -0.302
REMARK SMILES O=C([O-])CCCCCCCC(=O)[O-]
REMARK SMILES IDX 7 1 6 2 5 3 4 4 2 5 1 6 3 7 8 8 9 9 10 10 11 11 12 12 13 13
REMARK H PARENT
REMARK Flexibility Score: inf
ROOT
ATOM      1  C   UNL     1     -15.021   7.057  29.705  1.00  0.00     0.000 C 
ENDROOT
BRANCH   1   2
ATOM      2  C   UNL     1     -16.278   6.909  30.580  1.00  0.00     0.000 C 
BRANCH   2   3
ATOM      3  C   UNL     1     -16.344   5.572  31.348  1.00  0.00     0.006 C 
BRANCH   3   4
ATOM      4  C   UNL     1     -15.030   4.783  31.253  1.00  0.00     0.053 C 
BRANCH   4   5
ATOM      5  C   UNL     1     -15.073   3.585  32.148  1.00  0.00     0.041 C 
ATOM      6  O   UNL     1     -15.942   3.504  33.055  1.00  0.00    -0.550 OA
ATOM      7  O   UNL     1     -14.122   2.583  32.012  1.00  0.00    -0.550 OA
ENDBRANCH   4   5
ENDBRANCH   3   4
ENDBRANCH   2   3
ENDBRANCH   1   2
BRANCH   1   8
ATOM      8  C   UNL     1     -14.877   8.458  29.100  1.00  0.00     0.000 C 
BRANCH   8   9
ATOM      9  C   UNL     1     -13.720   8.507  28.090  1.00  0.00     0.006 C 
BRANCH   9  10
ATOM     10  C   UNL     1     -12.450   9.125  28.692  1.00  0.00     0.053 C 
BRANCH  10  11
ATOM     11  C   UNL     1     -11.314   8.148  28.715  1.00  0.00     0.041 C 
ATOM     12  O   UNL     1     -11.399   7.094  29.399  1.00  0.00    -0.550 OA
ATOM     13  O   UNL     1     -10.177   8.385  27.953  1.00  0.00    -0.550 OA
ENDBRANCH  10  11
ENDBRANCH   9  10
ENDBRANCH   8   9
ENDBRANCH   1   8
TORSDOF 8
ENDMDL
MODEL 5
REMARK VINA RESULT:    -3.863      1.236      6.796
REMARK INTER + INTRA:          -5.971
REMARK INTER:                  -5.548
REMARK INTRA:                  -0.423
REMARK UNBOUND:                -0.302
REMARK SMILES O=C([O-])CCCCCCCC(=O)[O-]
REMARK SMILES IDX 7 1 6 2 5 3 4 4 2 5 1 6 3 7 8 8 9 9 10 10 11 11 12 12 13 13
REMARK H PARENT
REMARK Flexibility Score: inf
ROOT
ATOM      1  C   UNL     1     -15.362   4.251  31.763  1.00  0.00     0.000 C 
ENDROOT
BRANCH   1   2
ATOM      2  C   UNL     1     -16.532   5.241  31.631  1.00  0.00     0.000 C 
BRANCH   2   3
ATOM      3  C   UNL     1     -16.237   6.427  30.689  1.00  0.00     0.006 C 
BRANCH   3   4
ATOM      4  C   UNL     1     -15.322   6.028  29.523  1.00  0.00     0.053 C 
BRANCH   4   5
ATOM      5  C   UNL     1     -14.271   7.069  29.302  1.00  0.00     0.041 C 
ATOM      6  O   UNL     1     -13.052   6.760  29.364  1.00  0.00    -0.550 OA
ATOM      7  O   UNL     1     -14.637   8.389  29.077  1.00  0.00    -0.550 OA
ENDBRANCH   4   5
ENDBRANCH   3   4
ENDBRANCH   2   3
ENDBRANCH   1   2
BRANCH   1   8
ATOM      8  C   UNL     1     -15.343   3.526  33.114  1.00  0.00     0.000 C 
BRANCH   8   9
ATOM      9  C   UNL     1     -16.760   3.103  33.533  1.00  0.00     0.006 C 
BRANCH   9  10
ATOM     10  C   UNL     1     -16.845   1.608  33.864  1.00  0.00     0.053 C 
BRANCH  10  11
ATOM     11  C   UNL     1     -16.544   0.755  32.669  1.00  0.00     0.041 C 
ATOM     12  O   UNL     1     -17.120   0.976  31.573  1.00  0.00    -0.550 OA
ATOM     13  O   UNL     1     -15.600  -0.260  32.760  1.00  0.00    -0.550 OA
ENDBRANCH  10  11
ENDBRANCH   9  10
ENDBRANCH   8   9
ENDBRANCH   1   8
TORSDOF 8
ENDMDL
MODEL 6
REMARK VINA RESULT:    -3.859      0.898      6.938
REMARK INTER + INTRA:          -5.965
REMARK INTER:                  -5.686
REMARK INTRA:                  -0.279
REMARK UNBOUND:                -0.302
REMARK SMILES O=C([O-])CCCCCCCC(=O)[O-]
REMARK SMILES IDX 7 1 6 2 5 3 4 4 2 5 1 6 3 7 8 8 9 9 10 10 11 11 12 12 13 13
REMARK H PARENT
REMARK Flexibility Score: inf
ROOT
ATOM      1  C   UNL     1     -15.904   5.078  31.555  1.00  0.00     0.000 C 
ENDROOT
BRANCH   1   2
ATOM      2  C   UNL     1     -16.425   6.409  30.987  1.00  0.00     0.000 C 
BRANCH   2   3
ATOM      3  C   UNL     1     -15.478   7.054  29.953  1.00  0.00     0.006 C 
BRANCH   3   4
ATOM      4  C   UNL     1     -14.583   6.018  29.260  1.00  0.00     0.053 C 
BRANCH   4   5
ATOM      5  C   UNL     1     -13.468   6.694  28.527  1.00  0.00     0.041 C 
ATOM      6  O   UNL     1     -13.597   6.988  27.310  1.00  0.00    -0.550 OA
ATOM      7  O   UNL     1     -12.269   6.955  29.176  1.00  0.00    -0.550 OA
ENDBRANCH   4   5
ENDBRANCH   3   4
ENDBRANCH   2   3
ENDBRANCH   1   2
BRANCH   1   8
ATOM      8  C   UNL     1     -17.009   4.029  31.726  1.00  0.00     0.000 C 
BRANCH   8   9
ATOM      9  C   UNL     1     -17.122   3.581  33.191  1.00  0.00     0.006 C 
BRANCH   9  10
ATOM     10  C   UNL     1     -15.820   2.955  33.708  1.00  0.00     0.053 C 
BRANCH  10  11
ATOM     11  C   UNL     1     -16.017   1.531  34.132  1.00  0.00     0.041 C 
ATOM     12  O   UNL     1     -16.085   0.618  33.269  1.00  0.00    -0.550 OA
ATOM     13  O   UNL     1     -16.090   1.211  35.482  1.00  0.00    -0.550 OA
ENDBRANCH  10  11
ENDBRANCH   9  10
ENDBRANCH   8   9
ENDBRANCH   1   8
TORSDOF 8
ENDMDL
MODEL 7
REMARK VINA RESULT:    -3.802      1.980      6.864
REMARK INTER + INTRA:          -5.882
REMARK INTER:                  -5.530
REMARK INTRA:                  -0.352
REMARK UNBOUND:                -0.302
REMARK SMILES O=C([O-])CCCCCCCC(=O)[O-]
REMARK SMILES IDX 7 1 6 2 5 3 4 4 2 5 1 6 3 7 8 8 9 9 10 10 11 11 12 12 13 13
REMARK H PARENT
REMARK Flexibility Score: inf
ROOT
ATOM      1  C   UNL     1     -14.988   7.061  29.738  1.00  0.00     0.000 C 
ENDROOT
BRANCH   1   2
ATOM      2  C   UNL     1     -14.870   8.419  29.026  1.00  0.00     0.000 C 
BRANCH   2   3
ATOM      3  C   UNL     1     -13.417   8.825  28.703  1.00  0.00     0.006 C 
BRANCH   3   4
ATOM      4  C   UNL     1     -12.475   7.613  28.645  1.00  0.00     0.053 C 
BRANCH   4   5
ATOM      5  C   UNL     1     -11.058   8.041  28.854  1.00  0.00     0.041 C 
ATOM      6  O   UNL     1     -10.480   8.759  27.996  1.00  0.00    -0.550 OA
ATOM      7  O   UNL     1     -10.359   7.608  29.973  1.00  0.00    -0.550 OA
ENDBRANCH   4   5
ENDBRANCH   3   4
ENDBRANCH   2   3
ENDBRANCH   1   2
BRANCH   1   8
ATOM      8  C   UNL     1     -16.275   6.929  30.562  1.00  0.00     0.000 C 
BRANCH   8   9
ATOM      9  C   UNL     1     -16.319   5.585  31.305  1.00  0.00     0.006 C 
BRANCH   9  10
ATOM     10  C   UNL     1     -14.998   4.813  31.188  1.00  0.00     0.053 C 
BRANCH  10  11
ATOM     11  C   UNL     1     -14.964   3.626  32.101  1.00  0.00     0.041 C 
ATOM     12  O   UNL     1     -14.084   2.738  31.953  1.00  0.00    -0.550 OA
ATOM     13  O   UNL     1     -15.884   3.518  33.136  1.00  0.00    -0.550 OA
ENDBRANCH  10  11
ENDBRANCH   9  10
ENDBRANCH   8   9
ENDBRANCH   1   8
TORSDOF 8
ENDMDL
MODEL 8
REMARK VINA RESULT:    -3.760     23.463     24.708
REMARK INTER + INTRA:          -5.821
REMARK INTER:                  -5.154
REMARK INTRA:                  -0.667
REMARK UNBOUND:                -0.302
REMARK SMILES O=C([O-])CCCCCCCC(=O)[O-]
REMARK SMILES IDX 7 1 6 2 5 3 4 4 2 5 1 6 3 7 8 8 9 9 10 10 11 11 12 12 13 13
REMARK H PARENT
REMARK Flexibility Score: inf
ROOT
ATOM      1  C   UNL     1       1.536  -7.134  20.980  1.00  0.00     0.000 C 
ENDROOT
BRANCH   1   2
ATOM      2  C   UNL     1       2.610  -8.209  20.742  1.00  0.00     0.000 C 
BRANCH   2   3
ATOM      3  C   UNL     1       2.036  -9.566  20.282  1.00  0.00     0.006 C 
BRANCH   3   4
ATOM      4  C   UNL     1       2.598 -10.003  18.921  1.00  0.00     0.053 C 
BRANCH   4   5
ATOM      5  C   UNL     1       1.502 -10.515  18.042  1.00  0.00     0.041 C 
ATOM      6  O   UNL     1       0.353 -10.718  18.516  1.00  0.00    -0.550 OA
ATOM      7  O   UNL     1       1.762 -10.814  16.711  1.00  0.00    -0.550 OA
ENDBRANCH   4   5
ENDBRANCH   3   4
ENDBRANCH   2   3
ENDBRANCH   1   2
BRANCH   1   8
ATOM      8  C   UNL     1       1.630  -5.968  19.987  1.00  0.00     0.000 C 
BRANCH   8   9
ATOM      9  C   UNL     1       0.325  -5.814  19.192  1.00  0.00     0.006 C 
BRANCH   9  10
ATOM     10  C   UNL     1      -0.376  -7.160  18.961  1.00  0.00     0.053 C 
BRANCH  10  11
ATOM     11  C   UNL     1      -0.737  -7.359  17.521  1.00  0.00     0.041 C 
ATOM     12  O   UNL     1      -1.936  -7.264  17.149  1.00  0.00    -0.550 OA
ATOM     13  O   UNL     1       0.256  -7.616  16.584  1.00  0.00    -0.550 OA
ENDBRANCH  10  11
ENDBRANCH   9  10
ENDBRANCH   8   9
ENDBRANCH   1   8
TORSDOF 8
ENDMDL
