MODEL 1
REMARK VINA RESULT:    -4.896      0.000      0.000
REMARK INTER + INTRA:          -5.687
REMARK INTER:                  -5.612
REMARK INTRA:                  -0.076
REMARK UNBOUND:                -0.076
REMARK SMILES COc1cc(C(=O)[O-])ccc1O
REMARK SMILES IDX 5 1 9 2 4 3 10 4 3 5 11 6 6 7 7 8 8 9 2 10 1 11 12 12
REMARK H PARENT 12 13
REMARK Flexibility Score: inf
ROOT
ATOM      1  C   UNL     1      -3.595   5.784   2.729  1.00  0.00     0.001 A 
ATOM      2  C   UNL     1      -4.181   4.796   3.537  1.00  0.00     0.014 A 
ATOM      3  C   UNL     1      -4.426   6.678   2.031  1.00  0.00     0.060 A 
ATOM      4  C   UNL     1      -5.570   4.706   3.646  1.00  0.00     0.051 A 
ATOM      5  C   UNL     1      -5.829   6.590   2.137  1.00  0.00     0.161 A 
ATOM      6  C   UNL     1      -6.395   5.594   2.953  1.00  0.00     0.157 A 
ENDROOT
BRANCH   1   7
ATOM      7  C   UNL     1      -2.122   5.877   2.617  1.00  0.00     0.072 C 
ATOM      8  O   UNL     1      -1.481   6.730   3.286  1.00  0.00    -0.545 OA
ATOM      9  O   UNL     1      -1.425   5.022   1.770  1.00  0.00    -0.545 OA
ENDBRANCH   1   7
BRANCH   5  10
ATOM     10  O   UNL     1      -6.684   7.470   1.452  1.00  0.00    -0.493 OA
ATOM     11  C   UNL     1      -6.365   8.820   1.128  1.00  0.00     0.278 C 
ENDBRANCH   5  10
BRANCH   6  12
ATOM     12  O   UNL     1      -7.778   5.471   3.087  1.00  0.00    -0.504 OA
ATOM     13  H   UNL     1      -8.210   5.129   3.937  1.00  0.00     0.293 HD
ENDBRANCH   6  12
TORSDOF 3
ENDMDL
MODEL 2
REMARK VINA RESULT:    -4.827      1.201      2.821
REMARK INTER + INTRA:          -5.608
REMARK INTER:                  -5.511
REMARK INTRA:                  -0.097
REMARK UNBOUND:                -0.076
REMARK SMILES COc1cc(C(=O)[O-])ccc1O
REMARK SMILES IDX 5 1 9 2 4 3 10 4 3 5 11 6 6 7 7 8 8 9 2 10 1 11 12 12
REMARK H PARENT 12 13
REMARK Flexibility Score: inf
ROOT
ATOM      1  C   UNL     1      -3.770   6.017   2.340  1.00  0.00     0.001 A 
ATOM      2  C   UNL     1      -4.708   6.932   1.837  1.00  0.00     0.014 A 
ATOM      3  C   UNL     1      -4.214   4.965   3.162  1.00  0.00     0.060 A 
ATOM      4  C   UNL     1      -6.062   6.800   2.148  1.00  0.00     0.051 A 
ATOM      5  C   UNL     1      -5.580   4.827   3.480  1.00  0.00     0.161 A 
ATOM      6  C   UNL     1      -6.503   5.756   2.965  1.00  0.00     0.157 A 
ENDROOT
BRANCH   1   7
ATOM      7  C   UNL     1      -2.336   6.161   2.006  1.00  0.00     0.072 C 
ATOM      8  O   UNL     1      -1.846   7.295   1.756  1.00  0.00    -0.545 OA
ATOM      9  O   UNL     1      -1.506   5.045   1.962  1.00  0.00    -0.545 OA
ENDBRANCH   1   7
BRANCH   5  10
ATOM     10  O   UNL     1      -6.052   3.787   4.299  1.00  0.00    -0.493 OA
ATOM     11  C   UNL     1      -6.116   3.841   5.720  1.00  0.00     0.278 C 
ENDBRANCH   5  10
BRANCH   6  12
ATOM     12  O   UNL     1      -7.864   5.656   3.254  1.00  0.00    -0.504 OA
ATOM     13  H   UNL     1      -8.471   5.001   2.775  1.00  0.00     0.293 HD
ENDBRANCH   6  12
TORSDOF 3
ENDMDL
MODEL 3
REMARK VINA RESULT:    -4.733      1.540      4.109
REMARK INTER + INTRA:          -5.500
REMARK INTER:                  -5.419
REMARK INTRA:                  -0.080
REMARK UNBOUND:                -0.076
REMARK SMILES COc1cc(C(=O)[O-])ccc1O
REMARK SMILES IDX 5 1 9 2 4 3 10 4 3 5 11 6 6 7 7 8 8 9 2 10 1 11 12 12
REMARK H PARENT 12 13
REMARK Flexibility Score: inf
ROOT
ATOM      1  C   UNL     1      -5.102   5.959   2.855  1.00  0.00     0.001 A 
ATOM      2  C   UNL     1      -4.192   4.982   3.290  1.00  0.00     0.014 A 
ATOM      3  C   UNL     1      -4.635   7.023   2.063  1.00  0.00     0.060 A 
ATOM      4  C   UNL     1      -2.844   5.067   2.940  1.00  0.00     0.051 A 
ATOM      5  C   UNL     1      -3.274   7.114   1.707  1.00  0.00     0.161 A 
ATOM      6  C   UNL     1      -2.380   6.125   2.154  1.00  0.00     0.157 A 
ENDROOT
BRANCH   1   7
ATOM      7  C   UNL     1      -6.531   5.864   3.228  1.00  0.00     0.072 C 
ATOM      8  O   UNL     1      -7.026   4.766   3.599  1.00  0.00    -0.545 OA
ATOM      9  O   UNL     1      -7.350   6.987   3.173  1.00  0.00    -0.545 OA
ENDBRANCH   1   7
BRANCH   5  10
ATOM     10  O   UNL     1      -2.781   8.166   0.917  1.00  0.00    -0.493 OA
ATOM     11  C   UNL     1      -3.583   9.006   0.094  1.00  0.00     0.278 C 
ENDBRANCH   5  10
BRANCH   6  12
ATOM     12  O   UNL     1      -1.026   6.175   1.825  1.00  0.00    -0.504 OA
ATOM     13  H   UNL     1      -0.356   5.509   2.191  1.00  0.00     0.293 HD
ENDBRANCH   6  12
TORSDOF 3
ENDMDL
MODEL 4
REMARK VINA RESULT:    -4.691      2.340      5.314
REMARK INTER + INTRA:          -5.452
REMARK INTER:                  -5.367
REMARK INTRA:                  -0.085
REMARK UNBOUND:                -0.076
REMARK SMILES COc1cc(C(=O)[O-])ccc1O
REMARK SMILES IDX 5 1 9 2 4 3 10 4 3 5 11 6 6 7 7 8 8 9 2 10 1 11 12 12
REMARK H PARENT 12 13
REMARK Flexibility Score: inf
ROOT
ATOM      1  C   UNL     1      -4.854   4.800   4.679  1.00  0.00     0.001 A 
ATOM      2  C   UNL     1      -4.739   4.892   3.283  1.00  0.00     0.014 A 
ATOM      3  C   UNL     1      -3.761   5.172   5.481  1.00  0.00     0.060 A 
ATOM      4  C   UNL     1      -3.555   5.346   2.700  1.00  0.00     0.051 A 
ATOM      5  C   UNL     1      -2.562   5.631   4.898  1.00  0.00     0.161 A 
ATOM      6  C   UNL     1      -2.469   5.715   3.497  1.00  0.00     0.157 A 
ENDROOT
BRANCH   1   7
ATOM      7  C   UNL     1      -6.112   4.319   5.292  1.00  0.00     0.072 C 
ATOM      8  O   UNL     1      -6.181   3.165   5.793  1.00  0.00    -0.545 OA
ATOM      9  O   UNL     1      -7.239   5.134   5.323  1.00  0.00    -0.545 OA
ENDBRANCH   1   7
BRANCH   5  10
ATOM     10  O   UNL     1      -1.454   6.009   5.674  1.00  0.00    -0.493 OA
ATOM     11  C   UNL     1      -0.829   5.181   6.649  1.00  0.00     0.278 C 
ENDBRANCH   5  10
BRANCH   6  12
ATOM     12  O   UNL     1      -1.302   6.164   2.878  1.00  0.00    -0.504 OA
ATOM     13  H   UNL     1      -0.434   5.642   2.917  1.00  0.00     0.293 HD
ENDBRANCH   6  12
TORSDOF 3
ENDMDL
MODEL 5
REMARK VINA RESULT:    -4.567      2.640      3.978
REMARK INTER + INTRA:          -5.310
REMARK INTER:                  -5.232
REMARK INTRA:                  -0.078
REMARK UNBOUND:                -0.076
REMARK SMILES COc1cc(C(=O)[O-])ccc1O
REMARK SMILES IDX 5 1 9 2 4 3 10 4 3 5 11 6 6 7 7 8 8 9 2 10 1 11 12 12
REMARK H PARENT 12 13
REMARK Flexibility Score: inf
ROOT
ATOM      1  C   UNL     1      -3.394   5.293   3.930  1.00  0.00     0.001 A 
ATOM      2  C   UNL     1      -4.526   4.803   3.260  1.00  0.00     0.014 A 
ATOM      3  C   UNL     1      -3.344   5.217   5.334  1.00  0.00     0.060 A 
ATOM      4  C   UNL     1      -5.586   4.247   3.978  1.00  0.00     0.051 A 
ATOM      5  C   UNL     1      -4.412   4.657   6.063  1.00  0.00     0.161 A 
ATOM      6  C   UNL     1      -5.537   4.171   5.371  1.00  0.00     0.157 A 
ENDROOT
BRANCH   1   7
ATOM      7  C   UNL     1      -2.272   5.882   3.165  1.00  0.00     0.072 C 
ATOM      8  O   UNL     1      -1.806   7.010   3.476  1.00  0.00    -0.545 OA
ATOM      9  O   UNL     1      -1.717   5.197   2.089  1.00  0.00    -0.545 OA
ENDBRANCH   1   7
BRANCH   5  10
ATOM     10  O   UNL     1      -4.389   4.568   7.465  1.00  0.00    -0.493 OA
ATOM     11  C   UNL     1      -3.205   4.491   8.252  1.00  0.00     0.278 C 
ENDBRANCH   5  10
BRANCH   6  12
ATOM     12  O   UNL     1      -6.615   3.609   6.054  1.00  0.00    -0.504 OA
ATOM     13  H   UNL     1      -7.362   3.120   5.574  1.00  0.00     0.293 HD
ENDBRANCH   6  12
TORSDOF 3
ENDMDL
MODEL 6
REMARK VINA RESULT:    -4.446      1.677      2.587
REMARK INTER + INTRA:          -5.171
REMARK INTER:                  -5.073
REMARK INTRA:                  -0.098
REMARK UNBOUND:                -0.076
REMARK SMILES COc1cc(C(=O)[O-])ccc1O
REMARK SMILES IDX 5 1 9 2 4 3 10 4 3 5 11 6 6 7 7 8 8 9 2 10 1 11 12 12
REMARK H PARENT 12 13
REMARK Flexibility Score: inf
ROOT
ATOM      1  C   UNL     1      -4.117   6.753   1.935  1.00  0.00     0.001 A 
ATOM      2  C   UNL     1      -3.351   5.729   2.514  1.00  0.00     0.014 A 
ATOM      3  C   UNL     1      -5.495   6.813   2.206  1.00  0.00     0.060 A 
ATOM      4  C   UNL     1      -3.950   4.785   3.349  1.00  0.00     0.051 A 
ATOM      5  C   UNL     1      -6.106   5.861   3.048  1.00  0.00     0.161 A 
ATOM      6  C   UNL     1      -5.319   4.844   3.619  1.00  0.00     0.157 A 
ENDROOT
BRANCH   1   7
ATOM      7  C   UNL     1      -3.477   7.752   1.050  1.00  0.00     0.072 C 
ATOM      8  O   UNL     1      -4.110   8.251   0.082  1.00  0.00    -0.545 OA
ATOM      9  O   UNL     1      -2.164   8.155   1.276  1.00  0.00    -0.545 OA
ENDBRANCH   1   7
BRANCH   5  10
ATOM     10  O   UNL     1      -7.481   5.897   3.337  1.00  0.00    -0.493 OA
ATOM     11  C   UNL     1      -8.115   6.893   4.133  1.00  0.00     0.278 C 
ENDBRANCH   5  10
BRANCH   6  12
ATOM     12  O   UNL     1      -5.883   3.883   4.458  1.00  0.00    -0.504 OA
ATOM     13  H   UNL     1      -5.499   3.673   5.373  1.00  0.00     0.293 HD
ENDBRANCH   6  12
TORSDOF 3
ENDMDL
MODEL 7
REMARK VINA RESULT:    -4.196     15.803     17.153
REMARK INTER + INTRA:          -4.884
REMARK INTER:                  -4.804
REMARK INTRA:                  -0.080
REMARK UNBOUND:                -0.076
REMARK SMILES COc1cc(C(=O)[O-])ccc1O
REMARK SMILES IDX 5 1 9 2 4 3 10 4 3 5 11 6 6 7 7 8 8 9 2 10 1 11 12 12
REMARK H PARENT 12 13
REMARK Flexibility Score: inf
ROOT
ATOM      1  C   UNL     1       9.933   0.794   8.442  1.00  0.00     0.001 A 
ATOM      2  C   UNL     1       8.785   1.430   8.941  1.00  0.00     0.014 A 
ATOM      3  C   UNL     1      10.171  -0.550   8.779  1.00  0.00     0.060 A 
ATOM      4  C   UNL     1       7.892   0.736   9.759  1.00  0.00     0.051 A 
ATOM      5  C   UNL     1       9.273  -1.256   9.605  1.00  0.00     0.161 A 
ATOM      6  C   UNL     1       8.129  -0.599  10.094  1.00  0.00     0.157 A 
ENDROOT
BRANCH   1   7
ATOM      7  C   UNL     1      10.877   1.534   7.575  1.00  0.00     0.072 C 
ATOM      8  O   UNL     1      11.995   1.038   7.273  1.00  0.00    -0.545 OA
ATOM      9  O   UNL     1      10.542   2.791   7.080  1.00  0.00    -0.545 OA
ENDBRANCH   1   7
BRANCH   5  10
ATOM     10  O   UNL     1       9.485  -2.599   9.958  1.00  0.00    -0.493 OA
ATOM     11  C   UNL     1      10.556  -3.403   9.475  1.00  0.00     0.278 C 
ENDBRANCH   5  10
BRANCH   6  12
ATOM     12  O   UNL     1       7.213  -1.260  10.914  1.00  0.00    -0.504 OA
ATOM     13  H   UNL     1       7.143  -2.270  10.940  1.00  0.00     0.293 HD
ENDBRANCH   6  12
TORSDOF 3
ENDMDL
MODEL 8
REMARK VINA RESULT:    -4.194     13.977     16.258
REMARK INTER + INTRA:          -4.883
REMARK INTER:                  -4.779
REMARK INTRA:                  -0.103
REMARK UNBOUND:                -0.076
REMARK SMILES COc1cc(C(=O)[O-])ccc1O
REMARK SMILES IDX 5 1 9 2 4 3 10 4 3 5 11 6 6 7 7 8 8 9 2 10 1 11 12 12
REMARK H PARENT 12 13
REMARK Flexibility Score: inf
ROOT
ATOM      1  C   UNL     1       9.880   0.706   8.505  1.00  0.00     0.001 A 
ATOM      2  C   UNL     1      10.304  -0.581   8.873  1.00  0.00     0.014 A 
ATOM      3  C   UNL     1       8.630   1.169   8.954  1.00  0.00     0.060 A 
ATOM      4  C   UNL     1       9.496  -1.388   9.675  1.00  0.00     0.051 A 
ATOM      5  C   UNL     1       7.810   0.358   9.765  1.00  0.00     0.161 A 
ATOM      6  C   UNL     1       8.255  -0.928  10.122  1.00  0.00     0.157 A 
ENDROOT
BRANCH   1   7
ATOM      7  C   UNL     1      10.740   1.559   7.654  1.00  0.00     0.072 C 
ATOM      8  O   UNL     1      10.321   2.666   7.223  1.00  0.00    -0.545 OA
ATOM      9  O   UNL     1      12.025   1.148   7.316  1.00  0.00    -0.545 OA
ENDBRANCH   1   7
BRANCH   5  10
ATOM     10  O   UNL     1       6.558   0.794  10.229  1.00  0.00    -0.493 OA
ATOM     11  C   UNL     1       5.352   0.739   9.475  1.00  0.00     0.278 C 
ENDBRANCH   5  10
BRANCH   6  12
ATOM     12  O   UNL     1       7.476  -1.764  10.922  1.00  0.00    -0.504 OA
ATOM     13  H   UNL     1       6.843  -2.451  10.530  1.00  0.00     0.293 HD
ENDBRANCH   6  12
TORSDOF 3
ENDMDL
MODEL 9
REMARK VINA RESULT:    -4.164      2.712      3.813
REMARK INTER + INTRA:          -4.848
REMARK INTER:                  -4.751
REMARK INTRA:                  -0.097
REMARK UNBOUND:                -0.076
REMARK SMILES COc1cc(C(=O)[O-])ccc1O
REMARK SMILES IDX 5 1 9 2 4 3 10 4 3 5 11 6 6 7 7 8 8 9 2 10 1 11 12 12
REMARK H PARENT 12 13
REMARK Flexibility Score: inf
ROOT
ATOM      1  C   UNL     1      -3.013   5.329   5.208  1.00  0.00     0.001 A 
ATOM      2  C   UNL     1      -3.177   5.302   3.815  1.00  0.00     0.014 A 
ATOM      3  C   UNL     1      -4.077   4.916   6.030  1.00  0.00     0.060 A 
ATOM      4  C   UNL     1      -4.380   4.870   3.253  1.00  0.00     0.051 A 
ATOM      5  C   UNL     1      -5.294   4.480   5.469  1.00  0.00     0.161 A 
ATOM      6  C   UNL     1      -5.437   4.461   4.069  1.00  0.00     0.157 A 
ENDROOT
BRANCH   1   7
ATOM      7  C   UNL     1      -1.735   5.787   5.799  1.00  0.00     0.072 C 
ATOM      8  O   UNL     1      -1.385   6.994   5.714  1.00  0.00    -0.545 OA
ATOM      9  O   UNL     1      -0.901   4.889   6.457  1.00  0.00    -0.545 OA
ENDBRANCH   1   7
BRANCH   5  10
ATOM     10  O   UNL     1      -6.373   4.062   6.265  1.00  0.00    -0.493 OA
ATOM     11  C   UNL     1      -7.290   4.939   6.911  1.00  0.00     0.278 C 
ENDBRANCH   5  10
BRANCH   6  12
ATOM     12  O   UNL     1      -6.623   4.036   3.472  1.00  0.00    -0.504 OA
ATOM     13  H   UNL     1      -6.688   3.838   2.480  1.00  0.00     0.293 HD
ENDBRANCH   6  12
TORSDOF 3
ENDMDL
