MODEL 1
REMARK VINA RESULT:    59.000      0.000      0.000
REMARK INTER + INTRA:          85.538
REMARK INTER:                  83.145
REMARK INTRA:                   2.393
REMARK UNBOUND:                 2.393
REMARK SMILES COc1c(O[C@@H]2O[C@@H](C(=O)[O-])[C@@H](O)[C@H](O)[C@@H]2O)cc(O)c2c(=O)cc(-c3ccccc3)oc12
REMARK SMILES IDX 5 1 6 2 8 3 12 4 7 5 14 6 16 7 9 8 10 9 11 10 13 11 15 13
REMARK SMILES IDX 17 15 4 17 3 18 18 19 33 20 19 21 21 22 32 23 22 24 25 25
REMARK SMILES IDX 24 26 23 27 2 28 1 29 20 30 26 32 27 33 31 34 28 35 30 36
REMARK SMILES IDX 29 37
REMARK H PARENT 13 12 15 14 17 16 20 31
REMARK Flexibility Score: inf
ROOT
ATOM      1  O   UNL     1      21.505  23.710   3.464  1.00  0.00    -0.458 OA
ENDROOT
BRANCH   1   2
ATOM      2  C   UNL     1      22.255  22.553   3.859  1.00  0.00     0.339 C 
ATOM      3  C   UNL     1      23.773  22.784   2.076  1.00  0.00     0.199 C 
ATOM      4  C   UNL     1      23.333  21.464   1.402  1.00  0.00     0.180 C 
ATOM      5  O   UNL     1      23.616  22.702   3.486  1.00  0.00    -0.328 OA
ATOM      6  C   UNL     1      21.862  21.180   1.749  1.00  0.00     0.181 C 
ATOM      7  C   UNL     1      21.658  21.248   3.276  1.00  0.00     0.214 C 
BRANCH   3   8
ATOM      8  C   UNL     1      25.206  23.094   1.745  1.00  0.00     0.073 C 
ATOM      9  O   UNL     1      26.125  22.853   2.572  1.00  0.00    -0.547 OA
ATOM     10  O   UNL     1      25.524  23.656   0.514  1.00  0.00    -0.547 OA
ENDBRANCH   3   8
BRANCH   4  11
ATOM     11  O   UNL     1      24.123  20.391   1.854  1.00  0.00    -0.387 OA
ATOM     12  H   UNL     1      24.892  20.778   2.350  1.00  0.00     0.211 HD
ENDBRANCH   4  11
BRANCH   6  13
ATOM     13  O   UNL     1      21.024  22.113   1.113  1.00  0.00    -0.387 OA
ATOM     14  H   UNL     1      20.972  22.908   1.705  1.00  0.00     0.211 HD
ENDBRANCH   6  13
BRANCH   7  15
ATOM     15  O   UNL     1      20.295  21.147   3.591  1.00  0.00    -0.384 OA
ATOM     16  H   UNL     1      20.185  21.514   4.506  1.00  0.00     0.211 HD
ENDBRANCH   7  15
ENDBRANCH   1   2
BRANCH   1  17
ATOM     17  C   UNL     1      20.701  24.519   4.291  1.00  0.00     0.172 A 
ATOM     18  C   UNL     1      19.997  23.896   5.325  1.00  0.00     0.205 A 
ATOM     19  C   UNL     1      20.579  25.905   4.112  1.00  0.00     0.097 A 
ATOM     20  C   UNL     1      19.145  24.647   6.156  1.00  0.00     0.188 A 
ATOM     21  C   UNL     1      19.752  26.677   4.933  1.00  0.00     0.134 A 
ATOM     22  C   UNL     1      19.025  26.054   5.990  1.00  0.00     0.111 A 
ATOM     23  O   UNL     1      18.433  24.015   7.084  1.00  0.00    -0.452 OA
ATOM     24  C   UNL     1      18.175  26.734   6.897  1.00  0.00     0.197 A 
ATOM     25  C   UNL     1      17.605  24.625   7.925  1.00  0.00     0.138 A 
ATOM     26  C   UNL     1      17.458  26.014   7.853  1.00  0.00     0.100 A 
ATOM     27  O   UNL     1      18.041  27.982   6.881  1.00  0.00    -0.289 OA
BRANCH  18  28
ATOM     28  O   UNL     1      20.154  22.513   5.489  1.00  0.00    -0.490 OA
ATOM     29  C   UNL     1      21.236  21.931   6.212  1.00  0.00     0.278 C 
ENDBRANCH  18  28
BRANCH  21  30
ATOM     30  O   UNL     1      19.689  28.041   4.625  1.00  0.00    -0.507 OA
ATOM     31  H   UNL     1      19.309  28.765   5.211  1.00  0.00     0.293 HD
ENDBRANCH  21  30
BRANCH  25  32
ATOM     32  C   UNL     1      16.850  23.804   8.905  1.00  0.00     0.017 A 
ATOM     33  C   UNL     1      17.356  22.584   9.399  1.00  0.00     0.012 A 
ATOM     34  C   UNL     1      15.585  24.240   9.341  1.00  0.00     0.012 A 
ATOM     35  C   UNL     1      16.621  21.836  10.324  1.00  0.00     0.001 A 
ATOM     36  C   UNL     1      14.857  23.491  10.270  1.00  0.00     0.001 A 
ATOM     37  C   UNL     1      15.375  22.291  10.763  1.00  0.00     0.000 A 
ENDBRANCH  25  32
ENDBRANCH   1  17
TORSDOF 9
ENDMDL
MODEL 2
REMARK VINA RESULT:    59.956      2.096      8.393
REMARK INTER + INTRA:          86.884
REMARK INTER:                  87.064
REMARK INTRA:                  -0.180
REMARK UNBOUND:                 2.393
REMARK SMILES COc1c(O[C@@H]2O[C@@H](C(=O)[O-])[C@@H](O)[C@H](O)[C@@H]2O)cc(O)c2c(=O)cc(-c3ccccc3)oc12
REMARK SMILES IDX 5 1 6 2 8 3 12 4 7 5 14 6 16 7 9 8 10 9 11 10 13 11 15 13
REMARK SMILES IDX 17 15 4 17 3 18 18 19 33 20 19 21 21 22 32 23 22 24 25 25
REMARK SMILES IDX 24 26 23 27 2 28 1 29 20 30 26 32 27 33 31 34 28 35 30 36
REMARK SMILES IDX 29 37
REMARK H PARENT 13 12 15 14 17 16 20 31
REMARK Flexibility Score: inf
ROOT
ATOM      1  O   UNL     1      18.170  23.532   7.251  1.00  0.00    -0.458 OA
ENDROOT
BRANCH   1   2
ATOM      2  C   UNL     1      18.375  23.814   8.643  1.00  0.00     0.339 C 
ATOM      3  C   UNL     1      16.997  22.034   9.327  1.00  0.00     0.199 C 
ATOM      4  C   UNL     1      15.940  22.967   9.962  1.00  0.00     0.180 C 
ATOM      5  O   UNL     1      18.290  22.618   9.402  1.00  0.00    -0.328 OA
ATOM      6  C   UNL     1      15.947  24.319   9.229  1.00  0.00     0.181 C 
ATOM      7  C   UNL     1      17.383  24.880   9.171  1.00  0.00     0.214 C 
BRANCH   3   8
ATOM      8  C   UNL     1      17.005  20.699  10.016  1.00  0.00     0.073 C 
ATOM      9  O   UNL     1      15.928  20.092  10.258  1.00  0.00    -0.547 OA
ATOM     10  O   UNL     1      18.213  20.125  10.395  1.00  0.00    -0.547 OA
ENDBRANCH   3   8
BRANCH   4  11
ATOM     11  O   UNL     1      16.228  23.185  11.322  1.00  0.00    -0.387 OA
ATOM     12  H   UNL     1      15.629  22.593  11.849  1.00  0.00     0.211 HD
ENDBRANCH   4  11
BRANCH   6  13
ATOM     13  O   UNL     1      15.440  24.168   7.925  1.00  0.00    -0.387 OA
ATOM     14  H   UNL     1      16.215  23.989   7.331  1.00  0.00     0.211 HD
ENDBRANCH   6  13
BRANCH   7  15
ATOM     15  O   UNL     1      17.425  26.031   8.370  1.00  0.00    -0.384 OA
ATOM     16  H   UNL     1      17.429  26.807   8.986  1.00  0.00     0.211 HD
ENDBRANCH   7  15
ENDBRANCH   1   2
BRANCH   1  17
ATOM     17  C   UNL     1      18.837  24.126   6.162  1.00  0.00     0.172 A 
ATOM     18  C   UNL     1      19.905  23.427   5.592  1.00  0.00     0.205 A 
ATOM     19  C   UNL     1      18.476  25.377   5.640  1.00  0.00     0.097 A 
ATOM     20  C   UNL     1      20.635  23.990   4.530  1.00  0.00     0.188 A 
ATOM     21  C   UNL     1      19.175  25.953   4.575  1.00  0.00     0.134 A 
ATOM     22  C   UNL     1      20.270  25.252   3.987  1.00  0.00     0.111 A 
ATOM     23  O   UNL     1      21.690  23.334   4.057  1.00  0.00    -0.452 OA
ATOM     24  C   UNL     1      21.036  25.723   2.892  1.00  0.00     0.197 A 
ATOM     25  C   UNL     1      22.445  23.769   3.054  1.00  0.00     0.138 A 
ATOM     26  C   UNL     1      22.130  24.985   2.439  1.00  0.00     0.100 A 
ATOM     27  O   UNL     1      20.766  26.796   2.297  1.00  0.00    -0.289 OA
BRANCH  18  28
ATOM     28  O   UNL     1      20.228  22.172   6.124  1.00  0.00    -0.490 OA
ATOM     29  C   UNL     1      21.568  21.697   6.247  1.00  0.00     0.278 C 
ENDBRANCH  18  28
BRANCH  21  30
ATOM     30  O   UNL     1      18.740  27.222   4.175  1.00  0.00    -0.507 OA
ATOM     31  H   UNL     1      18.897  27.648   3.277  1.00  0.00     0.293 HD
ENDBRANCH  21  30
BRANCH  25  32
ATOM     32  C   UNL     1      23.610  22.953   2.631  1.00  0.00     0.017 A 
ATOM     33  C   UNL     1      24.929  23.291   2.999  1.00  0.00     0.012 A 
ATOM     34  C   UNL     1      23.402  21.820   1.822  1.00  0.00     0.012 A 
ATOM     35  C   UNL     1      26.004  22.500   2.585  1.00  0.00     0.001 A 
ATOM     36  C   UNL     1      24.481  21.028   1.416  1.00  0.00     0.001 A 
ATOM     37  C   UNL     1      25.780  21.367   1.799  1.00  0.00     0.000 A 
ENDBRANCH  25  32
ENDBRANCH   1  17
TORSDOF 9
ENDMDL
