MODEL 1
REMARK VINA RESULT:    -3.390      0.000      0.000
REMARK INTER + INTRA:          -4.402
REMARK INTER:                  -4.282
REMARK INTRA:                  -0.120
REMARK UNBOUND:                -0.120
REMARK SMILES CSCC[C@@H]([NH3+])C(=O)[O-]
REMARK SMILES IDX 4 1 5 2 6 3 7 7 8 8 9 9 3 10 2 11 1 12
REMARK H PARENT 6 4 6 5 6 6
REMARK Flexibility Score: inf
ROOT
ATOM      1  C   UNL     1      28.985  17.901  18.356  1.00  0.00     0.082 C 
ENDROOT
BRANCH   1   2
ATOM      2  C   UNL     1      30.073  17.364  19.316  1.00  0.00     0.228 C 
BRANCH   2   3
ATOM      3  N   UNL     1      31.265  18.219  19.265  1.00  0.00    -0.350 N 
ATOM      4  H   UNL     1      31.535  18.392  18.269  1.00  0.00     0.345 HD
ATOM      5  H   UNL     1      31.083  19.136  19.735  1.00  0.00     0.345 HD
ATOM      6  H   UNL     1      32.066  17.742  19.740  1.00  0.00     0.345 HD
ENDBRANCH   2   3
BRANCH   2   7
ATOM      7  C   UNL     1      29.566  17.282  20.733  1.00  0.00     0.099 C 
ATOM      8  O   UNL     1      29.641  18.286  21.489  1.00  0.00    -0.544 OA
ATOM      9  O   UNL     1      29.019  16.099  21.214  1.00  0.00    -0.544 OA
ENDBRANCH   2   7
ENDBRANCH   1   2
BRANCH   1  10
ATOM     10  C   UNL     1      29.551  18.458  17.040  1.00  0.00     0.076 C 
BRANCH  10  11
ATOM     11  S   UNL     1      29.470  17.222  15.698  1.00  0.00    -0.165 SA
ATOM     12  C   UNL     1      31.222  16.744  15.827  1.00  0.00     0.085 C 
ENDBRANCH  10  11
ENDBRANCH   1  10
TORSDOF 5
ENDMDL
MODEL 2
REMARK VINA RESULT:    -3.196      2.893      3.629
REMARK INTER + INTRA:          -4.157
REMARK INTER:                  -4.096
REMARK INTRA:                  -0.061
REMARK UNBOUND:                -0.120
REMARK SMILES CSCC[C@@H]([NH3+])C(=O)[O-]
REMARK SMILES IDX 4 1 5 2 6 3 7 7 8 8 9 9 3 10 2 11 1 12
REMARK H PARENT 6 4 6 5 6 6
REMARK Flexibility Score: inf
ROOT
ATOM      1  C   UNL     1      30.924  16.728  15.522  1.00  0.00     0.082 C 
ENDROOT
BRANCH   1   2
ATOM      2  C   UNL     1      30.840  17.084  17.025  1.00  0.00     0.228 C 
BRANCH   2   3
ATOM      3  N   UNL     1      32.056  17.789  17.451  1.00  0.00    -0.350 N 
ATOM      4  H   UNL     1      32.464  17.317  18.291  1.00  0.00     0.345 HD
ATOM      5  H   UNL     1      32.766  17.796  16.683  1.00  0.00     0.345 HD
ATOM      6  H   UNL     1      31.822  18.774  17.714  1.00  0.00     0.345 HD
ENDBRANCH   2   3
BRANCH   2   7
ATOM      7  C   UNL     1      29.630  17.930  17.325  1.00  0.00     0.099 C 
ATOM      8  O   UNL     1      29.187  18.728  16.457  1.00  0.00    -0.544 OA
ATOM      9  O   UNL     1      28.999  17.840  18.560  1.00  0.00    -0.544 OA
ENDBRANCH   2   7
ENDBRANCH   1   2
BRANCH   1  10
ATOM     10  C   UNL     1      32.364  16.607  15.001  1.00  0.00     0.076 C 
BRANCH  10  11
ATOM     11  S   UNL     1      32.647  15.001  14.175  1.00  0.00    -0.165 SA
ATOM     12  C   UNL     1      32.861  15.721  12.517  1.00  0.00     0.085 C 
ENDBRANCH  10  11
ENDBRANCH   1  10
TORSDOF 5
ENDMDL
MODEL 3
REMARK VINA RESULT:    -3.150      3.506      4.491
REMARK INTER + INTRA:          -4.099
REMARK INTER:                  -4.026
REMARK INTRA:                  -0.073
REMARK UNBOUND:                -0.120
REMARK SMILES CSCC[C@@H]([NH3+])C(=O)[O-]
REMARK SMILES IDX 4 1 5 2 6 3 7 7 8 8 9 9 3 10 2 11 1 12
REMARK H PARENT 6 4 6 5 6 6
REMARK Flexibility Score: inf
ROOT
ATOM      1  C   UNL     1      30.808  17.177  19.418  1.00  0.00     0.082 C 
ENDROOT
BRANCH   1   2
ATOM      2  C   UNL     1      31.303  18.108  18.285  1.00  0.00     0.228 C 
BRANCH   2   3
ATOM      3  N   UNL     1      32.628  18.649  18.614  1.00  0.00    -0.350 N 
ATOM      4  H   UNL     1      33.370  17.970  18.324  1.00  0.00     0.345 HD
ATOM      5  H   UNL     1      32.787  19.559  18.124  1.00  0.00     0.345 HD
ATOM      6  H   UNL     1      32.707  18.794  19.647  1.00  0.00     0.345 HD
ENDBRANCH   2   3
BRANCH   2   7
ATOM      7  C   UNL     1      31.362  17.386  16.964  1.00  0.00     0.099 C 
ATOM      8  O   UNL     1      32.474  17.071  16.466  1.00  0.00    -0.544 OA
ATOM      9  O   UNL     1      30.191  17.069  16.286  1.00  0.00    -0.544 OA
ENDBRANCH   2   7
ENDBRANCH   1   2
BRANCH   1  10
ATOM     10  C   UNL     1      29.389  17.508  19.906  1.00  0.00     0.076 C 
BRANCH  10  11
ATOM     11  S   UNL     1      29.344  17.764  21.715  1.00  0.00    -0.165 SA
ATOM     12  C   UNL     1      28.550  16.166  22.073  1.00  0.00     0.085 C 
ENDBRANCH  10  11
ENDBRANCH   1  10
TORSDOF 5
ENDMDL
MODEL 4
REMARK VINA RESULT:    -3.079      1.327      1.449
REMARK INTER + INTRA:          -4.009
REMARK INTER:                  -3.961
REMARK INTRA:                  -0.048
REMARK UNBOUND:                -0.120
REMARK SMILES CSCC[C@@H]([NH3+])C(=O)[O-]
REMARK SMILES IDX 4 1 5 2 6 3 7 7 8 8 9 9 3 10 2 11 1 12
REMARK H PARENT 6 4 6 5 6 6
REMARK Flexibility Score: inf
ROOT
ATOM      1  C   UNL     1      29.295  17.584  19.516  1.00  0.00     0.082 C 
ENDROOT
BRANCH   1   2
ATOM      2  C   UNL     1      30.068  17.083  20.758  1.00  0.00     0.228 C 
BRANCH   2   3
ATOM      3  N   UNL     1      31.461  17.544  20.712  1.00  0.00    -0.350 N 
ATOM      4  H   UNL     1      31.788  17.585  19.718  1.00  0.00     0.345 HD
ATOM      5  H   UNL     1      31.551  18.493  21.142  1.00  0.00     0.345 HD
ATOM      6  H   UNL     1      32.076  16.872  21.227  1.00  0.00     0.345 HD
ENDBRANCH   2   3
BRANCH   2   7
ATOM      7  C   UNL     1      29.421  17.549  22.036  1.00  0.00     0.099 C 
ATOM      8  O   UNL     1      29.335  18.779  22.288  1.00  0.00    -0.544 OA
ATOM      9  O   UNL     1      28.918  16.625  22.945  1.00  0.00    -0.544 OA
ENDBRANCH   2   7
ENDBRANCH   1   2
BRANCH   1  10
ATOM     10  C   UNL     1      30.187  17.793  18.282  1.00  0.00     0.076 C 
BRANCH  10  11
ATOM     11  S   UNL     1      29.210  18.308  16.827  1.00  0.00    -0.165 SA
ATOM     12  C   UNL     1      30.007  17.133  15.687  1.00  0.00     0.085 C 
ENDBRANCH  10  11
ENDBRANCH   1  10
TORSDOF 5
ENDMDL
MODEL 5
REMARK VINA RESULT:    -3.077      3.501      4.509
REMARK INTER + INTRA:          -4.006
REMARK INTER:                  -3.944
REMARK INTRA:                  -0.063
REMARK UNBOUND:                -0.120
REMARK SMILES CSCC[C@@H]([NH3+])C(=O)[O-]
REMARK SMILES IDX 4 1 5 2 6 3 7 7 8 8 9 9 3 10 2 11 1 12
REMARK H PARENT 6 4 6 5 6 6
REMARK Flexibility Score: inf
ROOT
ATOM      1  C   UNL     1      30.773  17.154  19.440  1.00  0.00     0.082 C 
ENDROOT
BRANCH   1   2
ATOM      2  C   UNL     1      31.264  18.004  18.244  1.00  0.00     0.228 C 
BRANCH   2   3
ATOM      3  N   UNL     1      32.544  18.647  18.566  1.00  0.00    -0.350 N 
ATOM      4  H   UNL     1      33.046  18.901  17.684  1.00  0.00     0.345 HD
ATOM      5  H   UNL     1      32.391  19.511  19.135  1.00  0.00     0.345 HD
ATOM      6  H   UNL     1      33.150  17.983  19.103  1.00  0.00     0.345 HD
ENDBRANCH   2   3
BRANCH   2   7
ATOM      7  C   UNL     1      31.413  17.169  16.999  1.00  0.00     0.099 C 
ATOM      8  O   UNL     1      30.471  17.103  16.166  1.00  0.00    -0.544 OA
ATOM      9  O   UNL     1      32.587  16.464  16.764  1.00  0.00    -0.544 OA
ENDBRANCH   2   7
ENDBRANCH   1   2
BRANCH   1  10
ATOM     10  C   UNL     1      29.359  17.525  19.915  1.00  0.00     0.076 C 
BRANCH  10  11
ATOM     11  S   UNL     1      29.299  17.754  21.727  1.00  0.00    -0.165 SA
ATOM     12  C   UNL     1      28.519  16.143  22.057  1.00  0.00     0.085 C 
ENDBRANCH  10  11
ENDBRANCH   1  10
TORSDOF 5
ENDMDL
MODEL 6
REMARK VINA RESULT:    -3.051      4.820      6.033
REMARK INTER + INTRA:          -3.974
REMARK INTER:                  -3.932
REMARK INTRA:                  -0.042
REMARK UNBOUND:                -0.120
REMARK SMILES CSCC[C@@H]([NH3+])C(=O)[O-]
REMARK SMILES IDX 4 1 5 2 6 3 7 7 8 8 9 9 3 10 2 11 1 12
REMARK H PARENT 6 4 6 5 6 6
REMARK Flexibility Score: inf
ROOT
ATOM      1  C   UNL     1      31.038  16.779  15.403  1.00  0.00     0.082 C 
ENDROOT
BRANCH   1   2
ATOM      2  C   UNL     1      32.385  16.159  14.959  1.00  0.00     0.228 C 
BRANCH   2   3
ATOM      3  N   UNL     1      32.604  14.876  15.638  1.00  0.00    -0.350 N 
ATOM      4  H   UNL     1      33.328  14.322  15.125  1.00  0.00     0.345 HD
ATOM      5  H   UNL     1      32.923  15.029  16.622  1.00  0.00     0.345 HD
ATOM      6  H   UNL     1      31.717  14.321  15.645  1.00  0.00     0.345 HD
ENDBRANCH   2   3
BRANCH   2   7
ATOM      7  C   UNL     1      32.433  15.959  13.466  1.00  0.00     0.099 C 
ATOM      8  O   UNL     1      33.079  14.994  12.980  1.00  0.00    -0.544 OA
ATOM      9  O   UNL     1      31.771  16.839  12.619  1.00  0.00    -0.544 OA
ENDBRANCH   2   7
ENDBRANCH   1   2
BRANCH   1  10
ATOM     10  C   UNL     1      30.977  17.096  16.906  1.00  0.00     0.076 C 
BRANCH  10  11
ATOM     11  S   UNL     1      29.477  18.050  17.330  1.00  0.00    -0.165 SA
ATOM     12  C   UNL     1      29.546  17.657  19.106  1.00  0.00     0.085 C 
ENDBRANCH  10  11
ENDBRANCH   1  10
TORSDOF 5
ENDMDL
MODEL 7
REMARK VINA RESULT:    -3.045      3.262      4.361
REMARK INTER + INTRA:          -3.966
REMARK INTER:                  -3.824
REMARK INTRA:                  -0.141
REMARK UNBOUND:                -0.120
REMARK SMILES CSCC[C@@H]([NH3+])C(=O)[O-]
REMARK SMILES IDX 4 1 5 2 6 3 7 7 8 8 9 9 3 10 2 11 1 12
REMARK H PARENT 6 4 6 5 6 6
REMARK Flexibility Score: inf
ROOT
ATOM      1  C   UNL     1      31.334  17.937  18.461  1.00  0.00     0.082 C 
ENDROOT
BRANCH   1   2
ATOM      2  C   UNL     1      31.199  17.469  16.992  1.00  0.00     0.228 C 
BRANCH   2   3
ATOM      3  N   UNL     1      31.638  16.074  16.859  1.00  0.00    -0.350 N 
ATOM      4  H   UNL     1      31.127  15.615  16.069  1.00  0.00     0.345 HD
ATOM      5  H   UNL     1      32.666  16.025  16.677  1.00  0.00     0.345 HD
ATOM      6  H   UNL     1      31.417  15.547  17.736  1.00  0.00     0.345 HD
ENDBRANCH   2   3
BRANCH   2   7
ATOM      7  C   UNL     1      29.783  17.607  16.498  1.00  0.00     0.099 C 
ATOM      8  O   UNL     1      29.352  16.841  15.595  1.00  0.00    -0.544 OA
ATOM      9  O   UNL     1      28.946  18.580  17.029  1.00  0.00    -0.544 OA
ENDBRANCH   2   7
ENDBRANCH   1   2
BRANCH   1  10
ATOM     10  C   UNL     1      30.908  16.873  19.484  1.00  0.00     0.076 C 
BRANCH  10  11
ATOM     11  S   UNL     1      29.538  17.466  20.537  1.00  0.00    -0.165 SA
ATOM     12  C   UNL     1      29.388  15.914  21.477  1.00  0.00     0.085 C 
ENDBRANCH  10  11
ENDBRANCH   1  10
TORSDOF 5
ENDMDL
MODEL 8
REMARK VINA RESULT:    -3.009      2.178      2.790
REMARK INTER + INTRA:          -3.920
REMARK INTER:                  -3.843
REMARK INTRA:                  -0.077
REMARK UNBOUND:                -0.120
REMARK SMILES CSCC[C@@H]([NH3+])C(=O)[O-]
REMARK SMILES IDX 4 1 5 2 6 3 7 7 8 8 9 9 3 10 2 11 1 12
REMARK H PARENT 6 4 6 5 6 6
REMARK Flexibility Score: inf
ROOT
ATOM      1  C   UNL     1      29.639  17.516  20.282  1.00  0.00     0.082 C 
ENDROOT
BRANCH   1   2
ATOM      2  C   UNL     1      29.789  17.546  21.822  1.00  0.00     0.228 C 
BRANCH   2   3
ATOM      3  N   UNL     1      29.388  18.856  22.348  1.00  0.00    -0.350 N 
ATOM      4  H   UNL     1      28.415  18.803  22.732  1.00  0.00     0.345 HD
ATOM      5  H   UNL     1      30.038  19.165  23.106  1.00  0.00     0.345 HD
ATOM      6  H   UNL     1      29.393  19.565  21.578  1.00  0.00     0.345 HD
ENDBRANCH   2   3
BRANCH   2   7
ATOM      7  C   UNL     1      28.971  16.463  22.476  1.00  0.00     0.099 C 
ATOM      8  O   UNL     1      28.158  15.786  21.794  1.00  0.00    -0.544 OA
ATOM      9  O   UNL     1      29.105  16.207  23.836  1.00  0.00    -0.544 OA
ENDBRANCH   2   7
ENDBRANCH   1   2
BRANCH   1  10
ATOM     10  C   UNL     1      30.976  17.372  19.539  1.00  0.00     0.076 C 
BRANCH  10  11
ATOM     11  S   UNL     1      30.816  17.825  17.776  1.00  0.00    -0.165 SA
ATOM     12  C   UNL     1      29.005  17.997  17.828  1.00  0.00     0.085 C 
ENDBRANCH  10  11
ENDBRANCH   1  10
TORSDOF 5
ENDMDL
MODEL 9
REMARK VINA RESULT:    -2.874      3.337      4.531
REMARK INTER + INTRA:          -3.750
REMARK INTER:                  -3.577
REMARK INTRA:                  -0.173
REMARK UNBOUND:                -0.120
REMARK SMILES CSCC[C@@H]([NH3+])C(=O)[O-]
REMARK SMILES IDX 4 1 5 2 6 3 7 7 8 8 9 9 3 10 2 11 1 12
REMARK H PARENT 6 4 6 5 6 6
REMARK Flexibility Score: inf
ROOT
ATOM      1  C   UNL     1      29.749  17.894  21.359  1.00  0.00     0.082 C 
ENDROOT
BRANCH   1   2
ATOM      2  C   UNL     1      29.860  17.212  19.974  1.00  0.00     0.228 C 
BRANCH   2   3
ATOM      3  N   UNL     1      28.950  17.854  19.017  1.00  0.00    -0.350 N 
ATOM      4  H   UNL     1      29.438  18.647  18.540  1.00  0.00     0.345 HD
ATOM      5  H   UNL     1      28.628  17.167  18.297  1.00  0.00     0.345 HD
ATOM      6  H   UNL     1      28.119  18.241  19.521  1.00  0.00     0.345 HD
ENDBRANCH   2   3
BRANCH   2   7
ATOM      7  C   UNL     1      31.270  17.261  19.447  1.00  0.00     0.099 C 
ATOM      8  O   UNL     1      32.140  16.469  19.896  1.00  0.00    -0.544 OA
ATOM      9  O   UNL     1      31.621  18.182  18.467  1.00  0.00    -0.544 OA
ENDBRANCH   2   7
ENDBRANCH   1   2
BRANCH   1  10
ATOM     10  C   UNL     1      29.315  16.936  22.480  1.00  0.00     0.076 C 
BRANCH  10  11
ATOM     11  S   UNL     1      29.215  15.211  21.886  1.00  0.00    -0.165 SA
ATOM     12  C   UNL     1      27.461  15.002  22.328  1.00  0.00     0.085 C 
ENDBRANCH  10  11
ENDBRANCH   1  10
TORSDOF 5
ENDMDL
