MODEL 1
REMARK VINA RESULT:    -5.312      0.000      0.000
REMARK INTER + INTRA:          -6.170
REMARK INTER:                  -7.486
REMARK INTRA:                   1.316
REMARK UNBOUND:                 1.316
REMARK SMILES CC1=CCC(=C(C)C)C(=O)CC(C)=CCC1
REMARK SMILES IDX 12 1 14 2 13 3 15 4 16 5 2 6 1 7 3 8 11 10 9 11 10 12 5 13
REMARK SMILES IDX 6 14 7 15 8 16 4 17
REMARK H PARENT
REMARK Flexibility Score: 60.00
ROOT
ATOM      1  C   UNL     1      12.945  41.142  20.012  1.00  0.00    -0.070 C 
ATOM      2  C   UNL     1      12.275  41.802  19.042  1.00  0.00    -0.027 C 
ATOM      3  C   UNL     1      13.770  41.956  20.977  1.00  0.00     0.039 C 
ENDROOT
BRANCH   2   4
ATOM      4  C   UNL     1      11.323  41.178  18.045  1.00  0.00     0.032 C 
BRANCH   4   5
ATOM      5  C   UNL     1       9.831  41.483  18.295  1.00  0.00     0.034 C 
BRANCH   5   6
ATOM      6  C   UNL     1       9.523  41.813  19.744  1.00  0.00    -0.077 C 
ATOM      7  C   UNL     1       9.157  43.239  20.076  1.00  0.00     0.039 C 
ATOM      8  C   UNL     1       9.487  40.900  20.744  1.00  0.00    -0.023 CG0
ATOM      9  G   UNL     1       9.831  39.426  20.652  1.00  0.00     0.000 G0
ENDBRANCH   5   6
ENDBRANCH   4   5
ENDBRANCH   2   4
BRANCH   1  10
ATOM     10  C   UNL     1      12.834  39.647  20.230  1.00  0.00     0.111 C 
BRANCH  10  11
ATOM     11  C   UNL     1      12.245  39.325  21.578  1.00  0.00     0.163 C 
ATOM     12  O   UNL     1      13.002  39.378  22.585  1.00  0.00    -0.294 OA
BRANCH  11  13
ATOM     13  C   UNL     1      10.798  39.008  21.767  1.00  0.00    -0.002 C 
ATOM     14  C   UNL     1      10.351  38.442  22.928  1.00  0.00    -0.069 C 
ATOM     15  C   UNL     1       8.877  38.256  23.212  1.00  0.00     0.039 C 
ATOM     16  C   UNL     1      11.317  37.974  23.995  1.00  0.00     0.039 C 
BRANCH  13  17
ATOM     17  C   UNL     1       9.844  39.428  20.659  1.00  0.00     0.066 CG0
ATOM     18  G   UNL     1       9.494  40.901  20.728  1.00  0.00     0.000 G0
ENDBRANCH  13  17
ENDBRANCH  11  13
ENDBRANCH  10  11
ENDBRANCH   1  10
TORSDOF 0
ENDMDL
MODEL 2
REMARK VINA RESULT:    -4.854      1.958      4.120
REMARK INTER + INTRA:          -5.525
REMARK INTER:                  -5.966
REMARK INTRA:                   0.441
REMARK UNBOUND:                 1.316
REMARK SMILES CC1=CCC(=C(C)C)C(=O)CC(C)=CCC1
REMARK SMILES IDX 12 1 14 2 13 3 15 4 16 5 2 6 1 7 3 8 11 10 9 11 10 12 5 13
REMARK SMILES IDX 6 14 7 15 8 16 4 17
REMARK H PARENT
REMARK Flexibility Score: 60.00
ROOT
ATOM      1  C   UNL     1      12.148  39.101  21.085  1.00  0.00    -0.070 C 
ATOM      2  C   UNL     1      10.818  39.028  20.863  1.00  0.00    -0.027 C 
ATOM      3  C   UNL     1      13.014  37.989  20.549  1.00  0.00     0.039 C 
ENDROOT
BRANCH   2   4
ATOM      4  C   UNL     1       9.801  40.087  21.235  1.00  0.00     0.032 C 
BRANCH   4   5
ATOM      5  C   UNL     1       9.110  40.769  20.036  1.00  0.00     0.034 C 
BRANCH   5   6
ATOM      6  C   UNL     1      10.080  41.185  18.944  1.00  0.00    -0.077 C 
ATOM      7  C   UNL     1       9.979  40.483  17.613  1.00  0.00     0.039 C 
ATOM      8  C   UNL     1      10.979  42.191  19.064  1.00  0.00    -0.023 CG0
ATOM      9  G   UNL     1      11.268  43.018  20.302  1.00  0.00     0.000 G0
ENDBRANCH   5   6
ENDBRANCH   4   5
ENDBRANCH   2   4
BRANCH   1  10
ATOM     10  C   UNL     1      12.816  40.282  21.758  1.00  0.00     0.111 C 
BRANCH  10  11
ATOM     11  C   UNL     1      13.176  41.357  20.766  1.00  0.00     0.163 C 
ATOM     12  O   UNL     1      13.897  41.039  19.781  1.00  0.00    -0.294 OA
BRANCH  11  13
ATOM     13  C   UNL     1      12.663  42.755  20.876  1.00  0.00    -0.002 C 
ATOM     14  C   UNL     1      13.445  43.748  21.396  1.00  0.00    -0.069 C 
ATOM     15  C   UNL     1      13.014  45.199  21.376  1.00  0.00     0.039 C 
ATOM     16  C   UNL     1      14.789  43.444  22.020  1.00  0.00     0.039 C 
BRANCH  13  17
ATOM     17  C   UNL     1      11.284  43.037  20.301  1.00  0.00     0.066 CG0
ATOM     18  G   UNL     1      10.989  42.199  19.072  1.00  0.00     0.000 G0
ENDBRANCH  13  17
ENDBRANCH  11  13
ENDBRANCH  10  11
ENDBRANCH   1  10
TORSDOF 0
ENDMDL
MODEL 3
REMARK VINA RESULT:    -4.820     14.798     16.942
REMARK INTER + INTRA:          -5.477
REMARK INTER:                  -5.926
REMARK INTRA:                   0.449
REMARK UNBOUND:                 1.316
REMARK SMILES CC1=CCC(=C(C)C)C(=O)CC(C)=CCC1
REMARK SMILES IDX 12 1 14 2 13 3 15 4 16 5 2 6 1 7 3 8 11 10 9 11 10 12 5 13
REMARK SMILES IDX 6 14 7 15 8 16 4 17
REMARK H PARENT
REMARK Flexibility Score: 60.00
ROOT
ATOM      1  C   UNL     1      23.219  32.809  25.517  1.00  0.00    -0.070 C 
ATOM      2  C   UNL     1      21.879  32.928  25.401  1.00  0.00    -0.027 C 
ATOM      3  C   UNL     1      24.034  34.075  25.618  1.00  0.00     0.039 C 
ENDROOT
BRANCH   2   4
ATOM      4  C   UNL     1      20.889  31.783  25.385  1.00  0.00     0.032 C 
BRANCH   4   5
ATOM      5  C   UNL     1      20.495  31.248  26.777  1.00  0.00     0.034 C 
BRANCH   5   6
ATOM      6  C   UNL     1      20.825  29.778  26.968  1.00  0.00    -0.077 C 
ATOM      7  C   UNL     1      19.966  28.768  26.249  1.00  0.00     0.039 C 
ATOM      8  C   UNL     1      21.880  29.319  27.683  1.00  0.00    -0.023 CG0
ATOM      9  G   UNL     1      22.861  30.139  28.498  1.00  0.00     0.000 G0
ENDBRANCH   5   6
ENDBRANCH   4   5
ENDBRANCH   2   4
BRANCH   1  10
ATOM     10  C   UNL     1      23.929  31.477  25.644  1.00  0.00     0.111 C 
BRANCH  10  11
ATOM     11  C   UNL     1      24.574  31.317  26.996  1.00  0.00     0.163 C 
ATOM     12  O   UNL     1      25.375  32.211  27.381  1.00  0.00    -0.294 OA
BRANCH  11  13
ATOM     13  C   UNL     1      24.254  30.180  27.908  1.00  0.00    -0.002 C 
ATOM     14  C   UNL     1      25.213  29.270  28.257  1.00  0.00    -0.069 C 
ATOM     15  C   UNL     1      24.962  28.202  29.300  1.00  0.00     0.039 C 
ATOM     16  C   UNL     1      26.582  29.289  27.614  1.00  0.00     0.039 C 
BRANCH  13  17
ATOM     17  C   UNL     1      22.853  30.136  28.500  1.00  0.00     0.066 CG0
ATOM     18  G   UNL     1      21.899  29.309  27.662  1.00  0.00     0.000 G0
ENDBRANCH  13  17
ENDBRANCH  11  13
ENDBRANCH  10  11
ENDBRANCH   1  10
TORSDOF 0
ENDMDL
MODEL 4
REMARK VINA RESULT:    -4.636      1.635      2.353
REMARK INTER + INTRA:          -5.217
REMARK INTER:                  -6.535
REMARK INTRA:                   1.317
REMARK UNBOUND:                 1.316
REMARK SMILES CC1=CCC(=C(C)C)C(=O)CC(C)=CCC1
REMARK SMILES IDX 12 1 14 2 13 3 15 4 16 5 2 6 1 7 3 8 11 10 9 11 10 12 5 13
REMARK SMILES IDX 6 14 7 15 8 16 4 17
REMARK H PARENT
REMARK Flexibility Score: 60.00
ROOT
ATOM      1  C   UNL     1      13.182  41.849  20.377  1.00  0.00    -0.070 C 
ATOM      2  C   UNL     1      13.037  42.980  21.101  1.00  0.00    -0.027 C 
ATOM      3  C   UNL     1      14.332  40.935  20.720  1.00  0.00     0.039 C 
ENDROOT
BRANCH   2   4
ATOM      4  C   UNL     1      11.899  43.970  20.974  1.00  0.00     0.032 C 
BRANCH   4   5
ATOM      5  C   UNL     1      10.593  43.549  21.682  1.00  0.00     0.034 C 
BRANCH   5   6
ATOM      6  C   UNL     1       9.619  42.834  20.763  1.00  0.00    -0.077 C 
ATOM      7  C   UNL     1       8.879  43.665  19.744  1.00  0.00     0.039 C 
ATOM      8  C   UNL     1       9.423  41.494  20.752  1.00  0.00    -0.023 CG0
ATOM      9  G   UNL     1      10.037  40.471  21.687  1.00  0.00     0.000 G0
ENDBRANCH   5   6
ENDBRANCH   4   5
ENDBRANCH   2   4
BRANCH   1  10
ATOM     10  C   UNL     1      12.199  41.413  19.309  1.00  0.00     0.111 C 
BRANCH  10  11
ATOM     11  C   UNL     1      11.572  40.084  19.640  1.00  0.00     0.163 C 
ATOM     12  O   UNL     1      11.422  39.249  18.707  1.00  0.00    -0.294 OA
BRANCH  11  13
ATOM     13  C   UNL     1      11.184  39.704  21.031  1.00  0.00    -0.002 C 
ATOM     14  C   UNL     1      11.869  38.734  21.708  1.00  0.00    -0.069 C 
ATOM     15  C   UNL     1      11.603  38.437  23.168  1.00  0.00     0.039 C 
ATOM     16  C   UNL     1      12.935  37.904  21.026  1.00  0.00     0.039 C 
BRANCH  13  17
ATOM     17  C   UNL     1      10.068  40.504  21.685  1.00  0.00     0.066 CG0
ATOM     18  G   UNL     1       9.426  41.487  20.726  1.00  0.00     0.000 G0
ENDBRANCH  13  17
ENDBRANCH  11  13
ENDBRANCH  10  11
ENDBRANCH   1  10
TORSDOF 0
ENDMDL
MODEL 5
REMARK VINA RESULT:    -4.534      2.135      3.438
REMARK INTER + INTRA:          -5.074
REMARK INTER:                  -5.659
REMARK INTRA:                   0.585
REMARK UNBOUND:                 1.316
REMARK SMILES CC1=CCC(=C(C)C)C(=O)CC(C)=CCC1
REMARK SMILES IDX 12 1 14 2 13 3 15 4 16 5 2 6 1 7 3 8 11 10 9 11 10 12 5 13
REMARK SMILES IDX 6 14 7 15 8 16 4 17
REMARK H PARENT
REMARK Flexibility Score: 60.00
ROOT
ATOM      1  C   UNL     1      10.182  40.354  18.557  1.00  0.00    -0.070 C 
ATOM      2  C   UNL     1       9.756  41.571  18.153  1.00  0.00    -0.027 C 
ATOM      3  C   UNL     1      11.141  39.610  17.662  1.00  0.00     0.039 C 
ENDROOT
BRANCH   2   4
ATOM      4  C   UNL     1       8.875  42.508  18.951  1.00  0.00     0.032 C 
BRANCH   4   5
ATOM      5  C   UNL     1       9.568  43.804  19.422  1.00  0.00     0.034 C 
BRANCH   5   6
ATOM      6  C   UNL     1       9.941  43.781  20.894  1.00  0.00    -0.077 C 
ATOM      7  C   UNL     1       9.003  44.454  21.865  1.00  0.00     0.039 C 
ATOM      8  C   UNL     1      11.022  43.139  21.398  1.00  0.00    -0.023 CG0
ATOM      9  G   UNL     1      12.104  42.418  20.619  1.00  0.00     0.000 G0
ENDBRANCH   5   6
ENDBRANCH   4   5
ENDBRANCH   2   4
BRANCH   1  10
ATOM     10  C   UNL     1       9.819  39.748  19.898  1.00  0.00     0.111 C 
BRANCH  10  11
ATOM     11  C   UNL     1      10.671  40.305  21.008  1.00  0.00     0.163 C 
ATOM     12  O   UNL     1      10.241  40.214  22.190  1.00  0.00    -0.294 OA
BRANCH  11  13
ATOM     13  C   UNL     1      12.019  40.898  20.765  1.00  0.00    -0.002 C 
ATOM     14  C   UNL     1      13.117  40.099  20.604  1.00  0.00    -0.069 C 
ATOM     15  C   UNL     1      14.463  40.659  20.201  1.00  0.00     0.039 C 
ATOM     16  C   UNL     1      13.037  38.604  20.822  1.00  0.00     0.039 C 
BRANCH  13  17
ATOM     17  C   UNL     1      12.097  42.409  20.610  1.00  0.00     0.066 CG0
ATOM     18  G   UNL     1      11.019  43.125  21.399  1.00  0.00     0.000 G0
ENDBRANCH  13  17
ENDBRANCH  11  13
ENDBRANCH  10  11
ENDBRANCH   1  10
TORSDOF 0
ENDMDL
MODEL 6
REMARK VINA RESULT:    -4.267      3.408      5.260
REMARK INTER + INTRA:          -4.697
REMARK INTER:                  -5.259
REMARK INTRA:                   0.562
REMARK UNBOUND:                 1.316
REMARK SMILES CC1=CCC(=C(C)C)C(=O)CC(C)=CCC1
REMARK SMILES IDX 12 1 14 2 13 3 15 4 16 5 2 6 1 7 3 8 11 10 9 11 10 12 5 13
REMARK SMILES IDX 6 14 7 15 8 16 4 17
REMARK H PARENT
REMARK Flexibility Score: 60.00
ROOT
ATOM      1  C   UNL     1      12.562  38.099  25.434  1.00  0.00    -0.070 C 
ATOM      2  C   UNL     1      12.895  37.937  24.136  1.00  0.00    -0.027 C 
ATOM      3  C   UNL     1      13.336  37.314  26.464  1.00  0.00     0.039 C 
ENDROOT
BRANCH   2   4
ATOM      4  C   UNL     1      12.306  38.703  22.970  1.00  0.00     0.032 C 
BRANCH   4   5
ATOM      5  C   UNL     1      11.153  37.983  22.240  1.00  0.00     0.034 C 
BRANCH   5   6
ATOM      6  C   UNL     1       9.779  38.404  22.730  1.00  0.00    -0.077 C 
ATOM      7  C   UNL     1       9.118  39.573  22.042  1.00  0.00     0.039 C 
ATOM      8  C   UNL     1       9.081  37.758  23.694  1.00  0.00    -0.023 CG0
ATOM      9  G   UNL     1       9.547  36.581  24.528  1.00  0.00     0.000 G0
ENDBRANCH   5   6
ENDBRANCH   4   5
ENDBRANCH   2   4
BRANCH   1  10
ATOM     10  C   UNL     1      11.520  39.092  25.909  1.00  0.00     0.111 C 
BRANCH  10  11
ATOM     11  C   UNL     1      10.204  38.419  26.200  1.00  0.00     0.163 C 
ATOM     12  O   UNL     1       9.258  39.130  26.637  1.00  0.00    -0.294 OA
BRANCH  11  13
ATOM     13  C   UNL     1       9.967  36.970  25.934  1.00  0.00    -0.002 C 
ATOM     14  C   UNL     1      10.048  36.051  26.943  1.00  0.00    -0.069 C 
ATOM     15  C   UNL     1       9.661  34.602  26.740  1.00  0.00     0.039 C 
ATOM     16  C   UNL     1      10.531  36.441  28.323  1.00  0.00     0.039 C 
BRANCH  13  17
ATOM     17  C   UNL     1       9.543  36.581  24.527  1.00  0.00     0.066 CG0
ATOM     18  G   UNL     1       9.073  37.773  23.716  1.00  0.00     0.000 G0
ENDBRANCH  13  17
ENDBRANCH  11  13
ENDBRANCH  10  11
ENDBRANCH   1  10
TORSDOF 0
ENDMDL
MODEL 7
REMARK VINA RESULT:    -3.881     12.930     15.950
REMARK INTER + INTRA:          -4.153
REMARK INTER:                  -4.758
REMARK INTRA:                   0.605
REMARK UNBOUND:                 1.316
REMARK SMILES CC1=CCC(=C(C)C)C(=O)CC(C)=CCC1
REMARK SMILES IDX 12 1 14 2 13 3 15 4 16 5 2 6 1 7 3 8 11 10 9 11 10 12 5 13
REMARK SMILES IDX 6 14 7 15 8 16 4 17
REMARK H PARENT
REMARK Flexibility Score: 60.00
ROOT
ATOM      1  C   UNL     1      14.097  28.547  31.405  1.00  0.00    -0.070 C 
ATOM      2  C   UNL     1      14.927  27.923  32.268  1.00  0.00    -0.027 C 
ATOM      3  C   UNL     1      13.818  27.876  30.084  1.00  0.00     0.039 C 
ENDROOT
BRANCH   2   4
ATOM      4  C   UNL     1      15.252  28.385  33.673  1.00  0.00     0.032 C 
BRANCH   4   5
ATOM      5  C   UNL     1      16.532  29.238  33.793  1.00  0.00     0.034 C 
BRANCH   5   6
ATOM      6  C   UNL     1      16.269  30.730  33.694  1.00  0.00    -0.077 C 
ATOM      7  C   UNL     1      16.024  31.485  34.977  1.00  0.00     0.039 C 
ATOM      8  C   UNL     1      16.308  31.437  32.540  1.00  0.00    -0.023 CG0
ATOM      9  G   UNL     1      16.516  30.894  31.140  1.00  0.00     0.000 G0
ENDBRANCH   5   6
ENDBRANCH   4   5
ENDBRANCH   2   4
BRANCH   1  10
ATOM     10  C   UNL     1      13.365  29.832  31.736  1.00  0.00     0.111 C 
BRANCH  10  11
ATOM     11  C   UNL     1      13.966  31.014  31.021  1.00  0.00     0.163 C 
ATOM     12  O   UNL     1      13.361  32.118  31.087  1.00  0.00    -0.294 OA
BRANCH  11  13
ATOM     13  C   UNL     1      15.269  30.936  30.297  1.00  0.00    -0.002 C 
ATOM     14  C   UNL     1      15.314  30.973  28.931  1.00  0.00    -0.069 C 
ATOM     15  C   UNL     1      16.622  31.056  28.175  1.00  0.00     0.039 C 
ATOM     16  C   UNL     1      14.048  30.937  28.103  1.00  0.00     0.039 C 
BRANCH  13  17
ATOM     17  C   UNL     1      16.533  30.910  31.141  1.00  0.00     0.066 CG0
ATOM     18  G   UNL     1      16.306  31.457  32.537  1.00  0.00     0.000 G0
ENDBRANCH  13  17
ENDBRANCH  11  13
ENDBRANCH  10  11
ENDBRANCH   1  10
TORSDOF 0
ENDMDL
MODEL 8
REMARK VINA RESULT:    -3.777      3.873      6.777
REMARK INTER + INTRA:          -4.007
REMARK INTER:                  -5.218
REMARK INTRA:                   1.211
REMARK UNBOUND:                 1.316
REMARK SMILES CC1=CCC(=C(C)C)C(=O)CC(C)=CCC1
REMARK SMILES IDX 12 1 14 2 13 3 15 4 16 5 2 6 1 7 3 8 11 10 9 11 10 12 5 13
REMARK SMILES IDX 6 14 7 15 8 16 4 17
REMARK H PARENT
REMARK Flexibility Score: 60.00
ROOT
ATOM      1  C   UNL     1       8.967  35.894  26.355  1.00  0.00    -0.070 C 
ATOM      2  C   UNL     1       8.892  35.937  25.008  1.00  0.00    -0.027 C 
ATOM      3  C   UNL     1       9.070  34.541  27.014  1.00  0.00     0.039 C 
ENDROOT
BRANCH   2   4
ATOM      4  C   UNL     1       8.881  37.194  24.163  1.00  0.00     0.032 C 
BRANCH   4   5
ATOM      5  C   UNL     1      10.157  37.423  23.327  1.00  0.00     0.034 C 
BRANCH   5   6
ATOM      6  C   UNL     1      10.966  38.622  23.789  1.00  0.00    -0.077 C 
ATOM      7  C   UNL     1      10.653  39.960  23.166  1.00  0.00     0.039 C 
ATOM      8  C   UNL     1      11.899  38.583  24.770  1.00  0.00    -0.023 CG0
ATOM      9  G   UNL     1      12.388  37.358  25.519  1.00  0.00     0.000 G0
ENDBRANCH   5   6
ENDBRANCH   4   5
ENDBRANCH   2   4
BRANCH   1  10
ATOM     10  C   UNL     1       9.045  37.133  27.225  1.00  0.00     0.111 C 
BRANCH  10  11
ATOM     11  C   UNL     1      10.350  37.862  27.037  1.00  0.00     0.163 C 
ATOM     12  O   UNL     1      10.337  39.122  27.080  1.00  0.00    -0.294 OA
BRANCH  11  13
ATOM     13  C   UNL     1      11.650  37.149  26.865  1.00  0.00    -0.002 C 
ATOM     14  C   UNL     1      12.110  36.292  27.825  1.00  0.00    -0.069 C 
ATOM     15  C   UNL     1      13.341  35.437  27.612  1.00  0.00     0.039 C 
ATOM     16  C   UNL     1      11.405  36.154  29.157  1.00  0.00     0.039 C 
BRANCH  13  17
ATOM     17  C   UNL     1      12.382  37.344  25.546  1.00  0.00     0.066 CG0
ATOM     18  G   UNL     1      11.893  38.565  24.791  1.00  0.00     0.000 G0
ENDBRANCH  13  17
ENDBRANCH  11  13
ENDBRANCH  10  11
ENDBRANCH   1  10
TORSDOF 0
ENDMDL
MODEL 9
REMARK VINA RESULT:    -3.559      2.656      4.647
REMARK INTER + INTRA:          -3.700
REMARK INTER:                  -4.776
REMARK INTRA:                   1.076
REMARK UNBOUND:                 1.316
REMARK SMILES CC1=CCC(=C(C)C)C(=O)CC(C)=CCC1
REMARK SMILES IDX 12 1 14 2 13 3 15 4 16 5 2 6 1 7 3 8 11 10 9 11 10 12 5 13
REMARK SMILES IDX 6 14 7 15 8 16 4 17
REMARK H PARENT
REMARK Flexibility Score: 60.00
ROOT
ATOM      1  C   UNL     1      13.748  43.683  21.775  1.00  0.00    -0.070 C 
ATOM      2  C   UNL     1      14.754  42.897  21.334  1.00  0.00    -0.027 C 
ATOM      3  C   UNL     1      14.106  45.033  22.346  1.00  0.00     0.039 C 
ENDROOT
BRANCH   2   4
ATOM      4  C   UNL     1      14.593  41.559  20.645  1.00  0.00     0.032 C 
BRANCH   4   5
ATOM      5  C   UNL     1      13.620  40.585  21.343  1.00  0.00     0.034 C 
BRANCH   5   6
ATOM      6  C   UNL     1      12.852  39.708  20.370  1.00  0.00    -0.077 C 
ATOM      7  C   UNL     1      12.706  38.246  20.711  1.00  0.00     0.039 C 
ATOM      8  C   UNL     1      12.232  40.165  19.256  1.00  0.00    -0.023 CG0
ATOM      9  G   UNL     1      12.257  41.579  18.709  1.00  0.00     0.000 G0
ENDBRANCH   5   6
ENDBRANCH   4   5
ENDBRANCH   2   4
BRANCH   1  10
ATOM     10  C   UNL     1      12.285  43.316  21.641  1.00  0.00     0.111 C 
BRANCH  10  11
ATOM     11  C   UNL     1      11.771  43.582  20.250  1.00  0.00     0.163 C 
ATOM     12  O   UNL     1      11.848  44.759  19.803  1.00  0.00    -0.294 OA
BRANCH  11  13
ATOM     13  C   UNL     1      11.235  42.500  19.372  1.00  0.00    -0.002 C 
ATOM     14  C   UNL     1       9.895  42.399  19.124  1.00  0.00    -0.069 C 
ATOM     15  C   UNL     1       9.339  41.415  18.117  1.00  0.00     0.039 C 
ATOM     16  C   UNL     1       8.895  43.273  19.848  1.00  0.00     0.039 C 
BRANCH  13  17
ATOM     17  C   UNL     1      12.247  41.587  18.698  1.00  0.00     0.066 CG0
ATOM     18  G   UNL     1      12.216  40.178  19.259  1.00  0.00     0.000 G0
ENDBRANCH  13  17
ENDBRANCH  11  13
ENDBRANCH  10  11
ENDBRANCH   1  10
TORSDOF 0
ENDMDL
