MODEL 1
REMARK VINA RESULT:    -4.331      0.000      0.000
REMARK INTER + INTRA:          -4.607
REMARK INTER:                  -4.584
REMARK INTRA:                  -0.023
REMARK UNBOUND:                -0.023
REMARK SMILES O=C([O-])c1cccnc1
REMARK SMILES IDX 4 1 5 2 9 3 6 4 8 5 7 6 2 7 1 8 3 9
REMARK H PARENT
REMARK Flexibility Score: inf
ROOT
ATOM      1  C   UNL     1     -12.194   4.498 -20.547  1.00  0.00     0.016 A 
ATOM      2  C   UNL     1     -13.113   5.531 -20.296  1.00  0.00     0.013 A 
ATOM      3  C   UNL     1     -11.170   4.727 -21.482  1.00  0.00     0.120 A 
ATOM      4  C   UNL     1     -12.999   6.749 -20.969  1.00  0.00     0.021 A 
ATOM      5  N   UNL     1     -11.082   5.924 -22.125  1.00  0.00    -0.264 NA
ATOM      6  C   UNL     1     -11.966   6.929 -21.890  1.00  0.00     0.111 A 
ENDROOT
BRANCH   1   7
ATOM      7  C   UNL     1     -12.296   3.201 -19.845  1.00  0.00     0.073 C 
ATOM      8  O   UNL     1     -11.328   2.395 -19.844  1.00  0.00    -0.545 OA
ATOM      9  O   UNL     1     -13.464   2.852 -19.176  1.00  0.00    -0.545 OA
ENDBRANCH   1   7
TORSDOF 1
ENDMDL
MODEL 2
REMARK VINA RESULT:    -3.877     10.956     11.850
REMARK INTER + INTRA:          -4.127
REMARK INTER:                  -4.110
REMARK INTRA:                  -0.016
REMARK UNBOUND:                -0.023
REMARK SMILES O=C([O-])c1cccnc1
REMARK SMILES IDX 4 1 5 2 9 3 6 4 8 5 7 6 2 7 1 8 3 9
REMARK H PARENT
REMARK Flexibility Score: inf
ROOT
ATOM      1  C   UNL     1     -10.155  -6.756 -18.598  1.00  0.00     0.016 A 
ATOM      2  C   UNL     1     -10.875  -6.013 -17.646  1.00  0.00     0.013 A 
ATOM      3  C   UNL     1     -10.606  -6.750 -19.929  1.00  0.00     0.120 A 
ATOM      4  C   UNL     1     -12.008  -5.294 -18.030  1.00  0.00     0.021 A 
ATOM      5  N   UNL     1     -11.714  -6.041 -20.275  1.00  0.00    -0.264 NA
ATOM      6  C   UNL     1     -12.417  -5.320 -19.363  1.00  0.00     0.111 A 
ENDROOT
BRANCH   1   7
ATOM      7  C   UNL     1      -8.951  -7.524 -18.213  1.00  0.00     0.073 C 
ATOM      8  O   UNL     1      -9.019  -8.768 -18.023  1.00  0.00    -0.545 OA
ATOM      9  O   UNL     1      -7.728  -6.884 -18.055  1.00  0.00    -0.545 OA
ENDBRANCH   1   7
TORSDOF 1
ENDMDL
MODEL 3
REMARK VINA RESULT:    -3.865     12.469     13.356
REMARK INTER + INTRA:          -4.114
REMARK INTER:                  -4.097
REMARK INTRA:                  -0.016
REMARK UNBOUND:                -0.023
REMARK SMILES O=C([O-])c1cccnc1
REMARK SMILES IDX 4 1 5 2 9 3 6 4 8 5 7 6 2 7 1 8 3 9
REMARK H PARENT
REMARK Flexibility Score: inf
ROOT
ATOM      1  C   UNL     1      -7.481  -7.036 -19.741  1.00  0.00     0.016 A 
ATOM      2  C   UNL     1      -7.148  -6.187 -18.671  1.00  0.00     0.013 A 
ATOM      3  C   UNL     1      -7.068  -8.378 -19.682  1.00  0.00     0.120 A 
ATOM      4  C   UNL     1      -6.422  -6.681 -17.585  1.00  0.00     0.021 A 
ATOM      5  N   UNL     1      -6.361  -8.833 -18.612  1.00  0.00    -0.264 NA
ATOM      6  C   UNL     1      -6.034  -8.021 -17.573  1.00  0.00     0.111 A 
ENDROOT
BRANCH   1   7
ATOM      7  C   UNL     1      -8.250  -6.534 -20.901  1.00  0.00     0.073 C 
ATOM      8  O   UNL     1      -9.484  -6.765 -20.999  1.00  0.00    -0.545 OA
ATOM      9  O   UNL     1      -7.619  -5.801 -21.899  1.00  0.00    -0.545 OA
ENDBRANCH   1   7
TORSDOF 1
ENDMDL
MODEL 4
REMARK VINA RESULT:    -3.844     11.989     12.617
REMARK INTER + INTRA:          -4.092
REMARK INTER:                  -4.074
REMARK INTRA:                  -0.018
REMARK UNBOUND:                -0.023
REMARK SMILES O=C([O-])c1cccnc1
REMARK SMILES IDX 4 1 5 2 9 3 6 4 8 5 7 6 2 7 1 8 3 9
REMARK H PARENT
REMARK Flexibility Score: inf
ROOT
ATOM      1  C   UNL     1      -8.302  -6.989 -19.064  1.00  0.00     0.016 A 
ATOM      2  C   UNL     1      -7.977  -6.864 -20.426  1.00  0.00     0.013 A 
ATOM      3  C   UNL     1      -9.654  -6.906 -18.689  1.00  0.00     0.120 A 
ATOM      4  C   UNL     1      -8.985  -6.661 -21.370  1.00  0.00     0.021 A 
ATOM      5  N   UNL     1     -10.616  -6.708 -19.631  1.00  0.00    -0.264 NA
ATOM      6  C   UNL     1     -10.313  -6.586 -20.950  1.00  0.00     0.111 A 
ENDROOT
BRANCH   1   7
ATOM      7  C   UNL     1      -7.250  -7.204 -18.047  1.00  0.00     0.073 C 
ATOM      8  O   UNL     1      -6.292  -6.393 -17.936  1.00  0.00    -0.545 OA
ATOM      9  O   UNL     1      -7.305  -8.304 -17.199  1.00  0.00    -0.545 OA
ENDBRANCH   1   7
TORSDOF 1
ENDMDL
MODEL 5
REMARK VINA RESULT:    -3.785     12.283     13.419
REMARK INTER + INTRA:          -4.030
REMARK INTER:                  -4.014
REMARK INTRA:                  -0.016
REMARK UNBOUND:                -0.023
REMARK SMILES O=C([O-])c1cccnc1
REMARK SMILES IDX 4 1 5 2 9 3 6 4 8 5 7 6 2 7 1 8 3 9
REMARK H PARENT
REMARK Flexibility Score: inf
ROOT
ATOM      1  C   UNL     1      -7.535  -7.102 -19.690  1.00  0.00     0.016 A 
ATOM      2  C   UNL     1      -6.945  -8.377 -19.708  1.00  0.00     0.013 A 
ATOM      3  C   UNL     1      -7.235  -6.242 -18.619  1.00  0.00     0.120 A 
ATOM      4  C   UNL     1      -6.084  -8.765 -18.680  1.00  0.00     0.021 A 
ATOM      5  N   UNL     1      -6.392  -6.646 -17.629  1.00  0.00    -0.264 NA
ATOM      6  C   UNL     1      -5.816  -7.877 -17.638  1.00  0.00     0.111 A 
ENDROOT
BRANCH   1   7
ATOM      7  C   UNL     1      -8.449  -6.670 -20.769  1.00  0.00     0.073 C 
ATOM      8  O   UNL     1      -9.677  -6.949 -20.717  1.00  0.00    -0.545 OA
ATOM      9  O   UNL     1      -7.966  -5.951 -21.856  1.00  0.00    -0.545 OA
ENDBRANCH   1   7
TORSDOF 1
ENDMDL
MODEL 6
REMARK VINA RESULT:    -3.774     12.432     13.370
REMARK INTER + INTRA:          -4.017
REMARK INTER:                  -4.001
REMARK INTRA:                  -0.016
REMARK UNBOUND:                -0.023
REMARK SMILES O=C([O-])c1cccnc1
REMARK SMILES IDX 4 1 5 2 9 3 6 4 8 5 7 6 2 7 1 8 3 9
REMARK H PARENT
REMARK Flexibility Score: inf
ROOT
ATOM      1  C   UNL     1      -8.323  -7.213 -18.223  1.00  0.00     0.016 A 
ATOM      2  C   UNL     1      -7.269  -6.290 -18.111  1.00  0.00     0.013 A 
ATOM      3  C   UNL     1      -8.068  -8.560 -17.913  1.00  0.00     0.120 A 
ATOM      4  C   UNL     1      -6.004  -6.718 -17.702  1.00  0.00     0.021 A 
ATOM      5  N   UNL     1      -6.825  -8.950 -17.517  1.00  0.00    -0.264 NA
ATOM      6  C   UNL     1      -5.799  -8.066 -17.406  1.00  0.00     0.111 A 
ENDROOT
BRANCH   1   7
ATOM      7  C   UNL     1      -9.670  -6.782 -18.654  1.00  0.00     0.073 C 
ATOM      8  O   UNL     1     -10.021  -6.888 -19.859  1.00  0.00    -0.545 OA
ATOM      9  O   UNL     1     -10.568  -6.252 -17.734  1.00  0.00    -0.545 OA
ENDBRANCH   1   7
TORSDOF 1
ENDMDL
MODEL 7
REMARK VINA RESULT:    -3.684     11.778     12.134
REMARK INTER + INTRA:          -3.922
REMARK INTER:                  -3.904
REMARK INTRA:                  -0.018
REMARK UNBOUND:                -0.023
REMARK SMILES O=C([O-])c1cccnc1
REMARK SMILES IDX 4 1 5 2 9 3 6 4 8 5 7 6 2 7 1 8 3 9
REMARK H PARENT
REMARK Flexibility Score: inf
ROOT
ATOM      1  C   UNL     1     -10.325  -6.820 -20.202  1.00  0.00     0.016 A 
ATOM      2  C   UNL     1      -9.339  -6.657 -21.190  1.00  0.00     0.013 A 
ATOM      3  C   UNL     1      -9.927  -6.819 -18.854  1.00  0.00     0.120 A 
ATOM      4  C   UNL     1      -8.001  -6.500 -20.825  1.00  0.00     0.021 A 
ATOM      5  N   UNL     1      -8.616  -6.664 -18.526  1.00  0.00    -0.264 NA
ATOM      6  C   UNL     1      -7.654  -6.506 -19.473  1.00  0.00     0.111 A 
ENDROOT
BRANCH   1   7
ATOM      7  C   UNL     1     -11.748  -6.988 -20.568  1.00  0.00     0.073 C 
ATOM      8  O   UNL     1     -12.632  -6.250 -20.056  1.00  0.00    -0.545 OA
ATOM      9  O   UNL     1     -12.131  -7.963 -21.481  1.00  0.00    -0.545 OA
ENDBRANCH   1   7
TORSDOF 1
ENDMDL
MODEL 8
REMARK VINA RESULT:    -3.673     13.611     14.686
REMARK INTER + INTRA:          -3.910
REMARK INTER:                  -3.890
REMARK INTRA:                  -0.020
REMARK UNBOUND:                -0.023
REMARK SMILES O=C([O-])c1cccnc1
REMARK SMILES IDX 4 1 5 2 9 3 6 4 8 5 7 6 2 7 1 8 3 9
REMARK H PARENT
REMARK Flexibility Score: inf
ROOT
ATOM      1  C   UNL     1      -5.624  -8.279 -18.232  1.00  0.00     0.016 A 
ATOM      2  C   UNL     1      -6.022  -7.054 -17.669  1.00  0.00     0.013 A 
ATOM      3  C   UNL     1      -6.284  -8.727 -19.390  1.00  0.00     0.120 A 
ATOM      4  C   UNL     1      -7.050  -6.314 -18.256  1.00  0.00     0.021 A 
ATOM      5  N   UNL     1      -7.283  -7.986 -19.941  1.00  0.00    -0.264 NA
ATOM      6  C   UNL     1      -7.676  -6.801 -19.404  1.00  0.00     0.111 A 
ENDROOT
BRANCH   1   7
ATOM      7  C   UNL     1      -4.537  -9.078 -17.627  1.00  0.00     0.073 C 
ATOM      8  O   UNL     1      -4.476  -9.234 -16.378  1.00  0.00    -0.545 OA
ATOM      9  O   UNL     1      -3.567  -9.668 -18.429  1.00  0.00    -0.545 OA
ENDBRANCH   1   7
TORSDOF 1
ENDMDL
MODEL 9
REMARK VINA RESULT:    -3.599     11.233     11.909
REMARK INTER + INTRA:          -3.833
REMARK INTER:                  -3.809
REMARK INTRA:                  -0.024
REMARK UNBOUND:                -0.023
REMARK SMILES O=C([O-])c1cccnc1
REMARK SMILES IDX 4 1 5 2 9 3 6 4 8 5 7 6 2 7 1 8 3 9
REMARK H PARENT
REMARK Flexibility Score: inf
ROOT
ATOM      1  C   UNL     1     -10.252  -6.741 -19.936  1.00  0.00     0.016 A 
ATOM      2  C   UNL     1     -11.446  -6.104 -20.315  1.00  0.00     0.013 A 
ATOM      3  C   UNL     1      -9.927  -6.795 -18.570  1.00  0.00     0.120 A 
ATOM      4  C   UNL     1     -12.279  -5.543 -19.344  1.00  0.00     0.021 A 
ATOM      5  N   UNL     1     -10.757  -6.239 -17.645  1.00  0.00    -0.264 NA
ATOM      6  C   UNL     1     -11.913  -5.621 -18.000  1.00  0.00     0.111 A 
ENDROOT
BRANCH   1   7
ATOM      7  C   UNL     1      -9.356  -7.341 -20.948  1.00  0.00     0.073 C 
ATOM      8  O   UNL     1      -9.760  -7.537 -22.125  1.00  0.00    -0.545 OA
ATOM      9  O   UNL     1      -8.055  -7.699 -20.613  1.00  0.00    -0.545 OA
ENDBRANCH   1   7
TORSDOF 1
ENDMDL
