MODEL 1
REMARK VINA RESULT:    39.954      0.000      0.000
REMARK INTER + INTRA:          61.745
REMARK INTER:                  59.808
REMARK INTRA:                   1.937
REMARK UNBOUND:                 1.937
REMARK SMILES COC(=O)C1=CO[C@H](O[C@@H]2O[C@@H](CO)[C@@H](O)[C@H](O)[C@H]2O)[C@H]2C(CO)=CC[C@H]12
REMARK SMILES IDX 9 1 8 2 5 3 6 4 27 5 7 6 21 7 26 8 22 9 25 10 3 11 4 12 2 13
REMARK SMILES IDX 1 14 23 15 24 16 10 18 19 19 11 20 17 21 12 22 15 23 20 24
REMARK SMILES IDX 18 26 13 28 14 29 16 31
REMARK H PARENT 24 17 20 25 18 27 14 30 16 32
REMARK Flexibility Score: inf
ROOT
ATOM      1  O   UNL     1      19.382  24.233   6.925  1.00  0.00    -0.310 OA
ENDROOT
BRANCH   1   2
ATOM      2  C   UNL     1      19.396  24.138   5.520  1.00  0.00     0.316 C 
ATOM      3  C   UNL     1      20.561  25.343   3.120  1.00  0.00     0.076 C 
ATOM      4  C   UNL     1      19.583  25.977   3.800  1.00  0.00     0.202 C 
ATOM      5  C   UNL     1      20.867  23.932   3.549  1.00  0.00     0.047 C 
ATOM      6  O   UNL     1      18.987  25.398   4.947  1.00  0.00    -0.471 OA
ATOM      7  C   UNL     1      20.832  23.857   5.069  1.00  0.00     0.094 C 
ATOM      8  C   UNL     1      22.206  23.278   3.214  1.00  0.00     0.037 C 
ATOM      9  C   UNL     1      21.483  22.534   5.317  1.00  0.00    -0.039 C 
ATOM     10  C   UNL     1      22.305  22.250   4.303  1.00  0.00    -0.024 C 
BRANCH   3  11
ATOM     11  C   UNL     1      21.129  25.919   1.883  1.00  0.00     0.337 C 
ATOM     12  O   UNL     1      22.357  26.215   1.828  1.00  0.00    -0.246 OA
BRANCH  11  13
ATOM     13  O   UNL     1      20.297  26.162   0.784  1.00  0.00    -0.466 OA
ATOM     14  C   UNL     1      19.018  25.561   0.638  1.00  0.00     0.282 C 
ENDBRANCH  11  13
ENDBRANCH   3  11
BRANCH   9  15
ATOM     15  C   UNL     1      21.359  21.689   6.551  1.00  0.00     0.187 C 
BRANCH  15  16
ATOM     16  O   UNL     1      22.626  21.476   7.115  1.00  0.00    -0.392 OA
ATOM     17  H   UNL     1      23.205  21.091   6.409  1.00  0.00     0.211 HD
ENDBRANCH  15  16
ENDBRANCH   9  15
ENDBRANCH   1   2
BRANCH   1  18
ATOM     18  C   UNL     1      18.128  24.673   7.432  1.00  0.00     0.286 C 
ATOM     19  C   UNL     1      18.241  24.857   8.954  1.00  0.00     0.202 C 
ATOM     20  O   UNL     1      17.719  25.889   6.822  1.00  0.00    -0.341 OA
ATOM     21  C   UNL     1      19.205  26.015   9.313  1.00  0.00     0.179 C 
ATOM     22  C   UNL     1      18.700  26.908   6.948  1.00  0.00     0.178 C 
ATOM     23  C   UNL     1      18.972  27.276   8.439  1.00  0.00     0.177 C 
BRANCH  19  24
ATOM     24  O   UNL     1      16.967  25.045   9.522  1.00  0.00    -0.385 OA
ATOM     25  H   UNL     1      16.856  26.013   9.701  1.00  0.00     0.211 HD
ENDBRANCH  19  24
BRANCH  21  26
ATOM     26  O   UNL     1      20.545  25.582   9.258  1.00  0.00    -0.387 OA
ATOM     27  H   UNL     1      20.803  25.231  10.148  1.00  0.00     0.211 HD
ENDBRANCH  21  26
BRANCH  22  28
ATOM     28  C   UNL     1      18.225  28.124   6.137  1.00  0.00     0.191 C 
BRANCH  28  29
ATOM     29  O   UNL     1      17.233  27.746   5.216  1.00  0.00    -0.394 OA
ATOM     30  H   UNL     1      17.563  26.920   4.771  1.00  0.00     0.210 HD
ENDBRANCH  28  29
ENDBRANCH  22  28
BRANCH  23  31
ATOM     31  O   UNL     1      17.901  28.014   8.977  1.00  0.00    -0.387 OA
ATOM     32  H   UNL     1      17.568  28.625   8.266  1.00  0.00     0.211 HD
ENDBRANCH  23  31
ENDBRANCH   1  18
TORSDOF 11
ENDMDL
MODEL 2
REMARK VINA RESULT:    40.038      2.086      4.295
REMARK INTER + INTRA:          61.870
REMARK INTER:                  62.434
REMARK INTRA:                  -0.564
REMARK UNBOUND:                 1.937
REMARK SMILES COC(=O)C1=CO[C@H](O[C@@H]2O[C@@H](CO)[C@@H](O)[C@H](O)[C@H]2O)[C@H]2C(CO)=CC[C@H]12
REMARK SMILES IDX 9 1 8 2 5 3 6 4 27 5 7 6 21 7 26 8 22 9 25 10 3 11 4 12 2 13
REMARK SMILES IDX 1 14 23 15 24 16 10 18 19 19 11 20 17 21 12 22 15 23 20 24
REMARK SMILES IDX 18 26 13 28 14 29 16 31
REMARK H PARENT 24 17 20 25 18 27 14 30 16 32
REMARK Flexibility Score: inf
ROOT
ATOM      1  O   UNL     1      18.634  24.380   7.142  1.00  0.00    -0.310 OA
ENDROOT
BRANCH   1   2
ATOM      2  C   UNL     1      19.857  24.325   6.445  1.00  0.00     0.316 C 
ATOM      3  C   UNL     1      21.223  22.946   4.254  1.00  0.00     0.076 C 
ATOM      4  C   UNL     1      21.028  22.328   5.438  1.00  0.00     0.202 C 
ATOM      5  C   UNL     1      20.879  24.411   4.200  1.00  0.00     0.047 C 
ATOM      6  O   UNL     1      20.394  22.988   6.518  1.00  0.00    -0.471 OA
ATOM      7  C   UNL     1      19.588  24.646   4.972  1.00  0.00     0.094 C 
ATOM      8  C   UNL     1      20.603  25.109   2.869  1.00  0.00     0.037 C 
ATOM      9  C   UNL     1      19.223  26.026   4.528  1.00  0.00    -0.039 C 
ATOM     10  C   UNL     1      19.739  26.251   3.317  1.00  0.00    -0.024 C 
BRANCH   3  11
ATOM     11  C   UNL     1      21.949  22.277   3.153  1.00  0.00     0.337 C 
ATOM     12  O   UNL     1      23.099  22.680   2.816  1.00  0.00    -0.246 OA
BRANCH  11  13
ATOM     13  O   UNL     1      21.347  21.216   2.469  1.00  0.00    -0.466 OA
ATOM     14  C   UNL     1      20.497  20.271   3.106  1.00  0.00     0.282 C 
ENDBRANCH  11  13
ENDBRANCH   3  11
BRANCH   9  15
ATOM     15  C   UNL     1      18.318  26.990   5.240  1.00  0.00     0.187 C 
BRANCH  15  16
ATOM     16  O   UNL     1      19.082  27.939   5.935  1.00  0.00    -0.392 OA
ATOM     17  H   UNL     1      19.893  27.479   6.272  1.00  0.00     0.211 HD
ENDBRANCH  15  16
ENDBRANCH   9  15
ENDBRANCH   1   2
BRANCH   1  18
ATOM     18  C   UNL     1      18.809  24.423   8.552  1.00  0.00     0.286 C 
ATOM     19  C   UNL     1      18.190  25.721   9.094  1.00  0.00     0.202 C 
ATOM     20  O   UNL     1      18.214  23.298   9.184  1.00  0.00    -0.341 OA
ATOM     21  C   UNL     1      16.651  25.730   8.918  1.00  0.00     0.179 C 
ATOM     22  C   UNL     1      16.841  23.161   8.850  1.00  0.00     0.178 C 
ATOM     23  C   UNL     1      15.998  24.382   9.327  1.00  0.00     0.177 C 
BRANCH  19  24
ATOM     24  O   UNL     1      18.562  25.920  10.437  1.00  0.00    -0.385 OA
ATOM     25  H   UNL     1      19.000  25.091  10.756  1.00  0.00     0.211 HD
ENDBRANCH  19  24
BRANCH  21  26
ATOM     26  O   UNL     1      16.302  26.102   7.604  1.00  0.00    -0.387 OA
ATOM     27  H   UNL     1      17.117  26.082   7.041  1.00  0.00     0.211 HD
ENDBRANCH  21  26
BRANCH  22  28
ATOM     28  C   UNL     1      16.336  21.844   9.463  1.00  0.00     0.191 C 
BRANCH  28  29
ATOM     29  O   UNL     1      15.030  21.998   9.956  1.00  0.00    -0.394 OA
ATOM     30  H   UNL     1      15.117  22.200  10.925  1.00  0.00     0.210 HD
ENDBRANCH  28  29
ENDBRANCH  22  28
BRANCH  23  31
ATOM     31  O   UNL     1      15.829  24.361  10.724  1.00  0.00    -0.387 OA
ATOM     32  H   UNL     1      15.004  23.842  10.920  1.00  0.00     0.211 HD
ENDBRANCH  23  31
ENDBRANCH   1  18
TORSDOF 11
ENDMDL
MODEL 3
REMARK VINA RESULT:    40.431      2.237      7.020
REMARK INTER + INTRA:          62.458
REMARK INTER:                  63.349
REMARK INTRA:                  -0.891
REMARK UNBOUND:                 1.937
REMARK SMILES COC(=O)C1=CO[C@H](O[C@@H]2O[C@@H](CO)[C@@H](O)[C@H](O)[C@H]2O)[C@H]2C(CO)=CC[C@H]12
REMARK SMILES IDX 9 1 8 2 5 3 6 4 27 5 7 6 21 7 26 8 22 9 25 10 3 11 4 12 2 13
REMARK SMILES IDX 1 14 23 15 24 16 10 18 19 19 11 20 17 21 12 22 15 23 20 24
REMARK SMILES IDX 18 26 13 28 14 29 16 31
REMARK H PARENT 24 17 20 25 18 27 14 30 16 32
REMARK Flexibility Score: inf
ROOT
ATOM      1  O   UNL     1      21.170  23.677   4.269  1.00  0.00    -0.310 OA
ENDROOT
BRANCH   1   2
ATOM      2  C   UNL     1      19.961  23.934   4.945  1.00  0.00     0.316 C 
ATOM      3  C   UNL     1      18.855  25.264   7.306  1.00  0.00     0.076 C 
ATOM      4  C   UNL     1      19.528  24.100   7.427  1.00  0.00     0.202 C 
ATOM      5  C   UNL     1      18.551  25.718   5.903  1.00  0.00     0.047 C 
ATOM      6  O   UNL     1      20.045  23.427   6.294  1.00  0.00    -0.471 OA
ATOM      7  C   UNL     1      19.762  25.450   5.021  1.00  0.00     0.094 C 
ATOM      8  C   UNL     1      18.234  27.182   5.598  1.00  0.00     0.037 C 
ATOM      9  C   UNL     1      19.430  26.256   3.806  1.00  0.00    -0.039 C 
ATOM     10  C   UNL     1      18.628  27.266   4.152  1.00  0.00    -0.024 C 
BRANCH   3  11
ATOM     11  C   UNL     1      18.255  25.926   8.485  1.00  0.00     0.337 C 
ATOM     12  O   UNL     1      18.314  27.183   8.603  1.00  0.00    -0.246 OA
BRANCH  11  13
ATOM     13  O   UNL     1      17.648  25.153   9.480  1.00  0.00    -0.466 OA
ATOM     14  C   UNL     1      16.579  24.256   9.215  1.00  0.00     0.282 C 
ENDBRANCH  11  13
ENDBRANCH   3  11
BRANCH   9  15
ATOM     15  C   UNL     1      19.988  26.070   2.425  1.00  0.00     0.187 C 
BRANCH  15  16
ATOM     16  O   UNL     1      21.390  26.043   2.474  1.00  0.00    -0.392 OA
ATOM     17  H   UNL     1      21.697  25.359   1.826  1.00  0.00     0.211 HD
ENDBRANCH  15  16
ENDBRANCH   9  15
ENDBRANCH   1   2
BRANCH   1  18
ATOM     18  C   UNL     1      21.699  22.391   4.564  1.00  0.00     0.286 C 
ATOM     19  C   UNL     1      20.973  21.343   3.705  1.00  0.00     0.202 C 
ATOM     20  O   UNL     1      23.099  22.337   4.322  1.00  0.00    -0.341 OA
ATOM     21  C   UNL     1      21.289  21.530   2.199  1.00  0.00     0.179 C 
ATOM     22  C   UNL     1      23.427  22.727   2.997  1.00  0.00     0.178 C 
ATOM     23  C   UNL     1      22.798  21.776   1.934  1.00  0.00     0.177 C 
BRANCH  19  24
ATOM     24  O   UNL     1      21.288  20.043   4.145  1.00  0.00    -0.385 OA
ATOM     25  H   UNL     1      22.249  19.886   3.962  1.00  0.00     0.211 HD
ENDBRANCH  19  24
BRANCH  21  26
ATOM     26  O   UNL     1      20.488  22.550   1.647  1.00  0.00    -0.387 OA
ATOM     27  H   UNL     1      21.052  23.350   1.495  1.00  0.00     0.211 HD
ENDBRANCH  21  26
BRANCH  22  28
ATOM     28  C   UNL     1      24.960  22.773   2.886  1.00  0.00     0.191 C 
BRANCH  28  29
ATOM     29  O   UNL     1      25.350  23.177   1.598  1.00  0.00    -0.394 OA
ATOM     30  H   UNL     1      25.433  22.348   1.056  1.00  0.00     0.210 HD
ENDBRANCH  28  29
ENDBRANCH  22  28
BRANCH  23  31
ATOM     31  O   UNL     1      23.466  20.538   1.910  1.00  0.00    -0.387 OA
ATOM     32  H   UNL     1      24.131  20.539   2.649  1.00  0.00     0.211 HD
ENDBRANCH  23  31
ENDBRANCH   1  18
TORSDOF 11
ENDMDL
MODEL 4
REMARK VINA RESULT:    41.541      2.547      5.324
REMARK INTER + INTRA:          64.120
REMARK INTER:                  64.259
REMARK INTRA:                  -0.139
REMARK UNBOUND:                 1.937
REMARK SMILES COC(=O)C1=CO[C@H](O[C@@H]2O[C@@H](CO)[C@@H](O)[C@H](O)[C@H]2O)[C@H]2C(CO)=CC[C@H]12
REMARK SMILES IDX 9 1 8 2 5 3 6 4 27 5 7 6 21 7 26 8 22 9 25 10 3 11 4 12 2 13
REMARK SMILES IDX 1 14 23 15 24 16 10 18 19 19 11 20 17 21 12 22 15 23 20 24
REMARK SMILES IDX 18 26 13 28 14 29 16 31
REMARK H PARENT 24 17 20 25 18 27 14 30 16 32
REMARK Flexibility Score: inf
ROOT
ATOM      1  O   UNL     1      16.986  24.635   8.446  1.00  0.00    -0.310 OA
ENDROOT
BRANCH   1   2
ATOM      2  C   UNL     1      18.313  24.675   7.975  1.00  0.00     0.316 C 
ATOM      3  C   UNL     1      19.978  24.015   5.659  1.00  0.00     0.076 C 
ATOM      4  C   UNL     1      19.519  23.042   6.474  1.00  0.00     0.202 C 
ATOM      5  C   UNL     1      19.747  25.432   6.115  1.00  0.00     0.047 C 
ATOM      6  O   UNL     1      18.737  23.343   7.615  1.00  0.00    -0.471 OA
ATOM      7  C   UNL     1      18.352  25.541   6.713  1.00  0.00     0.094 C 
ATOM      8  C   UNL     1      19.777  26.594   5.124  1.00  0.00     0.037 C 
ATOM      9  C   UNL     1      18.170  27.023   6.777  1.00  0.00    -0.039 C 
ATOM     10  C   UNL     1      18.921  27.601   5.836  1.00  0.00    -0.024 C 
BRANCH   3  11
ATOM     11  C   UNL     1      20.854  23.701   4.511  1.00  0.00     0.337 C 
ATOM     12  O   UNL     1      20.934  24.503   3.537  1.00  0.00    -0.246 OA
BRANCH  11  13
ATOM     13  O   UNL     1      21.571  22.499   4.493  1.00  0.00    -0.466 OA
ATOM     14  C   UNL     1      21.229  21.409   3.649  1.00  0.00     0.282 C 
ENDBRANCH  11  13
ENDBRANCH   3  11
BRANCH   9  15
ATOM     15  C   UNL     1      17.212  27.774   7.656  1.00  0.00     0.187 C 
BRANCH  15  16
ATOM     16  O   UNL     1      17.841  28.125   8.860  1.00  0.00    -0.392 OA
ATOM     17  H   UNL     1      17.905  27.304   9.412  1.00  0.00     0.211 HD
ENDBRANCH  15  16
ENDBRANCH   9  15
ENDBRANCH   1   2
BRANCH   1  18
ATOM     18  C   UNL     1      16.907  24.339   9.834  1.00  0.00     0.286 C 
ATOM     19  C   UNL     1      15.491  24.668  10.336  1.00  0.00     0.202 C 
ATOM     20  O   UNL     1      17.212  22.975  10.093  1.00  0.00    -0.341 OA
ATOM     21  C   UNL     1      14.435  23.729   9.702  1.00  0.00     0.179 C 
ATOM     22  C   UNL     1      16.393  22.092   9.340  1.00  0.00     0.178 C 
ATOM     23  C   UNL     1      14.884  22.243   9.702  1.00  0.00     0.177 C 
BRANCH  19  24
ATOM     24  O   UNL     1      15.446  24.629  11.742  1.00  0.00    -0.385 OA
ATOM     25  H   UNL     1      14.496  24.690  12.016  1.00  0.00     0.211 HD
ENDBRANCH  19  24
BRANCH  21  26
ATOM     26  O   UNL     1      14.088  24.170   8.409  1.00  0.00    -0.387 OA
ATOM     27  H   UNL     1      13.146  24.477   8.419  1.00  0.00     0.211 HD
ENDBRANCH  21  26
BRANCH  22  28
ATOM     28  C   UNL     1      16.898  20.661   9.582  1.00  0.00     0.191 C 
BRANCH  28  29
ATOM     29  O   UNL     1      18.290  20.654   9.775  1.00  0.00    -0.394 OA
ATOM     30  H   UNL     1      18.698  20.614   8.869  1.00  0.00     0.210 HD
ENDBRANCH  28  29
ENDBRANCH  22  28
BRANCH  23  31
ATOM     31  O   UNL     1      14.611  21.683  10.964  1.00  0.00    -0.387 OA
ATOM     32  H   UNL     1      13.886  21.013  10.846  1.00  0.00     0.211 HD
ENDBRANCH  23  31
ENDBRANCH   1  18
TORSDOF 11
ENDMDL
MODEL 5
REMARK VINA RESULT:    42.654      2.501      4.995
REMARK INTER + INTRA:          65.787
REMARK INTER:                  65.159
REMARK INTRA:                   0.628
REMARK UNBOUND:                 1.937
REMARK SMILES COC(=O)C1=CO[C@H](O[C@@H]2O[C@@H](CO)[C@@H](O)[C@H](O)[C@H]2O)[C@H]2C(CO)=CC[C@H]12
REMARK SMILES IDX 9 1 8 2 5 3 6 4 27 5 7 6 21 7 26 8 22 9 25 10 3 11 4 12 2 13
REMARK SMILES IDX 1 14 23 15 24 16 10 18 19 19 11 20 17 21 12 22 15 23 20 24
REMARK SMILES IDX 18 26 13 28 14 29 16 31
REMARK H PARENT 24 17 20 25 18 27 14 30 16 32
REMARK Flexibility Score: inf
ROOT
ATOM      1  O   UNL     1      17.423  24.752   8.897  1.00  0.00    -0.310 OA
ENDROOT
BRANCH   1   2
ATOM      2  C   UNL     1      18.627  24.914   8.183  1.00  0.00     0.316 C 
ATOM      3  C   UNL     1      19.804  24.640   5.516  1.00  0.00     0.076 C 
ATOM      4  C   UNL     1      19.538  23.548   6.264  1.00  0.00     0.202 C 
ATOM      5  C   UNL     1      19.643  25.973   6.199  1.00  0.00     0.047 C 
ATOM      6  O   UNL     1      18.995  23.662   7.567  1.00  0.00    -0.471 OA
ATOM      7  C   UNL     1      18.394  25.938   7.069  1.00  0.00     0.094 C 
ATOM      8  C   UNL     1      19.450  27.255   5.391  1.00  0.00     0.037 C 
ATOM      9  C   UNL     1      18.201  27.389   7.370  1.00  0.00    -0.039 C 
ATOM     10  C   UNL     1      18.736  28.119   6.388  1.00  0.00    -0.024 C 
BRANCH   3  11
ATOM     11  C   UNL     1      20.436  24.519   4.186  1.00  0.00     0.337 C 
ATOM     12  O   UNL     1      20.390  25.486   3.372  1.00  0.00    -0.246 OA
BRANCH  11  13
ATOM     13  O   UNL     1      21.062  23.322   3.820  1.00  0.00    -0.466 OA
ATOM     14  C   UNL     1      21.554  22.388   4.771  1.00  0.00     0.282 C 
ENDBRANCH  11  13
ENDBRANCH   3  11
BRANCH   9  15
ATOM     15  C   UNL     1      17.425  27.973   8.516  1.00  0.00     0.187 C 
BRANCH  15  16
ATOM     16  O   UNL     1      18.261  28.123   9.633  1.00  0.00    -0.392 OA
ATOM     17  H   UNL     1      19.017  27.492   9.525  1.00  0.00     0.211 HD
ENDBRANCH  15  16
ENDBRANCH   9  15
ENDBRANCH   1   2
BRANCH   1  18
ATOM     18  C   UNL     1      16.734  23.559   8.544  1.00  0.00     0.286 C 
ATOM     19  C   UNL     1      16.969  22.505   9.638  1.00  0.00     0.202 C 
ATOM     20  O   UNL     1      15.342  23.792   8.381  1.00  0.00    -0.341 OA
ATOM     21  C   UNL     1      16.310  22.924  10.977  1.00  0.00     0.179 C 
ATOM     22  C   UNL     1      14.762  24.390   9.530  1.00  0.00     0.178 C 
ATOM     23  C   UNL     1      14.871  23.472  10.786  1.00  0.00     0.177 C 
BRANCH  19  24
ATOM     24  O   UNL     1      16.518  21.242   9.209  1.00  0.00    -0.385 OA
ATOM     25  H   UNL     1      17.283  20.615   9.257  1.00  0.00     0.211 HD
ENDBRANCH  19  24
BRANCH  21  26
ATOM     26  O   UNL     1      17.130  23.837  11.670  1.00  0.00    -0.387 OA
ATOM     27  H   UNL     1      18.048  23.467  11.720  1.00  0.00     0.211 HD
ENDBRANCH  21  26
BRANCH  22  28
ATOM     28  C   UNL     1      13.300  24.729   9.197  1.00  0.00     0.191 C 
BRANCH  28  29
ATOM     29  O   UNL     1      12.784  25.654  10.120  1.00  0.00    -0.394 OA
ATOM     30  H   UNL     1      13.525  26.284  10.330  1.00  0.00     0.210 HD
ENDBRANCH  28  29
ENDBRANCH  22  28
BRANCH  23  31
ATOM     31  O   UNL     1      13.977  22.389  10.696  1.00  0.00    -0.387 OA
ATOM     32  H   UNL     1      14.156  21.921   9.837  1.00  0.00     0.211 HD
ENDBRANCH  23  31
ENDBRANCH   1  18
TORSDOF 11
ENDMDL
MODEL 6
REMARK VINA RESULT:    42.717      2.085      3.790
REMARK INTER + INTRA:          65.881
REMARK INTER:                  67.030
REMARK INTRA:                  -1.149
REMARK UNBOUND:                 1.937
REMARK SMILES COC(=O)C1=CO[C@H](O[C@@H]2O[C@@H](CO)[C@@H](O)[C@H](O)[C@H]2O)[C@H]2C(CO)=CC[C@H]12
REMARK SMILES IDX 9 1 8 2 5 3 6 4 27 5 7 6 21 7 26 8 22 9 25 10 3 11 4 12 2 13
REMARK SMILES IDX 1 14 23 15 24 16 10 18 19 19 11 20 17 21 12 22 15 23 20 24
REMARK SMILES IDX 18 26 13 28 14 29 16 31
REMARK H PARENT 24 17 20 25 18 27 14 30 16 32
REMARK Flexibility Score: inf
ROOT
ATOM      1  O   UNL     1      20.692  24.782   6.165  1.00  0.00    -0.310 OA
ENDROOT
BRANCH   1   2
ATOM      2  C   UNL     1      21.343  23.694   5.551  1.00  0.00     0.316 C 
ATOM      3  C   UNL     1      20.853  21.069   4.350  1.00  0.00     0.076 C 
ATOM      4  C   UNL     1      20.804  21.231   5.689  1.00  0.00     0.202 C 
ATOM      5  C   UNL     1      21.353  22.245   3.553  1.00  0.00     0.047 C 
ATOM      6  O   UNL     1      21.066  22.486   6.290  1.00  0.00    -0.471 OA
ATOM      7  C   UNL     1      20.774  23.525   4.139  1.00  0.00     0.094 C 
ATOM      8  C   UNL     1      21.030  22.385   2.066  1.00  0.00     0.037 C 
ATOM      9  C   UNL     1      21.070  24.510   3.055  1.00  0.00    -0.039 C 
ATOM     10  C   UNL     1      21.143  23.870   1.885  1.00  0.00    -0.024 C 
BRANCH   3  11
ATOM     11  C   UNL     1      20.650  19.742   3.733  1.00  0.00     0.337 C 
ATOM     12  O   UNL     1      21.615  18.930   3.643  1.00  0.00    -0.246 OA
BRANCH  11  13
ATOM     13  O   UNL     1      19.392  19.398   3.224  1.00  0.00    -0.466 OA
ATOM     14  C   UNL     1      19.062  19.507   1.847  1.00  0.00     0.282 C 
ENDBRANCH  11  13
ENDBRANCH   3  11
BRANCH   9  15
ATOM     15  C   UNL     1      21.153  26.003   3.195  1.00  0.00     0.187 C 
BRANCH  15  16
ATOM     16  O   UNL     1      21.551  26.577   1.979  1.00  0.00    -0.392 OA
ATOM     17  H   UNL     1      20.761  26.581   1.380  1.00  0.00     0.211 HD
ENDBRANCH  15  16
ENDBRANCH   9  15
ENDBRANCH   1   2
BRANCH   1  18
ATOM     18  C   UNL     1      19.276  24.658   6.140  1.00  0.00     0.286 C 
ATOM     19  C   UNL     1      18.758  24.554   7.584  1.00  0.00     0.202 C 
ATOM     20  O   UNL     1      18.669  25.761   5.482  1.00  0.00    -0.341 OA
ATOM     21  C   UNL     1      18.994  25.871   8.365  1.00  0.00     0.179 C 
ATOM     22  C   UNL     1      19.058  27.003   6.051  1.00  0.00     0.178 C 
ATOM     23  C   UNL     1      18.613  27.129   7.540  1.00  0.00     0.177 C 
BRANCH  19  24
ATOM     24  O   UNL     1      17.401  24.180   7.594  1.00  0.00    -0.385 OA
ATOM     25  H   UNL     1      17.317  23.360   8.144  1.00  0.00     0.211 HD
ENDBRANCH  19  24
BRANCH  21  26
ATOM     26  O   UNL     1      20.321  25.938   8.837  1.00  0.00    -0.387 OA
ATOM     27  H   UNL     1      20.304  26.043   9.823  1.00  0.00     0.211 HD
ENDBRANCH  21  26
BRANCH  22  28
ATOM     28  C   UNL     1      18.467  28.125   5.182  1.00  0.00     0.191 C 
BRANCH  28  29
ATOM     29  O   UNL     1      17.200  27.758   4.697  1.00  0.00    -0.394 OA
ATOM     30  H   UNL     1      16.839  27.086   5.335  1.00  0.00     0.210 HD
ENDBRANCH  28  29
ENDBRANCH  22  28
BRANCH  23  31
ATOM     31  O   UNL     1      17.225  27.334   7.634  1.00  0.00    -0.387 OA
ATOM     32  H   UNL     1      17.062  28.314   7.612  1.00  0.00     0.211 HD
ENDBRANCH  23  31
ENDBRANCH   1  18
TORSDOF 11
ENDMDL
