MODEL 1
REMARK VINA RESULT:    -3.245      0.000      0.000
REMARK INTER + INTRA:          -4.111
REMARK INTER:                  -3.909
REMARK INTRA:                  -0.201
REMARK UNBOUND:                -0.201
REMARK SMILES OCC(O)CO
REMARK SMILES IDX 3 1 5 2 6 3 2 5 1 6 4 8
REMARK H PARENT 6 4 1 7 4 9
REMARK Flexibility Score: inf
ROOT
ATOM      1  C   UNL     1      -1.345   1.830  -8.094  1.00  0.00     0.165 C 
ENDROOT
BRANCH   1   2
ATOM      2  C   UNL     1      -0.392   3.027  -7.968  1.00  0.00     0.190 C 
BRANCH   2   3
ATOM      3  O   UNL     1      -0.840   4.094  -8.760  1.00  0.00    -0.394 OA
ATOM      4  H   UNL     1      -0.958   4.871  -8.154  1.00  0.00     0.210 HD
ENDBRANCH   2   3
ENDBRANCH   1   2
BRANCH   1   5
ATOM      5  C   UNL     1      -2.333   1.781  -6.916  1.00  0.00     0.190 C 
BRANCH   5   6
ATOM      6  O   UNL     1      -2.839   3.059  -6.632  1.00  0.00    -0.394 OA
ATOM      7  H   UNL     1      -2.857   3.555  -7.492  1.00  0.00     0.210 HD
ENDBRANCH   5   6
ENDBRANCH   1   5
BRANCH   1   8
ATOM      8  O   UNL     1      -0.594   0.644  -8.124  1.00  0.00    -0.388 OA
ATOM      9  H   UNL     1      -0.385   0.461  -9.077  1.00  0.00     0.211 HD
ENDBRANCH   1   8
TORSDOF 5
ENDMDL
MODEL 2
REMARK VINA RESULT:    -3.184      0.927      2.304
REMARK INTER + INTRA:          -4.037
REMARK INTER:                  -3.865
REMARK INTRA:                  -0.172
REMARK UNBOUND:                -0.201
REMARK SMILES OCC(O)CO
REMARK SMILES IDX 3 1 5 2 6 3 2 5 1 6 4 8
REMARK H PARENT 6 4 1 7 4 9
REMARK Flexibility Score: inf
ROOT
ATOM      1  C   UNL     1      -1.465   2.548  -7.396  1.00  0.00     0.165 C 
ENDROOT
BRANCH   1   2
ATOM      2  C   UNL     1      -1.032   3.464  -8.550  1.00  0.00     0.190 C 
BRANCH   2   3
ATOM      3  O   UNL     1       0.366   3.496  -8.649  1.00  0.00    -0.394 OA
ATOM      4  H   UNL     1       0.653   4.403  -8.367  1.00  0.00     0.210 HD
ENDBRANCH   2   3
ENDBRANCH   1   2
BRANCH   1   5
ATOM      5  C   UNL     1      -1.740   1.119  -7.897  1.00  0.00     0.190 C 
BRANCH   5   6
ATOM      6  O   UNL     1      -0.546   0.472  -8.251  1.00  0.00    -0.394 OA
ATOM      7  H   UNL     1       0.071   1.177  -8.581  1.00  0.00     0.210 HD
ENDBRANCH   5   6
ENDBRANCH   1   5
BRANCH   1   8
ATOM      8  O   UNL     1      -2.628   3.068  -6.806  1.00  0.00    -0.388 OA
ATOM      9  H   UNL     1      -3.037   3.681  -7.471  1.00  0.00     0.211 HD
ENDBRANCH   1   8
TORSDOF 5
ENDMDL
MODEL 3
REMARK VINA RESULT:    -3.144      1.302      2.843
REMARK INTER + INTRA:          -3.989
REMARK INTER:                  -3.986
REMARK INTRA:                  -0.003
REMARK UNBOUND:                -0.201
REMARK SMILES OCC(O)CO
REMARK SMILES IDX 3 1 5 2 6 3 2 5 1 6 4 8
REMARK H PARENT 6 4 1 7 4 9
REMARK Flexibility Score: inf
ROOT
ATOM      1  C   UNL     1      -1.486   2.826  -7.439  1.00  0.00     0.165 C 
ENDROOT
BRANCH   1   2
ATOM      2  C   UNL     1      -2.931   3.344  -7.401  1.00  0.00     0.190 C 
BRANCH   2   3
ATOM      3  O   UNL     1      -3.547   2.983  -6.194  1.00  0.00    -0.394 OA
ATOM      4  H   UNL     1      -4.449   3.396  -6.199  1.00  0.00     0.210 HD
ENDBRANCH   2   3
ENDBRANCH   1   2
BRANCH   1   5
ATOM      5  C   UNL     1      -0.830   3.112  -8.801  1.00  0.00     0.190 C 
BRANCH   5   6
ATOM      6  O   UNL     1       0.441   3.684  -8.637  1.00  0.00    -0.394 OA
ATOM      7  H   UNL     1       0.319   4.486  -8.064  1.00  0.00     0.210 HD
ENDBRANCH   5   6
ENDBRANCH   1   5
BRANCH   1   8
ATOM      8  O   UNL     1      -1.486   1.442  -7.201  1.00  0.00    -0.388 OA
ATOM      9  H   UNL     1      -2.158   1.274  -6.490  1.00  0.00     0.211 HD
ENDBRANCH   1   8
TORSDOF 5
ENDMDL
MODEL 4
REMARK VINA RESULT:    -3.119      7.780      8.746
REMARK INTER + INTRA:          -3.958
REMARK INTER:                  -3.735
REMARK INTRA:                  -0.224
REMARK UNBOUND:                -0.201
REMARK SMILES OCC(O)CO
REMARK SMILES IDX 3 1 5 2 6 3 2 5 1 6 4 8
REMARK H PARENT 6 4 1 7 4 9
REMARK Flexibility Score: inf
ROOT
ATOM      1  C   UNL     1      -7.202   1.150  -2.701  1.00  0.00     0.165 C 
ENDROOT
BRANCH   1   2
ATOM      2  C   UNL     1      -8.516   1.281  -1.918  1.00  0.00     0.190 C 
BRANCH   2   3
ATOM      3  O   UNL     1      -8.936   0.026  -1.455  1.00  0.00    -0.394 OA
ATOM      4  H   UNL     1      -8.348  -0.209  -0.691  1.00  0.00     0.210 HD
ENDBRANCH   2   3
ENDBRANCH   1   2
BRANCH   1   5
ATOM      5  C   UNL     1      -7.382   0.254  -3.939  1.00  0.00     0.190 C 
BRANCH   5   6
ATOM      6  O   UNL     1      -7.300  -1.103  -3.593  1.00  0.00    -0.394 OA
ATOM      7  H   UNL     1      -6.824  -1.558  -4.336  1.00  0.00     0.210 HD
ENDBRANCH   5   6
ENDBRANCH   1   5
BRANCH   1   8
ATOM      8  O   UNL     1      -6.219   0.598  -1.863  1.00  0.00    -0.388 OA
ATOM      9  H   UNL     1      -5.420   1.182  -1.936  1.00  0.00     0.211 HD
ENDBRANCH   1   8
TORSDOF 5
ENDMDL
MODEL 5
REMARK VINA RESULT:    -3.102      8.133      8.843
REMARK INTER + INTRA:          -3.938
REMARK INTER:                  -3.748
REMARK INTRA:                  -0.189
REMARK UNBOUND:                -0.201
REMARK SMILES OCC(O)CO
REMARK SMILES IDX 3 1 5 2 6 3 2 5 1 6 4 8
REMARK H PARENT 6 4 1 7 4 9
REMARK Flexibility Score: inf
ROOT
ATOM      1  C   UNL     1      -8.469   0.880  -2.467  1.00  0.00     0.165 C 
ENDROOT
BRANCH   1   2
ATOM      2  C   UNL     1      -8.290   0.057  -3.752  1.00  0.00     0.190 C 
BRANCH   2   3
ATOM      3  O   UNL     1      -7.427  -1.024  -3.522  1.00  0.00    -0.394 OA
ATOM      4  H   UNL     1      -6.532  -0.641  -3.333  1.00  0.00     0.210 HD
ENDBRANCH   2   3
ENDBRANCH   1   2
BRANCH   1   5
ATOM      5  C   UNL     1      -7.164   1.599  -2.083  1.00  0.00     0.190 C 
BRANCH   5   6
ATOM      6  O   UNL     1      -6.137   0.676  -1.833  1.00  0.00    -0.394 OA
ATOM      7  H   UNL     1      -5.301   1.078  -2.186  1.00  0.00     0.210 HD
ENDBRANCH   5   6
ENDBRANCH   1   5
BRANCH   1   8
ATOM      8  O   UNL     1      -8.857   0.025  -1.423  1.00  0.00    -0.388 OA
ATOM      9  H   UNL     1      -8.024  -0.370  -1.053  1.00  0.00     0.211 HD
ENDBRANCH   1   8
TORSDOF 5
ENDMDL
MODEL 6
REMARK VINA RESULT:    -3.070      1.229      2.785
REMARK INTER + INTRA:          -3.899
REMARK INTER:                  -3.675
REMARK INTRA:                  -0.224
REMARK UNBOUND:                -0.201
REMARK SMILES OCC(O)CO
REMARK SMILES IDX 3 1 5 2 6 3 2 5 1 6 4 8
REMARK H PARENT 6 4 1 7 4 9
REMARK Flexibility Score: inf
ROOT
ATOM      1  C   UNL     1      -1.939   1.806  -7.685  1.00  0.00     0.165 C 
ENDROOT
BRANCH   1   2
ATOM      2  C   UNL     1      -1.501   0.716  -8.675  1.00  0.00     0.190 C 
BRANCH   2   3
ATOM      3  O   UNL     1      -0.399   0.012  -8.169  1.00  0.00    -0.394 OA
ATOM      4  H   UNL     1      -0.241  -0.752  -8.782  1.00  0.00     0.210 HD
ENDBRANCH   2   3
ENDBRANCH   1   2
BRANCH   1   5
ATOM      5  C   UNL     1      -0.892   2.931  -7.602  1.00  0.00     0.190 C 
BRANCH   5   6
ATOM      6  O   UNL     1      -0.005   2.873  -8.687  1.00  0.00    -0.394 OA
ATOM      7  H   UNL     1       0.530   3.708  -8.662  1.00  0.00     0.210 HD
ENDBRANCH   5   6
ENDBRANCH   1   5
BRANCH   1   8
ATOM      8  O   UNL     1      -2.111   1.233  -6.415  1.00  0.00    -0.388 OA
ATOM      9  H   UNL     1      -2.958   0.715  -6.447  1.00  0.00     0.211 HD
ENDBRANCH   1   8
TORSDOF 5
ENDMDL
MODEL 7
REMARK VINA RESULT:    -3.067      1.409      2.917
REMARK INTER + INTRA:          -3.895
REMARK INTER:                  -3.673
REMARK INTRA:                  -0.222
REMARK UNBOUND:                -0.201
REMARK SMILES OCC(O)CO
REMARK SMILES IDX 3 1 5 2 6 3 2 5 1 6 4 8
REMARK H PARENT 6 4 1 7 4 9
REMARK Flexibility Score: inf
ROOT
ATOM      1  C   UNL     1      -1.368   1.954  -8.320  1.00  0.00     0.165 C 
ENDROOT
BRANCH   1   2
ATOM      2  C   UNL     1      -2.251   2.194  -7.087  1.00  0.00     0.190 C 
BRANCH   2   3
ATOM      3  O   UNL     1      -2.310   1.037  -6.296  1.00  0.00    -0.394 OA
ATOM      4  H   UNL     1      -1.375   0.729  -6.169  1.00  0.00     0.210 HD
ENDBRANCH   2   3
ENDBRANCH   1   2
BRANCH   1   5
ATOM      5  C   UNL     1      -1.359   0.467  -8.715  1.00  0.00     0.190 C 
BRANCH   5   6
ATOM      6  O   UNL     1      -0.297  -0.210  -8.098  1.00  0.00    -0.394 OA
ATOM      7  H   UNL     1      -0.133   0.247  -7.232  1.00  0.00     0.210 HD
ENDBRANCH   5   6
ENDBRANCH   1   5
BRANCH   1   8
ATOM      8  O   UNL     1      -0.057   2.370  -8.035  1.00  0.00    -0.388 OA
ATOM      9  H   UNL     1       0.130   3.150  -8.620  1.00  0.00     0.211 HD
ENDBRANCH   1   8
TORSDOF 5
ENDMDL
MODEL 8
REMARK VINA RESULT:    -3.066      1.116      2.392
REMARK INTER + INTRA:          -3.895
REMARK INTER:                  -3.674
REMARK INTRA:                  -0.221
REMARK UNBOUND:                -0.201
REMARK SMILES OCC(O)CO
REMARK SMILES IDX 3 1 5 2 6 3 2 5 1 6 4 8
REMARK H PARENT 6 4 1 7 4 9
REMARK Flexibility Score: inf
ROOT
ATOM      1  C   UNL     1      -1.475   3.103  -7.706  1.00  0.00     0.165 C 
ENDROOT
BRANCH   1   2
ATOM      2  C   UNL     1      -1.292   1.644  -8.150  1.00  0.00     0.190 C 
BRANCH   2   3
ATOM      3  O   UNL     1      -1.643   0.770  -7.112  1.00  0.00    -0.394 OA
ATOM      4  H   UNL     1      -1.225  -0.106  -7.320  1.00  0.00     0.210 HD
ENDBRANCH   2   3
ENDBRANCH   1   2
BRANCH   1   5
ATOM      5  C   UNL     1      -2.964   3.444  -7.527  1.00  0.00     0.190 C 
BRANCH   5   6
ATOM      6  O   UNL     1      -3.430   3.017  -6.274  1.00  0.00    -0.394 OA
ATOM      7  H   UNL     1      -3.445   3.818  -5.688  1.00  0.00     0.210 HD
ENDBRANCH   5   6
ENDBRANCH   1   5
BRANCH   1   8
ATOM      8  O   UNL     1      -0.913   3.952  -8.672  1.00  0.00    -0.388 OA
ATOM      9  H   UNL     1      -0.150   3.462  -9.076  1.00  0.00     0.211 HD
ENDBRANCH   1   8
TORSDOF 5
ENDMDL
MODEL 9
REMARK VINA RESULT:    -3.020      7.626      8.403
REMARK INTER + INTRA:          -3.839
REMARK INTER:                  -3.621
REMARK INTRA:                  -0.218
REMARK UNBOUND:                -0.201
REMARK SMILES OCC(O)CO
REMARK SMILES IDX 3 1 5 2 6 3 2 5 1 6 4 8
REMARK H PARENT 6 4 1 7 4 9
REMARK Flexibility Score: inf
ROOT
ATOM      1  C   UNL     1      -7.775   0.360  -3.594  1.00  0.00     0.165 C 
ENDROOT
BRANCH   1   2
ATOM      2  C   UNL     1      -6.577   1.177  -3.088  1.00  0.00     0.190 C 
BRANCH   2   3
ATOM      3  O   UNL     1      -6.154   0.701  -1.839  1.00  0.00    -0.394 OA
ATOM      4  H   UNL     1      -5.297   1.158  -1.634  1.00  0.00     0.210 HD
ENDBRANCH   2   3
ENDBRANCH   1   2
BRANCH   1   5
ATOM      5  C   UNL     1      -9.025   0.619  -2.735  1.00  0.00     0.190 C 
BRANCH   5   6
ATOM      6  O   UNL     1      -8.894   0.031  -1.468  1.00  0.00    -0.394 OA
ATOM      7  H   UNL     1      -7.938  -0.213  -1.366  1.00  0.00     0.210 HD
ENDBRANCH   5   6
ENDBRANCH   1   5
BRANCH   1   8
ATOM      8  O   UNL     1      -7.452  -1.006  -3.550  1.00  0.00    -0.388 OA
ATOM      9  H   UNL     1      -8.199  -1.491  -3.989  1.00  0.00     0.211 HD
ENDBRANCH   1   8
TORSDOF 5
ENDMDL
