MODEL 1
REMARK VINA RESULT:    -4.219      0.000      0.000
REMARK INTER + INTRA:          -7.561
REMARK INTER:                  -6.439
REMARK INTRA:                  -1.122
REMARK UNBOUND:                -1.122
REMARK SMILES CCCCCCCCCCC(=O)[O-]
REMARK SMILES IDX 7 1 8 2 9 3 10 4 11 5 12 6 13 7 6 8 5 9 4 10 3 11 2 12 1 13
REMARK H PARENT
REMARK Flexibility Score: inf
ROOT
ATOM      1  C   UNL     1      39.991  18.108  11.174  1.00  0.00     0.000 C 
ENDROOT
BRANCH   1   2
ATOM      2  C   UNL     1      40.495  19.085  12.246  1.00  0.00     0.000 C 
BRANCH   2   3
ATOM      3  C   UNL     1      41.911  18.742  12.747  1.00  0.00     0.006 C 
BRANCH   3   4
ATOM      4  C   UNL     1      42.428  17.370  12.289  1.00  0.00     0.053 C 
BRANCH   4   5
ATOM      5  C   UNL     1      43.925  17.310  12.269  1.00  0.00     0.041 C 
ATOM      6  O   UNL     1      44.600  18.369  12.170  1.00  0.00    -0.550 OA
ATOM      7  O   UNL     1      44.575  16.089  12.394  1.00  0.00    -0.550 OA
ENDBRANCH   4   5
ENDBRANCH   3   4
ENDBRANCH   2   3
ENDBRANCH   1   2
BRANCH   1   8
ATOM      8  C   UNL     1      39.910  18.791   9.804  1.00  0.00     0.000 C 
BRANCH   8   9
ATOM      9  C   UNL     1      41.226  18.637   9.031  1.00  0.00    -0.000 C 
BRANCH   9  10
ATOM     10  C   UNL     1      41.646  19.966   8.388  1.00  0.00    -0.000 C 
BRANCH  10  11
ATOM     11  C   UNL     1      40.892  21.177   8.967  1.00  0.00    -0.000 C 
BRANCH  11  12
ATOM     12  C   UNL     1      41.686  22.001   9.997  1.00  0.00    -0.003 C 
ATOM     13  C   UNL     1      43.073  21.425  10.282  1.00  0.00     0.004 C 
ENDBRANCH  11  12
ENDBRANCH  10  11
ENDBRANCH   9  10
ENDBRANCH   8   9
ENDBRANCH   1   8
TORSDOF 9
ENDMDL
MODEL 2
REMARK VINA RESULT:    -4.199      2.354      4.764
REMARK INTER + INTRA:          -7.530
REMARK INTER:                  -6.332
REMARK INTRA:                  -1.198
REMARK UNBOUND:                -1.122
REMARK SMILES CCCCCCCCCCC(=O)[O-]
REMARK SMILES IDX 7 1 8 2 9 3 10 4 11 5 12 6 13 7 6 8 5 9 4 10 3 11 2 12 1 13
REMARK H PARENT
REMARK Flexibility Score: inf
ROOT
ATOM      1  C   UNL     1      42.753  21.420  11.988  1.00  0.00     0.000 C 
ENDROOT
BRANCH   1   2
ATOM      2  C   UNL     1      42.815  21.186  10.471  1.00  0.00     0.000 C 
BRANCH   2   3
ATOM      3  C   UNL     1      41.684  21.903   9.710  1.00  0.00     0.006 C 
BRANCH   3   4
ATOM      4  C   UNL     1      40.893  20.998   8.753  1.00  0.00     0.053 C 
BRANCH   4   5
ATOM      5  C   UNL     1      41.783  20.045   8.015  1.00  0.00     0.041 C 
ATOM      6  O   UNL     1      41.697  18.806   8.225  1.00  0.00    -0.550 OA
ATOM      7  O   UNL     1      42.683  20.523   7.071  1.00  0.00    -0.550 OA
ENDBRANCH   4   5
ENDBRANCH   3   4
ENDBRANCH   2   3
ENDBRANCH   1   2
BRANCH   1   8
ATOM      8  C   UNL     1      42.844  20.094  12.751  1.00  0.00     0.000 C 
BRANCH   8   9
ATOM      9  C   UNL     1      42.793  18.899  11.789  1.00  0.00    -0.000 C 
BRANCH   9  10
ATOM     10  C   UNL     1      41.732  17.881  12.232  1.00  0.00    -0.000 C 
BRANCH  10  11
ATOM     11  C   UNL     1      40.485  17.885  11.329  1.00  0.00    -0.000 C 
BRANCH  11  12
ATOM     12  C   UNL     1      39.487  19.023  11.609  1.00  0.00    -0.003 C 
ATOM     13  C   UNL     1      38.313  19.043  10.631  1.00  0.00     0.004 C 
ENDBRANCH  11  12
ENDBRANCH  10  11
ENDBRANCH   9  10
ENDBRANCH   8   9
ENDBRANCH   1   8
TORSDOF 9
ENDMDL
MODEL 3
REMARK VINA RESULT:    -4.187      3.018      4.237
REMARK INTER + INTRA:          -7.512
REMARK INTER:                  -6.222
REMARK INTRA:                  -1.291
REMARK UNBOUND:                -1.122
REMARK SMILES CCCCCCCCCCC(=O)[O-]
REMARK SMILES IDX 7 1 8 2 9 3 10 4 11 5 12 6 13 7 6 8 5 9 4 10 3 11 2 12 1 13
REMARK H PARENT
REMARK Flexibility Score: inf
ROOT
ATOM      1  C   UNL     1      43.015  18.508  11.829  1.00  0.00     0.000 C 
ENDROOT
BRANCH   1   2
ATOM      2  C   UNL     1      41.775  17.741  12.314  1.00  0.00     0.000 C 
BRANCH   2   3
ATOM      3  C   UNL     1      40.578  17.877  11.355  1.00  0.00     0.006 C 
BRANCH   3   4
ATOM      4  C   UNL     1      39.555  18.948  11.767  1.00  0.00     0.053 C 
BRANCH   4   5
ATOM      5  C   UNL     1      38.226  18.739  11.110  1.00  0.00     0.041 C 
ATOM      6  O   UNL     1      38.154  18.567   9.865  1.00  0.00    -0.550 OA
ATOM      7  O   UNL     1      37.069  18.700  11.878  1.00  0.00    -0.550 OA
ENDBRANCH   4   5
ENDBRANCH   3   4
ENDBRANCH   2   3
ENDBRANCH   1   2
BRANCH   1   8
ATOM      8  C   UNL     1      43.274  19.741  12.702  1.00  0.00     0.000 C 
BRANCH   8   9
ATOM      9  C   UNL     1      42.670  21.001  12.070  1.00  0.00    -0.000 C 
BRANCH   9  10
ATOM     10  C   UNL     1      42.699  20.916  10.537  1.00  0.00    -0.000 C 
BRANCH  10  11
ATOM     11  C   UNL     1      41.604  21.766   9.869  1.00  0.00    -0.000 C 
BRANCH  11  12
ATOM     12  C   UNL     1      40.745  21.017   8.834  1.00  0.00    -0.003 C 
ATOM     13  C   UNL     1      41.444  19.789   8.252  1.00  0.00     0.004 C 
ENDBRANCH  11  12
ENDBRANCH  10  11
ENDBRANCH   9  10
ENDBRANCH   8   9
ENDBRANCH   1   8
TORSDOF 9
ENDMDL
MODEL 4
REMARK VINA RESULT:    -4.151      2.426      4.018
REMARK INTER + INTRA:          -7.458
REMARK INTER:                  -6.564
REMARK INTRA:                  -0.894
REMARK UNBOUND:                -1.122
REMARK SMILES CCCCCCCCCCC(=O)[O-]
REMARK SMILES IDX 7 1 8 2 9 3 10 4 11 5 12 6 13 7 6 8 5 9 4 10 3 11 2 12 1 13
REMARK H PARENT
REMARK Flexibility Score: inf
ROOT
ATOM      1  C   UNL     1      40.944  18.508  12.167  1.00  0.00     0.000 C 
ENDROOT
BRANCH   1   2
ATOM      2  C   UNL     1      39.771  17.976  11.329  1.00  0.00     0.000 C 
BRANCH   2   3
ATOM      3  C   UNL     1      39.518  18.810  10.060  1.00  0.00     0.006 C 
BRANCH   3   4
ATOM      4  C   UNL     1      40.654  19.784   9.707  1.00  0.00     0.053 C 
BRANCH   4   5
ATOM      5  C   UNL     1      41.519  19.262   8.601  1.00  0.00     0.041 C 
ATOM      6  O   UNL     1      41.821  18.041   8.554  1.00  0.00    -0.550 OA
ATOM      7  O   UNL     1      41.964  20.120   7.602  1.00  0.00    -0.550 OA
ENDBRANCH   4   5
ENDBRANCH   3   4
ENDBRANCH   2   3
ENDBRANCH   1   2
BRANCH   1   8
ATOM      8  C   UNL     1      42.079  17.480  12.236  1.00  0.00     0.000 C 
BRANCH   8   9
ATOM      9  C   UNL     1      43.411  18.153  12.591  1.00  0.00    -0.000 C 
BRANCH   9  10
ATOM     10  C   UNL     1      43.445  19.605  12.092  1.00  0.00    -0.000 C 
BRANCH  10  11
ATOM     11  C   UNL     1      43.694  20.621  13.222  1.00  0.00    -0.000 C 
BRANCH  11  12
ATOM     12  C   UNL     1      43.074  22.010  12.990  1.00  0.00    -0.003 C 
ATOM     13  C   UNL     1      42.930  22.361  11.509  1.00  0.00     0.004 C 
ENDBRANCH  11  12
ENDBRANCH  10  11
ENDBRANCH   9  10
ENDBRANCH   8   9
ENDBRANCH   1   8
TORSDOF 9
ENDMDL
MODEL 5
REMARK VINA RESULT:    -4.087      3.067      4.416
REMARK INTER + INTRA:          -7.359
REMARK INTER:                  -6.342
REMARK INTRA:                  -1.017
REMARK UNBOUND:                -1.122
REMARK SMILES CCCCCCCCCCC(=O)[O-]
REMARK SMILES IDX 7 1 8 2 9 3 10 4 11 5 12 6 13 7 6 8 5 9 4 10 3 11 2 12 1 13
REMARK H PARENT
REMARK Flexibility Score: inf
ROOT
ATOM      1  C   UNL     1      42.210  17.460  12.235  1.00  0.00     0.000 C 
ENDROOT
BRANCH   1   2
ATOM      2  C   UNL     1      42.182  17.762  10.729  1.00  0.00     0.000 C 
BRANCH   2   3
ATOM      3  C   UNL     1      40.813  18.279  10.250  1.00  0.00     0.006 C 
BRANCH   3   4
ATOM      4  C   UNL     1      39.733  18.315  11.343  1.00  0.00     0.053 C 
BRANCH   4   5
ATOM      5  C   UNL     1      38.570  19.175  10.957  1.00  0.00     0.041 C 
ATOM      6  O   UNL     1      38.755  20.237  10.305  1.00  0.00    -0.550 OA
ATOM      7  O   UNL     1      37.277  18.787  11.287  1.00  0.00    -0.550 OA
ENDBRANCH   4   5
ENDBRANCH   3   4
ENDBRANCH   2   3
ENDBRANCH   1   2
BRANCH   1   8
ATOM      8  C   UNL     1      43.573  17.816  12.840  1.00  0.00     0.000 C 
BRANCH   8   9
ATOM      9  C   UNL     1      44.091  19.149  12.287  1.00  0.00    -0.000 C 
BRANCH   9  10
ATOM     10  C   UNL     1      43.517  20.334  13.077  1.00  0.00    -0.000 C 
BRANCH  10  11
ATOM     11  C   UNL     1      42.601  21.234  12.228  1.00  0.00    -0.000 C 
BRANCH  11  12
ATOM     12  C   UNL     1      43.025  21.381  10.756  1.00  0.00    -0.003 C 
ATOM     13  C   UNL     1      43.128  22.838  10.306  1.00  0.00     0.004 C 
ENDBRANCH  11  12
ENDBRANCH  10  11
ENDBRANCH   9  10
ENDBRANCH   8   9
ENDBRANCH   1   8
TORSDOF 9
ENDMDL
MODEL 6
REMARK VINA RESULT:    -4.080      2.559      4.328
REMARK INTER + INTRA:          -7.348
REMARK INTER:                  -6.222
REMARK INTRA:                  -1.126
REMARK UNBOUND:                -1.122
REMARK SMILES CCCCCCCCCCC(=O)[O-]
REMARK SMILES IDX 7 1 8 2 9 3 10 4 11 5 12 6 13 7 6 8 5 9 4 10 3 11 2 12 1 13
REMARK H PARENT
REMARK Flexibility Score: inf
ROOT
ATOM      1  C   UNL     1      39.374  19.334  10.021  1.00  0.00     0.000 C 
ENDROOT
BRANCH   1   2
ATOM      2  C   UNL     1      39.780  20.815  10.028  1.00  0.00     0.000 C 
BRANCH   2   3
ATOM      3  C   UNL     1      40.511  21.239   8.740  1.00  0.00     0.006 C 
BRANCH   3   4
ATOM      4  C   UNL     1      41.997  20.847   8.698  1.00  0.00     0.053 C 
BRANCH   4   5
ATOM      5  C   UNL     1      42.290  19.871   7.600  1.00  0.00     0.041 C 
ATOM      6  O   UNL     1      41.976  18.658   7.729  1.00  0.00    -0.550 OA
ATOM      7  O   UNL     1      42.879  20.308   6.420  1.00  0.00    -0.550 OA
ENDBRANCH   4   5
ENDBRANCH   3   4
ENDBRANCH   2   3
ENDBRANCH   1   2
BRANCH   1   8
ATOM      8  C   UNL     1      39.548  18.712  11.411  1.00  0.00     0.000 C 
BRANCH   8   9
ATOM      9  C   UNL     1      40.810  17.842  11.472  1.00  0.00    -0.000 C 
BRANCH   9  10
ATOM     10  C   UNL     1      41.838  18.433  12.449  1.00  0.00    -0.000 C 
BRANCH  10  11
ATOM     11  C   UNL     1      41.264  19.577  13.303  1.00  0.00    -0.000 C 
BRANCH  11  12
ATOM     12  C   UNL     1      42.232  20.748  13.551  1.00  0.00    -0.003 C 
ATOM     13  C   UNL     1      42.896  21.256  12.272  1.00  0.00     0.004 C 
ENDBRANCH  11  12
ENDBRANCH  10  11
ENDBRANCH   9  10
ENDBRANCH   8   9
ENDBRANCH   1   8
TORSDOF 9
ENDMDL
MODEL 7
REMARK VINA RESULT:    -4.077      2.612      4.651
REMARK INTER + INTRA:          -7.344
REMARK INTER:                  -6.141
REMARK INTRA:                  -1.202
REMARK UNBOUND:                -1.122
REMARK SMILES CCCCCCCCCCC(=O)[O-]
REMARK SMILES IDX 7 1 8 2 9 3 10 4 11 5 12 6 13 7 6 8 5 9 4 10 3 11 2 12 1 13
REMARK H PARENT
REMARK Flexibility Score: inf
ROOT
ATOM      1  C   UNL     1      42.981  19.847  12.930  1.00  0.00     0.000 C 
ENDROOT
BRANCH   1   2
ATOM      2  C   UNL     1      43.239  21.226  12.305  1.00  0.00     0.000 C 
BRANCH   2   3
ATOM      3  C   UNL     1      42.195  21.601  11.237  1.00  0.00     0.006 C 
BRANCH   3   4
ATOM      4  C   UNL     1      42.517  21.082   9.827  1.00  0.00     0.053 C 
BRANCH   4   5
ATOM      5  C   UNL     1      41.279  20.817   9.028  1.00  0.00     0.041 C 
ATOM      6  O   UNL     1      40.296  21.602   9.102  1.00  0.00    -0.550 OA
ATOM      7  O   UNL     1      41.222  19.723   8.174  1.00  0.00    -0.550 OA
ENDBRANCH   4   5
ENDBRANCH   3   4
ENDBRANCH   2   3
ENDBRANCH   1   2
BRANCH   1   8
ATOM      8  C   UNL     1      43.847  18.772  12.263  1.00  0.00     0.000 C 
BRANCH   8   9
ATOM      9  C   UNL     1      42.978  17.730  11.547  1.00  0.00    -0.000 C 
BRANCH   9  10
ATOM     10  C   UNL     1      41.588  17.635  12.192  1.00  0.00    -0.000 C 
BRANCH  10  11
ATOM     11  C   UNL     1      40.446  17.915  11.198  1.00  0.00    -0.000 C 
BRANCH  11  12
ATOM     12  C   UNL     1      39.481  19.037  11.621  1.00  0.00    -0.003 C 
ATOM     13  C   UNL     1      38.210  19.083  10.775  1.00  0.00     0.004 C 
ENDBRANCH  11  12
ENDBRANCH  10  11
ENDBRANCH   9  10
ENDBRANCH   8   9
ENDBRANCH   1   8
TORSDOF 9
ENDMDL
MODEL 8
REMARK VINA RESULT:    -4.028      1.323      3.005
REMARK INTER + INTRA:          -7.269
REMARK INTER:                  -6.125
REMARK INTRA:                  -1.144
REMARK UNBOUND:                -1.122
REMARK SMILES CCCCCCCCCCC(=O)[O-]
REMARK SMILES IDX 7 1 8 2 9 3 10 4 11 5 12 6 13 7 6 8 5 9 4 10 3 11 2 12 1 13
REMARK H PARENT
REMARK Flexibility Score: inf
ROOT
ATOM      1  C   UNL     1      42.953  21.203  10.574  1.00  0.00     0.000 C 
ENDROOT
BRANCH   1   2
ATOM      2  C   UNL     1      42.724  21.314  12.089  1.00  0.00     0.000 C 
BRANCH   2   3
ATOM      3  C   UNL     1      42.842  19.959  12.812  1.00  0.00     0.006 C 
BRANCH   3   4
ATOM      4  C   UNL     1      43.897  19.014  12.215  1.00  0.00     0.053 C 
BRANCH   4   5
ATOM      5  C   UNL     1      43.542  17.574  12.419  1.00  0.00     0.041 C 
ATOM      6  O   UNL     1      42.335  17.217  12.457  1.00  0.00    -0.550 OA
ATOM      7  O   UNL     1      44.545  16.619  12.533  1.00  0.00    -0.550 OA
ENDBRANCH   4   5
ENDBRANCH   3   4
ENDBRANCH   2   3
ENDBRANCH   1   2
BRANCH   1   8
ATOM      8  C   UNL     1      41.904  22.009   9.801  1.00  0.00     0.000 C 
BRANCH   8   9
ATOM      9  C   UNL     1      40.694  21.138   9.440  1.00  0.00    -0.000 C 
BRANCH   9  10
ATOM     10  C   UNL     1      41.131  19.711   9.077  1.00  0.00    -0.000 C 
BRANCH  10  11
ATOM     11  C   UNL     1      40.394  18.633   9.890  1.00  0.00    -0.000 C 
BRANCH  11  12
ATOM     12  C   UNL     1      39.593  19.164  11.092  1.00  0.00    -0.003 C 
ATOM     13  C   UNL     1      38.085  18.968  10.940  1.00  0.00     0.004 C 
ENDBRANCH  11  12
ENDBRANCH  10  11
ENDBRANCH   9  10
ENDBRANCH   8   9
ENDBRANCH   1   8
TORSDOF 9
ENDMDL
MODEL 9
REMARK VINA RESULT:    -3.986      1.506      2.914
REMARK INTER + INTRA:          -7.205
REMARK INTER:                  -6.138
REMARK INTRA:                  -1.068
REMARK UNBOUND:                -1.122
REMARK SMILES CCCCCCCCCCC(=O)[O-]
REMARK SMILES IDX 7 1 8 2 9 3 10 4 11 5 12 6 13 7 6 8 5 9 4 10 3 11 2 12 1 13
REMARK H PARENT
REMARK Flexibility Score: inf
ROOT
ATOM      1  C   UNL     1      42.233  20.860  13.743  1.00  0.00     0.000 C 
ENDROOT
BRANCH   1   2
ATOM      2  C   UNL     1      41.355  19.697  13.257  1.00  0.00     0.000 C 
BRANCH   2   3
ATOM      3  C   UNL     1      41.935  18.991  12.017  1.00  0.00     0.006 C 
BRANCH   3   4
ATOM      4  C   UNL     1      42.241  17.499  12.224  1.00  0.00     0.053 C 
BRANCH   4   5
ATOM      5  C   UNL     1      43.712  17.219  12.214  1.00  0.00     0.041 C 
ATOM      6  O   UNL     1      44.538  18.170  12.219  1.00  0.00    -0.550 OA
ATOM      7  O   UNL     1      44.171  15.908  12.233  1.00  0.00    -0.550 OA
ENDBRANCH   4   5
ENDBRANCH   3   4
ENDBRANCH   2   3
ENDBRANCH   1   2
BRANCH   1   8
ATOM      8  C   UNL     1      43.130  21.379  12.614  1.00  0.00     0.000 C 
BRANCH   8   9
ATOM      9  C   UNL     1      42.856  22.861  12.329  1.00  0.00    -0.000 C 
BRANCH   9  10
ATOM     10  C   UNL     1      42.749  23.121  10.819  1.00  0.00    -0.000 C 
BRANCH  10  11
ATOM     11  C   UNL     1      43.046  21.869   9.974  1.00  0.00    -0.000 C 
BRANCH  11  12
ATOM     12  C   UNL     1      42.018  21.579   8.865  1.00  0.00    -0.003 C 
ATOM     13  C   UNL     1      40.593  21.430   9.395  1.00  0.00     0.004 C 
ENDBRANCH  11  12
ENDBRANCH  10  11
ENDBRANCH   9  10
ENDBRANCH   8   9
ENDBRANCH   1   8
TORSDOF 9
ENDMDL
