MODEL 1
REMARK VINA RESULT:    -3.405      0.000      0.000
REMARK INTER + INTRA:          -4.253
REMARK INTER:                  -4.201
REMARK INTRA:                  -0.052
REMARK UNBOUND:                -0.052
REMARK SMILES CCCCCC(=O)[O-]
REMARK SMILES IDX 4 1 5 2 6 3 7 4 8 5 3 6 2 7 1 8
REMARK H PARENT
REMARK Flexibility Score: inf
ROOT
ATOM      1  C   UNL     1      46.174  26.724   6.003  1.00  0.00     0.006 C 
ENDROOT
BRANCH   1   2
ATOM      2  C   UNL     1      45.627  27.355   4.719  1.00  0.00     0.053 C 
BRANCH   2   3
ATOM      3  C   UNL     1      45.051  26.305   3.822  1.00  0.00     0.041 C 
ATOM      4  O   UNL     1      45.441  25.111   3.913  1.00  0.00    -0.550 OA
ATOM      5  O   UNL     1      44.120  26.653   2.852  1.00  0.00    -0.550 OA
ENDBRANCH   2   3
ENDBRANCH   1   2
BRANCH   1   6
ATOM      6  C   UNL     1      45.878  27.612   7.221  1.00  0.00     0.000 C 
BRANCH   6   7
ATOM      7  C   UNL     1      45.550  26.797   8.480  1.00  0.00    -0.003 C 
ATOM      8  C   UNL     1      45.026  27.663   9.626  1.00  0.00     0.004 C 
ENDBRANCH   6   7
ENDBRANCH   1   6
TORSDOF 4
ENDMDL
MODEL 2
REMARK VINA RESULT:    -3.250      3.285      4.859
REMARK INTER + INTRA:          -4.062
REMARK INTER:                  -4.001
REMARK INTRA:                  -0.061
REMARK UNBOUND:                -0.052
REMARK SMILES CCCCCC(=O)[O-]
REMARK SMILES IDX 4 1 5 2 6 3 7 4 8 5 3 6 2 7 1 8
REMARK H PARENT
REMARK Flexibility Score: inf
ROOT
ATOM      1  C   UNL     1      46.003  26.764   6.992  1.00  0.00     0.006 C 
ENDROOT
BRANCH   1   2
ATOM      2  C   UNL     1      45.596  27.961   7.857  1.00  0.00     0.053 C 
BRANCH   2   3
ATOM      3  C   UNL     1      45.166  27.503   9.216  1.00  0.00     0.041 C 
ATOM      4  O   UNL     1      45.260  26.288   9.534  1.00  0.00    -0.550 OA
ATOM      5  O   UNL     1      44.613  28.409  10.112  1.00  0.00    -0.550 OA
ENDBRANCH   2   3
ENDBRANCH   1   2
BRANCH   1   6
ATOM      6  C   UNL     1      46.058  27.154   5.507  1.00  0.00     0.000 C 
BRANCH   6   7
ATOM      7  C   UNL     1      45.434  26.089   4.593  1.00  0.00    -0.003 C 
ATOM      8  C   UNL     1      44.626  26.695   3.446  1.00  0.00     0.004 C 
ENDBRANCH   6   7
ENDBRANCH   1   6
TORSDOF 4
ENDMDL
MODEL 3
REMARK VINA RESULT:    -3.180     24.066     25.235
REMARK INTER + INTRA:          -3.975
REMARK INTER:                  -3.902
REMARK INTRA:                  -0.073
REMARK UNBOUND:                -0.052
REMARK SMILES CCCCCC(=O)[O-]
REMARK SMILES IDX 4 1 5 2 6 3 7 4 8 5 3 6 2 7 1 8
REMARK H PARENT
REMARK Flexibility Score: inf
ROOT
ATOM      1  C   UNL     1      29.987   9.950  -5.101  1.00  0.00     0.006 C 
ENDROOT
BRANCH   1   2
ATOM      2  C   UNL     1      28.462  10.081  -5.037  1.00  0.00     0.053 C 
BRANCH   2   3
ATOM      3  C   UNL     1      28.054  10.885  -3.843  1.00  0.00     0.041 C 
ATOM      4  O   UNL     1      27.334  10.369  -2.948  1.00  0.00    -0.550 OA
ATOM      5  O   UNL     1      28.427  12.220  -3.741  1.00  0.00    -0.550 OA
ENDBRANCH   2   3
ENDBRANCH   1   2
BRANCH   1   6
ATOM      6  C   UNL     1      30.577  10.912  -6.143  1.00  0.00     0.000 C 
BRANCH   6   7
ATOM      7  C   UNL     1      32.105  11.034  -6.036  1.00  0.00    -0.003 C 
ATOM      8  C   UNL     1      32.839   9.894  -6.741  1.00  0.00     0.004 C 
ENDBRANCH   6   7
ENDBRANCH   1   6
TORSDOF 4
ENDMDL
MODEL 4
REMARK VINA RESULT:    -3.049      2.427      3.713
REMARK INTER + INTRA:          -3.814
REMARK INTER:                  -3.651
REMARK INTRA:                  -0.163
REMARK UNBOUND:                -0.052
REMARK SMILES CCCCCC(=O)[O-]
REMARK SMILES IDX 4 1 5 2 6 3 7 4 8 5 3 6 2 7 1 8
REMARK H PARENT
REMARK Flexibility Score: inf
ROOT
ATOM      1  C   UNL     1      44.153  27.084   3.013  1.00  0.00     0.006 C 
ENDROOT
BRANCH   1   2
ATOM      2  C   UNL     1      45.072  28.265   2.685  1.00  0.00     0.053 C 
BRANCH   2   3
ATOM      3  C   UNL     1      45.310  28.349   1.210  1.00  0.00     0.041 C 
ATOM      4  O   UNL     1      45.601  29.454   0.678  1.00  0.00    -0.550 OA
ATOM      5  O   UNL     1      45.162  27.220   0.415  1.00  0.00    -0.550 OA
ENDBRANCH   2   3
ENDBRANCH   1   2
BRANCH   1   6
ATOM      6  C   UNL     1      44.863  26.074   3.928  1.00  0.00     0.000 C 
BRANCH   6   7
ATOM      7  C   UNL     1      46.136  26.649   4.567  1.00  0.00    -0.003 C 
ATOM      8  C   UNL     1      45.983  26.900   6.067  1.00  0.00     0.004 C 
ENDBRANCH   6   7
ENDBRANCH   1   6
TORSDOF 4
ENDMDL
MODEL 5
REMARK VINA RESULT:    -2.961      1.646      2.584
REMARK INTER + INTRA:          -3.706
REMARK INTER:                  -3.602
REMARK INTRA:                  -0.104
REMARK UNBOUND:                -0.052
REMARK SMILES CCCCCC(=O)[O-]
REMARK SMILES IDX 4 1 5 2 6 3 7 4 8 5 3 6 2 7 1 8
REMARK H PARENT
REMARK Flexibility Score: inf
ROOT
ATOM      1  C   UNL     1      45.876  26.769   8.034  1.00  0.00     0.006 C 
ENDROOT
BRANCH   1   2
ATOM      2  C   UNL     1      45.920  27.856   6.957  1.00  0.00     0.053 C 
BRANCH   2   3
ATOM      3  C   UNL     1      46.279  27.266   5.629  1.00  0.00     0.041 C 
ATOM      4  O   UNL     1      45.783  27.737   4.571  1.00  0.00    -0.550 OA
ATOM      5  O   UNL     1      47.123  26.164   5.563  1.00  0.00    -0.550 OA
ENDBRANCH   2   3
ENDBRANCH   1   2
BRANCH   1   6
ATOM      6  C   UNL     1      45.230  27.298   9.323  1.00  0.00     0.000 C 
BRANCH   6   7
ATOM      7  C   UNL     1      44.868  28.788   9.233  1.00  0.00    -0.003 C 
ATOM      8  C   UNL     1      44.424  29.371  10.575  1.00  0.00     0.004 C 
ENDBRANCH   6   7
ENDBRANCH   1   6
TORSDOF 4
ENDMDL
MODEL 6
REMARK VINA RESULT:    -2.954      3.388      4.799
REMARK INTER + INTRA:          -3.697
REMARK INTER:                  -3.434
REMARK INTRA:                  -0.263
REMARK UNBOUND:                -0.052
REMARK SMILES CCCCCC(=O)[O-]
REMARK SMILES IDX 4 1 5 2 6 3 7 4 8 5 3 6 2 7 1 8
REMARK H PARENT
REMARK Flexibility Score: inf
ROOT
ATOM      1  C   UNL     1      44.289  27.073   2.701  1.00  0.00     0.006 C 
ENDROOT
BRANCH   1   2
ATOM      2  C   UNL     1      44.796  26.211   3.860  1.00  0.00     0.053 C 
BRANCH   2   3
ATOM      3  C   UNL     1      46.292  26.177   3.874  1.00  0.00     0.041 C 
ATOM      4  O   UNL     1      46.922  26.424   4.937  1.00  0.00    -0.550 OA
ATOM      5  O   UNL     1      46.993  25.922   2.702  1.00  0.00    -0.550 OA
ENDBRANCH   2   3
ENDBRANCH   1   2
BRANCH   1   6
ATOM      6  C   UNL     1      44.494  28.567   2.996  1.00  0.00     0.000 C 
BRANCH   6   7
ATOM      7  C   UNL     1      45.236  29.296   1.867  1.00  0.00    -0.003 C 
ATOM      8  C   UNL     1      45.552  28.384   0.681  1.00  0.00     0.004 C 
ENDBRANCH   6   7
ENDBRANCH   1   6
TORSDOF 4
ENDMDL
MODEL 7
REMARK VINA RESULT:    -2.932      8.086     10.475
REMARK INTER + INTRA:          -3.670
REMARK INTER:                  -3.607
REMARK INTRA:                  -0.063
REMARK UNBOUND:                -0.052
REMARK SMILES CCCCCC(=O)[O-]
REMARK SMILES IDX 4 1 5 2 6 3 7 4 8 5 3 6 2 7 1 8
REMARK H PARENT
REMARK Flexibility Score: inf
ROOT
ATOM      1  C   UNL     1      43.806  27.190  -3.728  1.00  0.00     0.006 C 
ENDROOT
BRANCH   1   2
ATOM      2  C   UNL     1      44.696  28.204  -3.004  1.00  0.00     0.053 C 
BRANCH   2   3
ATOM      3  C   UNL     1      45.599  27.510  -2.033  1.00  0.00     0.041 C 
ATOM      4  O   UNL     1      45.213  27.293  -0.853  1.00  0.00    -0.550 OA
ATOM      5  O   UNL     1      46.884  27.148  -2.414  1.00  0.00    -0.550 OA
ENDBRANCH   2   3
ENDBRANCH   1   2
BRANCH   1   6
ATOM      6  C   UNL     1      42.543  27.866  -4.283  1.00  0.00     0.000 C 
BRANCH   6   7
ATOM      7  C   UNL     1      42.776  28.518  -5.654  1.00  0.00    -0.003 C 
ATOM      8  C   UNL     1      41.578  29.342  -6.127  1.00  0.00     0.004 C 
ENDBRANCH   6   7
ENDBRANCH   1   6
TORSDOF 4
ENDMDL
MODEL 8
REMARK VINA RESULT:    -2.906      3.981      5.417
REMARK INTER + INTRA:          -3.637
REMARK INTER:                  -3.540
REMARK INTRA:                  -0.098
REMARK UNBOUND:                -0.052
REMARK SMILES CCCCCC(=O)[O-]
REMARK SMILES IDX 4 1 5 2 6 3 7 4 8 5 3 6 2 7 1 8
REMARK H PARENT
REMARK Flexibility Score: inf
ROOT
ATOM      1  C   UNL     1      45.799  27.868   1.223  1.00  0.00     0.006 C 
ENDROOT
BRANCH   1   2
ATOM      2  C   UNL     1      45.643  28.758  -0.014  1.00  0.00     0.053 C 
BRANCH   2   3
ATOM      3  C   UNL     1      45.412  27.924  -1.235  1.00  0.00     0.041 C 
ATOM      4  O   UNL     1      44.946  26.758  -1.126  1.00  0.00    -0.550 OA
ATOM      5  O   UNL     1      45.758  28.413  -2.488  1.00  0.00    -0.550 OA
ENDBRANCH   2   3
ENDBRANCH   1   2
BRANCH   1   6
ATOM      6  C   UNL     1      44.797  28.268   2.317  1.00  0.00     0.000 C 
BRANCH   6   7
ATOM      7  C   UNL     1      44.025  27.065   2.879  1.00  0.00    -0.003 C 
ATOM      8  C   UNL     1      44.866  26.217   3.833  1.00  0.00     0.004 C 
ENDBRANCH   6   7
ENDBRANCH   1   6
TORSDOF 4
ENDMDL
MODEL 9
REMARK VINA RESULT:    -2.852      7.433      9.359
REMARK INTER + INTRA:          -3.571
REMARK INTER:                  -3.411
REMARK INTRA:                  -0.160
REMARK UNBOUND:                -0.052
REMARK SMILES CCCCCC(=O)[O-]
REMARK SMILES IDX 4 1 5 2 6 3 7 4 8 5 3 6 2 7 1 8
REMARK H PARENT
REMARK Flexibility Score: inf
ROOT
ATOM      1  C   UNL     1      44.766  29.160  -3.192  1.00  0.00     0.006 C 
ENDROOT
BRANCH   1   2
ATOM      2  C   UNL     1      45.115  29.176  -1.701  1.00  0.00     0.053 C 
BRANCH   2   3
ATOM      3  C   UNL     1      45.686  27.857  -1.283  1.00  0.00     0.041 C 
ATOM      4  O   UNL     1      45.180  27.227  -0.316  1.00  0.00    -0.550 OA
ATOM      5  O   UNL     1      46.806  27.347  -1.927  1.00  0.00    -0.550 OA
ENDBRANCH   2   3
ENDBRANCH   1   2
BRANCH   1   6
ATOM      6  C   UNL     1      43.252  29.318  -3.403  1.00  0.00     0.000 C 
BRANCH   6   7
ATOM      7  C   UNL     1      42.648  28.172  -4.228  1.00  0.00    -0.003 C 
ATOM      8  C   UNL     1      43.288  26.819  -3.917  1.00  0.00     0.004 C 
ENDBRANCH   6   7
ENDBRANCH   1   6
TORSDOF 4
ENDMDL
