MODEL 1
REMARK VINA RESULT:    -4.485      0.000      0.000
REMARK INTER + INTRA:          -6.280
REMARK INTER:                  -5.928
REMARK INTRA:                  -0.352
REMARK UNBOUND:                -0.352
REMARK SMILES CCCCC=CC=CCO
REMARK SMILES IDX 5 1 6 2 4 3 3 4 2 5 1 6 7 7 8 8 9 9 10 10
REMARK H PARENT 10 11
REMARK Flexibility Score: inf
ROOT
ATOM      1  C   UNL     1       8.458  16.595  21.236  1.00  0.00    -0.027 C 
ATOM      2  C   UNL     1       9.255  15.881  22.043  1.00  0.00    -0.005 C 
ENDROOT
BRANCH   1   3
ATOM      3  C   UNL     1       8.944  17.515  20.149  1.00  0.00     0.027 C 
BRANCH   3   4
ATOM      4  C   UNL     1       8.590  16.962  18.759  1.00  0.00     0.004 C 
BRANCH   4   5
ATOM      5  C   UNL     1       7.191  16.328  18.717  1.00  0.00    -0.003 C 
ATOM      6  C   UNL     1       6.691  16.103  17.290  1.00  0.00     0.004 C 
ENDBRANCH   4   5
ENDBRANCH   3   4
ENDBRANCH   1   3
BRANCH   2   7
ATOM      7  C   UNL     1      10.731  15.914  21.988  1.00  0.00    -0.002 C 
ATOM      8  C   UNL     1      11.426  14.833  21.627  1.00  0.00     0.001 C 
BRANCH   8   9
ATOM      9  C   UNL     1      12.924  14.850  21.574  1.00  0.00     0.183 C 
BRANCH   9  10
ATOM     10  O   UNL     1      13.447  13.692  22.167  1.00  0.00    -0.392 OA
ATOM     11  H   UNL     1      13.723  13.939  23.088  1.00  0.00     0.210 HD
ENDBRANCH   9  10
ENDBRANCH   8   9
ENDBRANCH   2   7
TORSDOF 6
ENDMDL
MODEL 2
REMARK VINA RESULT:    -4.391      2.418      5.293
REMARK INTER + INTRA:          -6.155
REMARK INTER:                  -5.812
REMARK INTRA:                  -0.343
REMARK UNBOUND:                -0.352
REMARK SMILES CCCCC=CC=CCO
REMARK SMILES IDX 5 1 6 2 4 3 3 4 2 5 1 6 7 7 8 8 9 9 10 10
REMARK H PARENT 10 11
REMARK Flexibility Score: inf
ROOT
ATOM      1  C   UNL     1      10.244  17.149  21.609  1.00  0.00    -0.027 C 
ATOM      2  C   UNL     1       9.468  17.660  20.643  1.00  0.00    -0.005 C 
ENDROOT
BRANCH   1   3
ATOM      3  C   UNL     1      10.137  15.745  22.140  1.00  0.00     0.027 C 
BRANCH   3   4
ATOM      4  C   UNL     1      11.277  14.865  21.605  1.00  0.00     0.004 C 
BRANCH   4   5
ATOM      5  C   UNL     1      12.664  15.461  21.891  1.00  0.00    -0.003 C 
ATOM      6  C   UNL     1      13.792  14.450  21.685  1.00  0.00     0.004 C 
ENDBRANCH   4   5
ENDBRANCH   3   4
ENDBRANCH   1   3
BRANCH   2   7
ATOM      7  C   UNL     1       8.380  16.915  19.975  1.00  0.00    -0.002 C 
ATOM      8  C   UNL     1       8.423  16.674  18.663  1.00  0.00     0.001 C 
BRANCH   8   9
ATOM      9  C   UNL     1       7.323  15.926  17.971  1.00  0.00     0.183 C 
BRANCH   9  10
ATOM     10  O   UNL     1       7.589  14.549  17.979  1.00  0.00    -0.392 OA
ATOM     11  H   UNL     1       8.209  14.371  17.225  1.00  0.00     0.210 HD
ENDBRANCH   9  10
ENDBRANCH   8   9
ENDBRANCH   2   7
TORSDOF 6
ENDMDL
MODEL 3
REMARK VINA RESULT:    -3.878      5.060      6.454
REMARK INTER + INTRA:          -5.477
REMARK INTER:                  -5.154
REMARK INTRA:                  -0.323
REMARK UNBOUND:                -0.352
REMARK SMILES CCCCC=CC=CCO
REMARK SMILES IDX 5 1 6 2 4 3 3 4 2 5 1 6 7 7 8 8 9 9 10 10
REMARK H PARENT 10 11
REMARK Flexibility Score: inf
ROOT
ATOM      1  C   UNL     1       6.502  18.151  20.844  1.00  0.00    -0.027 C 
ATOM      2  C   UNL     1       5.755  19.208  21.190  1.00  0.00    -0.005 C 
ENDROOT
BRANCH   1   3
ATOM      3  C   UNL     1       7.976  18.205  20.544  1.00  0.00     0.027 C 
BRANCH   3   4
ATOM      4  C   UNL     1       8.414  16.993  19.708  1.00  0.00     0.004 C 
BRANCH   4   5
ATOM      5  C   UNL     1       7.243  16.346  18.952  1.00  0.00    -0.003 C 
ATOM      6  C   UNL     1       7.438  16.370  17.436  1.00  0.00     0.004 C 
ENDBRANCH   4   5
ENDBRANCH   3   4
ENDBRANCH   1   3
BRANCH   2   7
ATOM      7  C   UNL     1       6.276  20.587  21.305  1.00  0.00    -0.002 C 
ATOM      8  C   UNL     1       5.713  21.589  20.627  1.00  0.00     0.001 C 
BRANCH   8   9
ATOM      9  C   UNL     1       6.235  22.990  20.728  1.00  0.00     0.183 C 
BRANCH   9  10
ATOM     10  O   UNL     1       6.602  23.467  19.462  1.00  0.00    -0.392 OA
ATOM     11  H   UNL     1       7.593  23.457  19.426  1.00  0.00     0.210 HD
ENDBRANCH   9  10
ENDBRANCH   8   9
ENDBRANCH   2   7
TORSDOF 6
ENDMDL
MODEL 4
REMARK VINA RESULT:    -3.840      3.551      5.030
REMARK INTER + INTRA:          -5.426
REMARK INTER:                  -4.901
REMARK INTRA:                  -0.526
REMARK UNBOUND:                -0.352
REMARK SMILES CCCCC=CC=CCO
REMARK SMILES IDX 5 1 6 2 4 3 3 4 2 5 1 6 7 7 8 8 9 9 10 10
REMARK H PARENT 10 11
REMARK Flexibility Score: inf
ROOT
ATOM      1  C   UNL     1       9.433  17.889  20.936  1.00  0.00    -0.027 C 
ATOM      2  C   UNL     1       9.221  16.799  20.186  1.00  0.00    -0.005 C 
ENDROOT
BRANCH   1   3
ATOM      3  C   UNL     1       8.490  19.057  21.034  1.00  0.00     0.027 C 
BRANCH   3   4
ATOM      4  C   UNL     1       7.870  19.150  22.437  1.00  0.00     0.004 C 
BRANCH   4   5
ATOM      5  C   UNL     1       6.383  18.766  22.450  1.00  0.00    -0.003 C 
ATOM      6  C   UNL     1       5.728  18.910  21.077  1.00  0.00     0.004 C 
ENDBRANCH   4   5
ENDBRANCH   3   4
ENDBRANCH   1   3
BRANCH   2   7
ATOM      7  C   UNL     1       8.032  16.601  19.331  1.00  0.00    -0.002 C 
ATOM      8  C   UNL     1       8.149  16.536  18.003  1.00  0.00     0.001 C 
BRANCH   8   9
ATOM      9  C   UNL     1       6.951  16.343  17.123  1.00  0.00     0.183 C 
BRANCH   9  10
ATOM     10  O   UNL     1       5.858  15.895  17.879  1.00  0.00    -0.392 OA
ATOM     11  H   UNL     1       5.543  16.667  18.417  1.00  0.00     0.210 HD
ENDBRANCH   9  10
ENDBRANCH   8   9
ENDBRANCH   2   7
TORSDOF 6
ENDMDL
MODEL 5
REMARK VINA RESULT:    -3.728      4.034      5.230
REMARK INTER + INTRA:          -5.278
REMARK INTER:                  -5.055
REMARK INTRA:                  -0.223
REMARK UNBOUND:                -0.352
REMARK SMILES CCCCC=CC=CCO
REMARK SMILES IDX 5 1 6 2 4 3 3 4 2 5 1 6 7 7 8 8 9 9 10 10
REMARK H PARENT 10 11
REMARK Flexibility Score: inf
ROOT
ATOM      1  C   UNL     1       7.436  18.792  21.267  1.00  0.00    -0.027 C 
ATOM      2  C   UNL     1       8.192  17.808  20.760  1.00  0.00    -0.005 C 
ENDROOT
BRANCH   1   3
ATOM      3  C   UNL     1       5.952  18.925  21.057  1.00  0.00     0.027 C 
BRANCH   3   4
ATOM      4  C   UNL     1       5.410  20.193  21.734  1.00  0.00     0.004 C 
BRANCH   4   5
ATOM      5  C   UNL     1       4.329  20.891  20.895  1.00  0.00    -0.003 C 
ATOM      6  C   UNL     1       4.909  21.938  19.944  1.00  0.00     0.004 C 
ENDBRANCH   4   5
ENDBRANCH   3   4
ENDBRANCH   1   3
BRANCH   2   7
ATOM      7  C   UNL     1       7.672  16.723  19.903  1.00  0.00    -0.002 C 
ATOM      8  C   UNL     1       7.664  16.846  18.574  1.00  0.00     0.001 C 
BRANCH   8   9
ATOM      9  C   UNL     1       7.133  15.756  17.693  1.00  0.00     0.183 C 
BRANCH   9  10
ATOM     10  O   UNL     1       7.688  14.520  18.057  1.00  0.00    -0.392 OA
ATOM     11  H   UNL     1       7.005  13.828  17.861  1.00  0.00     0.210 HD
ENDBRANCH   9  10
ENDBRANCH   8   9
ENDBRANCH   2   7
TORSDOF 6
ENDMDL
MODEL 6
REMARK VINA RESULT:    -3.550     13.623     15.953
REMARK INTER + INTRA:          -5.043
REMARK INTER:                  -4.647
REMARK INTRA:                  -0.396
REMARK UNBOUND:                -0.352
REMARK SMILES CCCCC=CC=CCO
REMARK SMILES IDX 5 1 6 2 4 3 3 4 2 5 1 6 7 7 8 8 9 9 10 10
REMARK H PARENT 10 11
REMARK Flexibility Score: inf
ROOT
ATOM      1  C   UNL     1      -2.642  15.694   8.825  1.00  0.00    -0.027 C 
ATOM      2  C   UNL     1      -3.281  14.605   9.272  1.00  0.00    -0.005 C 
ENDROOT
BRANCH   1   3
ATOM      3  C   UNL     1      -1.324  16.191   9.355  1.00  0.00     0.027 C 
BRANCH   3   4
ATOM      4  C   UNL     1      -1.473  17.583   9.988  1.00  0.00     0.004 C 
BRANCH   4   5
ATOM      5  C   UNL     1      -0.740  17.698  11.333  1.00  0.00    -0.003 C 
ATOM      6  C   UNL     1       0.039  16.432  11.688  1.00  0.00     0.004 C 
ENDBRANCH   4   5
ENDBRANCH   3   4
ENDBRANCH   1   3
BRANCH   2   7
ATOM      7  C   UNL     1      -2.787  13.747  10.369  1.00  0.00    -0.002 C 
ATOM      8  C   UNL     1      -3.045  12.438  10.382  1.00  0.00     0.001 C 
BRANCH   8   9
ATOM      9  C   UNL     1      -2.556  11.558  11.492  1.00  0.00     0.183 C 
BRANCH   9  10
ATOM     10  O   UNL     1      -1.154  11.518  11.503  1.00  0.00    -0.392 OA
ATOM     11  H   UNL     1      -0.839  12.443  11.330  1.00  0.00     0.210 HD
ENDBRANCH   9  10
ENDBRANCH   8   9
ENDBRANCH   2   7
TORSDOF 6
ENDMDL
MODEL 7
REMARK VINA RESULT:    -3.523     12.608     14.571
REMARK INTER + INTRA:          -5.007
REMARK INTER:                  -4.451
REMARK INTRA:                  -0.556
REMARK UNBOUND:                -0.352
REMARK SMILES CCCCC=CC=CCO
REMARK SMILES IDX 5 1 6 2 4 3 3 4 2 5 1 6 7 7 8 8 9 9 10 10
REMARK H PARENT 10 11
REMARK Flexibility Score: inf
ROOT
ATOM      1  C   UNL     1      -1.670  20.033   9.611  1.00  0.00    -0.027 C 
ATOM      2  C   UNL     1      -1.648  18.693   9.657  1.00  0.00    -0.005 C 
ENDROOT
BRANCH   1   3
ATOM      3  C   UNL     1      -1.524  20.932  10.808  1.00  0.00     0.027 C 
BRANCH   3   4
ATOM      4  C   UNL     1      -0.056  21.335  11.020  1.00  0.00     0.004 C 
BRANCH   4   5
ATOM      5  C   UNL     1       0.554  20.693  12.275  1.00  0.00    -0.003 C 
ATOM      6  C   UNL     1       2.080  20.615  12.212  1.00  0.00     0.004 C 
ENDBRANCH   4   5
ENDBRANCH   3   4
ENDBRANCH   1   3
BRANCH   2   7
ATOM      7  C   UNL     1      -1.496  17.911  10.901  1.00  0.00    -0.002 C 
ATOM      8  C   UNL     1      -0.387  17.204  11.132  1.00  0.00     0.001 C 
BRANCH   8   9
ATOM      9  C   UNL     1      -0.223  16.400  12.386  1.00  0.00     0.183 C 
BRANCH   9  10
ATOM     10  O   UNL     1       0.608  15.295  12.152  1.00  0.00    -0.392 OA
ATOM     11  H   UNL     1       0.242  14.822  11.360  1.00  0.00     0.210 HD
ENDBRANCH   9  10
ENDBRANCH   8   9
ENDBRANCH   2   7
TORSDOF 6
ENDMDL
MODEL 8
REMARK VINA RESULT:    -3.467     17.627     19.847
REMARK INTER + INTRA:          -4.934
REMARK INTER:                  -4.759
REMARK INTRA:                  -0.175
REMARK UNBOUND:                -0.352
REMARK SMILES CCCCC=CC=CCO
REMARK SMILES IDX 5 1 6 2 4 3 3 4 2 5 1 6 7 7 8 8 9 9 10 10
REMARK H PARENT 10 11
REMARK Flexibility Score: inf
ROOT
ATOM      1  C   UNL     1      -1.888  25.047   8.149  1.00  0.00    -0.027 C 
ATOM      2  C   UNL     1      -3.052  24.486   7.795  1.00  0.00    -0.005 C 
ENDROOT
BRANCH   1   3
ATOM      3  C   UNL     1      -0.558  24.344   8.131  1.00  0.00     0.027 C 
BRANCH   3   4
ATOM      4  C   UNL     1       0.601  25.352   8.167  1.00  0.00     0.004 C 
BRANCH   4   5
ATOM      5  C   UNL     1       1.495  25.176   9.404  1.00  0.00    -0.003 C 
ATOM      6  C   UNL     1       2.777  26.004   9.325  1.00  0.00     0.004 C 
ENDBRANCH   4   5
ENDBRANCH   3   4
ENDBRANCH   1   3
BRANCH   2   7
ATOM      7  C   UNL     1      -3.194  23.083   7.353  1.00  0.00    -0.002 C 
ATOM      8  C   UNL     1      -4.049  22.755   6.383  1.00  0.00     0.001 C 
BRANCH   8   9
ATOM      9  C   UNL     1      -4.208  21.335   5.931  1.00  0.00     0.183 C 
BRANCH   9  10
ATOM     10  O   UNL     1      -4.325  21.277   4.534  1.00  0.00    -0.392 OA
ATOM     11  H   UNL     1      -3.990  20.387   4.253  1.00  0.00     0.210 HD
ENDBRANCH   9  10
ENDBRANCH   8   9
ENDBRANCH   2   7
TORSDOF 6
ENDMDL
MODEL 9
REMARK VINA RESULT:    -3.448     14.980     18.738
REMARK INTER + INTRA:          -4.909
REMARK INTER:                  -4.661
REMARK INTRA:                  -0.248
REMARK UNBOUND:                -0.352
REMARK SMILES CCCCC=CC=CCO
REMARK SMILES IDX 5 1 6 2 4 3 3 4 2 5 1 6 7 7 8 8 9 9 10 10
REMARK H PARENT 10 11
REMARK Flexibility Score: inf
ROOT
ATOM      1  C   UNL     1      -2.690  16.454   8.276  1.00  0.00    -0.027 C 
ATOM      2  C   UNL     1      -3.659  16.815   7.423  1.00  0.00    -0.005 C 
ENDROOT
BRANCH   1   3
ATOM      3  C   UNL     1      -1.474  17.282   8.590  1.00  0.00     0.027 C 
BRANCH   3   4
ATOM      4  C   UNL     1      -1.408  17.619  10.088  1.00  0.00     0.004 C 
BRANCH   4   5
ATOM      5  C   UNL     1      -1.165  16.378  10.960  1.00  0.00    -0.003 C 
ATOM      6  C   UNL     1       0.106  16.492  11.802  1.00  0.00     0.004 C 
ENDBRANCH   4   5
ENDBRANCH   3   4
ENDBRANCH   1   3
BRANCH   2   7
ATOM      7  C   UNL     1      -3.656  18.077   6.654  1.00  0.00    -0.002 C 
ATOM      8  C   UNL     1      -4.074  18.106   5.387  1.00  0.00     0.001 C 
BRANCH   8   9
ATOM      9  C   UNL     1      -4.069  19.377   4.593  1.00  0.00     0.183 C 
BRANCH   9  10
ATOM     10  O   UNL     1      -3.206  19.263   3.493  1.00  0.00    -0.392 OA
ATOM     11  H   UNL     1      -3.400  20.029   2.894  1.00  0.00     0.210 HD
ENDBRANCH   9  10
ENDBRANCH   8   9
ENDBRANCH   2   7
TORSDOF 6
ENDMDL
