MODEL 1
REMARK VINA RESULT:    -4.528      0.000      0.000
REMARK INTER + INTRA:          -6.085
REMARK INTER:                  -5.851
REMARK INTRA:                  -0.234
REMARK UNBOUND:                -0.234
REMARK SMILES CCO[C@@H]1O[C@H](CO)[C@H](O)[C@@H](O)[C@@H]1O
REMARK SMILES IDX 4 1 13 2 11 3 9 4 6 5 5 6 3 7 2 8 1 9 14 10 12 12 7 14 8 15
REMARK SMILES IDX 10 17
REMARK H PARENT 14 11 12 13 8 16 10 18
REMARK Flexibility Score: inf
ROOT
ATOM      1  C   UNL     1      34.583 139.387 -31.476  1.00  0.00     0.281 C 
ATOM      2  C   UNL     1      34.939 140.752 -30.839  1.00  0.00     0.202 C 
ATOM      3  C   UNL     1      34.035 141.064 -29.615  1.00  0.00     0.179 C 
ATOM      4  C   UNL     1      33.414 139.776 -29.042  1.00  0.00     0.177 C 
ATOM      5  C   UNL     1      32.683 138.960 -30.167  1.00  0.00     0.178 C 
ATOM      6  O   UNL     1      33.175 139.238 -31.474  1.00  0.00    -0.341 OA
ENDROOT
BRANCH   1   7
ATOM      7  O   UNL     1      35.070 139.338 -32.805  1.00  0.00    -0.350 OA
BRANCH   7   8
ATOM      8  C   UNL     1      35.227 138.001 -33.249  1.00  0.00     0.160 C 
ATOM      9  C   UNL     1      34.569 137.818 -34.611  1.00  0.00     0.035 C 
ENDBRANCH   7   8
ENDBRANCH   1   7
BRANCH   2  10
ATOM     10  O   UNL     1      34.853 141.795 -31.781  1.00  0.00    -0.385 OA
ATOM     11  H   UNL     1      35.325 141.495 -32.601  1.00  0.00     0.211 HD
ENDBRANCH   2  10
BRANCH   3  12
ATOM     12  O   UNL     1      34.799 141.705 -28.625  1.00  0.00    -0.387 OA
ATOM     13  H   UNL     1      35.240 142.484 -29.052  1.00  0.00     0.211 HD
ENDBRANCH   3  12
BRANCH   5  14
ATOM     14  C   UNL     1      31.164 139.201 -30.179  1.00  0.00     0.191 C 
BRANCH  14  15
ATOM     15  O   UNL     1      30.809 140.057 -31.235  1.00  0.00    -0.394 OA
ATOM     16  H   UNL     1      29.835 139.941 -31.382  1.00  0.00     0.210 HD
ENDBRANCH  14  15
ENDBRANCH   5  14
BRANCH   4  17
ATOM     17  O   UNL     1      32.558 140.101 -27.976  1.00  0.00    -0.387 OA
ATOM     18  H   UNL     1      32.260 139.243 -27.573  1.00  0.00     0.211 HD
ENDBRANCH   4  17
TORSDOF 7
ENDMDL
MODEL 2
REMARK VINA RESULT:    -4.468      1.726      2.270
REMARK INTER + INTRA:          -6.007
REMARK INTER:                  -5.665
REMARK INTRA:                  -0.342
REMARK UNBOUND:                -0.234
REMARK SMILES CCO[C@@H]1O[C@H](CO)[C@H](O)[C@@H](O)[C@@H]1O
REMARK SMILES IDX 4 1 13 2 11 3 9 4 6 5 5 6 3 7 2 8 1 9 14 10 12 12 7 14 8 15
REMARK SMILES IDX 10 17
REMARK H PARENT 14 11 12 13 8 16 10 18
REMARK Flexibility Score: inf
ROOT
ATOM      1  C   UNL     1      34.358 137.881 -31.831  1.00  0.00     0.281 C 
ATOM      2  C   UNL     1      34.822 139.180 -32.534  1.00  0.00     0.202 C 
ATOM      3  C   UNL     1      34.281 140.444 -31.810  1.00  0.00     0.179 C 
ATOM      4  C   UNL     1      33.896 140.127 -30.353  1.00  0.00     0.177 C 
ATOM      5  C   UNL     1      32.914 138.903 -30.289  1.00  0.00     0.178 C 
ATOM      6  O   UNL     1      33.013 138.043 -31.419  1.00  0.00    -0.341 OA
ENDROOT
BRANCH   1   7
ATOM      7  O   UNL     1      34.459 136.791 -32.729  1.00  0.00    -0.350 OA
BRANCH   7   8
ATOM      8  C   UNL     1      33.829 135.632 -32.208  1.00  0.00     0.160 C 
ATOM      9  C   UNL     1      33.441 134.689 -33.340  1.00  0.00     0.035 C 
ENDBRANCH   7   8
ENDBRANCH   1   7
BRANCH   2  10
ATOM     10  O   UNL     1      34.436 139.196 -33.888  1.00  0.00    -0.385 OA
ATOM     11  H   UNL     1      33.568 139.673 -33.943  1.00  0.00     0.211 HD
ENDBRANCH   2  10
BRANCH   3  12
ATOM     12  O   UNL     1      35.264 141.448 -31.835  1.00  0.00    -0.387 OA
ATOM     13  H   UNL     1      36.146 140.997 -31.893  1.00  0.00     0.211 HD
ENDBRANCH   3  12
BRANCH   5  14
ATOM     14  C   UNL     1      31.443 139.332 -30.156  1.00  0.00     0.191 C 
BRANCH  14  15
ATOM     15  O   UNL     1      31.060 140.124 -31.251  1.00  0.00    -0.394 OA
ATOM     16  H   UNL     1      31.300 141.060 -31.025  1.00  0.00     0.210 HD
ENDBRANCH  14  15
ENDBRANCH   5  14
BRANCH   4  17
ATOM     17  O   UNL     1      33.356 141.276 -29.750  1.00  0.00    -0.387 OA
ATOM     18  H   UNL     1      32.400 141.082 -29.563  1.00  0.00     0.211 HD
ENDBRANCH   4  17
TORSDOF 7
ENDMDL
MODEL 3
REMARK VINA RESULT:    -4.462      2.062      4.174
REMARK INTER + INTRA:          -6.000
REMARK INTER:                  -5.604
REMARK INTRA:                  -0.396
REMARK UNBOUND:                -0.234
REMARK SMILES CCO[C@@H]1O[C@H](CO)[C@H](O)[C@@H](O)[C@@H]1O
REMARK SMILES IDX 4 1 13 2 11 3 9 4 6 5 5 6 3 7 2 8 1 9 14 10 12 12 7 14 8 15
REMARK SMILES IDX 10 17
REMARK H PARENT 14 11 12 13 8 16 10 18
REMARK Flexibility Score: inf
ROOT
ATOM      1  C   UNL     1      33.789 141.006 -28.462  1.00  0.00     0.281 C 
ATOM      2  C   UNL     1      34.407 140.743 -29.858  1.00  0.00     0.202 C 
ATOM      3  C   UNL     1      33.329 140.293 -30.882  1.00  0.00     0.179 C 
ATOM      4  C   UNL     1      31.921 140.720 -30.430  1.00  0.00     0.177 C 
ATOM      5  C   UNL     1      31.633 140.230 -28.965  1.00  0.00     0.178 C 
ATOM      6  O   UNL     1      32.815 140.013 -28.202  1.00  0.00    -0.341 OA
ENDROOT
BRANCH   1   7
ATOM      7  O   UNL     1      34.803 140.957 -27.475  1.00  0.00    -0.350 OA
BRANCH   7   8
ATOM      8  C   UNL     1      35.425 142.220 -27.310  1.00  0.00     0.160 C 
ATOM      9  C   UNL     1      36.940 142.064 -27.296  1.00  0.00     0.035 C 
ENDBRANCH   7   8
ENDBRANCH   1   7
BRANCH   2  10
ATOM     10  O   UNL     1      35.437 139.785 -29.789  1.00  0.00    -0.385 OA
ATOM     11  H   UNL     1      35.830 139.708 -30.697  1.00  0.00     0.211 HD
ENDBRANCH   2  10
BRANCH   3  12
ATOM     12  O   UNL     1      33.617 140.858 -32.136  1.00  0.00    -0.387 OA
ATOM     13  H   UNL     1      33.611 141.845 -32.024  1.00  0.00     0.211 HD
ENDBRANCH   3  12
BRANCH   5  14
ATOM     14  C   UNL     1      30.808 138.932 -28.928  1.00  0.00     0.191 C 
BRANCH  14  15
ATOM     15  O   UNL     1      29.442 139.212 -29.101  1.00  0.00    -0.394 OA
ATOM     16  H   UNL     1      29.195 139.875 -28.405  1.00  0.00     0.210 HD
ENDBRANCH  14  15
ENDBRANCH   5  14
BRANCH   4  17
ATOM     17  O   UNL     1      30.968 140.246 -31.348  1.00  0.00    -0.387 OA
ATOM     18  H   UNL     1      31.405 139.521 -31.868  1.00  0.00     0.211 HD
ENDBRANCH   4  17
TORSDOF 7
ENDMDL
MODEL 4
REMARK VINA RESULT:    -4.117     13.565     15.218
REMARK INTER + INTRA:          -5.555
REMARK INTER:                  -5.203
REMARK INTRA:                  -0.352
REMARK UNBOUND:                -0.234
REMARK SMILES CCO[C@@H]1O[C@H](CO)[C@H](O)[C@@H](O)[C@@H]1O
REMARK SMILES IDX 4 1 13 2 11 3 9 4 6 5 5 6 3 7 2 8 1 9 14 10 12 12 7 14 8 15
REMARK SMILES IDX 10 17
REMARK H PARENT 14 11 12 13 8 16 10 18
REMARK Flexibility Score: inf
ROOT
ATOM      1  C   UNL     1      33.598 142.495 -45.626  1.00  0.00     0.281 C 
ATOM      2  C   UNL     1      32.378 142.175 -44.728  1.00  0.00     0.202 C 
ATOM      3  C   UNL     1      31.265 143.249 -44.874  1.00  0.00     0.179 C 
ATOM      4  C   UNL     1      31.411 144.022 -46.197  1.00  0.00     0.177 C 
ATOM      5  C   UNL     1      32.863 144.603 -46.347  1.00  0.00     0.178 C 
ATOM      6  O   UNL     1      33.835 143.891 -45.590  1.00  0.00    -0.341 OA
ENDROOT
BRANCH   1   7
ATOM      7  O   UNL     1      34.736 141.801 -45.149  1.00  0.00    -0.350 OA
BRANCH   7   8
ATOM      8  C   UNL     1      35.923 142.549 -45.358  1.00  0.00     0.160 C 
ATOM      9  C   UNL     1      36.947 142.227 -44.277  1.00  0.00     0.035 C 
ENDBRANCH   7   8
ENDBRANCH   1   7
BRANCH   2  10
ATOM     10  O   UNL     1      32.755 142.051 -43.376  1.00  0.00    -0.385 OA
ATOM     11  H   UNL     1      32.647 141.097 -43.125  1.00  0.00     0.211 HD
ENDBRANCH   2  10
BRANCH   3  12
ATOM     12  O   UNL     1      30.008 142.623 -44.825  1.00  0.00    -0.387 OA
ATOM     13  H   UNL     1      30.165 141.643 -44.846  1.00  0.00     0.211 HD
ENDBRANCH   3  12
BRANCH   5  14
ATOM     14  C   UNL     1      32.950 146.085 -45.944  1.00  0.00     0.191 C 
BRANCH  14  15
ATOM     15  O   UNL     1      32.479 146.267 -44.634  1.00  0.00    -0.394 OA
ATOM     16  H   UNL     1      31.948 145.461 -44.406  1.00  0.00     0.210 HD
ENDBRANCH  14  15
ENDBRANCH   5  14
BRANCH   4  17
ATOM     17  O   UNL     1      30.426 145.023 -46.268  1.00  0.00    -0.387 OA
ATOM     18  H   UNL     1      30.730 145.769 -45.686  1.00  0.00     0.211 HD
ENDBRANCH   4  17
TORSDOF 7
ENDMDL
MODEL 5
REMARK VINA RESULT:    -4.027      2.510      5.241
REMARK INTER + INTRA:          -5.438
REMARK INTER:                  -5.070
REMARK INTRA:                  -0.368
REMARK UNBOUND:                -0.234
REMARK SMILES CCO[C@@H]1O[C@H](CO)[C@H](O)[C@@H](O)[C@@H]1O
REMARK SMILES IDX 4 1 13 2 11 3 9 4 6 5 5 6 3 7 2 8 1 9 14 10 12 12 7 14 8 15
REMARK SMILES IDX 10 17
REMARK H PARENT 14 11 12 13 8 16 10 18
REMARK Flexibility Score: inf
ROOT
ATOM      1  C   UNL     1      32.156 139.629 -27.906  1.00  0.00     0.281 C 
ATOM      2  C   UNL     1      31.566 140.169 -29.232  1.00  0.00     0.202 C 
ATOM      3  C   UNL     1      32.635 140.930 -30.063  1.00  0.00     0.179 C 
ATOM      4  C   UNL     1      34.059 140.516 -29.649  1.00  0.00     0.177 C 
ATOM      5  C   UNL     1      34.254 140.663 -28.097  1.00  0.00     0.178 C 
ATOM      6  O   UNL     1      33.032 140.603 -27.369  1.00  0.00    -0.341 OA
ENDROOT
BRANCH   1   7
ATOM      7  O   UNL     1      31.109 139.365 -26.991  1.00  0.00    -0.350 OA
BRANCH   7   8
ATOM      8  C   UNL     1      30.578 138.063 -27.175  1.00  0.00     0.160 C 
ATOM      9  C   UNL     1      29.060 138.125 -27.286  1.00  0.00     0.035 C 
ENDBRANCH   7   8
ENDBRANCH   1   7
BRANCH   2  10
ATOM     10  O   UNL     1      30.455 141.002 -28.996  1.00  0.00    -0.385 OA
ATOM     11  H   UNL     1      29.639 140.455 -29.138  1.00  0.00     0.211 HD
ENDBRANCH   2  10
BRANCH   3  12
ATOM     12  O   UNL     1      32.439 140.660 -31.428  1.00  0.00    -0.387 OA
ATOM     13  H   UNL     1      32.489 139.675 -31.544  1.00  0.00     0.211 HD
ENDBRANCH   3  12
BRANCH   5  14
ATOM     14  C   UNL     1      34.962 141.974 -27.713  1.00  0.00     0.191 C 
BRANCH  14  15
ATOM     15  O   UNL     1      36.324 141.915 -28.052  1.00  0.00    -0.394 OA
ATOM     16  H   UNL     1      36.453 142.524 -28.825  1.00  0.00     0.210 HD
ENDBRANCH  14  15
ENDBRANCH   5  14
BRANCH   4  17
ATOM     17  O   UNL     1      34.998 141.265 -30.379  1.00  0.00    -0.387 OA
ATOM     18  H   UNL     1      34.488 141.953 -30.884  1.00  0.00     0.211 HD
ENDBRANCH   4  17
TORSDOF 7
ENDMDL
MODEL 6
REMARK VINA RESULT:    -4.027     12.676     13.915
REMARK INTER + INTRA:          -5.438
REMARK INTER:                  -5.277
REMARK INTRA:                  -0.161
REMARK UNBOUND:                -0.234
REMARK SMILES CCO[C@@H]1O[C@H](CO)[C@H](O)[C@@H](O)[C@@H]1O
REMARK SMILES IDX 4 1 13 2 11 3 9 4 6 5 5 6 3 7 2 8 1 9 14 10 12 12 7 14 8 15
REMARK SMILES IDX 10 17
REMARK H PARENT 14 11 12 13 8 16 10 18
REMARK Flexibility Score: inf
ROOT
ATOM      1  C   UNL     1      35.324 141.900 -45.210  1.00  0.00     0.281 C 
ATOM      2  C   UNL     1      36.292 141.197 -44.226  1.00  0.00     0.202 C 
ATOM      3  C   UNL     1      35.559 140.123 -43.375  1.00  0.00     0.179 C 
ATOM      4  C   UNL     1      34.254 139.670 -44.057  1.00  0.00     0.177 C 
ATOM      5  C   UNL     1      33.353 140.906 -44.414  1.00  0.00     0.178 C 
ATOM      6  O   UNL     1      34.088 142.117 -44.554  1.00  0.00    -0.341 OA
ENDROOT
BRANCH   1   7
ATOM      7  O   UNL     1      35.877 143.137 -45.619  1.00  0.00    -0.350 OA
BRANCH   7   8
ATOM      8  C   UNL     1      35.611 143.394 -46.988  1.00  0.00     0.160 C 
ATOM      9  C   UNL     1      34.527 144.455 -47.124  1.00  0.00     0.035 C 
ENDBRANCH   7   8
ENDBRANCH   1   7
BRANCH   2  10
ATOM     10  O   UNL     1      36.931 142.126 -43.384  1.00  0.00    -0.385 OA
ATOM     11  H   UNL     1      36.314 142.895 -43.268  1.00  0.00     0.211 HD
ENDBRANCH   2  10
BRANCH   3  12
ATOM     12  O   UNL     1      36.408 139.018 -43.192  1.00  0.00    -0.387 OA
ATOM     13  H   UNL     1      37.316 139.372 -43.005  1.00  0.00     0.211 HD
ENDBRANCH   3  12
BRANCH   5  14
ATOM     14  C   UNL     1      32.246 141.150 -43.374  1.00  0.00     0.191 C 
BRANCH  14  15
ATOM     15  O   UNL     1      31.875 142.504 -43.357  1.00  0.00    -0.394 OA
ATOM     16  H   UNL     1      32.661 143.012 -43.024  1.00  0.00     0.210 HD
ENDBRANCH  14  15
ENDBRANCH   5  14
BRANCH   4  17
ATOM     17  O   UNL     1      33.590 138.745 -43.233  1.00  0.00    -0.387 OA
ATOM     18  H   UNL     1      32.619 138.943 -43.302  1.00  0.00     0.211 HD
ENDBRANCH   4  17
TORSDOF 7
ENDMDL
MODEL 7
REMARK VINA RESULT:    -3.938      1.904      2.310
REMARK INTER + INTRA:          -5.323
REMARK INTER:                  -4.927
REMARK INTRA:                  -0.396
REMARK UNBOUND:                -0.234
REMARK SMILES CCO[C@@H]1O[C@H](CO)[C@H](O)[C@@H](O)[C@@H]1O
REMARK SMILES IDX 4 1 13 2 11 3 9 4 6 5 5 6 3 7 2 8 1 9 14 10 12 12 7 14 8 15
REMARK SMILES IDX 10 17
REMARK H PARENT 14 11 12 13 8 16 10 18
REMARK Flexibility Score: inf
ROOT
ATOM      1  C   UNL     1      35.230 138.633 -32.998  1.00  0.00     0.281 C 
ATOM      2  C   UNL     1      35.024 140.159 -32.835  1.00  0.00     0.202 C 
ATOM      3  C   UNL     1      34.513 140.517 -31.413  1.00  0.00     0.179 C 
ATOM      4  C   UNL     1      34.838 139.397 -30.408  1.00  0.00     0.177 C 
ATOM      5  C   UNL     1      34.314 138.011 -30.929  1.00  0.00     0.178 C 
ATOM      6  O   UNL     1      34.169 137.960 -32.344  1.00  0.00    -0.341 OA
ENDROOT
BRANCH   1   7
ATOM      7  O   UNL     1      35.239 138.297 -34.373  1.00  0.00    -0.350 OA
BRANCH   7   8
ATOM      8  C   UNL     1      34.283 137.292 -34.666  1.00  0.00     0.160 C 
ATOM      9  C   UNL     1      34.829 136.335 -35.718  1.00  0.00     0.035 C 
ENDBRANCH   7   8
ENDBRANCH   1   7
BRANCH   2  10
ATOM     10  O   UNL     1      34.139 140.663 -33.807  1.00  0.00    -0.385 OA
ATOM     11  H   UNL     1      33.232 140.327 -33.585  1.00  0.00     0.211 HD
ENDBRANCH   2  10
BRANCH   3  12
ATOM     12  O   UNL     1      35.110 141.719 -30.994  1.00  0.00    -0.387 OA
ATOM     13  H   UNL     1      35.700 141.503 -30.226  1.00  0.00     0.211 HD
ENDBRANCH   3  12
BRANCH   5  14
ATOM     14  C   UNL     1      32.962 137.619 -30.307  1.00  0.00     0.191 C 
BRANCH  14  15
ATOM     15  O   UNL     1      33.151 137.047 -29.039  1.00  0.00    -0.394 OA
ATOM     16  H   UNL     1      32.978 137.763 -28.374  1.00  0.00     0.210 HD
ENDBRANCH  14  15
ENDBRANCH   5  14
BRANCH   4  17
ATOM     17  O   UNL     1      34.310 139.727 -29.148  1.00  0.00    -0.387 OA
ATOM     18  H   UNL     1      34.976 140.314 -28.701  1.00  0.00     0.211 HD
ENDBRANCH   4  17
TORSDOF 7
ENDMDL
MODEL 8
REMARK VINA RESULT:    -3.936      1.559      4.450
REMARK INTER + INTRA:          -5.321
REMARK INTER:                  -4.974
REMARK INTRA:                  -0.347
REMARK UNBOUND:                -0.234
REMARK SMILES CCO[C@@H]1O[C@H](CO)[C@H](O)[C@@H](O)[C@@H]1O
REMARK SMILES IDX 4 1 13 2 11 3 9 4 6 5 5 6 3 7 2 8 1 9 14 10 12 12 7 14 8 15
REMARK SMILES IDX 10 17
REMARK H PARENT 14 11 12 13 8 16 10 18
REMARK Flexibility Score: inf
ROOT
ATOM      1  C   UNL     1      32.202 139.893 -28.928  1.00  0.00     0.281 C 
ATOM      2  C   UNL     1      33.398 140.423 -28.100  1.00  0.00     0.202 C 
ATOM      3  C   UNL     1      34.583 140.842 -29.014  1.00  0.00     0.179 C 
ATOM      4  C   UNL     1      34.103 141.123 -30.450  1.00  0.00     0.177 C 
ATOM      5  C   UNL     1      33.281 139.908 -31.012  1.00  0.00     0.178 C 
ATOM      6  O   UNL     1      32.699 139.103 -29.992  1.00  0.00    -0.341 OA
ENDROOT
BRANCH   1   7
ATOM      7  O   UNL     1      31.358 139.113 -28.102  1.00  0.00    -0.350 OA
BRANCH   7   8
ATOM      8  C   UNL     1      30.052 139.661 -28.032  1.00  0.00     0.160 C 
ATOM      9  C   UNL     1      29.026 138.554 -27.824  1.00  0.00     0.035 C 
ENDBRANCH   7   8
ENDBRANCH   1   7
BRANCH   2  10
ATOM     10  O   UNL     1      33.829 139.471 -27.157  1.00  0.00    -0.385 OA
ATOM     11  H   UNL     1      34.725 139.754 -26.838  1.00  0.00     0.211 HD
ENDBRANCH   2  10
BRANCH   3  12
ATOM     12  O   UNL     1      35.193 141.991 -28.483  1.00  0.00    -0.387 OA
ATOM     13  H   UNL     1      34.534 142.730 -28.544  1.00  0.00     0.211 HD
ENDBRANCH   3  12
BRANCH   5  14
ATOM     14  C   UNL     1      34.126 138.988 -31.909  1.00  0.00     0.191 C 
BRANCH  14  15
ATOM     15  O   UNL     1      34.249 139.533 -33.197  1.00  0.00    -0.394 OA
ATOM     16  H   UNL     1      34.681 138.840 -33.761  1.00  0.00     0.210 HD
ENDBRANCH  14  15
ENDBRANCH   5  14
BRANCH   4  17
ATOM     17  O   UNL     1      35.207 141.441 -31.260  1.00  0.00    -0.387 OA
ATOM     18  H   UNL     1      35.886 141.863 -30.671  1.00  0.00     0.211 HD
ENDBRANCH   4  17
TORSDOF 7
ENDMDL
MODEL 9
REMARK VINA RESULT:    -3.906      2.100      4.286
REMARK INTER + INTRA:          -5.282
REMARK INTER:                  -4.893
REMARK INTRA:                  -0.389
REMARK UNBOUND:                -0.234
REMARK SMILES CCO[C@@H]1O[C@H](CO)[C@H](O)[C@@H](O)[C@@H]1O
REMARK SMILES IDX 4 1 13 2 11 3 9 4 6 5 5 6 3 7 2 8 1 9 14 10 12 12 7 14 8 15
REMARK SMILES IDX 10 17
REMARK H PARENT 14 11 12 13 8 16 10 18
REMARK Flexibility Score: inf
ROOT
ATOM      1  C   UNL     1      33.914 139.329 -28.448  1.00  0.00     0.281 C 
ATOM      2  C   UNL     1      32.551 139.810 -27.892  1.00  0.00     0.202 C 
ATOM      3  C   UNL     1      31.629 140.343 -29.023  1.00  0.00     0.179 C 
ATOM      4  C   UNL     1      32.059 139.791 -30.395  1.00  0.00     0.177 C 
ATOM      5  C   UNL     1      33.585 140.062 -30.652  1.00  0.00     0.178 C 
ATOM      6  O   UNL     1      34.337 140.230 -29.455  1.00  0.00    -0.341 OA
ENDROOT
BRANCH   1   7
ATOM      7  O   UNL     1      34.869 139.291 -27.403  1.00  0.00    -0.350 OA
BRANCH   7   8
ATOM      8  C   UNL     1      36.059 139.971 -27.767  1.00  0.00     0.160 C 
ATOM      9  C   UNL     1      37.255 139.032 -27.661  1.00  0.00     0.035 C 
ENDBRANCH   7   8
ENDBRANCH   1   7
BRANCH   2  10
ATOM     10  O   UNL     1      32.721 140.797 -26.902  1.00  0.00    -0.385 OA
ATOM     11  H   UNL     1      33.653 141.129 -26.972  1.00  0.00     0.211 HD
ENDBRANCH   2  10
BRANCH   3  12
ATOM     12  O   UNL     1      30.302 139.968 -28.755  1.00  0.00    -0.387 OA
ATOM     13  H   UNL     1      30.250 139.737 -27.791  1.00  0.00     0.211 HD
ENDBRANCH   3  12
BRANCH   5  14
ATOM     14  C   UNL     1      33.824 141.302 -31.531  1.00  0.00     0.191 C 
BRANCH  14  15
ATOM     15  O   UNL     1      33.894 140.939 -32.886  1.00  0.00    -0.394 OA
ATOM     16  H   UNL     1      33.054 140.454 -33.096  1.00  0.00     0.210 HD
ENDBRANCH  14  15
ENDBRANCH   5  14
BRANCH   4  17
ATOM     17  O   UNL     1      31.243 140.340 -31.399  1.00  0.00    -0.387 OA
ATOM     18  H   UNL     1      31.736 140.243 -32.256  1.00  0.00     0.211 HD
ENDBRANCH   4  17
TORSDOF 7
ENDMDL
