MODEL 1
REMARK VINA RESULT:    -3.291      0.000      0.000
REMARK INTER + INTRA:          -5.428
REMARK INTER:                  -4.830
REMARK INTRA:                  -0.597
REMARK UNBOUND:                -0.597
REMARK SMILES C=C1C=C[C@@H](C(C)C)CCC(C)=CCC1
REMARK SMILES IDX 3 1 4 2 5 3 9 4 10 5 11 6 12 7 13 8 6 10 7 11 8 12 2 13 1 14
REMARK SMILES IDX 15 15 14 16
REMARK H PARENT
REMARK Flexibility Score: 70.00
ROOT
ATOM      1  C   UNL     1       2.563  13.912  15.149  1.00  0.00    -0.001 C 
ATOM      2  C   UNL     1       1.993  14.455  16.234  1.00  0.00    -0.023 C 
ENDROOT
BRANCH   2   3
ATOM      3  C   UNL     1       0.505  14.648  16.443  1.00  0.00     0.014 C 
BRANCH   3   4
ATOM      4  C   UNL     1       0.161  16.156  16.428  1.00  0.00     0.012 C 
BRANCH   4   5
ATOM      5  C   UNL     1       1.153  17.002  15.607  1.00  0.00     0.031 C 
BRANCH   5   6
ATOM      6  C   UNL     1       0.598  17.389  14.247  1.00  0.00    -0.077 C 
ATOM      7  C   UNL     1      -0.556  18.358  14.204  1.00  0.00     0.039 C 
ATOM      8  C   UNL     1       1.059  16.903  13.068  1.00  0.00    -0.028 CG0
ATOM      9  G   UNL     1       2.139  15.863  12.882  1.00  0.00     0.000 G0
ENDBRANCH   5   6
ENDBRANCH   4   5
ENDBRANCH   3   4
BRANCH   3  10
ATOM     10  C   UNL     1       0.050  13.915  17.741  1.00  0.00    -0.010 C 
ATOM     11  C   UNL     1       1.244  13.518  18.626  1.00  0.00     0.008 C 
ATOM     12  C   UNL     1      -0.846  12.692  17.482  1.00  0.00     0.008 C 
ENDBRANCH   3  10
ENDBRANCH   2   3
BRANCH   1  13
ATOM     13  C   UNL     1       1.854  13.494  13.916  1.00  0.00    -0.055 C 
ATOM     14  C   UNL     1       1.527  12.204  13.795  1.00  0.00     0.012 C 
BRANCH  13  15
ATOM     15  C   UNL     1       1.517  14.442  12.776  1.00  0.00     0.039 C 
BRANCH  15  16
ATOM     16  C   UNL     1       2.134  15.858  12.887  1.00  0.00     0.032 CG0
ATOM     17  G   UNL     1       1.063  16.906  13.077  1.00  0.00     0.000 G0
ENDBRANCH  15  16
ENDBRANCH  13  15
ENDBRANCH   1  13
TORSDOF 1
ENDMDL
MODEL 2
REMARK VINA RESULT:    -3.281      1.725      3.834
REMARK INTER + INTRA:          -5.413
REMARK INTER:                  -5.013
REMARK INTRA:                  -0.401
REMARK UNBOUND:                -0.597
REMARK SMILES C=C1C=C[C@@H](C(C)C)CCC(C)=CCC1
REMARK SMILES IDX 3 1 4 2 5 3 9 4 10 5 11 6 12 7 13 8 6 10 7 11 8 12 2 13 1 14
REMARK SMILES IDX 15 15 14 16
REMARK H PARENT
REMARK Flexibility Score: 70.00
ROOT
ATOM      1  C   UNL     1       1.191  13.173  16.689  1.00  0.00    -0.001 C 
ATOM      2  C   UNL     1       1.490  12.938  15.402  1.00  0.00    -0.023 C 
ENDROOT
BRANCH   2   3
ATOM      3  C   UNL     1       2.138  13.926  14.455  1.00  0.00     0.014 C 
BRANCH   3   4
ATOM      4  C   UNL     1       1.067  14.882  13.875  1.00  0.00     0.012 C 
BRANCH   4   5
ATOM      5  C   UNL     1       1.524  16.352  13.823  1.00  0.00     0.031 C 
BRANCH   5   6
ATOM      6  C   UNL     1       0.460  17.307  14.336  1.00  0.00    -0.077 C 
ATOM      7  C   UNL     1      -0.355  18.068  13.322  1.00  0.00     0.039 C 
ATOM      8  C   UNL     1       0.211  17.538  15.649  1.00  0.00    -0.028 CG0
ATOM      9  G   UNL     1       0.962  16.959  16.825  1.00  0.00     0.000 G0
ENDBRANCH   5   6
ENDBRANCH   4   5
ENDBRANCH   3   4
BRANCH   3  10
ATOM     10  C   UNL     1       2.954  13.165  13.366  1.00  0.00    -0.010 C 
ATOM     11  C   UNL     1       4.227  13.928  12.965  1.00  0.00     0.008 C 
ATOM     12  C   UNL     1       2.134  12.807  12.115  1.00  0.00     0.008 C 
ENDBRANCH   3  10
ENDBRANCH   2   3
BRANCH   1  13
ATOM     13  C   UNL     1       1.346  14.469  17.390  1.00  0.00    -0.055 C 
ATOM     14  C   UNL     1       2.403  14.617  18.195  1.00  0.00     0.012 C 
BRANCH  13  15
ATOM     15  C   UNL     1       0.354  15.615  17.272  1.00  0.00     0.039 C 
BRANCH  15  16
ATOM     16  C   UNL     1       0.958  16.971  16.832  1.00  0.00     0.032 CG0
ATOM     17  G   UNL     1       0.203  17.549  15.657  1.00  0.00     0.000 G0
ENDBRANCH  15  16
ENDBRANCH  13  15
ENDBRANCH   1  13
TORSDOF 1
ENDMDL
MODEL 3
REMARK VINA RESULT:    -3.126      2.027      4.742
REMARK INTER + INTRA:          -5.186
REMARK INTER:                  -4.572
REMARK INTRA:                  -0.614
REMARK UNBOUND:                -0.597
REMARK SMILES C=C1C=C[C@@H](C(C)C)CCC(C)=CCC1
REMARK SMILES IDX 3 1 4 2 5 3 9 4 10 5 11 6 12 7 13 8 6 10 7 11 8 12 2 13 1 14
REMARK SMILES IDX 15 15 14 16
REMARK H PARENT
REMARK Flexibility Score: 70.00
ROOT
ATOM      1  C   UNL     1       1.441  15.174  17.695  1.00  0.00    -0.001 C 
ATOM      2  C   UNL     1       1.732  16.022  16.697  1.00  0.00    -0.023 C 
ENDROOT
BRANCH   2   3
ATOM      3  C   UNL     1       0.928  16.193  15.425  1.00  0.00     0.014 C 
BRANCH   3   4
ATOM      4  C   UNL     1       1.599  15.416  14.267  1.00  0.00     0.012 C 
BRANCH   4   5
ATOM      5  C   UNL     1       0.665  14.389  13.599  1.00  0.00     0.031 C 
BRANCH   5   6
ATOM      6  C   UNL     1       1.163  12.963  13.759  1.00  0.00    -0.077 C 
ATOM      7  C   UNL     1       2.114  12.425  12.719  1.00  0.00     0.039 C 
ATOM      8  C   UNL     1       0.791  12.133  14.764  1.00  0.00    -0.028 CG0
ATOM      9  G   UNL     1      -0.211  12.430  15.855  1.00  0.00     0.000 G0
ENDBRANCH   5   6
ENDBRANCH   4   5
ENDBRANCH   3   4
BRANCH   3  10
ATOM     10  C   UNL     1       0.721  17.709  15.125  1.00  0.00    -0.010 C 
ATOM     11  C   UNL     1      -0.767  18.067  14.976  1.00  0.00     0.008 C 
ATOM     12  C   UNL     1       1.511  18.212  13.905  1.00  0.00     0.008 C 
ENDBRANCH   3  10
ENDBRANCH   2   3
BRANCH   1  13
ATOM     13  C   UNL     1       0.341  14.181  17.693  1.00  0.00    -0.055 C 
ATOM     14  C   UNL     1      -0.844  14.566  18.179  1.00  0.00     0.012 C 
BRANCH  13  15
ATOM     15  C   UNL     1       0.499  12.749  17.207  1.00  0.00     0.039 C 
BRANCH  15  16
ATOM     16  C   UNL     1      -0.219  12.419  15.875  1.00  0.00     0.032 CG0
ATOM     17  G   UNL     1       0.777  12.123  14.778  1.00  0.00     0.000 G0
ENDBRANCH  15  16
ENDBRANCH  13  15
ENDBRANCH   1  13
TORSDOF 1
ENDMDL
MODEL 4
REMARK VINA RESULT:    -3.042      1.198      3.515
REMARK INTER + INTRA:          -5.063
REMARK INTER:                  -4.567
REMARK INTRA:                  -0.496
REMARK UNBOUND:                -0.597
REMARK SMILES C=C1C=C[C@@H](C(C)C)CCC(C)=CCC1
REMARK SMILES IDX 3 1 4 2 5 3 9 4 10 5 11 6 12 7 13 8 6 10 7 11 8 12 2 13 1 14
REMARK SMILES IDX 15 15 14 16
REMARK H PARENT
REMARK Flexibility Score: 70.00
ROOT
ATOM      1  C   UNL     1      -0.292  16.165  15.032  1.00  0.00    -0.001 C 
ATOM      2  C   UNL     1      -0.075  14.846  15.148  1.00  0.00    -0.023 C 
ENDROOT
BRANCH   2   3
ATOM      3  C   UNL     1       1.278  14.190  15.330  1.00  0.00     0.014 C 
BRANCH   3   4
ATOM      4  C   UNL     1       1.448  13.037  14.312  1.00  0.00     0.012 C 
BRANCH   4   5
ATOM      5  C   UNL     1       1.624  13.523  12.862  1.00  0.00     0.031 C 
BRANCH   5   6
ATOM      6  C   UNL     1       2.802  14.469  12.707  1.00  0.00    -0.077 C 
ATOM      7  C   UNL     1       4.191  13.886  12.779  1.00  0.00     0.039 C 
ATOM      8  C   UNL     1       2.688  15.808  12.530  1.00  0.00    -0.028 CG0
ATOM      9  G   UNL     1       1.407  16.610  12.518  1.00  0.00     0.000 G0
ENDBRANCH   5   6
ENDBRANCH   4   5
ENDBRANCH   3   4
BRANCH   3  10
ATOM     10  C   UNL     1       1.460  13.748  16.814  1.00  0.00    -0.010 C 
ATOM     11  C   UNL     1       0.195  13.075  17.372  1.00  0.00     0.008 C 
ATOM     12  C   UNL     1       1.912  14.883  17.749  1.00  0.00     0.008 C 
ENDBRANCH   3  10
ENDBRANCH   2   3
BRANCH   1  13
ATOM     13  C   UNL     1       0.755  17.211  14.959  1.00  0.00    -0.055 C 
ATOM     14  C   UNL     1       1.118  17.807  16.099  1.00  0.00     0.012 C 
BRANCH  13  15
ATOM     15  C   UNL     1       1.405  17.664  13.661  1.00  0.00     0.039 C 
BRANCH  15  16
ATOM     16  C   UNL     1       1.404  16.618  12.519  1.00  0.00     0.032 CG0
ATOM     17  G   UNL     1       2.678  15.805  12.524  1.00  0.00     0.000 G0
ENDBRANCH  15  16
ENDBRANCH  13  15
ENDBRANCH   1  13
TORSDOF 1
ENDMDL
MODEL 5
REMARK VINA RESULT:    -2.995      2.013      4.692
REMARK INTER + INTRA:          -4.993
REMARK INTER:                  -4.393
REMARK INTRA:                  -0.600
REMARK UNBOUND:                -0.597
REMARK SMILES C=C1C=C[C@@H](C(C)C)CCC(C)=CCC1
REMARK SMILES IDX 3 1 4 2 5 3 9 4 10 5 11 6 12 7 13 8 6 10 7 11 8 12 2 13 1 14
REMARK SMILES IDX 15 15 14 16
REMARK H PARENT
REMARK Flexibility Score: 70.00
ROOT
ATOM      1  C   UNL     1       2.405  14.603  15.120  1.00  0.00    -0.001 C 
ATOM      2  C   UNL     1       1.967  13.346  14.953  1.00  0.00    -0.023 C 
ENDROOT
BRANCH   2   3
ATOM      3  C   UNL     1       0.551  12.948  14.594  1.00  0.00     0.014 C 
BRANCH   3   4
ATOM      4  C   UNL     1      -0.035  12.030  15.694  1.00  0.00     0.012 C 
BRANCH   4   5
ATOM      5  C   UNL     1      -1.067  12.736  16.593  1.00  0.00     0.031 C 
BRANCH   5   6
ATOM      6  C   UNL     1      -0.425  13.415  17.791  1.00  0.00    -0.077 C 
ATOM      7  C   UNL     1      -0.132  12.574  19.007  1.00  0.00     0.039 C 
ATOM      8  C   UNL     1      -0.118  14.734  17.846  1.00  0.00    -0.028 CG0
ATOM      9  G   UNL     1      -0.404  15.772  16.785  1.00  0.00     0.000 G0
ENDBRANCH   5   6
ENDBRANCH   4   5
ENDBRANCH   3   4
BRANCH   3  10
ATOM     10  C   UNL     1       0.518  12.317  13.169  1.00  0.00    -0.010 C 
ATOM     11  C   UNL     1       0.987  10.852  13.180  1.00  0.00     0.008 C 
ATOM     12  C   UNL     1       1.307  13.117  12.118  1.00  0.00     0.008 C 
ENDBRANCH   3  10
ENDBRANCH   2   3
BRANCH   1  13
ATOM     13  C   UNL     1       1.565  15.823  15.084  1.00  0.00    -0.055 C 
ATOM     14  C   UNL     1       1.390  16.423  13.902  1.00  0.00     0.012 C 
BRANCH  13  15
ATOM     15  C   UNL     1       0.929  16.445  16.317  1.00  0.00     0.039 C 
BRANCH  15  16
ATOM     16  C   UNL     1      -0.390  15.782  16.787  1.00  0.00     0.032 CG0
ATOM     17  G   UNL     1      -0.128  14.738  17.848  1.00  0.00     0.000 G0
ENDBRANCH  15  16
ENDBRANCH  13  15
ENDBRANCH   1  13
TORSDOF 1
ENDMDL
MODEL 6
REMARK VINA RESULT:    -2.939      1.685      4.145
REMARK INTER + INTRA:          -4.910
REMARK INTER:                  -4.579
REMARK INTRA:                  -0.332
REMARK UNBOUND:                -0.597
REMARK SMILES C=C1C=C[C@@H](C(C)C)CCC(C)=CCC1
REMARK SMILES IDX 3 1 4 2 5 3 9 4 10 5 11 6 12 7 13 8 6 10 7 11 8 12 2 13 1 14
REMARK SMILES IDX 15 15 14 16
REMARK H PARENT
REMARK Flexibility Score: 70.00
ROOT
ATOM      1  C   UNL     1       2.608  14.080  15.446  1.00  0.00    -0.001 C 
ATOM      2  C   UNL     1       2.634  14.327  14.128  1.00  0.00    -0.023 C 
ENDROOT
BRANCH   2   3
ATOM      3  C   UNL     1       1.753  15.321  13.401  1.00  0.00     0.014 C 
BRANCH   3   4
ATOM      4  C   UNL     1       0.426  14.643  12.982  1.00  0.00     0.012 C 
BRANCH   4   5
ATOM      5  C   UNL     1      -0.808  15.221  13.700  1.00  0.00     0.031 C 
BRANCH   5   6
ATOM      6  C   UNL     1      -0.687  16.714  13.951  1.00  0.00    -0.077 C 
ATOM      7  C   UNL     1      -0.849  17.644  12.776  1.00  0.00     0.039 C 
ATOM      8  C   UNL     1      -0.420  17.265  15.161  1.00  0.00    -0.028 CG0
ATOM      9  G   UNL     1      -0.135  16.524  16.446  1.00  0.00     0.000 G0
ENDBRANCH   5   6
ENDBRANCH   4   5
ENDBRANCH   3   4
BRANCH   3  10
ATOM     10  C   UNL     1       2.534  15.957  12.212  1.00  0.00    -0.010 C 
ATOM     11  C   UNL     1       3.936  15.346  12.054  1.00  0.00     0.008 C 
ATOM     12  C   UNL     1       2.630  17.490  12.281  1.00  0.00     0.008 C 
ENDBRANCH   3  10
ENDBRANCH   2   3
BRANCH   1  13
ATOM     13  C   UNL     1       1.647  14.657  16.415  1.00  0.00    -0.055 C 
ATOM     14  C   UNL     1       0.977  13.811  17.204  1.00  0.00     0.012 C 
BRANCH  13  15
ATOM     15  C   UNL     1       1.360  16.145  16.532  1.00  0.00     0.039 C 
BRANCH  15  16
ATOM     16  C   UNL     1      -0.136  16.539  16.451  1.00  0.00     0.032 CG0
ATOM     17  G   UNL     1      -0.436  17.280  15.169  1.00  0.00     0.000 G0
ENDBRANCH  15  16
ENDBRANCH  13  15
ENDBRANCH   1  13
TORSDOF 1
ENDMDL
MODEL 7
REMARK VINA RESULT:    -2.907      2.151      4.794
REMARK INTER + INTRA:          -4.864
REMARK INTER:                  -4.549
REMARK INTRA:                  -0.315
REMARK UNBOUND:                -0.597
REMARK SMILES C=C1C=C[C@@H](C(C)C)CCC(C)=CCC1
REMARK SMILES IDX 3 1 4 2 5 3 9 4 10 5 11 6 12 7 13 8 6 10 7 11 8 12 2 13 1 14
REMARK SMILES IDX 15 15 14 16
REMARK H PARENT
REMARK Flexibility Score: 70.00
ROOT
ATOM      1  C   UNL     1       1.564  16.404  17.452  1.00  0.00    -0.001 C 
ATOM      2  C   UNL     1       1.487  16.794  16.171  1.00  0.00    -0.023 C 
ENDROOT
BRANCH   2   3
ATOM      3  C   UNL     1       1.056  15.921  15.011  1.00  0.00     0.014 C 
BRANCH   3   4
ATOM      4  C   UNL     1       2.246  15.057  14.529  1.00  0.00     0.012 C 
BRANCH   4   5
ATOM      5  C   UNL     1       2.097  13.564  14.877  1.00  0.00     0.031 C 
BRANCH   5   6
ATOM      6  C   UNL     1       0.666  13.074  14.730  1.00  0.00    -0.077 C 
ATOM      7  C   UNL     1       0.089  12.986  13.340  1.00  0.00     0.039 C 
ATOM      8  C   UNL     1      -0.135  12.732  15.769  1.00  0.00    -0.028 CG0
ATOM      9  G   UNL     1       0.205  12.829  17.238  1.00  0.00     0.000 G0
ENDBRANCH   5   6
ENDBRANCH   4   5
ENDBRANCH   3   4
BRANCH   3  10
ATOM     10  C   UNL     1       0.426  16.800  13.888  1.00  0.00    -0.010 C 
ATOM     11  C   UNL     1       1.499  17.485  13.025  1.00  0.00     0.008 C 
ATOM     12  C   UNL     1      -0.580  17.841  14.406  1.00  0.00     0.008 C 
ENDBRANCH   3  10
ENDBRANCH   2   3
BRANCH   1  13
ATOM     13  C   UNL     1       1.340  15.027  17.953  1.00  0.00    -0.055 C 
ATOM     14  C   UNL     1       2.355  14.422  18.578  1.00  0.00     0.012 C 
BRANCH  13  15
ATOM     15  C   UNL     1       0.041  14.262  17.761  1.00  0.00     0.039 C 
BRANCH  15  16
ATOM     16  C   UNL     1       0.197  12.812  17.240  1.00  0.00     0.032 CG0
ATOM     17  G   UNL     1      -0.145  12.722  15.771  1.00  0.00     0.000 G0
ENDBRANCH  15  16
ENDBRANCH  13  15
ENDBRANCH   1  13
TORSDOF 1
ENDMDL
MODEL 8
REMARK VINA RESULT:    -2.888      1.986      3.429
REMARK INTER + INTRA:          -4.837
REMARK INTER:                  -4.319
REMARK INTRA:                  -0.518
REMARK UNBOUND:                -0.597
REMARK SMILES C=C1C=C[C@@H](C(C)C)CCC(C)=CCC1
REMARK SMILES IDX 3 1 4 2 5 3 9 4 10 5 11 6 12 7 13 8 6 10 7 11 8 12 2 13 1 14
REMARK SMILES IDX 15 15 14 16
REMARK H PARENT
REMARK Flexibility Score: 70.00
ROOT
ATOM      1  C   UNL     1       1.686  13.067  15.873  1.00  0.00    -0.001 C 
ATOM      2  C   UNL     1       1.873  14.394  15.937  1.00  0.00    -0.023 C 
ENDROOT
BRANCH   2   3
ATOM      3  C   UNL     1       1.052  15.434  15.202  1.00  0.00     0.014 C 
BRANCH   3   4
ATOM      4  C   UNL     1       1.903  16.086  14.086  1.00  0.00     0.012 C 
BRANCH   4   5
ATOM      5  C   UNL     1       1.706  15.431  12.706  1.00  0.00     0.031 C 
BRANCH   5   6
ATOM      6  C   UNL     1       2.772  14.394  12.399  1.00  0.00    -0.077 C 
ATOM      7  C   UNL     1       4.178  14.877  12.150  1.00  0.00     0.039 C 
ATOM      8  C   UNL     1       2.538  13.061  12.314  1.00  0.00    -0.028 CG0
ATOM      9  G   UNL     1       1.199  12.371  12.438  1.00  0.00     0.000 G0
ENDBRANCH   5   6
ENDBRANCH   4   5
ENDBRANCH   3   4
BRANCH   3  10
ATOM     10  C   UNL     1       0.458  16.458  16.216  1.00  0.00    -0.010 C 
ATOM     11  C   UNL     1       1.522  17.443  16.726  1.00  0.00     0.008 C 
ATOM     12  C   UNL     1      -0.271  15.805  17.402  1.00  0.00     0.008 C 
ENDBRANCH   3  10
ENDBRANCH   2   3
BRANCH   1  13
ATOM     13  C   UNL     1       0.713  12.371  14.999  1.00  0.00    -0.055 C 
ATOM     14  C   UNL     1      -0.580  12.438  15.331  1.00  0.00     0.012 C 
BRANCH  13  15
ATOM     15  C   UNL     1       1.110  11.561  13.775  1.00  0.00     0.039 C 
BRANCH  15  16
ATOM     16  C   UNL     1       1.194  12.359  12.451  1.00  0.00     0.032 CG0
ATOM     17  G   UNL     1       2.524  13.064  12.323  1.00  0.00     0.000 G0
ENDBRANCH  15  16
ENDBRANCH  13  15
ENDBRANCH   1  13
TORSDOF 1
ENDMDL
MODEL 9
REMARK VINA RESULT:    -2.753      1.766      3.324
REMARK INTER + INTRA:          -4.639
REMARK INTER:                  -4.074
REMARK INTRA:                  -0.564
REMARK UNBOUND:                -0.597
REMARK SMILES C=C1C=C[C@@H](C(C)C)CCC(C)=CCC1
REMARK SMILES IDX 3 1 4 2 5 3 9 4 10 5 11 6 12 7 13 8 6 10 7 11 8 12 2 13 1 14
REMARK SMILES IDX 15 15 14 16
REMARK H PARENT
REMARK Flexibility Score: 70.00
ROOT
ATOM      1  C   UNL     1      -0.005  15.507  17.610  1.00  0.00    -0.001 C 
ATOM      2  C   UNL     1      -0.708  14.901  16.642  1.00  0.00    -0.023 C 
ENDROOT
BRANCH   2   3
ATOM      3  C   UNL     1      -0.151  14.425  15.316  1.00  0.00     0.014 C 
BRANCH   3   4
ATOM      4  C   UNL     1      -0.995  14.999  14.152  1.00  0.00     0.012 C 
BRANCH   4   5
ATOM      5  C   UNL     1      -0.864  16.525  13.997  1.00  0.00     0.031 C 
BRANCH   5   6
ATOM      6  C   UNL     1       0.567  16.960  13.733  1.00  0.00    -0.077 C 
ATOM      7  C   UNL     1       1.177  16.614  12.399  1.00  0.00     0.039 C 
ATOM      8  C   UNL     1       1.341  17.622  14.629  1.00  0.00    -0.028 CG0
ATOM      9  G   UNL     1       0.967  17.988  16.047  1.00  0.00     0.000 G0
ENDBRANCH   5   6
ENDBRANCH   4   5
ENDBRANCH   3   4
BRANCH   3  10
ATOM     10  C   UNL     1      -0.050  12.869  15.308  1.00  0.00    -0.010 C 
ATOM     11  C   UNL     1       1.374  12.386  15.630  1.00  0.00     0.008 C 
ATOM     12  C   UNL     1      -0.547  12.222  14.005  1.00  0.00     0.008 C 
ENDBRANCH   3  10
ENDBRANCH   2   3
BRANCH   1  13
ATOM     13  C   UNL     1       1.418  15.912  17.522  1.00  0.00    -0.055 C 
ATOM     14  C   UNL     1       2.342  15.013  17.875  1.00  0.00     0.012 C 
BRANCH  13  15
ATOM     15  C   UNL     1       1.875  17.296  17.090  1.00  0.00     0.039 C 
BRANCH  15  16
ATOM     16  C   UNL     1       0.966  18.000  16.053  1.00  0.00     0.032 CG0
ATOM     17  G   UNL     1       1.337  17.603  14.643  1.00  0.00     0.000 G0
ENDBRANCH  15  16
ENDBRANCH  13  15
ENDBRANCH   1  13
TORSDOF 1
ENDMDL
