MODEL 1
REMARK VINA RESULT:    -2.905      0.000      0.000
REMARK INTER + INTRA:          -3.159
REMARK INTER:                  -3.159
REMARK INTRA:                   0.000
REMARK UNBOUND:                 0.000
REMARK SMILES [NH3+]CC(=O)[O-]
REMARK SMILES IDX 2 1 1 2 3 6 4 7 5 8
REMARK H PARENT 1 3 1 4 1 5
REMARK Flexibility Score: inf
ROOT
ATOM      1  C   UNL     1      28.756   4.750   9.886  1.00  0.00     0.312 C 
ENDROOT
BRANCH   1   2
ATOM      2  N   UNL     1      28.076   6.013   9.611  1.00  0.00    -0.353 N 
ATOM      3  H   UNL     1      27.436   5.905   8.789  1.00  0.00     0.344 HD
ATOM      4  H   UNL     1      28.789   6.745   9.391  1.00  0.00     0.344 HD
ATOM      5  H   UNL     1      27.526   6.315  10.448  1.00  0.00     0.344 HD
ENDBRANCH   1   2
BRANCH   1   6
ATOM      6  C   UNL     1      28.940   4.559  11.360  1.00  0.00     0.096 C 
ATOM      7  O   UNL     1      29.064   3.401  11.838  1.00  0.00    -0.544 OA
ATOM      8  O   UNL     1      28.923   5.656  12.211  1.00  0.00    -0.544 OA
ENDBRANCH   1   6
TORSDOF 2
ENDMDL
MODEL 2
REMARK VINA RESULT:    -2.808      0.232      1.459
REMARK INTER + INTRA:          -3.055
REMARK INTER:                  -3.055
REMARK INTRA:                   0.000
REMARK UNBOUND:                 0.000
REMARK SMILES [NH3+]CC(=O)[O-]
REMARK SMILES IDX 2 1 1 2 3 6 4 7 5 8
REMARK H PARENT 1 3 1 4 1 5
REMARK Flexibility Score: inf
ROOT
ATOM      1  C   UNL     1      28.437   4.647   9.833  1.00  0.00     0.312 C 
ENDROOT
BRANCH   1   2
ATOM      2  N   UNL     1      27.999   5.987   9.451  1.00  0.00    -0.353 N 
ATOM      3  H   UNL     1      28.316   6.205   8.478  1.00  0.00     0.344 HD
ATOM      4  H   UNL     1      28.419   6.685  10.108  1.00  0.00     0.344 HD
ATOM      5  H   UNL     1      26.957   6.054   9.507  1.00  0.00     0.344 HD
ENDBRANCH   1   2
BRANCH   1   6
ATOM      6  C   UNL     1      28.763   4.593  11.293  1.00  0.00     0.096 C 
ATOM      7  O   UNL     1      28.755   5.646  11.982  1.00  0.00    -0.544 OA
ATOM      8  O   UNL     1      29.125   3.388  11.881  1.00  0.00    -0.544 OA
ENDBRANCH   1   6
TORSDOF 2
ENDMDL
MODEL 3
REMARK VINA RESULT:    -2.698      1.905      2.197
REMARK INTER + INTRA:          -2.935
REMARK INTER:                  -2.935
REMARK INTRA:                   0.000
REMARK UNBOUND:                 0.000
REMARK SMILES [NH3+]CC(=O)[O-]
REMARK SMILES IDX 2 1 1 2 3 6 4 7 5 8
REMARK H PARENT 1 3 1 4 1 5
REMARK Flexibility Score: inf
ROOT
ATOM      1  C   UNL     1      28.757   3.475  11.439  1.00  0.00     0.312 C 
ENDROOT
BRANCH   1   2
ATOM      2  N   UNL     1      27.969   2.903  10.350  1.00  0.00    -0.353 N 
ATOM      3  H   UNL     1      27.607   3.665   9.730  1.00  0.00     0.344 HD
ATOM      4  H   UNL     1      27.158   2.379  10.753  1.00  0.00     0.344 HD
ATOM      5  H   UNL     1      28.556   2.242   9.790  1.00  0.00     0.344 HD
ENDBRANCH   1   2
BRANCH   1   6
ATOM      6  C   UNL     1      28.725   4.971  11.387  1.00  0.00     0.096 C 
ATOM      7  O   UNL     1      29.058   5.647  12.395  1.00  0.00    -0.544 OA
ATOM      8  O   UNL     1      28.277   5.617  10.242  1.00  0.00    -0.544 OA
ENDBRANCH   1   6
TORSDOF 2
ENDMDL
MODEL 4
REMARK VINA RESULT:    -2.636      1.839      2.070
REMARK INTER + INTRA:          -2.867
REMARK INTER:                  -2.867
REMARK INTRA:                   0.000
REMARK UNBOUND:                 0.000
REMARK SMILES [NH3+]CC(=O)[O-]
REMARK SMILES IDX 2 1 1 2 3 6 4 7 5 8
REMARK H PARENT 1 3 1 4 1 5
REMARK Flexibility Score: inf
ROOT
ATOM      1  C   UNL     1      28.563   3.446  11.225  1.00  0.00     0.312 C 
ENDROOT
BRANCH   1   2
ATOM      2  N   UNL     1      27.772   2.975  10.091  1.00  0.00    -0.353 N 
ATOM      3  H   UNL     1      27.769   1.929  10.065  1.00  0.00     0.344 HD
ATOM      4  H   UNL     1      28.195   3.336   9.205  1.00  0.00     0.344 HD
ATOM      5  H   UNL     1      26.790   3.328  10.166  1.00  0.00     0.344 HD
ENDBRANCH   1   2
BRANCH   1   6
ATOM      6  C   UNL     1      28.630   4.942  11.238  1.00  0.00     0.096 C 
ATOM      7  O   UNL     1      28.331   5.597  10.205  1.00  0.00    -0.544 OA
ATOM      8  O   UNL     1      29.073   5.609  12.372  1.00  0.00    -0.544 OA
ENDBRANCH   1   6
TORSDOF 2
ENDMDL
MODEL 5
REMARK VINA RESULT:    -2.609      9.512      9.888
REMARK INTER + INTRA:          -2.837
REMARK INTER:                  -2.837
REMARK INTRA:                   0.000
REMARK UNBOUND:                 0.000
REMARK SMILES [NH3+]CC(=O)[O-]
REMARK SMILES IDX 2 1 1 2 3 6 4 7 5 8
REMARK H PARENT 1 3 1 4 1 5
REMARK Flexibility Score: inf
ROOT
ATOM      1  C   UNL     1      24.048  -0.938  16.379  1.00  0.00     0.312 C 
ENDROOT
BRANCH   1   2
ATOM      2  N   UNL     1      24.629   0.402  16.436  1.00  0.00    -0.353 N 
ATOM      3  H   UNL     1      25.434   0.417  17.103  1.00  0.00     0.344 HD
ATOM      4  H   UNL     1      23.901   1.076  16.767  1.00  0.00     0.344 HD
ATOM      5  H   UNL     1      24.953   0.694  15.485  1.00  0.00     0.344 HD
ENDBRANCH   1   2
BRANCH   1   6
ATOM      6  C   UNL     1      24.362  -1.703  17.628  1.00  0.00     0.096 C 
ATOM      7  O   UNL     1      24.004  -2.905  17.739  1.00  0.00    -0.544 OA
ATOM      8  O   UNL     1      25.001  -1.073  18.687  1.00  0.00    -0.544 OA
ENDBRANCH   1   6
TORSDOF 2
ENDMDL
MODEL 6
REMARK VINA RESULT:    -2.607      9.331      9.649
REMARK INTER + INTRA:          -2.836
REMARK INTER:                  -2.836
REMARK INTRA:                   0.000
REMARK UNBOUND:                 0.000
REMARK SMILES [NH3+]CC(=O)[O-]
REMARK SMILES IDX 2 1 1 2 3 6 4 7 5 8
REMARK H PARENT 1 3 1 4 1 5
REMARK Flexibility Score: inf
ROOT
ATOM      1  C   UNL     1      24.677   0.761  17.263  1.00  0.00     0.312 C 
ENDROOT
BRANCH   1   2
ATOM      2  N   UNL     1      24.459  -0.084  16.091  1.00  0.00    -0.353 N 
ATOM      3  H   UNL     1      24.754  -1.067  16.297  1.00  0.00     0.344 HD
ATOM      4  H   UNL     1      25.029   0.282  15.295  1.00  0.00     0.344 HD
ATOM      5  H   UNL     1      23.448  -0.068  15.820  1.00  0.00     0.344 HD
ENDBRANCH   1   2
BRANCH   1   6
ATOM      6  C   UNL     1      24.388   0.003  18.522  1.00  0.00     0.096 C 
ATOM      7  O   UNL     1      24.964  -1.094  18.747  1.00  0.00    -0.544 OA
ATOM      8  O   UNL     1      23.443   0.481  19.421  1.00  0.00    -0.544 OA
ENDBRANCH   1   6
TORSDOF 2
ENDMDL
MODEL 7
REMARK VINA RESULT:    -2.579      2.164      2.351
REMARK INTER + INTRA:          -2.805
REMARK INTER:                  -2.805
REMARK INTRA:                   0.000
REMARK UNBOUND:                 0.000
REMARK SMILES [NH3+]CC(=O)[O-]
REMARK SMILES IDX 2 1 1 2 3 6 4 7 5 8
REMARK H PARENT 1 3 1 4 1 5
REMARK Flexibility Score: inf
ROOT
ATOM      1  C   UNL     1      28.936   4.483  11.527  1.00  0.00     0.312 C 
ENDROOT
BRANCH   1   2
ATOM      2  N   UNL     1      29.074   5.629  12.423  1.00  0.00    -0.353 N 
ATOM      3  H   UNL     1      28.778   6.505  11.934  1.00  0.00     0.344 HD
ATOM      4  H   UNL     1      30.076   5.721  12.708  1.00  0.00     0.344 HD
ATOM      5  H   UNL     1      28.490   5.488  13.280  1.00  0.00     0.344 HD
ENDBRANCH   1   2
BRANCH   1   6
ATOM      6  C   UNL     1      28.330   4.902  10.223  1.00  0.00     0.096 C 
ATOM      7  O   UNL     1      28.432   4.159   9.211  1.00  0.00    -0.544 OA
ATOM      8  O   UNL     1      27.701   6.135  10.112  1.00  0.00    -0.544 OA
ENDBRANCH   1   6
TORSDOF 2
ENDMDL
MODEL 8
REMARK VINA RESULT:    -2.505      9.180      9.535
REMARK INTER + INTRA:          -2.725
REMARK INTER:                  -2.725
REMARK INTRA:                   0.000
REMARK UNBOUND:                 0.000
REMARK SMILES [NH3+]CC(=O)[O-]
REMARK SMILES IDX 2 1 1 2 3 6 4 7 5 8
REMARK H PARENT 1 3 1 4 1 5
REMARK Flexibility Score: inf
ROOT
ATOM      1  C   UNL     1      25.124   1.241  17.650  1.00  0.00     0.312 C 
ENDROOT
BRANCH   1   2
ATOM      2  N   UNL     1      24.718   0.399  16.527  1.00  0.00    -0.353 N 
ATOM      3  H   UNL     1      25.550  -0.092  16.126  1.00  0.00     0.344 HD
ATOM      4  H   UNL     1      24.289   1.000  15.786  1.00  0.00     0.344 HD
ATOM      5  H   UNL     1      24.011  -0.305  16.843  1.00  0.00     0.344 HD
ENDBRANCH   1   2
BRANCH   1   6
ATOM      6  C   UNL     1      24.016   1.359  18.650  1.00  0.00     0.096 C 
ATOM      7  O   UNL     1      23.764   2.470  19.187  1.00  0.00    -0.544 OA
ATOM      8  O   UNL     1      23.297   0.233  19.029  1.00  0.00    -0.544 OA
ENDBRANCH   1   6
TORSDOF 2
ENDMDL
MODEL 9
REMARK VINA RESULT:    -2.502      9.332      9.580
REMARK INTER + INTRA:          -2.721
REMARK INTER:                  -2.721
REMARK INTRA:                   0.000
REMARK UNBOUND:                 0.000
REMARK SMILES [NH3+]CC(=O)[O-]
REMARK SMILES IDX 2 1 1 2 3 6 4 7 5 8
REMARK H PARENT 1 3 1 4 1 5
REMARK Flexibility Score: inf
ROOT
ATOM      1  C   UNL     1      25.073   0.701  18.102  1.00  0.00     0.312 C 
ENDROOT
BRANCH   1   2
ATOM      2  N   UNL     1      24.698   0.692  16.690  1.00  0.00    -0.353 N 
ATOM      3  H   UNL     1      24.355  -0.258  16.415  1.00  0.00     0.344 HD
ATOM      4  H   UNL     1      25.536   0.930  16.111  1.00  0.00     0.344 HD
ATOM      5  H   UNL     1      23.950   1.402  16.511  1.00  0.00     0.344 HD
ENDBRANCH   1   2
BRANCH   1   6
ATOM      6  C   UNL     1      24.021   1.379  18.924  1.00  0.00     0.096 C 
ATOM      7  O   UNL     1      23.139   0.698  19.510  1.00  0.00    -0.544 OA
ATOM      8  O   UNL     1      23.982   2.765  18.998  1.00  0.00    -0.544 OA
ENDBRANCH   1   6
TORSDOF 2
ENDMDL
