MODEL 1
REMARK VINA RESULT:    -4.207      0.000      0.000
REMARK INTER + INTRA:          -5.250
REMARK INTER:                  -4.945
REMARK INTRA:                  -0.305
REMARK UNBOUND:                -0.305
REMARK SMILES O=c1c(O)c(-c2ccc(O)c(O)c2)oc2cc(O)ccc12
REMARK SMILES IDX 5 1 3 2 2 3 1 4 21 5 15 6 14 7 16 8 17 9 19 10 20 11 6 12
REMARK SMILES IDX 7 13 8 14 9 15 13 16 11 17 10 18 12 20 4 22 18 24
REMARK H PARENT 10 19 12 21 4 23 18 25
REMARK Flexibility Score: inf
ROOT
ATOM      1  C   UNL     1      21.352  48.794  87.378  1.00  0.00     0.180 A 
ATOM      2  C   UNL     1      20.693  47.630  87.825  1.00  0.00     0.208 A 
ATOM      3  C   UNL     1      19.407  47.749  88.375  1.00  0.00     0.235 A 
ATOM      4  O   UNL     1      18.793  46.721  88.771  1.00  0.00    -0.285 OA
ATOM      5  C   UNL     1      18.818  49.019  88.484  1.00  0.00     0.069 A 
ATOM      6  C   UNL     1      19.553  50.138  88.036  1.00  0.00     0.142 A 
ATOM      7  O   UNL     1      20.764  49.981  87.513  1.00  0.00    -0.452 OA
ATOM      8  C   UNL     1      19.005  51.421  88.137  1.00  0.00     0.094 A 
ATOM      9  C   UNL     1      17.725  51.601  88.681  1.00  0.00     0.119 A 
ATOM     10  C   UNL     1      16.996  50.493  89.124  1.00  0.00     0.047 A 
ATOM     11  C   UNL     1      17.536  49.207  89.029  1.00  0.00     0.020 A 
ENDROOT
BRANCH   1  12
ATOM     12  C   UNL     1      22.702  48.750  86.771  1.00  0.00     0.025 A 
ATOM     13  C   UNL     1      22.876  48.749  85.375  1.00  0.00     0.016 A 
ATOM     14  C   UNL     1      24.160  48.731  84.825  1.00  0.00     0.051 A 
ATOM     15  C   UNL     1      25.286  48.727  85.653  1.00  0.00     0.157 A 
ATOM     16  C   UNL     1      23.834  48.767  87.600  1.00  0.00     0.062 A 
ATOM     17  C   UNL     1      25.124  48.748  87.049  1.00  0.00     0.158 A 
BRANCH  15  18
ATOM     18  O   UNL     1      26.555  48.707  85.075  1.00  0.00    -0.504 OA
ATOM     19  H   UNL     1      26.801  48.055  84.340  1.00  0.00     0.293 HD
ENDBRANCH  15  18
BRANCH  17  20
ATOM     20  O   UNL     1      26.242  48.752  87.882  1.00  0.00    -0.504 OA
ATOM     21  H   UNL     1      26.312  49.381  88.673  1.00  0.00     0.293 HD
ENDBRANCH  17  20
ENDBRANCH   1  12
BRANCH   2  22
ATOM     22  O   UNL     1      21.324  46.386  87.748  1.00  0.00    -0.502 OA
ATOM     23  H   UNL     1      22.218  46.204  88.189  1.00  0.00     0.293 HD
ENDBRANCH   2  22
BRANCH   9  24
ATOM     24  O   UNL     1      17.171  52.874  88.785  1.00  0.00    -0.508 OA
ATOM     25  H   UNL     1      16.591  53.262  88.049  1.00  0.00     0.293 HD
ENDBRANCH   9  24
TORSDOF 5
ENDMDL
MODEL 2
REMARK VINA RESULT:    -4.039      1.344      3.164
REMARK INTER + INTRA:          -5.052
REMARK INTER:                  -4.743
REMARK INTRA:                  -0.310
REMARK UNBOUND:                -0.305
REMARK SMILES O=c1c(O)c(-c2ccc(O)c(O)c2)oc2cc(O)ccc12
REMARK SMILES IDX 5 1 3 2 2 3 1 4 21 5 15 6 14 7 16 8 17 9 19 10 20 11 6 12
REMARK SMILES IDX 7 13 8 14 9 15 13 16 11 17 10 18 12 20 4 22 18 24
REMARK H PARENT 10 19 12 21 4 23 18 25
REMARK Flexibility Score: inf
ROOT
ATOM      1  C   UNL     1      21.144  48.630  87.425  1.00  0.00     0.180 A 
ATOM      2  C   UNL     1      20.391  49.800  87.653  1.00  0.00     0.208 A 
ATOM      3  C   UNL     1      19.086  49.677  88.156  1.00  0.00     0.235 A 
ATOM      4  O   UNL     1      18.397  50.710  88.379  1.00  0.00    -0.285 OA
ATOM      5  C   UNL     1      18.559  48.400  88.403  1.00  0.00     0.069 A 
ATOM      6  C   UNL     1      19.368  47.277  88.127  1.00  0.00     0.142 A 
ATOM      7  O   UNL     1      20.601  47.437  87.658  1.00  0.00    -0.452 OA
ATOM      8  C   UNL     1      18.875  45.987  88.350  1.00  0.00     0.094 A 
ATOM      9  C   UNL     1      17.578  45.804  88.849  1.00  0.00     0.119 A 
ATOM     10  C   UNL     1      16.775  46.915  89.124  1.00  0.00     0.047 A 
ATOM     11  C   UNL     1      17.259  48.208  88.904  1.00  0.00     0.020 A 
ENDROOT
BRANCH   1  12
ATOM     12  C   UNL     1      22.533  48.675  86.912  1.00  0.00     0.025 A 
ATOM     13  C   UNL     1      22.801  48.760  85.534  1.00  0.00     0.016 A 
ATOM     14  C   UNL     1      24.119  48.825  85.075  1.00  0.00     0.051 A 
ATOM     15  C   UNL     1      25.185  48.821  85.979  1.00  0.00     0.157 A 
ATOM     16  C   UNL     1      23.604  48.692  87.819  1.00  0.00     0.062 A 
ATOM     17  C   UNL     1      24.928  48.756  87.359  1.00  0.00     0.158 A 
BRANCH  15  18
ATOM     18  O   UNL     1      26.489  48.885  85.491  1.00  0.00    -0.504 OA
ATOM     19  H   UNL     1      26.977  49.765  85.371  1.00  0.00     0.293 HD
ENDBRANCH  15  18
BRANCH  17  20
ATOM     20  O   UNL     1      25.986  48.758  88.267  1.00  0.00    -0.504 OA
ATOM     21  H   UNL     1      25.827  48.727  89.267  1.00  0.00     0.293 HD
ENDBRANCH  17  20
ENDBRANCH   1  12
BRANCH   2  22
ATOM     22  O   UNL     1      20.925  51.055  87.352  1.00  0.00    -0.502 OA
ATOM     23  H   UNL     1      21.654  51.482  87.910  1.00  0.00     0.293 HD
ENDBRANCH   2  22
BRANCH   9  24
ATOM     24  O   UNL     1      17.079  44.523  89.074  1.00  0.00    -0.508 OA
ATOM     25  H   UNL     1      17.151  44.079  89.983  1.00  0.00     0.293 HD
ENDBRANCH   9  24
TORSDOF 5
ENDMDL
MODEL 3
REMARK VINA RESULT:    -3.872      3.436      5.204
REMARK INTER + INTRA:          -4.856
REMARK INTER:                  -4.532
REMARK INTRA:                  -0.324
REMARK UNBOUND:                -0.305
REMARK SMILES O=c1c(O)c(-c2ccc(O)c(O)c2)oc2cc(O)ccc12
REMARK SMILES IDX 5 1 3 2 2 3 1 4 21 5 15 6 14 7 16 8 17 9 19 10 20 11 6 12
REMARK SMILES IDX 7 13 8 14 9 15 13 16 11 17 10 18 12 20 4 22 18 24
REMARK H PARENT 10 19 12 21 4 23 18 25
REMARK Flexibility Score: inf
ROOT
ATOM      1  C   UNL     1      22.436  50.459  87.633  1.00  0.00     0.180 A 
ATOM      2  C   UNL     1      21.311  51.098  88.192  1.00  0.00     0.208 A 
ATOM      3  C   UNL     1      21.406  52.455  88.537  1.00  0.00     0.235 A 
ATOM      4  O   UNL     1      20.408  53.052  89.029  1.00  0.00    -0.285 OA
ATOM      5  C   UNL     1      22.617  53.136  88.336  1.00  0.00     0.069 A 
ATOM      6  C   UNL     1      23.705  52.419  87.793  1.00  0.00     0.142 A 
ATOM      7  O   UNL     1      23.571  51.136  87.472  1.00  0.00    -0.452 OA
ATOM      8  C   UNL     1      24.932  53.059  87.587  1.00  0.00     0.094 A 
ATOM      9  C   UNL     1      25.085  54.413  87.917  1.00  0.00     0.119 A 
ATOM     10  C   UNL     1      24.008  55.125  88.453  1.00  0.00     0.047 A 
ATOM     11  C   UNL     1      22.779  54.494  88.664  1.00  0.00     0.020 A 
ENDROOT
BRANCH   1  12
ATOM     12  C   UNL     1      22.412  49.035  87.226  1.00  0.00     0.025 A 
ATOM     13  C   UNL     1      22.034  48.652  85.927  1.00  0.00     0.016 A 
ATOM     14  C   UNL     1      22.041  47.304  85.559  1.00  0.00     0.051 A 
ATOM     15  C   UNL     1      22.436  46.322  86.472  1.00  0.00     0.157 A 
ATOM     16  C   UNL     1      22.828  48.049  88.135  1.00  0.00     0.062 A 
ATOM     17  C   UNL     1      22.834  46.695  87.767  1.00  0.00     0.158 A 
BRANCH  15  18
ATOM     18  O   UNL     1      22.431  44.985  86.077  1.00  0.00    -0.504 OA
ATOM     19  H   UNL     1      21.571  44.479  85.904  1.00  0.00     0.293 HD
ENDBRANCH  15  18
BRANCH  17  20
ATOM     20  O   UNL     1      23.236  45.723  88.682  1.00  0.00    -0.504 OA
ATOM     21  H   UNL     1      22.744  45.582  89.556  1.00  0.00     0.293 HD
ENDBRANCH  17  20
ENDBRANCH   1  12
BRANCH   2  22
ATOM     22  O   UNL     1      20.134  50.382  88.426  1.00  0.00    -0.502 OA
ATOM     23  H   UNL     1      19.375  50.755  88.983  1.00  0.00     0.293 HD
ENDBRANCH   2  22
BRANCH   9  24
ATOM     24  O   UNL     1      26.303  55.058  87.714  1.00  0.00    -0.508 OA
ATOM     25  H   UNL     1      26.628  55.786  88.341  1.00  0.00     0.293 HD
ENDBRANCH   9  24
TORSDOF 5
ENDMDL
MODEL 4
REMARK VINA RESULT:    -3.870      3.172      4.852
REMARK INTER + INTRA:          -4.854
REMARK INTER:                  -4.739
REMARK INTRA:                  -0.115
REMARK UNBOUND:                -0.305
REMARK SMILES O=c1c(O)c(-c2ccc(O)c(O)c2)oc2cc(O)ccc12
REMARK SMILES IDX 5 1 3 2 2 3 1 4 21 5 15 6 14 7 16 8 17 9 19 10 20 11 6 12
REMARK SMILES IDX 7 13 8 14 9 15 13 16 11 17 10 18 12 20 4 22 18 24
REMARK H PARENT 10 19 12 21 4 23 18 25
REMARK Flexibility Score: inf
ROOT
ATOM      1  C   UNL     1      21.822  50.193  87.980  1.00  0.00     0.180 A 
ATOM      2  C   UNL     1      20.555  50.745  88.256  1.00  0.00     0.208 A 
ATOM      3  C   UNL     1      20.466  52.109  88.578  1.00  0.00     0.235 A 
ATOM      4  O   UNL     1      19.342  52.628  88.818  1.00  0.00    -0.285 OA
ATOM      5  C   UNL     1      21.637  52.882  88.635  1.00  0.00     0.069 A 
ATOM      6  C   UNL     1      22.870  52.249  88.368  1.00  0.00     0.142 A 
ATOM      7  O   UNL     1      22.909  50.957  88.059  1.00  0.00    -0.452 OA
ATOM      8  C   UNL     1      24.060  52.983  88.424  1.00  0.00     0.094 A 
ATOM      9  C   UNL     1      24.032  54.348  88.743  1.00  0.00     0.119 A 
ATOM     10  C   UNL     1      22.811  54.977  89.007  1.00  0.00     0.047 A 
ATOM     11  C   UNL     1      21.617  54.251  88.954  1.00  0.00     0.020 A 
ENDROOT
BRANCH   1  12
ATOM     12  C   UNL     1      21.997  48.768  87.615  1.00  0.00     0.025 A 
ATOM     13  C   UNL     1      21.617  47.737  88.493  1.00  0.00     0.016 A 
ATOM     14  C   UNL     1      21.771  46.400  88.118  1.00  0.00     0.051 A 
ATOM     15  C   UNL     1      22.290  46.071  86.862  1.00  0.00     0.157 A 
ATOM     16  C   UNL     1      22.499  48.436  86.347  1.00  0.00     0.062 A 
ATOM     17  C   UNL     1      22.654  47.093  85.970  1.00  0.00     0.158 A 
BRANCH  15  18
ATOM     18  O   UNL     1      22.433  44.728  86.517  1.00  0.00    -0.504 OA
ATOM     19  H   UNL     1      23.338  44.314  86.330  1.00  0.00     0.293 HD
ENDBRANCH  15  18
BRANCH  17  20
ATOM     20  O   UNL     1      23.166  46.774  84.713  1.00  0.00    -0.504 OA
ATOM     21  H   UNL     1      22.898  45.923  84.232  1.00  0.00     0.293 HD
ENDBRANCH  17  20
ENDBRANCH   1  12
BRANCH   2  22
ATOM     22  O   UNL     1      19.413  49.940  88.240  1.00  0.00    -0.502 OA
ATOM     23  H   UNL     1      18.538  50.249  87.835  1.00  0.00     0.293 HD
ENDBRANCH   2  22
BRANCH   9  24
ATOM     24  O   UNL     1      25.212  55.086  88.801  1.00  0.00    -0.508 OA
ATOM     25  H   UNL     1      25.204  56.100  88.788  1.00  0.00     0.293 HD
ENDBRANCH   9  24
TORSDOF 5
ENDMDL
MODEL 5
REMARK VINA RESULT:    -3.846      1.908      6.766
REMARK INTER + INTRA:          -4.825
REMARK INTER:                  -4.550
REMARK INTRA:                  -0.276
REMARK UNBOUND:                -0.305
REMARK SMILES O=c1c(O)c(-c2ccc(O)c(O)c2)oc2cc(O)ccc12
REMARK SMILES IDX 5 1 3 2 2 3 1 4 21 5 15 6 14 7 16 8 17 9 19 10 20 11 6 12
REMARK SMILES IDX 7 13 8 14 9 15 13 16 11 17 10 18 12 20 4 22 18 24
REMARK H PARENT 10 19 12 21 4 23 18 25
REMARK Flexibility Score: inf
ROOT
ATOM      1  C   UNL     1      21.757  49.542  86.782  1.00  0.00     0.180 A 
ATOM      2  C   UNL     1      22.004  48.432  85.950  1.00  0.00     0.208 A 
ATOM      3  C   UNL     1      23.296  48.250  85.429  1.00  0.00     0.235 A 
ATOM      4  O   UNL     1      23.544  47.258  84.691  1.00  0.00    -0.285 OA
ATOM      5  C   UNL     1      24.300  49.184  85.732  1.00  0.00     0.069 A 
ATOM      6  C   UNL     1      23.966  50.282  86.554  1.00  0.00     0.142 A 
ATOM      7  O   UNL     1      22.733  50.412  87.034  1.00  0.00    -0.452 OA
ATOM      8  C   UNL     1      24.936  51.239  86.871  1.00  0.00     0.094 A 
ATOM      9  C   UNL     1      26.242  51.111  86.377  1.00  0.00     0.119 A 
ATOM     10  C   UNL     1      26.574  50.023  85.563  1.00  0.00     0.047 A 
ATOM     11  C   UNL     1      25.611  49.062  85.240  1.00  0.00     0.020 A 
ENDROOT
BRANCH   1  12
ATOM     12  C   UNL     1      20.428  49.794  87.384  1.00  0.00     0.025 A 
ATOM     13  C   UNL     1      19.969  49.045  88.483  1.00  0.00     0.016 A 
ATOM     14  C   UNL     1      18.721  49.316  89.049  1.00  0.00     0.051 A 
ATOM     15  C   UNL     1      17.920  50.343  88.540  1.00  0.00     0.157 A 
ATOM     16  C   UNL     1      19.631  50.838  86.889  1.00  0.00     0.062 A 
ATOM     17  C   UNL     1      18.377  51.111  87.456  1.00  0.00     0.158 A 
BRANCH  15  18
ATOM     18  O   UNL     1      16.678  50.589  89.125  1.00  0.00    -0.504 OA
ATOM     19  H   UNL     1      16.579  50.795  90.112  1.00  0.00     0.293 HD
ENDBRANCH  15  18
BRANCH  17  20
ATOM     20  O   UNL     1      17.587  52.141  86.947  1.00  0.00    -0.504 OA
ATOM     21  H   UNL     1      17.527  52.321  85.952  1.00  0.00     0.293 HD
ENDBRANCH  17  20
ENDBRANCH   1  12
BRANCH   2  22
ATOM     22  O   UNL     1      20.974  47.547  85.626  1.00  0.00    -0.502 OA
ATOM     23  H   UNL     1      20.004  47.742  85.844  1.00  0.00     0.293 HD
ENDBRANCH   2  22
BRANCH   9  24
ATOM     24  O   UNL     1      27.213  52.058  86.688  1.00  0.00    -0.508 OA
ATOM     25  H   UNL     1      28.067  51.803  87.171  1.00  0.00     0.293 HD
ENDBRANCH   9  24
TORSDOF 5
ENDMDL
MODEL 6
REMARK VINA RESULT:    -3.785      2.342      7.515
REMARK INTER + INTRA:          -4.755
REMARK INTER:                  -4.521
REMARK INTRA:                  -0.233
REMARK UNBOUND:                -0.305
REMARK SMILES O=c1c(O)c(-c2ccc(O)c(O)c2)oc2cc(O)ccc12
REMARK SMILES IDX 5 1 3 2 2 3 1 4 21 5 15 6 14 7 16 8 17 9 19 10 20 11 6 12
REMARK SMILES IDX 7 13 8 14 9 15 13 16 11 17 10 18 12 20 4 22 18 24
REMARK H PARENT 10 19 12 21 4 23 18 25
REMARK Flexibility Score: inf
ROOT
ATOM      1  C   UNL     1      23.053  50.478  87.165  1.00  0.00     0.180 A 
ATOM      2  C   UNL     1      23.737  51.699  87.336  1.00  0.00     0.208 A 
ATOM      3  C   UNL     1      25.067  51.797  86.896  1.00  0.00     0.235 A 
ATOM      4  O   UNL     1      25.696  52.883  87.028  1.00  0.00    -0.285 OA
ATOM      5  C   UNL     1      25.686  50.679  86.316  1.00  0.00     0.069 A 
ATOM      6  C   UNL     1      24.941  49.486  86.201  1.00  0.00     0.142 A 
ATOM      7  O   UNL     1      23.682  49.437  86.623  1.00  0.00    -0.452 OA
ATOM      8  C   UNL     1      25.526  48.346  85.638  1.00  0.00     0.094 A 
ATOM      9  C   UNL     1      26.852  48.385  85.184  1.00  0.00     0.119 A 
ATOM     10  C   UNL     1      27.591  49.567  85.295  1.00  0.00     0.047 A 
ATOM     11  C   UNL     1      27.016  50.710  85.858  1.00  0.00     0.020 A 
ENDROOT
BRANCH   1  12
ATOM     12  C   UNL     1      21.645  50.299  87.586  1.00  0.00     0.025 A 
ATOM     13  C   UNL     1      21.314  49.557  88.734  1.00  0.00     0.016 A 
ATOM     14  C   UNL     1      19.979  49.421  89.125  1.00  0.00     0.051 A 
ATOM     15  C   UNL     1      18.959  50.033  88.390  1.00  0.00     0.157 A 
ATOM     16  C   UNL     1      20.621  50.929  86.861  1.00  0.00     0.062 A 
ATOM     17  C   UNL     1      19.281  50.793  87.253  1.00  0.00     0.158 A 
BRANCH  15  18
ATOM     18  O   UNL     1      17.637  49.878  88.803  1.00  0.00    -0.504 OA
ATOM     19  H   UNL     1      17.348  49.118  89.408  1.00  0.00     0.293 HD
ENDBRANCH  15  18
BRANCH  17  20
ATOM     20  O   UNL     1      18.270  51.412  86.518  1.00  0.00    -0.504 OA
ATOM     21  H   UNL     1      17.365  50.975  86.388  1.00  0.00     0.293 HD
ENDBRANCH  17  20
ENDBRANCH   1  12
BRANCH   2  22
ATOM     22  O   UNL     1      23.111  52.779  87.961  1.00  0.00    -0.502 OA
ATOM     23  H   UNL     1      22.719  52.713  88.893  1.00  0.00     0.293 HD
ENDBRANCH   2  22
BRANCH   9  24
ATOM     24  O   UNL     1      27.442  47.256  84.622  1.00  0.00    -0.508 OA
ATOM     25  H   UNL     1      28.436  47.077  84.711  1.00  0.00     0.293 HD
ENDBRANCH   9  24
TORSDOF 5
ENDMDL
MODEL 7
REMARK VINA RESULT:    -3.749      2.430      4.759
REMARK INTER + INTRA:          -4.712
REMARK INTER:                  -4.612
REMARK INTRA:                  -0.101
REMARK UNBOUND:                -0.305
REMARK SMILES O=c1c(O)c(-c2ccc(O)c(O)c2)oc2cc(O)ccc12
REMARK SMILES IDX 5 1 3 2 2 3 1 4 21 5 15 6 14 7 16 8 17 9 19 10 20 11 6 12
REMARK SMILES IDX 7 13 8 14 9 15 13 16 11 17 10 18 12 20 4 22 18 24
REMARK H PARENT 10 19 12 21 4 23 18 25
REMARK Flexibility Score: inf
ROOT
ATOM      1  C   UNL     1      21.670  47.810  87.963  1.00  0.00     0.180 A 
ATOM      2  C   UNL     1      20.338  48.170  88.251  1.00  0.00     0.208 A 
ATOM      3  C   UNL     1      19.434  47.168  88.636  1.00  0.00     0.235 A 
ATOM      4  O   UNL     1      18.239  47.467  88.910  1.00  0.00    -0.285 OA
ATOM      5  C   UNL     1      19.869  45.835  88.705  1.00  0.00     0.069 A 
ATOM      6  C   UNL     1      21.212  45.552  88.378  1.00  0.00     0.142 A 
ATOM      7  O   UNL     1      22.039  46.532  88.027  1.00  0.00    -0.452 OA
ATOM      8  C   UNL     1      21.683  44.236  88.425  1.00  0.00     0.094 A 
ATOM      9  C   UNL     1      20.823  43.193  88.799  1.00  0.00     0.119 A 
ATOM     10  C   UNL     1      19.492  43.471  89.125  1.00  0.00     0.047 A 
ATOM     11  C   UNL     1      19.013  44.784  89.079  1.00  0.00     0.020 A 
ENDROOT
BRANCH   1  12
ATOM     12  C   UNL     1      22.688  48.810  87.568  1.00  0.00     0.025 A 
ATOM     13  C   UNL     1      22.987  49.912  88.388  1.00  0.00     0.016 A 
ATOM     14  C   UNL     1      23.968  50.831  88.006  1.00  0.00     0.051 A 
ATOM     15  C   UNL     1      24.674  50.657  86.811  1.00  0.00     0.157 A 
ATOM     16  C   UNL     1      23.413  48.627  86.379  1.00  0.00     0.062 A 
ATOM     17  C   UNL     1      24.397  49.548  85.994  1.00  0.00     0.158 A 
BRANCH  15  18
ATOM     18  O   UNL     1      25.646  51.591  86.456  1.00  0.00    -0.504 OA
ATOM     19  H   UNL     1      25.478  52.589  86.506  1.00  0.00     0.293 HD
ENDBRANCH  15  18
BRANCH  17  20
ATOM     20  O   UNL     1      25.102  49.365  84.805  1.00  0.00    -0.504 OA
ATOM     21  H   UNL     1      26.102  49.204  84.800  1.00  0.00     0.293 HD
ENDBRANCH  17  20
ENDBRANCH   1  12
BRANCH   2  22
ATOM     22  O   UNL     1      19.921  49.497  88.126  1.00  0.00    -0.502 OA
ATOM     23  H   UNL     1      19.205  49.899  88.719  1.00  0.00     0.293 HD
ENDBRANCH   2  22
BRANCH   9  24
ATOM     24  O   UNL     1      21.282  41.879  88.849  1.00  0.00    -0.508 OA
ATOM     25  H   UNL     1      20.648  41.100  88.984  1.00  0.00     0.293 HD
ENDBRANCH   9  24
TORSDOF 5
ENDMDL
MODEL 8
REMARK VINA RESULT:    -3.680      2.785      5.324
REMARK INTER + INTRA:          -4.631
REMARK INTER:                  -4.400
REMARK INTRA:                  -0.231
REMARK UNBOUND:                -0.305
REMARK SMILES O=c1c(O)c(-c2ccc(O)c(O)c2)oc2cc(O)ccc12
REMARK SMILES IDX 5 1 3 2 2 3 1 4 21 5 15 6 14 7 16 8 17 9 19 10 20 11 6 12
REMARK SMILES IDX 7 13 8 14 9 15 13 16 11 17 10 18 12 20 4 22 18 24
REMARK H PARENT 10 19 12 21 4 23 18 25
REMARK Flexibility Score: inf
ROOT
ATOM      1  C   UNL     1      21.945  48.704  87.857  1.00  0.00     0.180 A 
ATOM      2  C   UNL     1      20.802  49.520  87.736  1.00  0.00     0.208 A 
ATOM      3  C   UNL     1      20.969  50.912  87.651  1.00  0.00     0.235 A 
ATOM      4  O   UNL     1      19.962  51.662  87.532  1.00  0.00    -0.285 OA
ATOM      5  C   UNL     1      22.262  51.456  87.705  1.00  0.00     0.069 A 
ATOM      6  C   UNL     1      23.354  50.573  87.850  1.00  0.00     0.142 A 
ATOM      7  O   UNL     1      23.153  49.261  87.919  1.00  0.00    -0.452 OA
ATOM      8  C   UNL     1      24.658  51.076  87.918  1.00  0.00     0.094 A 
ATOM      9  C   UNL     1      24.885  52.458  87.841  1.00  0.00     0.119 A 
ATOM     10  C   UNL     1      23.805  53.334  87.697  1.00  0.00     0.047 A 
ATOM     11  C   UNL     1      22.498  52.840  87.629  1.00  0.00     0.020 A 
ENDROOT
BRANCH   1  12
ATOM     12  C   UNL     1      21.853  47.228  87.934  1.00  0.00     0.025 A 
ATOM     13  C   UNL     1      21.359  46.586  89.083  1.00  0.00     0.016 A 
ATOM     14  C   UNL     1      21.260  45.193  89.125  1.00  0.00     0.051 A 
ATOM     15  C   UNL     1      21.638  44.422  88.021  1.00  0.00     0.157 A 
ATOM     16  C   UNL     1      22.212  46.454  86.820  1.00  0.00     0.062 A 
ATOM     17  C   UNL     1      22.114  45.055  86.860  1.00  0.00     0.158 A 
BRANCH  15  18
ATOM     18  O   UNL     1      21.529  43.034  88.093  1.00  0.00    -0.504 OA
ATOM     19  H   UNL     1      21.122  42.486  87.344  1.00  0.00     0.293 HD
ENDBRANCH  15  18
BRANCH  17  20
ATOM     20  O   UNL     1      22.486  44.294  85.753  1.00  0.00    -0.504 OA
ATOM     21  H   UNL     1      21.819  44.045  85.032  1.00  0.00     0.293 HD
ENDBRANCH  17  20
ENDBRANCH   1  12
BRANCH   2  22
ATOM     22  O   UNL     1      19.525  48.954  87.734  1.00  0.00    -0.502 OA
ATOM     23  H   UNL     1      19.015  48.771  86.879  1.00  0.00     0.293 HD
ENDBRANCH   2  22
BRANCH   9  24
ATOM     24  O   UNL     1      26.179  52.968  87.908  1.00  0.00    -0.508 OA
ATOM     25  H   UNL     1      26.360  53.915  88.221  1.00  0.00     0.293 HD
ENDBRANCH   9  24
TORSDOF 5
ENDMDL
