MODEL 1
REMARK VINA RESULT:    -5.430      0.000      0.000
REMARK INTER + INTRA:          -6.659
REMARK INTER:                  -6.382
REMARK INTRA:                  -0.277
REMARK UNBOUND:                -0.277
REMARK SMILES O=c1cc(-c2ccc(O)c(O)c2)oc2cc(O)cc(O)c12
REMARK SMILES IDX 4 1 3 2 2 3 1 4 21 5 19 6 18 7 16 8 15 9 14 10 13 11 5 12
REMARK SMILES IDX 6 13 7 14 8 15 12 16 10 17 9 18 11 20 20 22 17 24
REMARK H PARENT 9 19 11 21 20 23 17 25
REMARK Flexibility Score: inf
ROOT
ATOM      1  C   UNL     1      24.193  29.950   6.278  1.00  0.00     0.138 A 
ATOM      2  C   UNL     1      25.253  30.224   7.155  1.00  0.00     0.100 A 
ATOM      3  C   UNL     1      26.243  29.264   7.361  1.00  0.00     0.197 A 
ATOM      4  O   UNL     1      27.214  29.563   8.104  1.00  0.00    -0.289 OA
ATOM      5  C   UNL     1      26.153  28.010   6.711  1.00  0.00     0.107 A 
ATOM      6  C   UNL     1      27.083  26.939   6.878  1.00  0.00     0.134 A 
ATOM      7  C   UNL     1      26.956  25.787   6.093  1.00  0.00     0.093 A 
ATOM      8  C   UNL     1      25.898  25.641   5.191  1.00  0.00     0.123 A 
ATOM      9  C   UNL     1      24.955  26.658   5.060  1.00  0.00     0.094 A 
ATOM     10  C   UNL     1      25.074  27.834   5.804  1.00  0.00     0.146 A 
ATOM     11  O   UNL     1      24.162  28.786   5.639  1.00  0.00    -0.456 OA
ENDROOT
BRANCH   1  12
ATOM     12  C   UNL     1      23.112  30.936   6.023  1.00  0.00     0.021 A 
ATOM     13  C   UNL     1      22.648  31.203   4.720  1.00  0.00     0.016 A 
ATOM     14  C   UNL     1      21.635  32.144   4.508  1.00  0.00     0.051 A 
ATOM     15  C   UNL     1      21.078  32.838   5.588  1.00  0.00     0.157 A 
ATOM     16  C   UNL     1      22.555  31.648   7.099  1.00  0.00     0.062 A 
ATOM     17  C   UNL     1      21.539  32.591   6.886  1.00  0.00     0.158 A 
BRANCH  15  18
ATOM     18  O   UNL     1      20.068  33.775   5.379  1.00  0.00    -0.504 OA
ATOM     19  H   UNL     1      19.730  33.993   4.450  1.00  0.00     0.293 HD
ENDBRANCH  15  18
BRANCH  17  20
ATOM     20  O   UNL     1      20.985  33.286   7.960  1.00  0.00    -0.504 OA
ATOM     21  H   UNL     1      20.968  34.298   7.984  1.00  0.00     0.293 HD
ENDBRANCH  17  20
ENDBRANCH   1  12
BRANCH   6  22
ATOM     22  O   UNL     1      28.125  26.948   7.810  1.00  0.00    -0.507 OA
ATOM     23  H   UNL     1      28.829  26.230   7.895  1.00  0.00     0.293 HD
ENDBRANCH   6  22
BRANCH   8  24
ATOM     24  O   UNL     1      25.772  24.484   4.426  1.00  0.00    -0.508 OA
ATOM     25  H   UNL     1      25.770  24.517   3.413  1.00  0.00     0.293 HD
ENDBRANCH   8  24
TORSDOF 5
ENDMDL
MODEL 2
REMARK VINA RESULT:    -5.383      1.418      1.582
REMARK INTER + INTRA:          -6.604
REMARK INTER:                  -6.341
REMARK INTRA:                  -0.263
REMARK UNBOUND:                -0.277
REMARK SMILES O=c1cc(-c2ccc(O)c(O)c2)oc2cc(O)cc(O)c12
REMARK SMILES IDX 4 1 3 2 2 3 1 4 21 5 19 6 18 7 16 8 15 9 14 10 13 11 5 12
REMARK SMILES IDX 6 13 7 14 8 15 12 16 10 17 9 18 11 20 20 22 17 24
REMARK H PARENT 9 19 11 21 20 23 17 25
REMARK Flexibility Score: inf
ROOT
ATOM      1  C   UNL     1      23.667  29.587   5.740  1.00  0.00     0.138 A 
ATOM      2  C   UNL     1      25.047  29.619   5.985  1.00  0.00     0.100 A 
ATOM      3  C   UNL     1      25.750  28.422   6.125  1.00  0.00     0.197 A 
ATOM      4  O   UNL     1      26.998  28.481   6.281  1.00  0.00    -0.289 OA
ATOM      5  C   UNL     1      25.061  27.188   6.052  1.00  0.00     0.107 A 
ATOM      6  C   UNL     1      25.667  25.907   6.220  1.00  0.00     0.134 A 
ATOM      7  C   UNL     1      24.906  24.751   6.010  1.00  0.00     0.093 A 
ATOM      8  C   UNL     1      23.547  24.829   5.697  1.00  0.00     0.123 A 
ATOM      9  C   UNL     1      22.933  26.075   5.583  1.00  0.00     0.094 A 
ATOM     10  C   UNL     1      23.674  27.247   5.753  1.00  0.00     0.146 A 
ATOM     11  O   UNL     1      23.054  28.414   5.621  1.00  0.00    -0.456 OA
ENDROOT
BRANCH   1  12
ATOM     12  C   UNL     1      22.870  30.830   5.584  1.00  0.00     0.021 A 
ATOM     13  C   UNL     1      22.683  31.436   4.325  1.00  0.00     0.016 A 
ATOM     14  C   UNL     1      21.936  32.612   4.210  1.00  0.00     0.051 A 
ATOM     15  C   UNL     1      21.372  33.206   5.345  1.00  0.00     0.157 A 
ATOM     16  C   UNL     1      22.311  31.442   6.720  1.00  0.00     0.062 A 
ATOM     17  C   UNL     1      21.561  32.621   6.602  1.00  0.00     0.158 A 
BRANCH  15  18
ATOM     18  O   UNL     1      20.626  34.377   5.231  1.00  0.00    -0.504 OA
ATOM     19  H   UNL     1      21.058  35.259   4.980  1.00  0.00     0.293 HD
ENDBRANCH  15  18
BRANCH  17  20
ATOM     20  O   UNL     1      21.001  33.217   7.732  1.00  0.00    -0.504 OA
ATOM     21  H   UNL     1      20.210  33.845   7.663  1.00  0.00     0.293 HD
ENDBRANCH  17  20
ENDBRANCH   1  12
BRANCH   6  22
ATOM     22  O   UNL     1      26.995  25.717   6.614  1.00  0.00    -0.507 OA
ATOM     23  H   UNL     1      27.428  26.154   7.414  1.00  0.00     0.293 HD
ENDBRANCH   6  22
BRANCH   8  24
ATOM     24  O   UNL     1      22.795  23.673   5.504  1.00  0.00    -0.508 OA
ATOM     25  H   UNL     1      21.829  23.613   5.804  1.00  0.00     0.293 HD
ENDBRANCH   8  24
TORSDOF 5
ENDMDL
MODEL 3
REMARK VINA RESULT:    -5.138      1.067      1.858
REMARK INTER + INTRA:          -6.315
REMARK INTER:                  -6.012
REMARK INTRA:                  -0.304
REMARK UNBOUND:                -0.277
REMARK SMILES O=c1cc(-c2ccc(O)c(O)c2)oc2cc(O)cc(O)c12
REMARK SMILES IDX 4 1 3 2 2 3 1 4 21 5 19 6 18 7 16 8 15 9 14 10 13 11 5 12
REMARK SMILES IDX 6 13 7 14 8 15 12 16 10 17 9 18 11 20 20 22 17 24
REMARK H PARENT 9 19 11 21 20 23 17 25
REMARK Flexibility Score: inf
ROOT
ATOM      1  C   UNL     1      24.486  29.347   6.755  1.00  0.00     0.138 A 
ATOM      2  C   UNL     1      25.766  29.287   7.326  1.00  0.00     0.100 A 
ATOM      3  C   UNL     1      26.602  28.210   7.033  1.00  0.00     0.197 A 
ATOM      4  O   UNL     1      27.767  28.217   7.510  1.00  0.00    -0.289 OA
ATOM      5  C   UNL     1      26.142  27.170   6.190  1.00  0.00     0.107 A 
ATOM      6  C   UNL     1      26.892  26.003   5.855  1.00  0.00     0.134 A 
ATOM      7  C   UNL     1      26.378  25.099   4.919  1.00  0.00     0.093 A 
ATOM      8  C   UNL     1      25.116  25.287   4.351  1.00  0.00     0.123 A 
ATOM      9  C   UNL     1      24.353  26.396   4.712  1.00  0.00     0.094 A 
ATOM     10  C   UNL     1      24.852  27.334   5.618  1.00  0.00     0.146 A 
ATOM     11  O   UNL     1      24.100  28.385   5.924  1.00  0.00    -0.456 OA
ENDROOT
BRANCH   1  12
ATOM     12  C   UNL     1      23.555  30.470   7.033  1.00  0.00     0.021 A 
ATOM     13  C   UNL     1      23.516  31.104   8.290  1.00  0.00     0.016 A 
ATOM     14  C   UNL     1      22.621  32.152   8.526  1.00  0.00     0.051 A 
ATOM     15  C   UNL     1      21.749  32.578   7.519  1.00  0.00     0.157 A 
ATOM     16  C   UNL     1      22.665  30.896   6.031  1.00  0.00     0.062 A 
ATOM     17  C   UNL     1      21.769  31.948   6.269  1.00  0.00     0.158 A 
BRANCH  15  18
ATOM     18  O   UNL     1      20.858  33.624   7.751  1.00  0.00    -0.504 OA
ATOM     19  H   UNL     1      20.725  34.368   7.077  1.00  0.00     0.293 HD
ENDBRANCH  15  18
BRANCH  17  20
ATOM     20  O   UNL     1      20.896  32.371   5.268  1.00  0.00    -0.504 OA
ATOM     21  H   UNL     1      21.115  32.248   4.287  1.00  0.00     0.293 HD
ENDBRANCH  17  20
ENDBRANCH   1  12
BRANCH   6  22
ATOM     22  O   UNL     1      28.125  25.676   6.428  1.00  0.00    -0.507 OA
ATOM     23  H   UNL     1      28.409  24.745   6.695  1.00  0.00     0.293 HD
ENDBRANCH   6  22
BRANCH   8  24
ATOM     24  O   UNL     1      24.607  24.373   3.431  1.00  0.00    -0.508 OA
ATOM     25  H   UNL     1      25.024  24.254   2.515  1.00  0.00     0.293 HD
ENDBRANCH   8  24
TORSDOF 5
ENDMDL
MODEL 4
REMARK VINA RESULT:    -5.011      2.378      6.147
REMARK INTER + INTRA:          -6.166
REMARK INTER:                  -5.867
REMARK INTRA:                  -0.299
REMARK UNBOUND:                -0.277
REMARK SMILES O=c1cc(-c2ccc(O)c(O)c2)oc2cc(O)cc(O)c12
REMARK SMILES IDX 4 1 3 2 2 3 1 4 21 5 19 6 18 7 16 8 15 9 14 10 13 11 5 12
REMARK SMILES IDX 6 13 7 14 8 15 12 16 10 17 9 18 11 20 20 22 17 24
REMARK H PARENT 9 19 11 21 20 23 17 25
REMARK Flexibility Score: inf
ROOT
ATOM      1  C   UNL     1      24.902  27.226   6.160  1.00  0.00     0.138 A 
ATOM      2  C   UNL     1      26.287  27.238   6.374  1.00  0.00     0.100 A 
ATOM      3  C   UNL     1      26.890  28.367   6.928  1.00  0.00     0.197 A 
ATOM      4  O   UNL     1      28.125  28.324   7.167  1.00  0.00    -0.289 OA
ATOM      5  C   UNL     1      26.104  29.502   7.240  1.00  0.00     0.107 A 
ATOM      6  C   UNL     1      26.616  30.725   7.771  1.00  0.00     0.134 A 
ATOM      7  C   UNL     1      25.727  31.738   8.149  1.00  0.00     0.093 A 
ATOM      8  C   UNL     1      24.350  31.598   7.959  1.00  0.00     0.123 A 
ATOM      9  C   UNL     1      23.845  30.430   7.392  1.00  0.00     0.094 A 
ATOM     10  C   UNL     1      24.703  29.387   7.036  1.00  0.00     0.146 A 
ATOM     11  O   UNL     1      24.180  28.284   6.512  1.00  0.00    -0.456 OA
ENDROOT
BRANCH   1  12
ATOM     12  C   UNL     1      24.209  26.050   5.573  1.00  0.00     0.021 A 
ATOM     13  C   UNL     1      24.771  25.317   4.509  1.00  0.00     0.016 A 
ATOM     14  C   UNL     1      24.092  24.221   3.969  1.00  0.00     0.051 A 
ATOM     15  C   UNL     1      22.841  23.845   4.473  1.00  0.00     0.157 A 
ATOM     16  C   UNL     1      22.946  25.674   6.063  1.00  0.00     0.062 A 
ATOM     17  C   UNL     1      22.267  24.574   5.521  1.00  0.00     0.158 A 
BRANCH  15  18
ATOM     18  O   UNL     1      22.163  22.752   3.937  1.00  0.00    -0.504 OA
ATOM     19  H   UNL     1      22.652  21.911   3.655  1.00  0.00     0.293 HD
ENDBRANCH  15  18
BRANCH  17  20
ATOM     20  O   UNL     1      21.019  24.200   6.020  1.00  0.00    -0.504 OA
ATOM     21  H   UNL     1      20.807  24.248   7.008  1.00  0.00     0.293 HD
ENDBRANCH  17  20
ENDBRANCH   1  12
BRANCH   6  22
ATOM     22  O   UNL     1      27.978  31.000   7.922  1.00  0.00    -0.507 OA
ATOM     23  H   UNL     1      28.711  30.306   7.923  1.00  0.00     0.293 HD
ENDBRANCH   6  22
BRANCH   8  24
ATOM     24  O   UNL     1      23.475  32.618   8.325  1.00  0.00    -0.508 OA
ATOM     25  H   UNL     1      23.482  33.013   9.258  1.00  0.00     0.293 HD
ENDBRANCH   8  24
TORSDOF 5
ENDMDL
MODEL 5
REMARK VINA RESULT:    -4.799      3.021      6.531
REMARK INTER + INTRA:          -5.917
REMARK INTER:                  -5.633
REMARK INTRA:                  -0.285
REMARK UNBOUND:                -0.277
REMARK SMILES O=c1cc(-c2ccc(O)c(O)c2)oc2cc(O)cc(O)c12
REMARK SMILES IDX 4 1 3 2 2 3 1 4 21 5 19 6 18 7 16 8 15 9 14 10 13 11 5 12
REMARK SMILES IDX 6 13 7 14 8 15 12 16 10 17 9 18 11 20 20 22 17 24
REMARK H PARENT 9 19 11 21 20 23 17 25
REMARK Flexibility Score: inf
ROOT
ATOM      1  C   UNL     1      23.447  28.317   4.929  1.00  0.00     0.138 A 
ATOM      2  C   UNL     1      24.810  28.437   4.619  1.00  0.00     0.100 A 
ATOM      3  C   UNL     1      25.349  29.696   4.357  1.00  0.00     0.197 A 
ATOM      4  O   UNL     1      26.587  29.779   4.145  1.00  0.00    -0.289 OA
ATOM      5  C   UNL     1      24.512  30.838   4.374  1.00  0.00     0.107 A 
ATOM      6  C   UNL     1      24.944  32.167   4.082  1.00  0.00     0.134 A 
ATOM      7  C   UNL     1      24.051  33.233   4.244  1.00  0.00     0.093 A 
ATOM      8  C   UNL     1      22.726  33.012   4.628  1.00  0.00     0.123 A 
ATOM      9  C   UNL     1      22.280  31.713   4.864  1.00  0.00     0.094 A 
ATOM     10  C   UNL     1      23.156  30.632   4.744  1.00  0.00     0.146 A 
ATOM     11  O   UNL     1      22.696  29.410   4.991  1.00  0.00    -0.456 OA
ENDROOT
BRANCH   1  12
ATOM     12  C   UNL     1      22.821  27.001   5.215  1.00  0.00     0.021 A 
ATOM     13  C   UNL     1      23.364  26.115   6.167  1.00  0.00     0.016 A 
ATOM     14  C   UNL     1      22.759  24.878   6.408  1.00  0.00     0.051 A 
ATOM     15  C   UNL     1      21.612  24.502   5.700  1.00  0.00     0.157 A 
ATOM     16  C   UNL     1      21.677  26.608   4.499  1.00  0.00     0.062 A 
ATOM     17  C   UNL     1      21.070  25.368   4.743  1.00  0.00     0.158 A 
BRANCH  15  18
ATOM     18  O   UNL     1      21.007  23.270   5.940  1.00  0.00    -0.504 OA
ATOM     19  H   UNL     1      20.917  22.572   5.212  1.00  0.00     0.293 HD
ENDBRANCH  15  18
BRANCH  17  20
ATOM     20  O   UNL     1      19.929  24.989   4.037  1.00  0.00    -0.504 OA
ATOM     21  H   UNL     1      19.984  24.646   3.085  1.00  0.00     0.293 HD
ENDBRANCH  17  20
ENDBRANCH   1  12
BRANCH   6  22
ATOM     22  O   UNL     1      26.220  32.487   3.610  1.00  0.00    -0.507 OA
ATOM     23  H   UNL     1      26.485  32.518   2.637  1.00  0.00     0.293 HD
ENDBRANCH   6  22
BRANCH   8  24
ATOM     24  O   UNL     1      21.841  34.078   4.772  1.00  0.00    -0.508 OA
ATOM     25  H   UNL     1      21.541  34.399   5.685  1.00  0.00     0.293 HD
ENDBRANCH   8  24
TORSDOF 5
ENDMDL
MODEL 6
REMARK VINA RESULT:    -4.731      2.779      6.407
REMARK INTER + INTRA:          -5.837
REMARK INTER:                  -5.555
REMARK INTRA:                  -0.282
REMARK UNBOUND:                -0.277
REMARK SMILES O=c1cc(-c2ccc(O)c(O)c2)oc2cc(O)cc(O)c12
REMARK SMILES IDX 4 1 3 2 2 3 1 4 21 5 19 6 18 7 16 8 15 9 14 10 13 11 5 12
REMARK SMILES IDX 6 13 7 14 8 15 12 16 10 17 9 18 11 20 20 22 17 24
REMARK H PARENT 9 19 11 21 20 23 17 25
REMARK Flexibility Score: inf
ROOT
ATOM      1  C   UNL     1      23.597  27.101   5.567  1.00  0.00     0.138 A 
ATOM      2  C   UNL     1      22.889  28.236   5.146  1.00  0.00     0.100 A 
ATOM      3  C   UNL     1      23.348  29.505   5.498  1.00  0.00     0.197 A 
ATOM      4  O   UNL     1      22.728  30.505   5.052  1.00  0.00    -0.289 OA
ATOM      5  C   UNL     1      24.505  29.636   6.303  1.00  0.00     0.107 A 
ATOM      6  C   UNL     1      25.042  30.879   6.758  1.00  0.00     0.134 A 
ATOM      7  C   UNL     1      26.257  30.891   7.452  1.00  0.00     0.093 A 
ATOM      8  C   UNL     1      26.924  29.703   7.762  1.00  0.00     0.123 A 
ATOM      9  C   UNL     1      26.380  28.482   7.369  1.00  0.00     0.094 A 
ATOM     10  C   UNL     1      25.187  28.438   6.645  1.00  0.00     0.146 A 
ATOM     11  O   UNL     1      24.710  27.254   6.276  1.00  0.00    -0.456 OA
ENDROOT
BRANCH   1  12
ATOM     12  C   UNL     1      23.152  25.726   5.221  1.00  0.00     0.021 A 
ATOM     13  C   UNL     1      24.075  24.702   4.933  1.00  0.00     0.016 A 
ATOM     14  C   UNL     1      23.627  23.420   4.601  1.00  0.00     0.051 A 
ATOM     15  C   UNL     1      22.256  23.142   4.543  1.00  0.00     0.157 A 
ATOM     16  C   UNL     1      21.777  25.442   5.147  1.00  0.00     0.062 A 
ATOM     17  C   UNL     1      21.330  24.155   4.815  1.00  0.00     0.158 A 
BRANCH  15  18
ATOM     18  O   UNL     1      21.808  21.865   4.213  1.00  0.00    -0.504 OA
ATOM     19  H   UNL     1      21.303  21.685   3.353  1.00  0.00     0.293 HD
ENDBRANCH  15  18
BRANCH  17  20
ATOM     20  O   UNL     1      19.965  23.877   4.753  1.00  0.00    -0.504 OA
ATOM     21  H   UNL     1      19.605  23.105   4.206  1.00  0.00     0.293 HD
ENDBRANCH  17  20
ENDBRANCH   1  12
BRANCH   6  22
ATOM     22  O   UNL     1      24.413  32.114   6.577  1.00  0.00    -0.507 OA
ATOM     23  H   UNL     1      23.444  32.305   6.783  1.00  0.00     0.293 HD
ENDBRANCH   6  22
BRANCH   8  24
ATOM     24  O   UNL     1      28.125  29.725   8.467  1.00  0.00    -0.508 OA
ATOM     25  H   UNL     1      29.016  29.812   7.993  1.00  0.00     0.293 HD
ENDBRANCH   8  24
TORSDOF 5
ENDMDL
MODEL 7
REMARK VINA RESULT:    -4.703      1.334      2.829
REMARK INTER + INTRA:          -5.805
REMARK INTER:                  -5.535
REMARK INTRA:                  -0.270
REMARK UNBOUND:                -0.277
REMARK SMILES O=c1cc(-c2ccc(O)c(O)c2)oc2cc(O)cc(O)c12
REMARK SMILES IDX 4 1 3 2 2 3 1 4 21 5 19 6 18 7 16 8 15 9 14 10 13 11 5 12
REMARK SMILES IDX 6 13 7 14 8 15 12 16 10 17 9 18 11 20 20 22 17 24
REMARK H PARENT 9 19 11 21 20 23 17 25
REMARK Flexibility Score: inf
ROOT
ATOM      1  C   UNL     1      23.247  29.240   5.307  1.00  0.00     0.138 A 
ATOM      2  C   UNL     1      22.522  28.138   4.831  1.00  0.00     0.100 A 
ATOM      3  C   UNL     1      23.073  26.859   4.920  1.00  0.00     0.197 A 
ATOM      4  O   UNL     1      22.373  25.883   4.543  1.00  0.00    -0.289 OA
ATOM      5  C   UNL     1      24.370  26.688   5.461  1.00  0.00     0.107 A 
ATOM      6  C   UNL     1      25.049  25.437   5.564  1.00  0.00     0.134 A 
ATOM      7  C   UNL     1      26.283  25.374   6.223  1.00  0.00     0.093 A 
ATOM      8  C   UNL     1      26.890  26.527   6.728  1.00  0.00     0.123 A 
ATOM      9  C   UNL     1      26.260  27.761   6.585  1.00  0.00     0.094 A 
ATOM     10  C   UNL     1      25.013  27.851   5.962  1.00  0.00     0.146 A 
ATOM     11  O   UNL     1      24.439  29.045   5.859  1.00  0.00    -0.456 OA
ENDROOT
BRANCH   1  12
ATOM     12  C   UNL     1      22.709  30.622   5.235  1.00  0.00     0.021 A 
ATOM     13  C   UNL     1      22.778  31.382   4.051  1.00  0.00     0.016 A 
ATOM     14  C   UNL     1      22.272  32.685   4.016  1.00  0.00     0.051 A 
ATOM     15  C   UNL     1      21.699  33.252   5.159  1.00  0.00     0.157 A 
ATOM     16  C   UNL     1      22.143  31.206   6.382  1.00  0.00     0.062 A 
ATOM     17  C   UNL     1      21.635  32.512   6.345  1.00  0.00     0.158 A 
BRANCH  15  18
ATOM     18  O   UNL     1      21.192  34.550   5.126  1.00  0.00    -0.504 OA
ATOM     19  H   UNL     1      20.546  34.886   5.830  1.00  0.00     0.293 HD
ENDBRANCH  15  18
BRANCH  17  20
ATOM     20  O   UNL     1      21.066  33.080   7.484  1.00  0.00    -0.504 OA
ATOM     21  H   UNL     1      21.625  33.317   8.295  1.00  0.00     0.293 HD
ENDBRANCH  17  20
ENDBRANCH   1  12
BRANCH   6  22
ATOM     22  O   UNL     1      24.571  24.241   5.020  1.00  0.00    -0.507 OA
ATOM     23  H   UNL     1      23.844  24.175   4.323  1.00  0.00     0.293 HD
ENDBRANCH   6  22
BRANCH   8  24
ATOM     24  O   UNL     1      28.125  26.456   7.369  1.00  0.00    -0.508 OA
ATOM     25  H   UNL     1      28.960  26.856   6.957  1.00  0.00     0.293 HD
ENDBRANCH   8  24
TORSDOF 5
ENDMDL
MODEL 8
REMARK VINA RESULT:    -4.666      2.682      6.337
REMARK INTER + INTRA:          -5.761
REMARK INTER:                  -5.448
REMARK INTRA:                  -0.314
REMARK UNBOUND:                -0.277
REMARK SMILES O=c1cc(-c2ccc(O)c(O)c2)oc2cc(O)cc(O)c12
REMARK SMILES IDX 4 1 3 2 2 3 1 4 21 5 19 6 18 7 16 8 15 9 14 10 13 11 5 12
REMARK SMILES IDX 6 13 7 14 8 15 12 16 10 17 9 18 11 20 20 22 17 24
REMARK H PARENT 9 19 11 21 20 23 17 25
REMARK Flexibility Score: inf
ROOT
ATOM      1  C   UNL     1      23.691  27.268   5.832  1.00  0.00     0.138 A 
ATOM      2  C   UNL     1      24.883  27.343   6.568  1.00  0.00     0.100 A 
ATOM      3  C   UNL     1      25.387  28.590   6.938  1.00  0.00     0.197 A 
ATOM      4  O   UNL     1      26.423  28.623   7.651  1.00  0.00    -0.289 OA
ATOM      5  C   UNL     1      24.711  29.769   6.541  1.00  0.00     0.107 A 
ATOM      6  C   UNL     1      25.154  31.096   6.825  1.00  0.00     0.134 A 
ATOM      7  C   UNL     1      24.342  32.182   6.482  1.00  0.00     0.093 A 
ATOM      8  C   UNL     1      23.131  31.995   5.811  1.00  0.00     0.123 A 
ATOM      9  C   UNL     1      22.715  30.706   5.481  1.00  0.00     0.094 A 
ATOM     10  C   UNL     1      23.487  29.599   5.840  1.00  0.00     0.146 A 
ATOM     11  O   UNL     1      23.048  28.387   5.520  1.00  0.00    -0.456 OA
ENDROOT
BRANCH   1  12
ATOM     12  C   UNL     1      23.110  25.967   5.412  1.00  0.00     0.021 A 
ATOM     13  C   UNL     1      23.885  24.792   5.367  1.00  0.00     0.016 A 
ATOM     14  C   UNL     1      23.314  23.583   4.958  1.00  0.00     0.051 A 
ATOM     15  C   UNL     1      21.968  23.529   4.579  1.00  0.00     0.157 A 
ATOM     16  C   UNL     1      21.762  25.906   5.016  1.00  0.00     0.062 A 
ATOM     17  C   UNL     1      21.190  24.693   4.607  1.00  0.00     0.158 A 
BRANCH  15  18
ATOM     18  O   UNL     1      21.396  22.326   4.171  1.00  0.00    -0.504 OA
ATOM     19  H   UNL     1      21.511  21.475   4.709  1.00  0.00     0.293 HD
ENDBRANCH  15  18
BRANCH  17  20
ATOM     20  O   UNL     1      19.851  24.638   4.226  1.00  0.00    -0.504 OA
ATOM     21  H   UNL     1      19.578  24.420   3.275  1.00  0.00     0.293 HD
ENDBRANCH  17  20
ENDBRANCH   1  12
BRANCH   6  22
ATOM     22  O   UNL     1      26.385  31.397   7.416  1.00  0.00    -0.507 OA
ATOM     23  H   UNL     1      26.939  30.752   7.959  1.00  0.00     0.293 HD
ENDBRANCH   6  22
BRANCH   8  24
ATOM     24  O   UNL     1      22.337  33.084   5.460  1.00  0.00    -0.508 OA
ATOM     25  H   UNL     1      21.333  33.074   5.597  1.00  0.00     0.293 HD
ENDBRANCH   8  24
TORSDOF 5
ENDMDL
