MODEL 1
REMARK VINA RESULT:    -6.256      0.000      0.000
REMARK INTER + INTRA:          -7.725
REMARK INTER:                  -7.536
REMARK INTRA:                  -0.189
REMARK UNBOUND:                -0.189
REMARK SMILES O=c1c(O)c(-c2ccc(O)c(O)c2)oc2cc(O)cc(O)c12
REMARK SMILES IDX 5 1 3 2 2 3 1 4 22 5 20 6 19 7 17 8 16 9 15 10 14 11 6 12
REMARK SMILES IDX 7 13 8 14 9 15 13 16 11 17 10 18 12 20 4 22 21 24 18 26
REMARK H PARENT 10 19 12 21 4 23 21 25 18 27
REMARK Flexibility Score: inf
ROOT
ATOM      1  C   UNL     1       6.869  -9.065 -10.397  1.00  0.00     0.180 A 
ATOM      2  C   UNL     1       6.325  -9.754  -9.301  1.00  0.00     0.208 A 
ATOM      3  C   UNL     1       6.799  -9.464  -8.012  1.00  0.00     0.238 A 
ATOM      4  O   UNL     1       6.270 -10.045  -7.028  1.00  0.00    -0.285 OA
ATOM      5  C   UNL     1       7.821  -8.501  -7.837  1.00  0.00     0.111 A 
ATOM      6  C   UNL     1       8.405  -8.157  -6.580  1.00  0.00     0.134 A 
ATOM      7  C   UNL     1       9.317  -7.096  -6.510  1.00  0.00     0.093 A 
ATOM      8  C   UNL     1       9.715  -6.411  -7.660  1.00  0.00     0.123 A 
ATOM      9  C   UNL     1       9.196  -6.779  -8.899  1.00  0.00     0.094 A 
ATOM     10  C   UNL     1       8.257  -7.808  -8.996  1.00  0.00     0.146 A 
ATOM     11  O   UNL     1       7.781  -8.120 -10.195  1.00  0.00    -0.452 OA
ENDROOT
BRANCH   1  12
ATOM     12  C   UNL     1       6.439  -9.334 -11.790  1.00  0.00     0.025 A 
ATOM     13  C   UNL     1       5.703  -8.388 -12.524  1.00  0.00     0.016 A 
ATOM     14  C   UNL     1       5.289  -8.674 -13.828  1.00  0.00     0.051 A 
ATOM     15  C   UNL     1       5.590  -9.911 -14.411  1.00  0.00     0.157 A 
ATOM     16  C   UNL     1       6.722 -10.582 -12.371  1.00  0.00     0.062 A 
ATOM     17  C   UNL     1       6.305 -10.868 -13.680  1.00  0.00     0.158 A 
BRANCH  15  18
ATOM     18  O   UNL     1       5.180 -10.198 -15.710  1.00  0.00    -0.504 OA
ATOM     19  H   UNL     1       5.811 -10.611 -16.388  1.00  0.00     0.293 HD
ENDBRANCH  15  18
BRANCH  17  20
ATOM     20  O   UNL     1       6.599 -12.101 -14.259  1.00  0.00    -0.504 OA
ATOM     21  H   UNL     1       6.290 -12.333 -15.197  1.00  0.00     0.293 HD
ENDBRANCH  17  20
ENDBRANCH   1  12
BRANCH   2  22
ATOM     22  O   UNL     1       5.302 -10.686  -9.493  1.00  0.00    -0.502 OA
ATOM     23  H   UNL     1       5.052 -11.039 -10.408  1.00  0.00     0.293 HD
ENDBRANCH   2  22
BRANCH   6  24
ATOM     24  O   UNL     1       8.146  -8.837  -5.387  1.00  0.00    -0.507 OA
ATOM     25  H   UNL     1       8.605  -9.688  -5.100  1.00  0.00     0.293 HD
ENDBRANCH   6  24
BRANCH   8  26
ATOM     26  O   UNL     1      10.635  -5.367  -7.583  1.00  0.00    -0.508 OA
ATOM     27  H   UNL     1      11.567  -5.509  -7.210  1.00  0.00     0.293 HD
ENDBRANCH   8  26
TORSDOF 6
ENDMDL
MODEL 2
REMARK VINA RESULT:    -6.010      4.077      6.718
REMARK INTER + INTRA:          -7.428
REMARK INTER:                  -7.106
REMARK INTRA:                  -0.322
REMARK UNBOUND:                -0.189
REMARK SMILES O=c1c(O)c(-c2ccc(O)c(O)c2)oc2cc(O)cc(O)c12
REMARK SMILES IDX 5 1 3 2 2 3 1 4 22 5 20 6 19 7 17 8 16 9 15 10 14 11 6 12
REMARK SMILES IDX 7 13 8 14 9 15 13 16 11 17 10 18 12 20 4 22 21 24 18 26
REMARK H PARENT 10 19 12 21 4 23 21 25 18 27
REMARK Flexibility Score: inf
ROOT
ATOM      1  C   UNL     1       6.817  -9.284  -7.004  1.00  0.00     0.180 A 
ATOM      2  C   UNL     1       5.515  -9.070  -7.484  1.00  0.00     0.208 A 
ATOM      3  C   UNL     1       4.578 -10.111  -7.397  1.00  0.00     0.238 A 
ATOM      4  O   UNL     1       3.397  -9.896  -7.778  1.00  0.00    -0.285 OA
ATOM      5  C   UNL     1       4.959 -11.358  -6.847  1.00  0.00     0.111 A 
ATOM      6  C   UNL     1       4.103 -12.496  -6.746  1.00  0.00     0.134 A 
ATOM      7  C   UNL     1       4.547 -13.636  -6.065  1.00  0.00     0.093 A 
ATOM      8  C   UNL     1       5.839 -13.703  -5.538  1.00  0.00     0.123 A 
ATOM      9  C   UNL     1       6.703 -12.620  -5.684  1.00  0.00     0.094 A 
ATOM     10  C   UNL     1       6.276 -11.455  -6.326  1.00  0.00     0.146 A 
ATOM     11  O   UNL     1       7.127 -10.443  -6.434  1.00  0.00    -0.452 OA
ENDROOT
BRANCH   1  12
ATOM     12  C   UNL     1       7.868  -8.242  -7.085  1.00  0.00     0.025 A 
ATOM     13  C   UNL     1       8.024  -7.279  -6.073  1.00  0.00     0.016 A 
ATOM     14  C   UNL     1       9.007  -6.293  -6.182  1.00  0.00     0.051 A 
ATOM     15  C   UNL     1       9.838  -6.244  -7.309  1.00  0.00     0.157 A 
ATOM     16  C   UNL     1       8.691  -8.178  -8.223  1.00  0.00     0.062 A 
ATOM     17  C   UNL     1       9.678  -7.187  -8.332  1.00  0.00     0.158 A 
BRANCH  15  18
ATOM     18  O   UNL     1      10.821  -5.263  -7.420  1.00  0.00    -0.504 OA
ATOM     19  H   UNL     1      11.698  -5.441  -7.894  1.00  0.00     0.293 HD
ENDBRANCH  15  18
BRANCH  17  20
ATOM     20  O   UNL     1      10.502  -7.133  -9.454  1.00  0.00    -0.504 OA
ATOM     21  H   UNL     1      10.299  -6.515 -10.233  1.00  0.00     0.293 HD
ENDBRANCH  17  20
ENDBRANCH   1  12
BRANCH   2  22
ATOM     22  O   UNL     1       5.152  -7.824  -8.004  1.00  0.00    -0.502 OA
ATOM     23  H   UNL     1       5.829  -7.096  -8.195  1.00  0.00     0.293 HD
ENDBRANCH   2  22
BRANCH   6  24
ATOM     24  O   UNL     1       2.829 -12.567  -7.317  1.00  0.00    -0.507 OA
ATOM     25  H   UNL     1       2.197 -13.347  -7.217  1.00  0.00     0.293 HD
ENDBRANCH   6  24
BRANCH   8  26
ATOM     26  O   UNL     1       6.279 -14.847  -4.875  1.00  0.00    -0.508 OA
ATOM     27  H   UNL     1       6.528 -14.828  -3.892  1.00  0.00     0.293 HD
ENDBRANCH   8  26
TORSDOF 6
ENDMDL
MODEL 3
REMARK VINA RESULT:    -5.974     10.678     12.151
REMARK INTER + INTRA:          -7.385
REMARK INTER:                  -7.062
REMARK INTRA:                  -0.323
REMARK UNBOUND:                -0.189
REMARK SMILES O=c1c(O)c(-c2ccc(O)c(O)c2)oc2cc(O)cc(O)c12
REMARK SMILES IDX 5 1 3 2 2 3 1 4 22 5 20 6 19 7 17 8 16 9 15 10 14 11 6 12
REMARK SMILES IDX 7 13 8 14 9 15 13 16 11 17 10 18 12 20 4 22 21 24 18 26
REMARK H PARENT 10 19 12 21 4 23 21 25 18 27
REMARK Flexibility Score: inf
ROOT
ATOM      1  C   UNL     1       5.892 -20.475  -9.285  1.00  0.00     0.180 A 
ATOM      2  C   UNL     1       5.805 -19.140  -8.857  1.00  0.00     0.208 A 
ATOM      3  C   UNL     1       6.391 -18.779  -7.634  1.00  0.00     0.238 A 
ATOM      4  O   UNL     1       6.357 -17.570  -7.280  1.00  0.00    -0.285 OA
ATOM      5  C   UNL     1       7.044 -19.758  -6.848  1.00  0.00     0.111 A 
ATOM      6  C   UNL     1       7.638 -19.512  -5.573  1.00  0.00     0.134 A 
ATOM      7  C   UNL     1       8.370 -20.526  -4.945  1.00  0.00     0.093 A 
ATOM      8  C   UNL     1       8.475 -21.798  -5.515  1.00  0.00     0.123 A 
ATOM      9  C   UNL     1       7.847 -22.066  -6.729  1.00  0.00     0.094 A 
ATOM     10  C   UNL     1       7.141 -21.063  -7.397  1.00  0.00     0.146 A 
ATOM     11  O   UNL     1       6.567 -21.358  -8.558  1.00  0.00    -0.452 OA
ENDROOT
BRANCH   1  12
ATOM     12  C   UNL     1       5.277 -20.938 -10.551  1.00  0.00     0.025 A 
ATOM     13  C   UNL     1       5.991 -20.922 -11.762  1.00  0.00     0.016 A 
ATOM     14  C   UNL     1       5.382 -21.343 -12.946  1.00  0.00     0.051 A 
ATOM     15  C   UNL     1       4.047 -21.770 -12.943  1.00  0.00     0.157 A 
ATOM     16  C   UNL     1       3.933 -21.349 -10.555  1.00  0.00     0.062 A 
ATOM     17  C   UNL     1       3.321 -21.771 -11.746  1.00  0.00     0.158 A 
BRANCH  15  18
ATOM     18  O   UNL     1       3.438 -22.191 -14.122  1.00  0.00    -0.504 OA
ATOM     19  H   UNL     1       3.329 -21.569 -14.915  1.00  0.00     0.293 HD
ENDBRANCH  15  18
BRANCH  17  20
ATOM     20  O   UNL     1       1.992 -22.190 -11.745  1.00  0.00    -0.504 OA
ATOM     21  H   UNL     1       1.327 -21.845 -12.429  1.00  0.00     0.293 HD
ENDBRANCH  17  20
ENDBRANCH   1  12
BRANCH   2  22
ATOM     22  O   UNL     1       5.175 -18.184  -9.657  1.00  0.00    -0.502 OA
ATOM     23  H   UNL     1       5.400 -18.060 -10.637  1.00  0.00     0.293 HD
ENDBRANCH   2  22
BRANCH   6  24
ATOM     24  O   UNL     1       7.516 -18.307  -4.875  1.00  0.00    -0.507 OA
ATOM     25  H   UNL     1       6.643 -17.906  -4.569  1.00  0.00     0.293 HD
ENDBRANCH   6  24
BRANCH   8  26
ATOM     26  O   UNL     1       9.192 -22.807  -4.875  1.00  0.00    -0.508 OA
ATOM     27  H   UNL     1       9.344 -23.709  -5.314  1.00  0.00     0.293 HD
ENDBRANCH   8  26
TORSDOF 6
ENDMDL
MODEL 4
REMARK VINA RESULT:    -5.906      1.448      3.251
REMARK INTER + INTRA:          -7.304
REMARK INTER:                  -7.089
REMARK INTRA:                  -0.215
REMARK UNBOUND:                -0.189
REMARK SMILES O=c1c(O)c(-c2ccc(O)c(O)c2)oc2cc(O)cc(O)c12
REMARK SMILES IDX 5 1 3 2 2 3 1 4 22 5 20 6 19 7 17 8 16 9 15 10 14 11 6 12
REMARK SMILES IDX 7 13 8 14 9 15 13 16 11 17 10 18 12 20 4 22 21 24 18 26
REMARK H PARENT 10 19 12 21 4 23 21 25 18 27
REMARK Flexibility Score: inf
ROOT
ATOM      1  C   UNL     1       7.040  -9.288 -10.903  1.00  0.00     0.180 A 
ATOM      2  C   UNL     1       7.961  -8.236 -10.774  1.00  0.00     0.208 A 
ATOM      3  C   UNL     1       8.432  -7.897  -9.495  1.00  0.00     0.238 A 
ATOM      4  O   UNL     1       9.299  -6.990  -9.391  1.00  0.00    -0.285 OA
ATOM      5  C   UNL     1       7.965  -8.604  -8.362  1.00  0.00     0.111 A 
ATOM      6  C   UNL     1       8.345  -8.320  -7.015  1.00  0.00     0.134 A 
ATOM      7  C   UNL     1       7.922  -9.168  -5.985  1.00  0.00     0.093 A 
ATOM      8  C   UNL     1       7.080 -10.252  -6.244  1.00  0.00     0.123 A 
ATOM      9  C   UNL     1       6.655 -10.503  -7.547  1.00  0.00     0.094 A 
ATOM     10  C   UNL     1       7.090  -9.696  -8.601  1.00  0.00     0.146 A 
ATOM     11  O   UNL     1       6.670  -9.976  -9.828  1.00  0.00    -0.452 OA
ENDROOT
BRANCH   1  12
ATOM     12  C   UNL     1       6.478  -9.687 -12.215  1.00  0.00     0.025 A 
ATOM     13  C   UNL     1       6.855 -10.889 -12.838  1.00  0.00     0.016 A 
ATOM     14  C   UNL     1       6.329 -11.232 -14.086  1.00  0.00     0.051 A 
ATOM     15  C   UNL     1       5.431 -10.375 -14.735  1.00  0.00     0.157 A 
ATOM     16  C   UNL     1       5.592  -8.821 -12.879  1.00  0.00     0.062 A 
ATOM     17  C   UNL     1       5.064  -9.166 -14.132  1.00  0.00     0.158 A 
BRANCH  15  18
ATOM     18  O   UNL     1       4.903 -10.716 -15.979  1.00  0.00    -0.504 OA
ATOM     19  H   UNL     1       5.251 -10.301 -16.835  1.00  0.00     0.293 HD
ENDBRANCH  15  18
BRANCH  17  20
ATOM     20  O   UNL     1       4.176  -8.312 -14.782  1.00  0.00    -0.504 OA
ATOM     21  H   UNL     1       3.484  -7.776 -14.270  1.00  0.00     0.293 HD
ENDBRANCH  17  20
ENDBRANCH   1  12
BRANCH   2  22
ATOM     22  O   UNL     1       8.426  -7.564 -11.908  1.00  0.00    -0.502 OA
ATOM     23  H   UNL     1       7.940  -6.772 -12.308  1.00  0.00     0.293 HD
ENDBRANCH   2  22
BRANCH   6  24
ATOM     24  O   UNL     1       9.107  -7.211  -6.637  1.00  0.00    -0.507 OA
ATOM     25  H   UNL     1       8.832  -6.536  -5.940  1.00  0.00     0.293 HD
ENDBRANCH   6  24
BRANCH   8  26
ATOM     26  O   UNL     1       6.650 -11.082  -5.210  1.00  0.00    -0.508 OA
ATOM     27  H   UNL     1       6.072 -11.896  -5.390  1.00  0.00     0.293 HD
ENDBRANCH   8  26
TORSDOF 6
ENDMDL
MODEL 5
REMARK VINA RESULT:    -5.893      1.449      7.088
REMARK INTER + INTRA:          -7.288
REMARK INTER:                  -7.000
REMARK INTRA:                  -0.288
REMARK UNBOUND:                -0.189
REMARK SMILES O=c1c(O)c(-c2ccc(O)c(O)c2)oc2cc(O)cc(O)c12
REMARK SMILES IDX 5 1 3 2 2 3 1 4 22 5 20 6 19 7 17 8 16 9 15 10 14 11 6 12
REMARK SMILES IDX 7 13 8 14 9 15 13 16 11 17 10 18 12 20 4 22 21 24 18 26
REMARK H PARENT 10 19 12 21 4 23 21 25 18 27
REMARK Flexibility Score: inf
ROOT
ATOM      1  C   UNL     1       7.067  -8.335  -9.935  1.00  0.00     0.180 A 
ATOM      2  C   UNL     1       6.108  -7.487 -10.512  1.00  0.00     0.208 A 
ATOM      3  C   UNL     1       5.596  -7.802 -11.781  1.00  0.00     0.238 A 
ATOM      4  O   UNL     1       4.696  -7.069 -12.270  1.00  0.00    -0.285 OA
ATOM      5  C   UNL     1       6.062  -8.951 -12.463  1.00  0.00     0.111 A 
ATOM      6  C   UNL     1       5.642  -9.344 -13.771  1.00  0.00     0.134 A 
ATOM      7  C   UNL     1       6.071 -10.570 -14.294  1.00  0.00     0.093 A 
ATOM      8  C   UNL     1       6.956 -11.386 -13.584  1.00  0.00     0.123 A 
ATOM      9  C   UNL     1       7.418 -10.983 -12.334  1.00  0.00     0.094 A 
ATOM     10  C   UNL     1       6.979  -9.783 -11.770  1.00  0.00     0.146 A 
ATOM     11  O   UNL     1       7.437  -9.441 -10.572  1.00  0.00    -0.452 OA
ENDROOT
BRANCH   1  12
ATOM     12  C   UNL     1       7.672  -8.055  -8.612  1.00  0.00     0.025 A 
ATOM     13  C   UNL     1       7.220  -8.702  -7.449  1.00  0.00     0.016 A 
ATOM     14  C   UNL     1       7.791  -8.405  -6.209  1.00  0.00     0.051 A 
ATOM     15  C   UNL     1       8.810  -7.448  -6.110  1.00  0.00     0.157 A 
ATOM     16  C   UNL     1       8.680  -7.082  -8.505  1.00  0.00     0.062 A 
ATOM     17  C   UNL     1       9.253  -6.784  -7.260  1.00  0.00     0.158 A 
BRANCH  15  18
ATOM     18  O   UNL     1       9.381  -7.152  -4.875  1.00  0.00    -0.504 OA
ATOM     19  H   UNL     1       9.165  -6.293  -4.382  1.00  0.00     0.293 HD
ENDBRANCH  15  18
BRANCH  17  20
ATOM     20  O   UNL     1      10.262  -5.828  -7.158  1.00  0.00    -0.504 OA
ATOM     21  H   UNL     1      10.625  -5.351  -7.976  1.00  0.00     0.293 HD
ENDBRANCH  17  20
ENDBRANCH   1  12
BRANCH   2  22
ATOM     22  O   UNL     1       5.645  -6.369  -9.813  1.00  0.00    -0.502 OA
ATOM     23  H   UNL     1       5.111  -5.632 -10.257  1.00  0.00     0.293 HD
ENDBRANCH   2  22
BRANCH   6  24
ATOM     24  O   UNL     1       4.834  -8.561 -14.599  1.00  0.00    -0.507 OA
ATOM     25  H   UNL     1       4.778  -8.654 -15.602  1.00  0.00     0.293 HD
ENDBRANCH   6  24
BRANCH   8  26
ATOM     26  O   UNL     1       7.391 -12.598 -14.119  1.00  0.00    -0.508 OA
ATOM     27  H   UNL     1       6.889 -13.462 -13.949  1.00  0.00     0.293 HD
ENDBRANCH   8  26
TORSDOF 6
ENDMDL
MODEL 6
REMARK VINA RESULT:    -5.682      1.537      7.005
REMARK INTER + INTRA:          -7.033
REMARK INTER:                  -6.837
REMARK INTRA:                  -0.197
REMARK UNBOUND:                -0.189
REMARK SMILES O=c1c(O)c(-c2ccc(O)c(O)c2)oc2cc(O)cc(O)c12
REMARK SMILES IDX 5 1 3 2 2 3 1 4 22 5 20 6 19 7 17 8 16 9 15 10 14 11 6 12
REMARK SMILES IDX 7 13 8 14 9 15 13 16 11 17 10 18 12 20 4 22 21 24 18 26
REMARK H PARENT 10 19 12 21 4 23 21 25 18 27
REMARK Flexibility Score: inf
ROOT
ATOM      1  C   UNL     1       6.669  -8.318 -10.003  1.00  0.00     0.180 A 
ATOM      2  C   UNL     1       5.684  -7.483 -10.556  1.00  0.00     0.208 A 
ATOM      3  C   UNL     1       5.189  -7.772 -11.837  1.00  0.00     0.238 A 
ATOM      4  O   UNL     1       4.267  -7.053 -12.306  1.00  0.00    -0.285 OA
ATOM      5  C   UNL     1       5.695  -8.882 -12.555  1.00  0.00     0.111 A 
ATOM      6  C   UNL     1       5.294  -9.245 -13.877  1.00  0.00     0.134 A 
ATOM      7  C   UNL     1       5.765 -10.438 -14.438  1.00  0.00     0.093 A 
ATOM      8  C   UNL     1       6.674 -11.247 -13.752  1.00  0.00     0.123 A 
ATOM      9  C   UNL     1       7.117 -10.871 -12.486  1.00  0.00     0.094 A 
ATOM     10  C   UNL     1       6.636  -9.705 -11.885  1.00  0.00     0.146 A 
ATOM     11  O   UNL     1       7.077  -9.390 -10.673  1.00  0.00    -0.452 OA
ENDROOT
BRANCH   1  12
ATOM     12  C   UNL     1       7.259  -8.063  -8.668  1.00  0.00     0.025 A 
ATOM     13  C   UNL     1       8.033  -6.917  -8.416  1.00  0.00     0.016 A 
ATOM     14  C   UNL     1       8.598  -6.710  -7.156  1.00  0.00     0.051 A 
ATOM     15  C   UNL     1       8.412  -7.649  -6.133  1.00  0.00     0.157 A 
ATOM     16  C   UNL     1       7.091  -9.013  -7.646  1.00  0.00     0.062 A 
ATOM     17  C   UNL     1       7.660  -8.804  -6.380  1.00  0.00     0.158 A 
BRANCH  15  18
ATOM     18  O   UNL     1       8.973  -7.444  -4.875  1.00  0.00    -0.504 OA
ATOM     19  H   UNL     1       8.743  -6.630  -4.317  1.00  0.00     0.293 HD
ENDBRANCH  15  18
BRANCH  17  20
ATOM     20  O   UNL     1       7.481  -9.741  -5.364  1.00  0.00    -0.504 OA
ATOM     21  H   UNL     1       6.634  -9.762  -4.805  1.00  0.00     0.293 HD
ENDBRANCH  17  20
ENDBRANCH   1  12
BRANCH   2  22
ATOM     22  O   UNL     1       5.182  -6.405  -9.822  1.00  0.00    -0.502 OA
ATOM     23  H   UNL     1       5.057  -5.484 -10.224  1.00  0.00     0.293 HD
ENDBRANCH   2  22
BRANCH   6  24
ATOM     24  O   UNL     1       4.464  -8.461 -14.683  1.00  0.00    -0.507 OA
ATOM     25  H   UNL     1       3.800  -8.825 -15.350  1.00  0.00     0.293 HD
ENDBRANCH   6  24
BRANCH   8  26
ATOM     26  O   UNL     1       7.151 -12.425 -14.325  1.00  0.00    -0.508 OA
ATOM     27  H   UNL     1       6.882 -12.705 -15.261  1.00  0.00     0.293 HD
ENDBRANCH   8  26
TORSDOF 6
ENDMDL
MODEL 7
REMARK VINA RESULT:    -5.639      1.807      2.293
REMARK INTER + INTRA:          -6.981
REMARK INTER:                  -6.707
REMARK INTRA:                  -0.274
REMARK UNBOUND:                -0.189
REMARK SMILES O=c1c(O)c(-c2ccc(O)c(O)c2)oc2cc(O)cc(O)c12
REMARK SMILES IDX 5 1 3 2 2 3 1 4 22 5 20 6 19 7 17 8 16 9 15 10 14 11 6 12
REMARK SMILES IDX 7 13 8 14 9 15 13 16 11 17 10 18 12 20 4 22 21 24 18 26
REMARK H PARENT 10 19 12 21 4 23 21 25 18 27
REMARK Flexibility Score: inf
ROOT
ATOM      1  C   UNL     1       6.824  -8.101 -10.156  1.00  0.00     0.180 A 
ATOM      2  C   UNL     1       5.762  -7.715  -9.321  1.00  0.00     0.208 A 
ATOM      3  C   UNL     1       6.018  -6.835  -8.257  1.00  0.00     0.238 A 
ATOM      4  O   UNL     1       5.053  -6.450  -7.546  1.00  0.00    -0.285 OA
ATOM      5  C   UNL     1       7.333  -6.365  -8.032  1.00  0.00     0.111 A 
ATOM      6  C   UNL     1       7.714  -5.501  -6.960  1.00  0.00     0.134 A 
ATOM      7  C   UNL     1       9.018  -4.995  -6.912  1.00  0.00     0.093 A 
ATOM      8  C   UNL     1       9.974  -5.372  -7.859  1.00  0.00     0.123 A 
ATOM      9  C   UNL     1       9.628  -6.261  -8.874  1.00  0.00     0.094 A 
ATOM     10  C   UNL     1       8.325  -6.754  -8.970  1.00  0.00     0.146 A 
ATOM     11  O   UNL     1       8.035  -7.591  -9.959  1.00  0.00    -0.452 OA
ENDROOT
BRANCH   1  12
ATOM     12  C   UNL     1       6.639  -9.045 -11.282  1.00  0.00     0.025 A 
ATOM     13  C   UNL     1       7.069 -10.381 -11.195  1.00  0.00     0.016 A 
ATOM     14  C   UNL     1       6.904 -11.247 -12.279  1.00  0.00     0.051 A 
ATOM     15  C   UNL     1       6.321 -10.790 -13.468  1.00  0.00     0.157 A 
ATOM     16  C   UNL     1       6.073  -8.585 -12.483  1.00  0.00     0.062 A 
ATOM     17  C   UNL     1       5.908  -9.456 -13.571  1.00  0.00     0.158 A 
BRANCH  15  18
ATOM     18  O   UNL     1       6.154 -11.652 -14.549  1.00  0.00    -0.504 OA
ATOM     19  H   UNL     1       6.819 -11.680 -15.314  1.00  0.00     0.293 HD
ENDBRANCH  15  18
BRANCH  17  20
ATOM     20  O   UNL     1       5.334  -9.001 -14.757  1.00  0.00    -0.504 OA
ATOM     21  H   UNL     1       5.873  -8.481 -15.441  1.00  0.00     0.293 HD
ENDBRANCH  17  20
ENDBRANCH   1  12
BRANCH   2  22
ATOM     22  O   UNL     1       4.467  -8.174  -9.573  1.00  0.00    -0.502 OA
ATOM     23  H   UNL     1       3.757  -8.224  -8.853  1.00  0.00     0.293 HD
ENDBRANCH   2  22
BRANCH   6  24
ATOM     24  O   UNL     1       6.864  -5.137  -5.913  1.00  0.00    -0.507 OA
ATOM     25  H   UNL     1       6.047  -4.553  -6.012  1.00  0.00     0.293 HD
ENDBRANCH   6  24
BRANCH   8  26
ATOM     26  O   UNL     1      11.274  -4.876  -7.794  1.00  0.00    -0.508 OA
ATOM     27  H   UNL     1      11.791  -4.634  -8.632  1.00  0.00     0.293 HD
ENDBRANCH   8  26
TORSDOF 6
ENDMDL
MODEL 8
REMARK VINA RESULT:    -5.558      1.570      6.879
REMARK INTER + INTRA:          -6.885
REMARK INTER:                  -6.579
REMARK INTRA:                  -0.306
REMARK UNBOUND:                -0.189
REMARK SMILES O=c1c(O)c(-c2ccc(O)c(O)c2)oc2cc(O)cc(O)c12
REMARK SMILES IDX 5 1 3 2 2 3 1 4 22 5 20 6 19 7 17 8 16 9 15 10 14 11 6 12
REMARK SMILES IDX 7 13 8 14 9 15 13 16 11 17 10 18 12 20 4 22 21 24 18 26
REMARK H PARENT 10 19 12 21 4 23 21 25 18 27
REMARK Flexibility Score: inf
ROOT
ATOM      1  C   UNL     1       7.067  -8.791 -10.116  1.00  0.00     0.180 A 
ATOM      2  C   UNL     1       7.339 -10.011 -10.756  1.00  0.00     0.208 A 
ATOM      3  C   UNL     1       6.805 -10.242 -12.034  1.00  0.00     0.238 A 
ATOM      4  O   UNL     1       7.096 -11.315 -12.626  1.00  0.00    -0.285 OA
ATOM      5  C   UNL     1       5.994  -9.258 -12.648  1.00  0.00     0.111 A 
ATOM      6  C   UNL     1       5.368  -9.403 -13.923  1.00  0.00     0.134 A 
ATOM      7  C   UNL     1       4.696  -8.313 -14.490  1.00  0.00     0.093 A 
ATOM      8  C   UNL     1       4.570  -7.105 -13.799  1.00  0.00     0.123 A 
ATOM      9  C   UNL     1       5.126  -6.974 -12.528  1.00  0.00     0.094 A 
ATOM     10  C   UNL     1       5.835  -8.032 -11.953  1.00  0.00     0.146 A 
ATOM     11  O   UNL     1       6.357  -7.861 -10.744  1.00  0.00    -0.452 OA
ENDROOT
BRANCH   1  12
ATOM     12  C   UNL     1       7.573  -8.484  -8.757  1.00  0.00     0.025 A 
ATOM     13  C   UNL     1       6.949  -9.003  -7.609  1.00  0.00     0.016 A 
ATOM     14  C   UNL     1       7.430  -8.681  -6.338  1.00  0.00     0.051 A 
ATOM     15  C   UNL     1       8.531  -7.826  -6.194  1.00  0.00     0.157 A 
ATOM     16  C   UNL     1       8.664  -7.611  -8.607  1.00  0.00     0.062 A 
ATOM     17  C   UNL     1       9.147  -7.289  -7.330  1.00  0.00     0.158 A 
BRANCH  15  18
ATOM     18  O   UNL     1       9.014  -7.505  -4.927  1.00  0.00    -0.504 OA
ATOM     19  H   UNL     1       9.595  -8.148  -4.402  1.00  0.00     0.293 HD
ENDBRANCH  15  18
BRANCH  17  20
ATOM     20  O   UNL     1      10.238  -6.434  -7.184  1.00  0.00    -0.504 OA
ATOM     21  H   UNL     1      10.200  -5.468  -7.492  1.00  0.00     0.293 HD
ENDBRANCH  17  20
ENDBRANCH   1  12
BRANCH   2  22
ATOM     22  O   UNL     1       8.159 -10.961 -10.142  1.00  0.00    -0.502 OA
ATOM     23  H   UNL     1       8.853 -10.714  -9.448  1.00  0.00     0.293 HD
ENDBRANCH   2  22
BRANCH   6  24
ATOM     24  O   UNL     1       5.355 -10.593 -14.655  1.00  0.00    -0.507 OA
ATOM     25  H   UNL     1       6.144 -10.966 -15.161  1.00  0.00     0.293 HD
ENDBRANCH   6  24
BRANCH   8  26
ATOM     26  O   UNL     1       3.885  -6.031 -14.363  1.00  0.00    -0.508 OA
ATOM     27  H   UNL     1       3.167  -5.532 -13.849  1.00  0.00     0.293 HD
ENDBRANCH   8  26
TORSDOF 6
ENDMDL
MODEL 9
REMARK VINA RESULT:    -5.501      9.052     10.667
REMARK INTER + INTRA:          -6.816
REMARK INTER:                  -6.483
REMARK INTRA:                  -0.332
REMARK UNBOUND:                -0.189
REMARK SMILES O=c1c(O)c(-c2ccc(O)c(O)c2)oc2cc(O)cc(O)c12
REMARK SMILES IDX 5 1 3 2 2 3 1 4 22 5 20 6 19 7 17 8 16 9 15 10 14 11 6 12
REMARK SMILES IDX 7 13 8 14 9 15 13 16 11 17 10 18 12 20 4 22 21 24 18 26
REMARK H PARENT 10 19 12 21 4 23 21 25 18 27
REMARK Flexibility Score: inf
ROOT
ATOM      1  C   UNL     1       5.229 -19.199  -9.243  1.00  0.00     0.180 A 
ATOM      2  C   UNL     1       6.109 -19.326  -8.156  1.00  0.00     0.208 A 
ATOM      3  C   UNL     1       6.094 -18.346  -7.150  1.00  0.00     0.238 A 
ATOM      4  O   UNL     1       6.847 -18.494  -6.151  1.00  0.00    -0.285 OA
ATOM      5  C   UNL     1       5.212 -17.245  -7.253  1.00  0.00     0.111 A 
ATOM      6  C   UNL     1       5.140 -16.173  -6.312  1.00  0.00     0.134 A 
ATOM      7  C   UNL     1       4.139 -15.203  -6.445  1.00  0.00     0.093 A 
ATOM      8  C   UNL     1       3.248 -15.231  -7.521  1.00  0.00     0.123 A 
ATOM      9  C   UNL     1       3.348 -16.239  -8.477  1.00  0.00     0.094 A 
ATOM     10  C   UNL     1       4.313 -17.241  -8.351  1.00  0.00     0.146 A 
ATOM     11  O   UNL     1       4.367 -18.189  -9.279  1.00  0.00    -0.452 OA
ENDROOT
BRANCH   1  12
ATOM     12  C   UNL     1       5.204 -20.178 -10.355  1.00  0.00     0.025 A 
ATOM     13  C   UNL     1       6.064 -20.052 -11.461  1.00  0.00     0.016 A 
ATOM     14  C   UNL     1       6.006 -20.974 -12.508  1.00  0.00     0.051 A 
ATOM     15  C   UNL     1       5.080 -22.026 -12.475  1.00  0.00     0.157 A 
ATOM     16  C   UNL     1       4.263 -21.222 -10.336  1.00  0.00     0.062 A 
ATOM     17  C   UNL     1       4.206 -22.147 -11.388  1.00  0.00     0.158 A 
BRANCH  15  18
ATOM     18  O   UNL     1       5.021 -22.947 -13.517  1.00  0.00    -0.504 OA
ATOM     19  H   UNL     1       5.380 -23.890 -13.414  1.00  0.00     0.293 HD
ENDBRANCH  15  18
BRANCH  17  20
ATOM     20  O   UNL     1       3.281 -23.190 -11.360  1.00  0.00    -0.504 OA
ATOM     21  H   UNL     1       2.345 -23.079 -11.733  1.00  0.00     0.293 HD
ENDBRANCH  17  20
ENDBRANCH   1  12
BRANCH   2  22
ATOM     22  O   UNL     1       6.958 -20.432  -8.063  1.00  0.00    -0.502 OA
ATOM     23  H   UNL     1       6.794 -21.191  -7.413  1.00  0.00     0.293 HD
ENDBRANCH   2  22
BRANCH   6  24
ATOM     24  O   UNL     1       6.038 -16.001  -5.255  1.00  0.00    -0.507 OA
ATOM     25  H   UNL     1       6.972 -15.631  -5.349  1.00  0.00     0.293 HD
ENDBRANCH   6  24
BRANCH   8  26
ATOM     26  O   UNL     1       2.264 -14.253  -7.655  1.00  0.00    -0.508 OA
ATOM     27  H   UNL     1       2.290 -13.397  -7.112  1.00  0.00     0.293 HD
ENDBRANCH   8  26
TORSDOF 6
ENDMDL
