MODEL 1
REMARK VINA RESULT:    -5.507      0.000      0.000
REMARK INTER + INTRA:          -6.362
REMARK INTER:                  -6.312
REMARK INTRA:                  -0.050
REMARK UNBOUND:                -0.050
REMARK SMILES O=C([O-])c1cc(O)c(O)c(O)c1
REMARK SMILES IDX 4 1 5 2 12 3 6 4 10 5 8 6 2 7 1 8 3 9 7 10 11 12 9 14
REMARK H PARENT 7 11 11 13 9 15
REMARK Flexibility Score: inf
ROOT
ATOM      1  C   UNL     1      30.947 -91.235  37.460  1.00  0.00     0.005 A 
ATOM      2  C   UNL     1      31.905 -90.369  36.911  1.00  0.00     0.060 A 
ATOM      3  C   UNL     1      29.709 -90.712  37.866  1.00  0.00     0.060 A 
ATOM      4  C   UNL     1      31.642 -89.002  36.763  1.00  0.00     0.162 A 
ATOM      5  C   UNL     1      29.432 -89.346  37.723  1.00  0.00     0.162 A 
ATOM      6  C   UNL     1      30.391 -88.483  37.175  1.00  0.00     0.200 A 
ENDROOT
BRANCH   1   7
ATOM      7  C   UNL     1      31.242 -92.677  37.608  1.00  0.00     0.072 C 
ATOM      8  O   UNL     1      32.412 -93.070  37.860  1.00  0.00    -0.545 OA
ATOM      9  O   UNL     1      30.231 -93.621  37.472  1.00  0.00    -0.545 OA
ENDBRANCH   1   7
BRANCH   4  10
ATOM     10  O   UNL     1      32.643 -88.203  36.209  1.00  0.00    -0.504 OA
ATOM     11  H   UNL     1      32.641 -87.871  35.255  1.00  0.00     0.293 HD
ENDBRANCH   4  10
BRANCH   5  12
ATOM     12  O   UNL     1      28.200 -88.835  38.129  1.00  0.00    -0.504 OA
ATOM     13  H   UNL     1      27.417 -89.443  38.339  1.00  0.00     0.293 HD
ENDBRANCH   5  12
BRANCH   6  14
ATOM     14  O   UNL     1      30.064 -87.130  37.056  1.00  0.00    -0.502 OA
ATOM     15  H   UNL     1      29.282 -86.693  37.524  1.00  0.00     0.293 HD
ENDBRANCH   6  14
TORSDOF 4
ENDMDL
MODEL 2
REMARK VINA RESULT:    -5.444      0.077      2.437
REMARK INTER + INTRA:          -6.289
REMARK INTER:                  -6.239
REMARK INTRA:                  -0.050
REMARK UNBOUND:                -0.050
REMARK SMILES O=C([O-])c1cc(O)c(O)c(O)c1
REMARK SMILES IDX 4 1 5 2 12 3 6 4 10 5 8 6 2 7 1 8 3 9 7 10 11 12 9 14
REMARK H PARENT 7 11 11 13 9 15
REMARK Flexibility Score: inf
ROOT
ATOM      1  C   UNL     1      30.921 -91.194  37.490  1.00  0.00     0.005 A 
ATOM      2  C   UNL     1      29.677 -90.679  37.885  1.00  0.00     0.060 A 
ATOM      3  C   UNL     1      31.877 -90.323  36.944  1.00  0.00     0.060 A 
ATOM      4  C   UNL     1      29.382 -89.318  37.743  1.00  0.00     0.162 A 
ATOM      5  C   UNL     1      31.595 -88.959  36.797  1.00  0.00     0.162 A 
ATOM      6  C   UNL     1      30.351 -88.446  37.192  1.00  0.00     0.200 A 
ENDROOT
BRANCH   1   7
ATOM      7  C   UNL     1      31.216 -92.636  37.647  1.00  0.00     0.072 C 
ATOM      8  O   UNL     1      32.386 -93.026  37.905  1.00  0.00    -0.545 OA
ATOM      9  O   UNL     1      30.206 -93.581  37.512  1.00  0.00    -0.545 OA
ENDBRANCH   1   7
BRANCH   4  10
ATOM     10  O   UNL     1      28.123 -88.878  38.158  1.00  0.00    -0.504 OA
ATOM     11  H   UNL     1      27.915 -88.558  39.093  1.00  0.00     0.293 HD
ENDBRANCH   4  10
BRANCH   5  12
ATOM     12  O   UNL     1      32.550 -88.101  36.254  1.00  0.00    -0.504 OA
ATOM     13  H   UNL     1      32.795 -88.133  35.271  1.00  0.00     0.293 HD
ENDBRANCH   5  12
BRANCH   6  14
ATOM     14  O   UNL     1      30.122 -87.079  37.023  1.00  0.00    -0.502 OA
ATOM     15  H   UNL     1      30.617 -86.355  37.524  1.00  0.00     0.293 HD
ENDBRANCH   6  14
TORSDOF 4
ENDMDL
MODEL 3
REMARK VINA RESULT:    -5.044      1.080      1.450
REMARK INTER + INTRA:          -5.831
REMARK INTER:                  -5.784
REMARK INTRA:                  -0.047
REMARK UNBOUND:                -0.050
REMARK SMILES O=C([O-])c1cc(O)c(O)c(O)c1
REMARK SMILES IDX 4 1 5 2 12 3 6 4 10 5 8 6 2 7 1 8 3 9 7 10 11 12 9 14
REMARK H PARENT 7 11 11 13 9 15
REMARK Flexibility Score: inf
ROOT
ATOM      1  C   UNL     1      30.561 -91.816  37.424  1.00  0.00     0.005 A 
ATOM      2  C   UNL     1      31.848 -91.420  37.033  1.00  0.00     0.060 A 
ATOM      3  C   UNL     1      29.607 -90.830  37.726  1.00  0.00     0.060 A 
ATOM      4  C   UNL     1      32.190 -90.066  36.940  1.00  0.00     0.162 A 
ATOM      5  C   UNL     1      29.935 -89.472  37.636  1.00  0.00     0.162 A 
ATOM      6  C   UNL     1      31.223 -89.079  37.245  1.00  0.00     0.200 A 
ENDROOT
BRANCH   1   7
ATOM      7  C   UNL     1      30.216 -93.252  37.518  1.00  0.00     0.072 C 
ATOM      8  O   UNL     1      29.217 -93.713  36.905  1.00  0.00    -0.545 OA
ATOM      9  O   UNL     1      30.992 -94.115  38.284  1.00  0.00    -0.545 OA
ENDBRANCH   1   7
BRANCH   4  10
ATOM     10  O   UNL     1      33.491 -89.749  36.544  1.00  0.00    -0.504 OA
ATOM     11  H   UNL     1      34.007 -88.949  36.880  1.00  0.00     0.293 HD
ENDBRANCH   4  10
BRANCH   5  12
ATOM     12  O   UNL     1      28.982 -88.500  37.937  1.00  0.00    -0.504 OA
ATOM     13  H   UNL     1      28.483 -88.501  38.819  1.00  0.00     0.293 HD
ENDBRANCH   5  12
BRANCH   6  14
ATOM     14  O   UNL     1      31.497 -87.711  37.173  1.00  0.00    -0.502 OA
ATOM     15  H   UNL     1      32.427 -87.322  37.106  1.00  0.00     0.293 HD
ENDBRANCH   6  14
TORSDOF 4
ENDMDL
MODEL 4
REMARK VINA RESULT:    -4.674     13.429     15.513
REMARK INTER + INTRA:          -5.408
REMARK INTER:                  -5.355
REMARK INTRA:                  -0.052
REMARK UNBOUND:                -0.050
REMARK SMILES O=C([O-])c1cc(O)c(O)c(O)c1
REMARK SMILES IDX 4 1 5 2 12 3 6 4 10 5 8 6 2 7 1 8 3 9 7 10 11 12 9 14
REMARK H PARENT 7 11 11 13 9 15
REMARK Flexibility Score: inf
ROOT
ATOM      1  C   UNL     1      41.586 -78.851  40.008  1.00  0.00     0.005 A 
ATOM      2  C   UNL     1      42.102 -79.142  38.736  1.00  0.00     0.060 A 
ATOM      3  C   UNL     1      40.627 -79.711  40.566  1.00  0.00     0.060 A 
ATOM      4  C   UNL     1      41.677 -80.270  38.025  1.00  0.00     0.162 A 
ATOM      5  C   UNL     1      40.193 -80.844  39.866  1.00  0.00     0.162 A 
ATOM      6  C   UNL     1      40.710 -81.132  38.596  1.00  0.00     0.200 A 
ENDROOT
BRANCH   1   7
ATOM      7  C   UNL     1      42.047 -77.654  40.745  1.00  0.00     0.072 C 
ATOM      8  O   UNL     1      43.097 -77.051  40.397  1.00  0.00    -0.545 OA
ATOM      9  O   UNL     1      41.327 -77.176  41.834  1.00  0.00    -0.545 OA
ENDBRANCH   1   7
BRANCH   4  10
ATOM     10  O   UNL     1      42.236 -80.494  36.765  1.00  0.00    -0.504 OA
ATOM     11  H   UNL     1      43.219 -80.655  36.602  1.00  0.00     0.293 HD
ENDBRANCH   4  10
BRANCH   5  12
ATOM     12  O   UNL     1      39.241 -81.692  40.429  1.00  0.00    -0.504 OA
ATOM     13  H   UNL     1      39.497 -82.407  41.100  1.00  0.00     0.293 HD
ENDBRANCH   5  12
BRANCH   6  14
ATOM     14  O   UNL     1      40.242 -82.274  37.941  1.00  0.00    -0.502 OA
ATOM     15  H   UNL     1      40.811 -82.858  37.344  1.00  0.00     0.293 HD
ENDBRANCH   6  14
TORSDOF 4
ENDMDL
MODEL 5
REMARK VINA RESULT:    -4.665     13.489     15.745
REMARK INTER + INTRA:          -5.397
REMARK INTER:                  -5.344
REMARK INTRA:                  -0.053
REMARK UNBOUND:                -0.050
REMARK SMILES O=C([O-])c1cc(O)c(O)c(O)c1
REMARK SMILES IDX 4 1 5 2 12 3 6 4 10 5 8 6 2 7 1 8 3 9 7 10 11 12 9 14
REMARK H PARENT 7 11 11 13 9 15
REMARK Flexibility Score: inf
ROOT
ATOM      1  C   UNL     1      41.691 -78.780  39.899  1.00  0.00     0.005 A 
ATOM      2  C   UNL     1      40.692 -79.540  40.526  1.00  0.00     0.060 A 
ATOM      3  C   UNL     1      42.157 -79.176  38.636  1.00  0.00     0.060 A 
ATOM      4  C   UNL     1      40.159 -80.678  39.910  1.00  0.00     0.162 A 
ATOM      5  C   UNL     1      41.632 -80.313  38.008  1.00  0.00     0.162 A 
ATOM      6  C   UNL     1      40.634 -81.071  38.636  1.00  0.00     0.200 A 
ENDROOT
BRANCH   1   7
ATOM      7  C   UNL     1      42.243 -77.578  40.564  1.00  0.00     0.072 C 
ATOM      8  O   UNL     1      43.119 -76.875  39.993  1.00  0.00    -0.545 OA
ATOM      9  O   UNL     1      41.803 -77.208  41.830  1.00  0.00    -0.545 OA
ENDBRANCH   1   7
BRANCH   4  10
ATOM     10  O   UNL     1      39.168 -81.384  40.595  1.00  0.00    -0.504 OA
ATOM     11  H   UNL     1      38.265 -81.002  40.838  1.00  0.00     0.293 HD
ENDBRANCH   4  10
BRANCH   5  12
ATOM     12  O   UNL     1      42.101 -80.700  36.753  1.00  0.00    -0.504 OA
ATOM     13  H   UNL     1      41.869 -80.177  35.916  1.00  0.00     0.293 HD
ENDBRANCH   5  12
BRANCH   6  14
ATOM     14  O   UNL     1      40.146 -82.196  37.967  1.00  0.00    -0.502 OA
ATOM     15  H   UNL     1      39.374 -82.177  37.316  1.00  0.00     0.293 HD
ENDBRANCH   6  14
TORSDOF 4
ENDMDL
MODEL 6
REMARK VINA RESULT:    -4.586      9.814     12.186
REMARK INTER + INTRA:          -5.306
REMARK INTER:                  -5.257
REMARK INTRA:                  -0.049
REMARK UNBOUND:                -0.050
REMARK SMILES O=C([O-])c1cc(O)c(O)c(O)c1
REMARK SMILES IDX 4 1 5 2 12 3 6 4 10 5 8 6 2 7 1 8 3 9 7 10 11 12 9 14
REMARK H PARENT 7 11 11 13 9 15
REMARK Flexibility Score: inf
ROOT
ATOM      1  C   UNL     1      27.086 -79.431  41.346  1.00  0.00     0.005 A 
ATOM      2  C   UNL     1      25.802 -79.954  41.130  1.00  0.00     0.060 A 
ATOM      3  C   UNL     1      28.134 -80.308  41.667  1.00  0.00     0.060 A 
ATOM      4  C   UNL     1      25.558 -81.329  41.229  1.00  0.00     0.162 A 
ATOM      5  C   UNL     1      27.904 -81.686  41.768  1.00  0.00     0.162 A 
ATOM      6  C   UNL     1      26.620 -82.206  41.552  1.00  0.00     0.200 A 
ENDROOT
BRANCH   1   7
ATOM      7  C   UNL     1      27.327 -77.975  41.238  1.00  0.00     0.072 C 
ATOM      8  O   UNL     1      26.516 -77.151  41.741  1.00  0.00    -0.545 OA
ATOM      9  O   UNL     1      28.452 -77.493  40.579  1.00  0.00    -0.545 OA
ENDBRANCH   1   7
BRANCH   4  10
ATOM     10  O   UNL     1      24.255 -81.776  41.000  1.00  0.00    -0.504 OA
ATOM     11  H   UNL     1      23.898 -82.668  41.312  1.00  0.00     0.293 HD
ENDBRANCH   4  10
BRANCH   5  12
ATOM     12  O   UNL     1      28.951 -82.549  42.087  1.00  0.00    -0.504 OA
ATOM     13  H   UNL     1      28.788 -83.529  42.291  1.00  0.00     0.293 HD
ENDBRANCH   5  12
BRANCH   6  14
ATOM     14  O   UNL     1      26.445 -83.588  41.667  1.00  0.00    -0.502 OA
ATOM     15  H   UNL     1      25.715 -84.107  41.200  1.00  0.00     0.293 HD
ENDBRANCH   6  14
TORSDOF 4
ENDMDL
MODEL 7
REMARK VINA RESULT:    -4.566     15.659     16.521
REMARK INTER + INTRA:          -5.284
REMARK INTER:                  -5.233
REMARK INTRA:                  -0.051
REMARK UNBOUND:                -0.050
REMARK SMILES O=C([O-])c1cc(O)c(O)c(O)c1
REMARK SMILES IDX 4 1 5 2 12 3 6 4 10 5 8 6 2 7 1 8 3 9 7 10 11 12 9 14
REMARK H PARENT 7 11 11 13 9 15
REMARK Flexibility Score: inf
ROOT
ATOM      1  C   UNL     1      27.343 -77.922  27.430  1.00  0.00     0.005 A 
ATOM      2  C   UNL     1      26.950 -77.746  28.765  1.00  0.00     0.060 A 
ATOM      3  C   UNL     1      26.369 -78.237  26.469  1.00  0.00     0.060 A 
ATOM      4  C   UNL     1      25.610 -77.879  29.146  1.00  0.00     0.162 A 
ATOM      5  C   UNL     1      25.024 -78.372  26.836  1.00  0.00     0.162 A 
ATOM      6  C   UNL     1      24.634 -78.196  28.171  1.00  0.00     0.200 A 
ENDROOT
BRANCH   1   7
ATOM      7  C   UNL     1      28.765 -77.778  27.044  1.00  0.00     0.072 C 
ATOM      8  O   UNL     1      29.220 -78.383  26.037  1.00  0.00    -0.545 OA
ATOM      9  O   UNL     1      29.619 -76.973  27.788  1.00  0.00    -0.545 OA
ENDBRANCH   1   7
BRANCH   4  10
ATOM     10  O   UNL     1      25.295 -77.689  30.493  1.00  0.00    -0.504 OA
ATOM     11  H   UNL     1      25.900 -77.947  31.259  1.00  0.00     0.293 HD
ENDBRANCH   4  10
BRANCH   5  12
ATOM     12  O   UNL     1      24.063 -78.684  25.876  1.00  0.00    -0.504 OA
ATOM     13  H   UNL     1      24.322 -79.045  24.964  1.00  0.00     0.293 HD
ENDBRANCH   5  12
BRANCH   6  14
ATOM     14  O   UNL     1      23.280 -78.342  28.483  1.00  0.00    -0.502 OA
ATOM     15  H   UNL     1      22.608 -77.588  28.461  1.00  0.00     0.293 HD
ENDBRANCH   6  14
TORSDOF 4
ENDMDL
MODEL 8
REMARK VINA RESULT:    -4.550     13.175     15.090
REMARK INTER + INTRA:          -5.265
REMARK INTER:                  -5.212
REMARK INTRA:                  -0.052
REMARK UNBOUND:                -0.050
REMARK SMILES O=C([O-])c1cc(O)c(O)c(O)c1
REMARK SMILES IDX 4 1 5 2 12 3 6 4 10 5 8 6 2 7 1 8 3 9 7 10 11 12 9 14
REMARK H PARENT 7 11 11 13 9 15
REMARK Flexibility Score: inf
ROOT
ATOM      1  C   UNL     1      40.634 -79.563  40.327  1.00  0.00     0.005 A 
ATOM      2  C   UNL     1      41.632 -78.851  39.645  1.00  0.00     0.060 A 
ATOM      3  C   UNL     1      40.134 -80.746  39.761  1.00  0.00     0.060 A 
ATOM      4  C   UNL     1      42.130 -79.304  38.417  1.00  0.00     0.162 A 
ATOM      5  C   UNL     1      40.624 -81.211  38.534  1.00  0.00     0.162 A 
ATOM      6  C   UNL     1      41.621 -80.498  37.854  1.00  0.00     0.200 A 
ENDROOT
BRANCH   1   7
ATOM      7  C   UNL     1      40.119 -79.070  41.624  1.00  0.00     0.072 C 
ATOM      8  O   UNL     1      40.348 -77.888  41.997  1.00  0.00    -0.545 OA
ATOM      9  O   UNL     1      39.373 -79.903  42.449  1.00  0.00    -0.545 OA
ENDBRANCH   1   7
BRANCH   4  10
ATOM     10  O   UNL     1      43.123 -78.542  37.797  1.00  0.00    -0.504 OA
ATOM     11  H   UNL     1      44.057 -78.875  37.606  1.00  0.00     0.293 HD
ENDBRANCH   4  10
BRANCH   5  12
ATOM     12  O   UNL     1      40.121 -82.388  37.980  1.00  0.00    -0.504 OA
ATOM     13  H   UNL     1      40.241 -82.605  36.997  1.00  0.00     0.293 HD
ENDBRANCH   5  12
BRANCH   6  14
ATOM     14  O   UNL     1      42.073 -81.006  36.634  1.00  0.00    -0.502 OA
ATOM     15  H   UNL     1      41.660 -81.797  36.161  1.00  0.00     0.293 HD
ENDBRANCH   6  14
TORSDOF 4
ENDMDL
MODEL 9
REMARK VINA RESULT:    -4.535     10.376     12.960
REMARK INTER + INTRA:          -5.248
REMARK INTER:                  -5.198
REMARK INTRA:                  -0.050
REMARK UNBOUND:                -0.050
REMARK SMILES O=C([O-])c1cc(O)c(O)c(O)c1
REMARK SMILES IDX 4 1 5 2 12 3 6 4 10 5 8 6 2 7 1 8 3 9 7 10 11 12 9 14
REMARK H PARENT 7 11 11 13 9 15
REMARK Flexibility Score: inf
ROOT
ATOM      1  C   UNL     1      25.260 -79.105  41.552  1.00  0.00     0.005 A 
ATOM      2  C   UNL     1      24.410 -80.187  41.277  1.00  0.00     0.060 A 
ATOM      3  C   UNL     1      26.628 -79.347  41.751  1.00  0.00     0.060 A 
ATOM      4  C   UNL     1      24.907 -81.493  41.199  1.00  0.00     0.162 A 
ATOM      5  C   UNL     1      27.139 -80.649  41.675  1.00  0.00     0.162 A 
ATOM      6  C   UNL     1      26.288 -81.728  41.400  1.00  0.00     0.200 A 
ENDROOT
BRANCH   1   7
ATOM      7  C   UNL     1      24.717 -77.730  41.631  1.00  0.00     0.072 C 
ATOM      8  O   UNL     1      25.237 -76.879  42.400  1.00  0.00    -0.545 OA
ATOM      9  O   UNL     1      23.624 -77.358  40.856  1.00  0.00    -0.545 OA
ENDBRANCH   1   7
BRANCH   4  10
ATOM     10  O   UNL     1      24.001 -82.518  40.922  1.00  0.00    -0.504 OA
ATOM     11  H   UNL     1      24.235 -83.361  40.416  1.00  0.00     0.293 HD
ENDBRANCH   4  10
BRANCH   5  12
ATOM     12  O   UNL     1      28.499 -80.879  41.874  1.00  0.00    -0.504 OA
ATOM     13  H   UNL     1      28.868 -81.817  41.989  1.00  0.00     0.293 HD
ENDBRANCH   5  12
BRANCH   6  14
ATOM     14  O   UNL     1      26.850 -83.006  41.336  1.00  0.00    -0.502 OA
ATOM     15  H   UNL     1      26.372 -83.850  41.621  1.00  0.00     0.293 HD
ENDBRANCH   6  14
TORSDOF 4
ENDMDL
