MODEL 1
REMARK VINA RESULT:    -4.324      0.000      0.000
REMARK INTER + INTRA:          -6.155
REMARK INTER:                  -6.094
REMARK INTRA:                  -0.061
REMARK UNBOUND:                -0.061
REMARK SMILES CC1=CCC(=C(C)C)C(=O)CC(C)=CCC1
REMARK SMILES IDX 12 1 14 2 13 3 15 4 16 5 2 6 1 7 3 8 11 10 9 11 10 12 5 13
REMARK SMILES IDX 6 14 7 15 8 16 4 17
REMARK H PARENT
REMARK Flexibility Score: 60.00
ROOT
ATOM      1  C   UNL     1      18.669 -11.710  67.533  1.00  0.00    -0.070 C 
ATOM      2  C   UNL     1      17.353 -11.501  67.298  1.00  0.00    -0.027 C 
ATOM      3  C   UNL     1      19.148 -11.683  68.963  1.00  0.00     0.039 C 
ENDROOT
BRANCH   2   4
ATOM      4  C   UNL     1      16.683 -11.638  65.955  1.00  0.00     0.032 C 
BRANCH   4   5
ATOM      5  C   UNL     1      16.732 -10.298  65.211  1.00  0.00     0.034 C 
BRANCH   5   6
ATOM      6  C   UNL     1      17.186 -10.450  63.773  1.00  0.00    -0.077 C 
ATOM      7  C   UNL     1      16.261 -11.125  62.791  1.00  0.00     0.039 C 
ATOM      8  C   UNL     1      18.413 -10.078  63.330  1.00  0.00    -0.023 CG0
ATOM      9  G   UNL     1      19.488  -9.336  64.105  1.00  0.00     0.000 G0
ENDBRANCH   5   6
ENDBRANCH   4   5
ENDBRANCH   2   4
BRANCH   1  10
ATOM     10  C   UNL     1      19.685 -11.950  66.434  1.00  0.00     0.111 C 
BRANCH  10  11
ATOM     11  C   UNL     1      20.446 -10.693  66.086  1.00  0.00     0.163 C 
ATOM     12  O   UNL     1      20.932 -10.033  67.044  1.00  0.00    -0.294 OA
BRANCH  11  13
ATOM     13  C   UNL     1      20.628 -10.189  64.684  1.00  0.00    -0.002 C 
ATOM     14  C   UNL     1      21.825 -10.345  64.040  1.00  0.00    -0.069 C 
ATOM     15  C   UNL     1      22.125  -9.654  62.728  1.00  0.00     0.039 C 
ATOM     16  C   UNL     1      22.900 -11.259  64.581  1.00  0.00     0.039 C 
BRANCH  13  17
ATOM     17  C   UNL     1      19.509  -9.348  64.079  1.00  0.00     0.066 CG0
ATOM     18  G   UNL     1      18.420 -10.103  63.338  1.00  0.00     0.000 G0
ENDBRANCH  13  17
ENDBRANCH  11  13
ENDBRANCH  10  11
ENDBRANCH   1  10
TORSDOF 0
ENDMDL
MODEL 2
REMARK VINA RESULT:    -4.233     15.605     17.316
REMARK INTER + INTRA:          -6.027
REMARK INTER:                  -5.870
REMARK INTRA:                  -0.157
REMARK UNBOUND:                -0.061
REMARK SMILES CC1=CCC(=C(C)C)C(=O)CC(C)=CCC1
REMARK SMILES IDX 12 1 14 2 13 3 15 4 16 5 2 6 1 7 3 8 11 10 9 11 10 12 5 13
REMARK SMILES IDX 6 14 7 15 8 16 4 17
REMARK H PARENT
REMARK Flexibility Score: 60.00
ROOT
ATOM      1  C   UNL     1      14.619   4.333  55.585  1.00  0.00    -0.070 C 
ATOM      2  C   UNL     1      13.773   5.284  56.043  1.00  0.00    -0.027 C 
ATOM      3  C   UNL     1      15.383   4.613  54.316  1.00  0.00     0.039 C 
ENDROOT
BRANCH   2   4
ATOM      4  C   UNL     1      13.047   5.233  57.362  1.00  0.00     0.032 C 
BRANCH   4   5
ATOM      5  C   UNL     1      11.647   4.639  57.163  1.00  0.00     0.034 C 
BRANCH   5   6
ATOM      6  C   UNL     1      11.276   3.651  58.250  1.00  0.00    -0.077 C 
ATOM      7  C   UNL     1      10.941   4.180  59.623  1.00  0.00     0.039 C 
ATOM      8  C   UNL     1      11.299   2.306  58.082  1.00  0.00    -0.023 CG0
ATOM      9  G   UNL     1      11.547   1.541  56.793  1.00  0.00     0.000 G0
ENDBRANCH   5   6
ENDBRANCH   4   5
ENDBRANCH   2   4
BRANCH   1  10
ATOM     10  C   UNL     1      14.822   2.997  56.273  1.00  0.00     0.111 C 
BRANCH  10  11
ATOM     11  C   UNL     1      13.902   1.934  55.722  1.00  0.00     0.163 C 
ATOM     12  O   UNL     1      13.874   1.793  54.469  1.00  0.00    -0.294 OA
BRANCH  11  13
ATOM     13  C   UNL     1      13.020   1.071  56.575  1.00  0.00    -0.002 C 
ATOM     14  C   UNL     1      13.448  -0.158  56.998  1.00  0.00    -0.069 C 
ATOM     15  C   UNL     1      12.515  -1.150  57.657  1.00  0.00     0.039 C 
ATOM     16  C   UNL     1      14.896  -0.575  56.874  1.00  0.00     0.039 C 
BRANCH  13  17
ATOM     17  C   UNL     1      11.581   1.525  56.799  1.00  0.00     0.066 CG0
ATOM     18  G   UNL     1      11.311   2.317  58.067  1.00  0.00     0.000 G0
ENDBRANCH  13  17
ENDBRANCH  11  13
ENDBRANCH  10  11
ENDBRANCH   1  10
TORSDOF 0
ENDMDL
MODEL 3
REMARK VINA RESULT:    -4.124      1.920      3.819
REMARK INTER + INTRA:          -5.873
REMARK INTER:                  -6.189
REMARK INTRA:                   0.316
REMARK UNBOUND:                -0.061
REMARK SMILES CC1=CCC(=C(C)C)C(=O)CC(C)=CCC1
REMARK SMILES IDX 12 1 14 2 13 3 15 4 16 5 2 6 1 7 3 8 11 10 9 11 10 12 5 13
REMARK SMILES IDX 6 14 7 15 8 16 4 17
REMARK H PARENT
REMARK Flexibility Score: 60.00
ROOT
ATOM      1  C   UNL     1      20.361  -9.983  65.681  1.00  0.00    -0.070 C 
ATOM      2  C   UNL     1      19.939 -10.227  64.419  1.00  0.00    -0.027 C 
ATOM      3  C   UNL     1      21.726 -10.483  66.082  1.00  0.00     0.039 C 
ENDROOT
BRANCH   2   4
ATOM      4  C   UNL     1      18.676  -9.677  63.809  1.00  0.00     0.032 C 
BRANCH   4   5
ATOM      5  C   UNL     1      17.748 -10.829  63.406  1.00  0.00     0.034 C 
BRANCH   5   6
ATOM      6  C   UNL     1      16.508 -10.906  64.275  1.00  0.00    -0.077 C 
ATOM      7  C   UNL     1      15.252 -10.217  63.804  1.00  0.00     0.039 C 
ATOM      8  C   UNL     1      16.482 -11.500  65.494  1.00  0.00    -0.023 CG0
ATOM      9  G   UNL     1      17.591 -12.301  66.154  1.00  0.00     0.000 G0
ENDBRANCH   5   6
ENDBRANCH   4   5
ENDBRANCH   2   4
BRANCH   1  10
ATOM     10  C   UNL     1      19.526  -9.251  66.713  1.00  0.00     0.111 C 
BRANCH  10  11
ATOM     11  C   UNL     1      18.407 -10.113  67.246  1.00  0.00     0.163 C 
ATOM     12  O   UNL     1      17.416  -9.518  67.751  1.00  0.00    -0.294 OA
BRANCH  11  13
ATOM     13  C   UNL     1      18.427 -11.613  67.226  1.00  0.00    -0.002 C 
ATOM     14  C   UNL     1      19.296 -12.308  68.025  1.00  0.00    -0.069 C 
ATOM     15  C   UNL     1      19.512 -13.797  67.869  1.00  0.00     0.039 C 
ATOM     16  C   UNL     1      20.052 -11.630  69.144  1.00  0.00     0.039 C 
BRANCH  13  17
ATOM     17  C   UNL     1      17.589 -12.322  66.168  1.00  0.00     0.066 CG0
ATOM     18  G   UNL     1      16.504 -11.497  65.499  1.00  0.00     0.000 G0
ENDBRANCH  13  17
ENDBRANCH  11  13
ENDBRANCH  10  11
ENDBRANCH   1  10
TORSDOF 0
ENDMDL
MODEL 4
REMARK VINA RESULT:    -4.072     16.016     17.882
REMARK INTER + INTRA:          -5.800
REMARK INTER:                  -5.648
REMARK INTRA:                  -0.152
REMARK UNBOUND:                -0.061
REMARK SMILES CC1=CCC(=C(C)C)C(=O)CC(C)=CCC1
REMARK SMILES IDX 12 1 14 2 13 3 15 4 16 5 2 6 1 7 3 8 11 10 9 11 10 12 5 13
REMARK SMILES IDX 6 14 7 15 8 16 4 17
REMARK H PARENT
REMARK Flexibility Score: 60.00
ROOT
ATOM      1  C   UNL     1       6.258   4.422  62.958  1.00  0.00    -0.070 C 
ATOM      2  C   UNL     1       7.363   5.152  62.679  1.00  0.00    -0.027 C 
ATOM      3  C   UNL     1       5.193   5.048  63.822  1.00  0.00     0.039 C 
ENDROOT
BRANCH   2   4
ATOM      4  C   UNL     1       8.449   4.741  61.719  1.00  0.00     0.032 C 
BRANCH   4   5
ATOM      5  C   UNL     1       9.544   3.972  62.469  1.00  0.00     0.034 C 
BRANCH   5   6
ATOM      6  C   UNL     1      10.025   2.756  61.705  1.00  0.00    -0.077 C 
ATOM      7  C   UNL     1      10.854   2.965  60.462  1.00  0.00     0.039 C 
ATOM      8  C   UNL     1       9.692   1.483  62.033  1.00  0.00    -0.023 CG0
ATOM      9  G   UNL     1       8.924   1.016  63.257  1.00  0.00     0.000 G0
ENDBRANCH   5   6
ENDBRANCH   4   5
ENDBRANCH   2   4
BRANCH   1  10
ATOM     10  C   UNL     1       6.048   3.005  62.461  1.00  0.00     0.111 C 
BRANCH  10  11
ATOM     11  C   UNL     1       6.523   1.981  63.463  1.00  0.00     0.163 C 
ATOM     12  O   UNL     1       6.161   2.138  64.661  1.00  0.00    -0.294 OA
BRANCH  11  13
ATOM     13  C   UNL     1       7.408   0.820  63.113  1.00  0.00    -0.002 C 
ATOM     14  C   UNL     1       6.867  -0.406  62.830  1.00  0.00    -0.069 C 
ATOM     15  C   UNL     1       7.721  -1.648  62.702  1.00  0.00     0.039 C 
ATOM     16  C   UNL     1       5.387  -0.576  62.580  1.00  0.00     0.039 C 
BRANCH  13  17
ATOM     17  C   UNL     1       8.914   1.003  63.261  1.00  0.00     0.066 CG0
ATOM     18  G   UNL     1       9.661   1.487  62.030  1.00  0.00     0.000 G0
ENDBRANCH  13  17
ENDBRANCH  11  13
ENDBRANCH  10  11
ENDBRANCH   1  10
TORSDOF 0
ENDMDL
MODEL 5
REMARK VINA RESULT:    -3.971      2.651      4.655
REMARK INTER + INTRA:          -5.657
REMARK INTER:                  -5.943
REMARK INTRA:                   0.286
REMARK UNBOUND:                -0.061
REMARK SMILES CC1=CCC(=C(C)C)C(=O)CC(C)=CCC1
REMARK SMILES IDX 12 1 14 2 13 3 15 4 16 5 2 6 1 7 3 8 11 10 9 11 10 12 5 13
REMARK SMILES IDX 6 14 7 15 8 16 4 17
REMARK H PARENT
REMARK Flexibility Score: 60.00
ROOT
ATOM      1  C   UNL     1      15.762 -12.230  65.092  1.00  0.00    -0.070 C 
ATOM      2  C   UNL     1      16.753 -12.247  66.013  1.00  0.00    -0.027 C 
ATOM      3  C   UNL     1      14.488 -11.500  65.434  1.00  0.00     0.039 C 
ENDROOT
BRANCH   2   4
ATOM      4  C   UNL     1      18.136 -12.799  65.782  1.00  0.00     0.032 C 
BRANCH   4   5
ATOM      5  C   UNL     1      19.136 -11.647  65.621  1.00  0.00     0.034 C 
BRANCH   5   6
ATOM      6  C   UNL     1      18.490 -10.289  65.803  1.00  0.00    -0.077 C 
ATOM      7  C   UNL     1      18.398  -9.713  67.194  1.00  0.00     0.039 C 
ATOM      8  C   UNL     1      17.920  -9.588  64.791  1.00  0.00    -0.023 CG0
ATOM      9  G   UNL     1      17.933  -9.927  63.311  1.00  0.00     0.000 G0
ENDBRANCH   5   6
ENDBRANCH   4   5
ENDBRANCH   2   4
BRANCH   1  10
ATOM     10  C   UNL     1      15.860 -12.924  63.748  1.00  0.00     0.111 C 
BRANCH  10  11
ATOM     11  C   UNL     1      16.612 -12.090  62.738  1.00  0.00     0.163 C 
ATOM     12  O   UNL     1      17.243 -12.710  61.840  1.00  0.00    -0.294 OA
BRANCH  11  13
ATOM     13  C   UNL     1      16.660 -10.591  62.764  1.00  0.00    -0.002 C 
ATOM     14  C   UNL     1      15.673  -9.853  62.169  1.00  0.00    -0.069 C 
ATOM     15  C   UNL     1      15.799  -8.359  61.969  1.00  0.00     0.039 C 
ATOM     16  C   UNL     1      14.376 -10.485  61.721  1.00  0.00     0.039 C 
BRANCH  13  17
ATOM     17  C   UNL     1      17.921  -9.929  63.308  1.00  0.00     0.066 CG0
ATOM     18  G   UNL     1      17.920  -9.581  64.786  1.00  0.00     0.000 G0
ENDBRANCH  13  17
ENDBRANCH  11  13
ENDBRANCH  10  11
ENDBRANCH   1  10
TORSDOF 0
ENDMDL
MODEL 6
REMARK VINA RESULT:    -3.932      1.655      4.111
REMARK INTER + INTRA:          -5.602
REMARK INTER:                  -5.702
REMARK INTRA:                   0.100
REMARK UNBOUND:                -0.061
REMARK SMILES CC1=CCC(=C(C)C)C(=O)CC(C)=CCC1
REMARK SMILES IDX 12 1 14 2 13 3 15 4 16 5 2 6 1 7 3 8 11 10 9 11 10 12 5 13
REMARK SMILES IDX 6 14 7 15 8 16 4 17
REMARK H PARENT
REMARK Flexibility Score: 60.00
ROOT
ATOM      1  C   UNL     1      21.947 -10.439  64.641  1.00  0.00    -0.070 C 
ATOM      2  C   UNL     1      21.008  -9.880  63.843  1.00  0.00    -0.027 C 
ATOM      3  C   UNL     1      23.310 -10.706  64.054  1.00  0.00     0.039 C 
ENDROOT
BRANCH   2   4
ATOM      4  C   UNL     1      19.651  -9.414  64.303  1.00  0.00     0.032 C 
BRANCH   4   5
ATOM      5  C   UNL     1      18.556 -10.190  63.561  1.00  0.00     0.034 C 
BRANCH   5   6
ATOM      6  C   UNL     1      17.406 -10.578  64.468  1.00  0.00    -0.077 C 
ATOM      7  C   UNL     1      16.159  -9.728  64.458  1.00  0.00     0.039 C 
ATOM      8  C   UNL     1      17.458 -11.609  65.348  1.00  0.00    -0.023 CG0
ATOM      9  G   UNL     1      18.569 -12.633  65.504  1.00  0.00     0.000 G0
ENDBRANCH   5   6
ENDBRANCH   4   5
ENDBRANCH   2   4
BRANCH   1  10
ATOM     10  C   UNL     1      21.691 -10.827  66.084  1.00  0.00     0.111 C 
BRANCH  10  11
ATOM     11  C   UNL     1      21.025 -12.178  66.195  1.00  0.00     0.163 C 
ATOM     12  O   UNL     1      21.724 -13.187  65.906  1.00  0.00    -0.294 OA
BRANCH  11  13
ATOM     13  C   UNL     1      19.594 -12.371  66.602  1.00  0.00    -0.002 C 
ATOM     14  C   UNL     1      19.254 -12.463  67.925  1.00  0.00    -0.069 C 
ATOM     15  C   UNL     1      17.872 -12.887  68.370  1.00  0.00     0.039 C 
ATOM     16  C   UNL     1      20.231 -12.097  69.018  1.00  0.00     0.039 C 
BRANCH  13  17
ATOM     17  C   UNL     1      18.572 -12.641  65.504  1.00  0.00     0.066 CG0
ATOM     18  G   UNL     1      17.462 -11.616  65.345  1.00  0.00     0.000 G0
ENDBRANCH  13  17
ENDBRANCH  11  13
ENDBRANCH  10  11
ENDBRANCH   1  10
TORSDOF 0
ENDMDL
MODEL 7
REMARK VINA RESULT:    -3.913      2.022      3.644
REMARK INTER + INTRA:          -5.576
REMARK INTER:                  -5.991
REMARK INTRA:                   0.416
REMARK UNBOUND:                -0.061
REMARK SMILES CC1=CCC(=C(C)C)C(=O)CC(C)=CCC1
REMARK SMILES IDX 12 1 14 2 13 3 15 4 16 5 2 6 1 7 3 8 11 10 9 11 10 12 5 13
REMARK SMILES IDX 6 14 7 15 8 16 4 17
REMARK H PARENT
REMARK Flexibility Score: 60.00
ROOT
ATOM      1  C   UNL     1      17.849  -9.828  65.850  1.00  0.00    -0.070 C 
ATOM      2  C   UNL     1      17.811 -10.145  67.165  1.00  0.00    -0.027 C 
ATOM      3  C   UNL     1      16.612 -10.074  65.024  1.00  0.00     0.039 C 
ENDROOT
BRANCH   2   4
ATOM      4  C   UNL     1      18.898  -9.832  68.160  1.00  0.00     0.032 C 
BRANCH   4   5
ATOM      5  C   UNL     1      19.424 -11.132  68.782  1.00  0.00     0.034 C 
BRANCH   5   6
ATOM      6  C   UNL     1      19.507 -12.262  67.776  1.00  0.00    -0.077 C 
ATOM      7  C   UNL     1      18.537 -13.411  67.900  1.00  0.00     0.039 C 
ATOM      8  C   UNL     1      20.455 -12.339  66.810  1.00  0.00    -0.023 CG0
ATOM      9  G   UNL     1      21.496 -11.292  66.452  1.00  0.00     0.000 G0
ENDBRANCH   5   6
ENDBRANCH   4   5
ENDBRANCH   2   4
BRANCH   1  10
ATOM     10  C   UNL     1      19.075  -9.259  65.165  1.00  0.00     0.111 C 
BRANCH  10  11
ATOM     11  C   UNL     1      19.959 -10.344  64.598  1.00  0.00     0.163 C 
ATOM     12  O   UNL     1      19.475 -11.056  63.678  1.00  0.00    -0.294 OA
BRANCH  11  13
ATOM     13  C   UNL     1      21.351 -10.624  65.084  1.00  0.00    -0.002 C 
ATOM     14  C   UNL     1      22.428 -10.421  64.264  1.00  0.00    -0.069 C 
ATOM     15  C   UNL     1      23.815 -10.906  64.626  1.00  0.00     0.039 C 
ATOM     16  C   UNL     1      22.300  -9.655  62.968  1.00  0.00     0.039 C 
BRANCH  13  17
ATOM     17  C   UNL     1      21.508 -11.306  66.439  1.00  0.00     0.066 CG0
ATOM     18  G   UNL     1      20.452 -12.333  66.807  1.00  0.00     0.000 G0
ENDBRANCH  13  17
ENDBRANCH  11  13
ENDBRANCH  10  11
ENDBRANCH   1  10
TORSDOF 0
ENDMDL
MODEL 8
REMARK VINA RESULT:    -3.885      1.693      2.500
REMARK INTER + INTRA:          -5.536
REMARK INTER:                  -5.849
REMARK INTRA:                   0.313
REMARK UNBOUND:                -0.061
REMARK SMILES CC1=CCC(=C(C)C)C(=O)CC(C)=CCC1
REMARK SMILES IDX 12 1 14 2 13 3 15 4 16 5 2 6 1 7 3 8 11 10 9 11 10 12 5 13
REMARK SMILES IDX 6 14 7 15 8 16 4 17
REMARK H PARENT
REMARK Flexibility Score: 60.00
ROOT
ATOM      1  C   UNL     1      18.469 -12.870  66.920  1.00  0.00    -0.070 C 
ATOM      2  C   UNL     1      17.517 -12.107  66.335  1.00  0.00    -0.027 C 
ATOM      3  C   UNL     1      19.015 -14.042  66.144  1.00  0.00     0.039 C 
ENDROOT
BRANCH   2   4
ATOM      4  C   UNL     1      16.971 -10.823  66.902  1.00  0.00     0.032 C 
BRANCH   4   5
ATOM      5  C   UNL     1      17.430  -9.638  66.044  1.00  0.00     0.034 C 
BRANCH   5   6
ATOM      6  C   UNL     1      18.359 -10.060  64.923  1.00  0.00    -0.077 C 
ATOM      7  C   UNL     1      17.766 -10.366  63.570  1.00  0.00     0.039 C 
ATOM      8  C   UNL     1      19.692 -10.250  65.084  1.00  0.00    -0.023 CG0
ATOM      9  G   UNL     1      20.523  -9.957  66.321  1.00  0.00     0.000 G0
ENDBRANCH   5   6
ENDBRANCH   4   5
ENDBRANCH   2   4
BRANCH   1  10
ATOM     10  C   UNL     1      18.997 -12.618  68.318  1.00  0.00     0.111 C 
BRANCH  10  11
ATOM     11  C   UNL     1      20.019 -11.506  68.342  1.00  0.00     0.163 C 
ATOM     12  O   UNL     1      20.097 -10.823  69.399  1.00  0.00    -0.294 OA
BRANCH  11  13
ATOM     13  C   UNL     1      20.911 -11.167  67.185  1.00  0.00    -0.002 C 
ATOM     14  C   UNL     1      22.106 -11.813  67.015  1.00  0.00    -0.069 C 
ATOM     15  C   UNL     1      23.134 -11.347  66.008  1.00  0.00     0.039 C 
ATOM     16  C   UNL     1      22.445 -13.062  67.795  1.00  0.00     0.039 C 
BRANCH  13  17
ATOM     17  C   UNL     1      20.532  -9.970  66.320  1.00  0.00     0.066 CG0
ATOM     18  G   UNL     1      19.693 -10.262  65.089  1.00  0.00     0.000 G0
ENDBRANCH  13  17
ENDBRANCH  11  13
ENDBRANCH  10  11
ENDBRANCH   1  10
TORSDOF 0
ENDMDL
MODEL 9
REMARK VINA RESULT:    -3.839      2.711      4.799
REMARK INTER + INTRA:          -5.471
REMARK INTER:                  -5.811
REMARK INTRA:                   0.340
REMARK UNBOUND:                -0.061
REMARK SMILES CC1=CCC(=C(C)C)C(=O)CC(C)=CCC1
REMARK SMILES IDX 12 1 14 2 13 3 15 4 16 5 2 6 1 7 3 8 11 10 9 11 10 12 5 13
REMARK SMILES IDX 6 14 7 15 8 16 4 17
REMARK H PARENT
REMARK Flexibility Score: 60.00
ROOT
ATOM      1  C   UNL     1      15.584  -8.943  62.725  1.00  0.00    -0.070 C 
ATOM      2  C   UNL     1      14.457  -9.692  62.735  1.00  0.00    -0.027 C 
ATOM      3  C   UNL     1      15.978  -8.269  61.435  1.00  0.00     0.039 C 
ENDROOT
BRANCH   2   4
ATOM      4  C   UNL     1      13.842 -10.310  63.963  1.00  0.00     0.032 C 
BRANCH   4   5
ATOM      5  C   UNL     1      13.562 -11.797  63.713  1.00  0.00     0.034 C 
BRANCH   5   6
ATOM      6  C   UNL     1      14.809 -12.562  63.316  1.00  0.00    -0.077 C 
ATOM      7  C   UNL     1      14.794 -13.347  62.028  1.00  0.00     0.039 C 
ATOM      8  C   UNL     1      15.919 -12.642  64.091  1.00  0.00    -0.023 CG0
ATOM      9  G   UNL     1      16.194 -11.903  65.390  1.00  0.00     0.000 G0
ENDBRANCH   5   6
ENDBRANCH   4   5
ENDBRANCH   2   4
BRANCH   1  10
ATOM     10  C   UNL     1      16.477  -8.764  63.937  1.00  0.00     0.111 C 
BRANCH  10  11
ATOM     11  C   UNL     1      17.371  -9.960  64.160  1.00  0.00     0.163 C 
ATOM     12  O   UNL     1      18.213 -10.222  63.260  1.00  0.00    -0.294 OA
BRANCH  11  13
ATOM     13  C   UNL     1      17.290 -10.847  65.368  1.00  0.00    -0.002 C 
ATOM     14  C   UNL     1      18.266 -10.806  66.327  1.00  0.00    -0.069 C 
ATOM     15  C   UNL     1      18.347 -11.835  67.433  1.00  0.00     0.039 C 
ATOM     16  C   UNL     1      19.290  -9.695  66.364  1.00  0.00     0.039 C 
BRANCH  13  17
ATOM     17  C   UNL     1      16.198 -11.911  65.398  1.00  0.00     0.066 CG0
ATOM     18  G   UNL     1      15.910 -12.624  64.088  1.00  0.00     0.000 G0
ENDBRANCH  13  17
ENDBRANCH  11  13
ENDBRANCH  10  11
ENDBRANCH   1  10
TORSDOF 0
ENDMDL
