MODEL 1
REMARK VINA RESULT:    -6.420      0.000      0.000
REMARK INTER + INTRA:          -8.063
REMARK INTER:                  -7.733
REMARK INTRA:                  -0.329
REMARK UNBOUND:                -0.329
REMARK SMILES O=c1c(O)c(-c2ccc(O)c(O)c2)oc2cc(O)cc(O)c12
REMARK SMILES IDX 5 1 3 2 2 3 1 4 22 5 20 6 19 7 17 8 16 9 15 10 14 11 6 12
REMARK SMILES IDX 7 13 8 14 9 15 13 16 11 17 10 18 12 20 4 22 21 24 18 26
REMARK H PARENT 10 19 12 21 4 23 21 25 18 27
REMARK Flexibility Score: inf
ROOT
ATOM      1  C   UNL     1     -16.775  14.526  -6.935  1.00  0.00     0.180 A 
ATOM      2  C   UNL     1     -18.026  13.902  -6.767  1.00  0.00     0.208 A 
ATOM      3  C   UNL     1     -18.438  12.944  -7.706  1.00  0.00     0.238 A 
ATOM      4  O   UNL     1     -19.553  12.371  -7.560  1.00  0.00    -0.285 OA
ATOM      5  C   UNL     1     -17.607  12.641  -8.803  1.00  0.00     0.111 A 
ATOM      6  C   UNL     1     -17.949  11.692  -9.796  1.00  0.00     0.134 A 
ATOM      7  C   UNL     1     -17.070  11.453 -10.863  1.00  0.00     0.093 A 
ATOM      8  C   UNL     1     -15.860  12.144 -10.957  1.00  0.00     0.123 A 
ATOM      9  C   UNL     1     -15.516  13.082  -9.980  1.00  0.00     0.094 A 
ATOM     10  C   UNL     1     -16.377  13.333  -8.907  1.00  0.00     0.146 A 
ATOM     11  O   UNL     1     -16.024  14.226  -7.989  1.00  0.00    -0.452 OA
ENDROOT
BRANCH   1  12
ATOM     12  C   UNL     1     -16.263  15.532  -5.977  1.00  0.00     0.025 A 
ATOM     13  C   UNL     1     -15.446  15.162  -4.893  1.00  0.00     0.016 A 
ATOM     14  C   UNL     1     -14.954  16.133  -4.016  1.00  0.00     0.051 A 
ATOM     15  C   UNL     1     -15.259  17.486  -4.216  1.00  0.00     0.157 A 
ATOM     16  C   UNL     1     -16.548  16.892  -6.183  1.00  0.00     0.062 A 
ATOM     17  C   UNL     1     -16.055  17.866  -5.304  1.00  0.00     0.158 A 
BRANCH  15  18
ATOM     18  O   UNL     1     -14.772  18.456  -3.343  1.00  0.00    -0.504 OA
ATOM     19  H   UNL     1     -14.893  18.375  -2.340  1.00  0.00     0.293 HD
ENDBRANCH  15  18
BRANCH  17  20
ATOM     20  O   UNL     1     -16.351  19.213  -5.505  1.00  0.00    -0.504 OA
ATOM     21  H   UNL     1     -15.699  19.943  -5.241  1.00  0.00     0.293 HD
ENDBRANCH  17  20
ENDBRANCH   1  12
BRANCH   2  22
ATOM     22  O   UNL     1     -18.854  14.256  -5.697  1.00  0.00    -0.502 OA
ATOM     23  H   UNL     1     -18.513  14.318  -4.745  1.00  0.00     0.293 HD
ENDBRANCH   2  22
BRANCH   6  24
ATOM     24  O   UNL     1     -19.152  10.986  -9.730  1.00  0.00    -0.507 OA
ATOM     25  H   UNL     1     -19.850  11.188  -9.023  1.00  0.00     0.293 HD
ENDBRANCH   6  24
BRANCH   8  26
ATOM     26  O   UNL     1     -15.006  11.889 -12.028  1.00  0.00    -0.508 OA
ATOM     27  H   UNL     1     -14.787  12.603 -12.713  1.00  0.00     0.293 HD
ENDBRANCH   8  26
TORSDOF 6
ENDMDL
MODEL 2
REMARK VINA RESULT:    -6.386      2.246      6.508
REMARK INTER + INTRA:          -8.022
REMARK INTER:                  -7.703
REMARK INTRA:                  -0.318
REMARK UNBOUND:                -0.329
REMARK SMILES O=c1c(O)c(-c2ccc(O)c(O)c2)oc2cc(O)cc(O)c12
REMARK SMILES IDX 5 1 3 2 2 3 1 4 22 5 20 6 19 7 17 8 16 9 15 10 14 11 6 12
REMARK SMILES IDX 7 13 8 14 9 15 13 16 11 17 10 18 12 20 4 22 21 24 18 26
REMARK H PARENT 10 19 12 21 4 23 21 25 18 27
REMARK Flexibility Score: inf
ROOT
ATOM      1  C   UNL     1     -17.789  13.755  -8.057  1.00  0.00     0.180 A 
ATOM      2  C   UNL     1     -18.064  14.462  -6.871  1.00  0.00     0.208 A 
ATOM      3  C   UNL     1     -17.192  15.488  -6.475  1.00  0.00     0.238 A 
ATOM      4  O   UNL     1     -17.435  16.135  -5.419  1.00  0.00    -0.285 OA
ATOM      5  C   UNL     1     -16.055  15.775  -7.255  1.00  0.00     0.111 A 
ATOM      6  C   UNL     1     -15.124  16.790  -6.924  1.00  0.00     0.134 A 
ATOM      7  C   UNL     1     -14.011  17.009  -7.750  1.00  0.00     0.093 A 
ATOM      8  C   UNL     1     -13.809  16.235  -8.894  1.00  0.00     0.123 A 
ATOM      9  C   UNL     1     -14.724  15.232  -9.227  1.00  0.00     0.094 A 
ATOM     10  C   UNL     1     -15.841  14.999  -8.420  1.00  0.00     0.146 A 
ATOM     11  O   UNL     1     -16.699  14.044  -8.760  1.00  0.00    -0.452 OA
ENDROOT
BRANCH   1  12
ATOM     12  C   UNL     1     -18.671  12.673  -8.551  1.00  0.00     0.025 A 
ATOM     13  C   UNL     1     -19.658  12.918  -9.522  1.00  0.00     0.016 A 
ATOM     14  C   UNL     1     -20.462  11.876  -9.990  1.00  0.00     0.051 A 
ATOM     15  C   UNL     1     -20.284  10.573  -9.507  1.00  0.00     0.157 A 
ATOM     16  C   UNL     1     -18.483  11.361  -8.085  1.00  0.00     0.062 A 
ATOM     17  C   UNL     1     -19.289  10.315  -8.554  1.00  0.00     0.158 A 
BRANCH  15  18
ATOM     18  O   UNL     1     -21.085   9.532  -9.970  1.00  0.00    -0.504 OA
ATOM     19  H   UNL     1     -20.989   9.166 -10.910  1.00  0.00     0.293 HD
ENDBRANCH  15  18
BRANCH  17  20
ATOM     20  O   UNL     1     -19.109   9.017  -8.080  1.00  0.00    -0.504 OA
ATOM     21  H   UNL     1     -18.421   8.804  -7.367  1.00  0.00     0.293 HD
ENDBRANCH  17  20
ENDBRANCH   1  12
BRANCH   2  22
ATOM     22  O   UNL     1     -19.173  14.124  -6.088  1.00  0.00    -0.502 OA
ATOM     23  H   UNL     1     -19.088  13.861  -5.114  1.00  0.00     0.293 HD
ENDBRANCH   2  22
BRANCH   6  24
ATOM     24  O   UNL     1     -15.297  17.579  -5.787  1.00  0.00    -0.507 OA
ATOM     25  H   UNL     1     -16.042  18.265  -5.722  1.00  0.00     0.293 HD
ENDBRANCH   6  24
BRANCH   8  26
ATOM     26  O   UNL     1     -12.694  16.473  -9.696  1.00  0.00    -0.508 OA
ATOM     27  H   UNL     1     -12.558  17.361 -10.164  1.00  0.00     0.293 HD
ENDBRANCH   8  26
TORSDOF 6
ENDMDL
MODEL 3
REMARK VINA RESULT:    -6.203      2.216      3.135
REMARK INTER + INTRA:          -7.801
REMARK INTER:                  -8.026
REMARK INTRA:                   0.225
REMARK UNBOUND:                -0.329
REMARK SMILES O=c1c(O)c(-c2ccc(O)c(O)c2)oc2cc(O)cc(O)c12
REMARK SMILES IDX 5 1 3 2 2 3 1 4 22 5 20 6 19 7 17 8 16 9 15 10 14 11 6 12
REMARK SMILES IDX 7 13 8 14 9 15 13 16 11 17 10 18 12 20 4 22 21 24 18 26
REMARK H PARENT 10 19 12 21 4 23 21 25 18 27
REMARK Flexibility Score: inf
ROOT
ATOM      1  C   UNL     1     -17.278  13.698  -8.409  1.00  0.00     0.180 A 
ATOM      2  C   UNL     1     -17.876  13.115  -7.275  1.00  0.00     0.208 A 
ATOM      3  C   UNL     1     -18.850  12.121  -7.457  1.00  0.00     0.238 A 
ATOM      4  O   UNL     1     -19.385  11.584  -6.449  1.00  0.00    -0.285 OA
ATOM      5  C   UNL     1     -19.224  11.743  -8.762  1.00  0.00     0.111 A 
ATOM      6  C   UNL     1     -20.201  10.754  -9.033  1.00  0.00     0.134 A 
ATOM      7  C   UNL     1     -20.524  10.440 -10.362  1.00  0.00     0.093 A 
ATOM      8  C   UNL     1     -19.894  11.095 -11.422  1.00  0.00     0.123 A 
ATOM      9  C   UNL     1     -18.929  12.072 -11.162  1.00  0.00     0.094 A 
ATOM     10  C   UNL     1     -18.590  12.398  -9.845  1.00  0.00     0.146 A 
ATOM     11  O   UNL     1     -17.667  13.327  -9.625  1.00  0.00    -0.452 OA
ENDROOT
BRANCH   1  12
ATOM     12  C   UNL     1     -16.230  14.738  -8.299  1.00  0.00     0.025 A 
ATOM     13  C   UNL     1     -15.169  14.808  -9.219  1.00  0.00     0.016 A 
ATOM     14  C   UNL     1     -14.205  15.814  -9.109  1.00  0.00     0.051 A 
ATOM     15  C   UNL     1     -14.293  16.770  -8.089  1.00  0.00     0.157 A 
ATOM     16  C   UNL     1     -16.325  15.711  -7.291  1.00  0.00     0.062 A 
ATOM     17  C   UNL     1     -15.358  16.720  -7.180  1.00  0.00     0.158 A 
BRANCH  15  18
ATOM     18  O   UNL     1     -13.333  17.773  -7.975  1.00  0.00    -0.504 OA
ATOM     19  H   UNL     1     -12.752  17.859  -7.150  1.00  0.00     0.293 HD
ENDBRANCH  15  18
BRANCH  17  20
ATOM     20  O   UNL     1     -15.448  17.677  -6.171  1.00  0.00    -0.504 OA
ATOM     21  H   UNL     1     -15.565  18.662  -6.383  1.00  0.00     0.293 HD
ENDBRANCH  17  20
ENDBRANCH   1  12
BRANCH   2  22
ATOM     22  O   UNL     1     -17.522  13.542  -5.992  1.00  0.00    -0.502 OA
ATOM     23  H   UNL     1     -17.940  14.357  -5.557  1.00  0.00     0.293 HD
ENDBRANCH   2  22
BRANCH   6  24
ATOM     24  O   UNL     1     -20.849  10.083  -7.995  1.00  0.00    -0.507 OA
ATOM     25  H   UNL     1     -20.436   9.273  -7.545  1.00  0.00     0.293 HD
ENDBRANCH   6  24
BRANCH   8  26
ATOM     26  O   UNL     1     -20.235  10.765 -12.732  1.00  0.00    -0.508 OA
ATOM     27  H   UNL     1     -20.168   9.813 -13.073  1.00  0.00     0.293 HD
ENDBRANCH   8  26
TORSDOF 6
ENDMDL
MODEL 4
REMARK VINA RESULT:    -6.165      1.989      7.323
REMARK INTER + INTRA:          -7.756
REMARK INTER:                  -7.647
REMARK INTRA:                  -0.109
REMARK UNBOUND:                -0.329
REMARK SMILES O=c1c(O)c(-c2ccc(O)c(O)c2)oc2cc(O)cc(O)c12
REMARK SMILES IDX 5 1 3 2 2 3 1 4 22 5 20 6 19 7 17 8 16 9 15 10 14 11 6 12
REMARK SMILES IDX 7 13 8 14 9 15 13 16 11 17 10 18 12 20 4 22 21 24 18 26
REMARK H PARENT 10 19 12 21 4 23 21 25 18 27
REMARK Flexibility Score: inf
ROOT
ATOM      1  C   UNL     1     -16.386  14.663  -8.381  1.00  0.00     0.180 A 
ATOM      2  C   UNL     1     -15.082  15.140  -8.619  1.00  0.00     0.208 A 
ATOM      3  C   UNL     1     -14.437  15.880  -7.616  1.00  0.00     0.238 A 
ATOM      4  O   UNL     1     -13.265  16.303  -7.814  1.00  0.00    -0.285 OA
ATOM      5  C   UNL     1     -15.110  16.149  -6.407  1.00  0.00     0.111 A 
ATOM      6  C   UNL     1     -14.534  16.891  -5.348  1.00  0.00     0.134 A 
ATOM      7  C   UNL     1     -15.272  17.122  -4.178  1.00  0.00     0.093 A 
ATOM      8  C   UNL     1     -16.572  16.631  -4.047  1.00  0.00     0.123 A 
ATOM      9  C   UNL     1     -17.147  15.897  -5.089  1.00  0.00     0.094 A 
ATOM     10  C   UNL     1     -16.428  15.652  -6.262  1.00  0.00     0.146 A 
ATOM     11  O   UNL     1     -16.994  14.948  -7.235  1.00  0.00    -0.452 OA
ENDROOT
BRANCH   1  12
ATOM     12  C   UNL     1     -17.124  13.860  -9.382  1.00  0.00     0.025 A 
ATOM     13  C   UNL     1     -18.325  14.322  -9.951  1.00  0.00     0.016 A 
ATOM     14  C   UNL     1     -18.991  13.556 -10.912  1.00  0.00     0.051 A 
ATOM     15  C   UNL     1     -18.463  12.327 -11.328  1.00  0.00     0.157 A 
ATOM     16  C   UNL     1     -16.589  12.636  -9.818  1.00  0.00     0.062 A 
ATOM     17  C   UNL     1     -17.257  11.868 -10.782  1.00  0.00     0.158 A 
BRANCH  15  18
ATOM     18  O   UNL     1     -19.125  11.561 -12.284  1.00  0.00    -0.504 OA
ATOM     19  H   UNL     1     -18.635  10.876 -12.847  1.00  0.00     0.293 HD
ENDBRANCH  15  18
BRANCH  17  20
ATOM     20  O   UNL     1     -16.730  10.649 -11.203  1.00  0.00    -0.504 OA
ATOM     21  H   UNL     1     -15.955  10.211 -10.717  1.00  0.00     0.293 HD
ENDBRANCH  17  20
ENDBRANCH   1  12
BRANCH   2  22
ATOM     22  O   UNL     1     -14.456  14.902  -9.846  1.00  0.00    -0.502 OA
ATOM     23  H   UNL     1     -14.062  14.000 -10.088  1.00  0.00     0.293 HD
ENDBRANCH   2  22
BRANCH   6  24
ATOM     24  O   UNL     1     -13.237  17.397  -5.449  1.00  0.00    -0.507 OA
ATOM     25  H   UNL     1     -13.022  18.199  -6.030  1.00  0.00     0.293 HD
ENDBRANCH   6  24
BRANCH   8  26
ATOM     26  O   UNL     1     -17.284  16.876  -2.875  1.00  0.00    -0.508 OA
ATOM     27  H   UNL     1     -18.115  17.456  -2.872  1.00  0.00     0.293 HD
ENDBRANCH   8  26
TORSDOF 6
ENDMDL
MODEL 5
REMARK VINA RESULT:    -6.161      1.949      7.248
REMARK INTER + INTRA:          -7.751
REMARK INTER:                  -7.429
REMARK INTRA:                  -0.322
REMARK UNBOUND:                -0.329
REMARK SMILES O=c1c(O)c(-c2ccc(O)c(O)c2)oc2cc(O)cc(O)c12
REMARK SMILES IDX 5 1 3 2 2 3 1 4 22 5 20 6 19 7 17 8 16 9 15 10 14 11 6 12
REMARK SMILES IDX 7 13 8 14 9 15 13 16 11 17 10 18 12 20 4 22 21 24 18 26
REMARK H PARENT 10 19 12 21 4 23 21 25 18 27
REMARK Flexibility Score: inf
ROOT
ATOM      1  C   UNL     1     -16.883  14.406  -7.955  1.00  0.00     0.180 A 
ATOM      2  C   UNL     1     -15.584  14.718  -8.399  1.00  0.00     0.208 A 
ATOM      3  C   UNL     1     -14.782  15.560  -7.613  1.00  0.00     0.238 A 
ATOM      4  O   UNL     1     -13.612  15.838  -7.996  1.00  0.00    -0.285 OA
ATOM      5  C   UNL     1     -15.296  16.090  -6.413  1.00  0.00     0.111 A 
ATOM      6  C   UNL     1     -14.555  16.949  -5.565  1.00  0.00     0.134 A 
ATOM      7  C   UNL     1     -15.141  17.442  -4.390  1.00  0.00     0.093 A 
ATOM      8  C   UNL     1     -16.450  17.096  -4.047  1.00  0.00     0.123 A 
ATOM      9  C   UNL     1     -17.187  16.248  -4.880  1.00  0.00     0.094 A 
ATOM     10  C   UNL     1     -16.621  15.744  -6.054  1.00  0.00     0.146 A 
ATOM     11  O   UNL     1     -17.339  14.936  -6.825  1.00  0.00    -0.452 OA
ENDROOT
BRANCH   1  12
ATOM     12  C   UNL     1     -17.782  13.511  -8.718  1.00  0.00     0.025 A 
ATOM     13  C   UNL     1     -18.605  14.003  -9.747  1.00  0.00     0.016 A 
ATOM     14  C   UNL     1     -19.427  13.135 -10.471  1.00  0.00     0.051 A 
ATOM     15  C   UNL     1     -19.430  11.763 -10.187  1.00  0.00     0.157 A 
ATOM     16  C   UNL     1     -17.774  12.132  -8.452  1.00  0.00     0.062 A 
ATOM     17  C   UNL     1     -18.598  11.260  -9.177  1.00  0.00     0.158 A 
BRANCH  15  18
ATOM     18  O   UNL     1     -20.250  10.895 -10.905  1.00  0.00    -0.504 OA
ATOM     19  H   UNL     1     -19.949   9.958 -11.144  1.00  0.00     0.293 HD
ENDBRANCH  15  18
BRANCH  17  20
ATOM     20  O   UNL     1     -18.598   9.894  -8.902  1.00  0.00    -0.504 OA
ATOM     21  H   UNL     1     -17.891   9.277  -9.286  1.00  0.00     0.293 HD
ENDBRANCH  17  20
ENDBRANCH   1  12
BRANCH   2  22
ATOM     22  O   UNL     1     -15.116  14.219  -9.618  1.00  0.00    -0.502 OA
ATOM     23  H   UNL     1     -14.809  13.259  -9.730  1.00  0.00     0.293 HD
ENDBRANCH   2  22
BRANCH   6  24
ATOM     24  O   UNL     1     -13.246  17.314  -5.880  1.00  0.00    -0.507 OA
ATOM     25  H   UNL     1     -12.674  16.758  -6.507  1.00  0.00     0.293 HD
ENDBRANCH   6  24
BRANCH   8  26
ATOM     26  O   UNL     1     -17.009  17.601  -2.875  1.00  0.00    -0.508 OA
ATOM     27  H   UNL     1     -16.592  18.382  -2.383  1.00  0.00     0.293 HD
ENDBRANCH   8  26
TORSDOF 6
ENDMDL
MODEL 6
REMARK VINA RESULT:    -6.094      1.256      2.911
REMARK INTER + INTRA:          -7.670
REMARK INTER:                  -7.378
REMARK INTRA:                  -0.292
REMARK UNBOUND:                -0.329
REMARK SMILES O=c1c(O)c(-c2ccc(O)c(O)c2)oc2cc(O)cc(O)c12
REMARK SMILES IDX 5 1 3 2 2 3 1 4 22 5 20 6 19 7 17 8 16 9 15 10 14 11 6 12
REMARK SMILES IDX 7 13 8 14 9 15 13 16 11 17 10 18 12 20 4 22 21 24 18 26
REMARK H PARENT 10 19 12 21 4 23 21 25 18 27
REMARK Flexibility Score: inf
ROOT
ATOM      1  C   UNL     1     -16.676  14.468  -7.324  1.00  0.00     0.180 A 
ATOM      2  C   UNL     1     -15.891  14.195  -8.461  1.00  0.00     0.208 A 
ATOM      3  C   UNL     1     -16.332  13.222  -9.372  1.00  0.00     0.238 A 
ATOM      4  O   UNL     1     -15.642  12.976 -10.399  1.00  0.00    -0.285 OA
ATOM      5  C   UNL     1     -17.532  12.527  -9.122  1.00  0.00     0.111 A 
ATOM      6  C   UNL     1     -18.044  11.529  -9.986  1.00  0.00     0.134 A 
ATOM      7  C   UNL     1     -19.243  10.877  -9.663  1.00  0.00     0.093 A 
ATOM      8  C   UNL     1     -19.937  11.199  -8.495  1.00  0.00     0.123 A 
ATOM      9  C   UNL     1     -19.437  12.184  -7.637  1.00  0.00     0.094 A 
ATOM     10  C   UNL     1     -18.246  12.848  -7.942  1.00  0.00     0.146 A 
ATOM     11  O   UNL     1     -17.795  13.782  -7.114  1.00  0.00    -0.452 OA
ENDROOT
BRANCH   1  12
ATOM     12  C   UNL     1     -16.288  15.493  -6.328  1.00  0.00     0.025 A 
ATOM     13  C   UNL     1     -15.642  15.141  -5.129  1.00  0.00     0.016 A 
ATOM     14  C   UNL     1     -15.264  16.128  -4.215  1.00  0.00     0.051 A 
ATOM     15  C   UNL     1     -15.511  17.479  -4.491  1.00  0.00     0.157 A 
ATOM     16  C   UNL     1     -16.515  16.850  -6.608  1.00  0.00     0.062 A 
ATOM     17  C   UNL     1     -16.136  17.841  -5.692  1.00  0.00     0.158 A 
BRANCH  15  18
ATOM     18  O   UNL     1     -15.137  18.466  -3.581  1.00  0.00    -0.504 OA
ATOM     19  H   UNL     1     -14.164  18.706  -3.431  1.00  0.00     0.293 HD
ENDBRANCH  15  18
BRANCH  17  20
ATOM     20  O   UNL     1     -16.374  19.186  -5.966  1.00  0.00    -0.504 OA
ATOM     21  H   UNL     1     -17.074  19.714  -5.457  1.00  0.00     0.293 HD
ENDBRANCH  17  20
ENDBRANCH   1  12
BRANCH   2  22
ATOM     22  O   UNL     1     -14.680  14.863  -8.660  1.00  0.00    -0.502 OA
ATOM     23  H   UNL     1     -14.578  15.612  -9.336  1.00  0.00     0.293 HD
ENDBRANCH   2  22
BRANCH   6  24
ATOM     24  O   UNL     1     -17.374  11.184 -11.160  1.00  0.00    -0.507 OA
ATOM     25  H   UNL     1     -17.766  10.524 -11.824  1.00  0.00     0.293 HD
ENDBRANCH   6  24
BRANCH   8  26
ATOM     26  O   UNL     1     -21.125  10.535  -8.196  1.00  0.00    -0.508 OA
ATOM     27  H   UNL     1     -21.375  10.299  -7.243  1.00  0.00     0.293 HD
ENDBRANCH   8  26
TORSDOF 6
ENDMDL
MODEL 7
REMARK VINA RESULT:    -6.063      1.889      2.117
REMARK INTER + INTRA:          -7.633
REMARK INTER:                  -7.331
REMARK INTRA:                  -0.302
REMARK UNBOUND:                -0.329
REMARK SMILES O=c1c(O)c(-c2ccc(O)c(O)c2)oc2cc(O)cc(O)c12
REMARK SMILES IDX 5 1 3 2 2 3 1 4 22 5 20 6 19 7 17 8 16 9 15 10 14 11 6 12
REMARK SMILES IDX 7 13 8 14 9 15 13 16 11 17 10 18 12 20 4 22 21 24 18 26
REMARK H PARENT 10 19 12 21 4 23 21 25 18 27
REMARK Flexibility Score: inf
ROOT
ATOM      1  C   UNL     1     -16.978  14.275  -7.163  1.00  0.00     0.180 A 
ATOM      2  C   UNL     1     -17.856  13.490  -6.391  1.00  0.00     0.208 A 
ATOM      3  C   UNL     1     -18.868  12.766  -7.040  1.00  0.00     0.238 A 
ATOM      4  O   UNL     1     -19.653  12.051  -6.359  1.00  0.00    -0.285 OA
ATOM      5  C   UNL     1     -18.998  12.853  -8.440  1.00  0.00     0.111 A 
ATOM      6  C   UNL     1     -19.993  12.159  -9.170  1.00  0.00     0.134 A 
ATOM      7  C   UNL     1     -20.063  12.305 -10.564  1.00  0.00     0.093 A 
ATOM      8  C   UNL     1     -19.162  13.131 -11.240  1.00  0.00     0.123 A 
ATOM      9  C   UNL     1     -18.177  13.819 -10.525  1.00  0.00     0.094 A 
ATOM     10  C   UNL     1     -18.089  13.685  -9.136  1.00  0.00     0.146 A 
ATOM     11  O   UNL     1     -17.141  14.345  -8.481  1.00  0.00    -0.452 OA
ENDROOT
BRANCH   1  12
ATOM     12  C   UNL     1     -15.875  15.052  -6.554  1.00  0.00     0.025 A 
ATOM     13  C   UNL     1     -14.552  14.576  -6.563  1.00  0.00     0.016 A 
ATOM     14  C   UNL     1     -13.523  15.339  -6.004  1.00  0.00     0.051 A 
ATOM     15  C   UNL     1     -13.797  16.592  -5.441  1.00  0.00     0.157 A 
ATOM     16  C   UNL     1     -16.140  16.318  -6.006  1.00  0.00     0.062 A 
ATOM     17  C   UNL     1     -15.109  17.084  -5.445  1.00  0.00     0.158 A 
BRANCH  15  18
ATOM     18  O   UNL     1     -12.775  17.354  -4.880  1.00  0.00    -0.504 OA
ATOM     19  H   UNL     1     -12.728  17.526  -3.883  1.00  0.00     0.293 HD
ENDBRANCH  15  18
BRANCH  17  20
ATOM     20  O   UNL     1     -15.378  18.334  -4.891  1.00  0.00    -0.504 OA
ATOM     21  H   UNL     1     -16.239  18.830  -5.095  1.00  0.00     0.293 HD
ENDBRANCH  17  20
ENDBRANCH   1  12
BRANCH   2  22
ATOM     22  O   UNL     1     -17.736  13.460  -4.998  1.00  0.00    -0.502 OA
ATOM     23  H   UNL     1     -18.501  13.707  -4.382  1.00  0.00     0.293 HD
ENDBRANCH   2  22
BRANCH   6  24
ATOM     24  O   UNL     1     -20.909  11.328  -8.524  1.00  0.00    -0.507 OA
ATOM     25  H   UNL     1     -20.854  11.147  -7.528  1.00  0.00     0.293 HD
ENDBRANCH   6  24
BRANCH   8  26
ATOM     26  O   UNL     1     -19.254  13.260 -12.624  1.00  0.00    -0.508 OA
ATOM     27  H   UNL     1     -19.525  12.480 -13.211  1.00  0.00     0.293 HD
ENDBRANCH   8  26
TORSDOF 6
ENDMDL
MODEL 8
REMARK VINA RESULT:    -5.948      1.723      6.683
REMARK INTER + INTRA:          -7.494
REMARK INTER:                  -7.322
REMARK INTRA:                  -0.172
REMARK UNBOUND:                -0.329
REMARK SMILES O=c1c(O)c(-c2ccc(O)c(O)c2)oc2cc(O)cc(O)c12
REMARK SMILES IDX 5 1 3 2 2 3 1 4 22 5 20 6 19 7 17 8 16 9 15 10 14 11 6 12
REMARK SMILES IDX 7 13 8 14 9 15 13 16 11 17 10 18 12 20 4 22 21 24 18 26
REMARK H PARENT 10 19 12 21 4 23 21 25 18 27
REMARK Flexibility Score: inf
ROOT
ATOM      1  C   UNL     1     -17.479  13.904  -7.504  1.00  0.00     0.180 A 
ATOM      2  C   UNL     1     -18.156  13.774  -6.276  1.00  0.00     0.208 A 
ATOM      3  C   UNL     1     -17.649  14.439  -5.148  1.00  0.00     0.238 A 
ATOM      4  O   UNL     1     -18.253  14.339  -4.045  1.00  0.00    -0.285 OA
ATOM      5  C   UNL     1     -16.469  15.201  -5.261  1.00  0.00     0.111 A 
ATOM      6  C   UNL     1     -15.890  15.898  -4.173  1.00  0.00     0.134 A 
ATOM      7  C   UNL     1     -14.708  16.629  -4.365  1.00  0.00     0.093 A 
ATOM      8  C   UNL     1     -14.094  16.675  -5.618  1.00  0.00     0.123 A 
ATOM      9  C   UNL     1     -14.661  15.990  -6.697  1.00  0.00     0.094 A 
ATOM     10  C   UNL     1     -15.840  15.258  -6.528  1.00  0.00     0.146 A 
ATOM     11  O   UNL     1     -16.361  14.620  -7.569  1.00  0.00    -0.452 OA
ENDROOT
BRANCH   1  12
ATOM     12  C   UNL     1     -17.961  13.249  -8.741  1.00  0.00     0.025 A 
ATOM     13  C   UNL     1     -19.208  13.576  -9.304  1.00  0.00     0.016 A 
ATOM     14  C   UNL     1     -19.631  12.963 -10.486  1.00  0.00     0.051 A 
ATOM     15  C   UNL     1     -18.813  12.026 -11.129  1.00  0.00     0.157 A 
ATOM     16  C   UNL     1     -17.136  12.324  -9.401  1.00  0.00     0.062 A 
ATOM     17  C   UNL     1     -17.560  11.708 -10.587  1.00  0.00     0.158 A 
BRANCH  15  18
ATOM     18  O   UNL     1     -19.233  11.410 -12.307  1.00  0.00    -0.504 OA
ATOM     19  H   UNL     1     -19.188  11.887 -13.199  1.00  0.00     0.293 HD
ENDBRANCH  15  18
BRANCH  17  20
ATOM     20  O   UNL     1     -16.745  10.781 -11.232  1.00  0.00    -0.504 OA
ATOM     21  H   UNL     1     -15.877  10.460 -10.818  1.00  0.00     0.293 HD
ENDBRANCH  17  20
ENDBRANCH   1  12
BRANCH   2  22
ATOM     22  O   UNL     1     -19.297  12.972  -6.180  1.00  0.00    -0.502 OA
ATOM     23  H   UNL     1     -19.870  12.943  -5.344  1.00  0.00     0.293 HD
ENDBRANCH   2  22
BRANCH   6  24
ATOM     24  O   UNL     1     -16.478  15.871  -2.908  1.00  0.00    -0.507 OA
ATOM     25  H   UNL     1     -15.936  16.019  -2.065  1.00  0.00     0.293 HD
ENDBRANCH   6  24
BRANCH   8  26
ATOM     26  O   UNL     1     -12.920  17.407  -5.781  1.00  0.00    -0.508 OA
ATOM     27  H   UNL     1     -12.777  18.006  -6.586  1.00  0.00     0.293 HD
ENDBRANCH   8  26
TORSDOF 6
ENDMDL
MODEL 9
REMARK VINA RESULT:    -5.833      1.981      6.746
REMARK INTER + INTRA:          -7.356
REMARK INTER:                  -7.082
REMARK INTRA:                  -0.274
REMARK UNBOUND:                -0.329
REMARK SMILES O=c1c(O)c(-c2ccc(O)c(O)c2)oc2cc(O)cc(O)c12
REMARK SMILES IDX 5 1 3 2 2 3 1 4 22 5 20 6 19 7 17 8 16 9 15 10 14 11 6 12
REMARK SMILES IDX 7 13 8 14 9 15 13 16 11 17 10 18 12 20 4 22 21 24 18 26
REMARK H PARENT 10 19 12 21 4 23 21 25 18 27
REMARK Flexibility Score: inf
ROOT
ATOM      1  C   UNL     1     -17.486  14.492  -8.006  1.00  0.00     0.180 A 
ATOM      2  C   UNL     1     -18.231  15.482  -7.335  1.00  0.00     0.208 A 
ATOM      3  C   UNL     1     -17.592  16.269  -6.364  1.00  0.00     0.238 A 
ATOM      4  O   UNL     1     -18.246  17.166  -5.764  1.00  0.00    -0.285 OA
ATOM      5  C   UNL     1     -16.234  16.041  -6.065  1.00  0.00     0.111 A 
ATOM      6  C   UNL     1     -15.518  16.785  -5.097  1.00  0.00     0.134 A 
ATOM      7  C   UNL     1     -14.168  16.492  -4.852  1.00  0.00     0.093 A 
ATOM      8  C   UNL     1     -13.523  15.469  -5.551  1.00  0.00     0.123 A 
ATOM      9  C   UNL     1     -14.224  14.730  -6.508  1.00  0.00     0.094 A 
ATOM     10  C   UNL     1     -15.569  15.009  -6.770  1.00  0.00     0.146 A 
ATOM     11  O   UNL     1     -16.211  14.296  -7.687  1.00  0.00    -0.452 OA
ENDROOT
BRANCH   1  12
ATOM     12  C   UNL     1     -18.084  13.635  -9.055  1.00  0.00     0.025 A 
ATOM     13  C   UNL     1     -18.354  14.134 -10.342  1.00  0.00     0.016 A 
ATOM     14  C   UNL     1     -18.896  13.300 -11.324  1.00  0.00     0.051 A 
ATOM     15  C   UNL     1     -19.161  11.954 -11.040  1.00  0.00     0.157 A 
ATOM     16  C   UNL     1     -18.333  12.280  -8.783  1.00  0.00     0.062 A 
ATOM     17  C   UNL     1     -18.876  11.442  -9.767  1.00  0.00     0.158 A 
BRANCH  15  18
ATOM     18  O   UNL     1     -19.703  11.120 -12.016  1.00  0.00    -0.504 OA
ATOM     19  H   UNL     1     -20.477  10.500 -11.812  1.00  0.00     0.293 HD
ENDBRANCH  15  18
BRANCH  17  20
ATOM     20  O   UNL     1     -19.135  10.101  -9.490  1.00  0.00    -0.504 OA
ATOM     21  H   UNL     1     -20.050   9.695  -9.648  1.00  0.00     0.293 HD
ENDBRANCH  17  20
ENDBRANCH   1  12
BRANCH   2  22
ATOM     22  O   UNL     1     -19.589  15.655  -7.615  1.00  0.00    -0.502 OA
ATOM     23  H   UNL     1     -20.181  14.892  -7.924  1.00  0.00     0.293 HD
ENDBRANCH   2  22
BRANCH   6  24
ATOM     24  O   UNL     1     -16.135  17.813  -4.382  1.00  0.00    -0.507 OA
ATOM     25  H   UNL     1     -15.874  18.026  -3.425  1.00  0.00     0.293 HD
ENDBRANCH   6  24
BRANCH   8  26
ATOM     26  O   UNL     1     -12.182  15.197  -5.287  1.00  0.00    -0.508 OA
ATOM     27  H   UNL     1     -11.898  14.699  -4.451  1.00  0.00     0.293 HD
ENDBRANCH   8  26
TORSDOF 6
ENDMDL
