MODEL 1
REMARK VINA RESULT:    -4.819      0.000      0.000
REMARK INTER + INTRA:          -6.050
REMARK INTER:                  -5.806
REMARK INTRA:                  -0.244
REMARK UNBOUND:                -0.244
REMARK SMILES O=c1c(O)c(-c2ccc(O)c(O)c2)oc2cc(O)cc(O)c12
REMARK SMILES IDX 5 1 3 2 2 3 1 4 22 5 20 6 19 7 17 8 16 9 15 10 14 11 6 12
REMARK SMILES IDX 7 13 8 14 9 15 13 16 11 17 10 18 12 20 4 22 21 24 18 26
REMARK H PARENT 10 19 12 21 4 23 21 25 18 27
REMARK Flexibility Score: inf
ROOT
ATOM      1  C   UNL     1      42.051  18.508   6.304  1.00  0.00     0.180 A 
ATOM      2  C   UNL     1      43.198  17.791   6.683  1.00  0.00     0.208 A 
ATOM      3  C   UNL     1      44.291  18.489   7.223  1.00  0.00     0.238 A 
ATOM      4  O   UNL     1      45.295  17.836   7.611  1.00  0.00    -0.285 OA
ATOM      5  C   UNL     1      44.228  19.897   7.360  1.00  0.00     0.111 A 
ATOM      6  C   UNL     1      45.291  20.710   7.857  1.00  0.00     0.134 A 
ATOM      7  C   UNL     1      45.071  22.077   8.072  1.00  0.00     0.093 A 
ATOM      8  C   UNL     1      43.851  22.670   7.749  1.00  0.00     0.123 A 
ATOM      9  C   UNL     1      42.826  21.895   7.207  1.00  0.00     0.094 A 
ATOM     10  C   UNL     1      43.002  20.522   7.014  1.00  0.00     0.146 A 
ATOM     11  O   UNL     1      41.997  19.819   6.506  1.00  0.00    -0.452 OA
ENDROOT
BRANCH   1  12
ATOM     12  C   UNL     1      40.869  17.844   5.705  1.00  0.00     0.025 A 
ATOM     13  C   UNL     1      39.693  17.638   6.446  1.00  0.00     0.016 A 
ATOM     14  C   UNL     1      38.600  16.987   5.868  1.00  0.00     0.051 A 
ATOM     15  C   UNL     1      38.670  16.521   4.550  1.00  0.00     0.157 A 
ATOM     16  C   UNL     1      40.943  17.357   4.390  1.00  0.00     0.062 A 
ATOM     17  C   UNL     1      39.849  16.705   3.808  1.00  0.00     0.158 A 
BRANCH  15  18
ATOM     18  O   UNL     1      37.576  15.875   3.975  1.00  0.00    -0.504 OA
ATOM     19  H   UNL     1      37.450  14.873   4.055  1.00  0.00     0.293 HD
ENDBRANCH  15  18
BRANCH  17  20
ATOM     20  O   UNL     1      39.953  16.247   2.495  1.00  0.00    -0.504 OA
ATOM     21  H   UNL     1      40.247  15.302   2.277  1.00  0.00     0.293 HD
ENDBRANCH  17  20
ENDBRANCH   1  12
BRANCH   2  22
ATOM     22  O   UNL     1      43.232  16.399   6.559  1.00  0.00    -0.502 OA
ATOM     23  H   UNL     1      43.945  15.916   6.026  1.00  0.00     0.293 HD
ENDBRANCH   2  22
BRANCH   6  24
ATOM     24  O   UNL     1      46.577  20.236   8.125  1.00  0.00    -0.507 OA
ATOM     25  H   UNL     1      46.877  19.281   7.995  1.00  0.00     0.293 HD
ENDBRANCH   6  24
BRANCH   8  26
ATOM     26  O   UNL     1      43.673  24.036   7.963  1.00  0.00    -0.508 OA
ATOM     27  H   UNL     1      43.356  24.651   7.222  1.00  0.00     0.293 HD
ENDBRANCH   8  26
TORSDOF 6
ENDMDL
MODEL 2
REMARK VINA RESULT:    -4.299      1.513      7.071
REMARK INTER + INTRA:          -5.424
REMARK INTER:                  -5.103
REMARK INTRA:                  -0.321
REMARK UNBOUND:                -0.244
REMARK SMILES O=c1c(O)c(-c2ccc(O)c(O)c2)oc2cc(O)cc(O)c12
REMARK SMILES IDX 5 1 3 2 2 3 1 4 22 5 20 6 19 7 17 8 16 9 15 10 14 11 6 12
REMARK SMILES IDX 7 13 8 14 9 15 13 16 11 17 10 18 12 20 4 22 21 24 18 26
REMARK H PARENT 10 19 12 21 4 23 21 25 18 27
REMARK Flexibility Score: inf
ROOT
ATOM      1  C   UNL     1      42.311  18.901   5.981  1.00  0.00     0.180 A 
ATOM      2  C   UNL     1      41.199  18.446   6.708  1.00  0.00     0.208 A 
ATOM      3  C   UNL     1      40.296  17.566   6.092  1.00  0.00     0.238 A 
ATOM      4  O   UNL     1      39.331  17.119   6.765  1.00  0.00    -0.285 OA
ATOM      5  C   UNL     1      40.507  17.166   4.750  1.00  0.00     0.111 A 
ATOM      6  C   UNL     1      39.634  16.310   4.013  1.00  0.00     0.134 A 
ATOM      7  C   UNL     1      40.011  15.875   2.735  1.00  0.00     0.093 A 
ATOM      8  C   UNL     1      41.194  16.317   2.144  1.00  0.00     0.123 A 
ATOM      9  C   UNL     1      42.025  17.200   2.833  1.00  0.00     0.094 A 
ATOM     10  C   UNL     1      41.695  17.623   4.123  1.00  0.00     0.146 A 
ATOM     11  O   UNL     1      42.519  18.457   4.747  1.00  0.00    -0.452 OA
ENDROOT
BRANCH   1  12
ATOM     12  C   UNL     1      43.294  19.849   6.556  1.00  0.00     0.025 A 
ATOM     13  C   UNL     1      43.052  21.234   6.571  1.00  0.00     0.016 A 
ATOM     14  C   UNL     1      44.005  22.111   7.095  1.00  0.00     0.051 A 
ATOM     15  C   UNL     1      45.216  21.621   7.599  1.00  0.00     0.157 A 
ATOM     16  C   UNL     1      44.519  19.365   7.044  1.00  0.00     0.062 A 
ATOM     17  C   UNL     1      45.475  20.241   7.571  1.00  0.00     0.158 A 
BRANCH  15  18
ATOM     18  O   UNL     1      46.164  22.499   8.125  1.00  0.00    -0.504 OA
ATOM     19  H   UNL     1      45.950  23.103   8.910  1.00  0.00     0.293 HD
ENDBRANCH  15  18
BRANCH  17  20
ATOM     20  O   UNL     1      46.674  19.722   8.058  1.00  0.00    -0.504 OA
ATOM     21  H   UNL     1      47.276  19.135   7.492  1.00  0.00     0.293 HD
ENDBRANCH  17  20
ENDBRANCH   1  12
BRANCH   2  22
ATOM     22  O   UNL     1      41.020  18.836   8.039  1.00  0.00    -0.502 OA
ATOM     23  H   UNL     1      40.314  19.506   8.320  1.00  0.00     0.293 HD
ENDBRANCH   2  22
BRANCH   6  24
ATOM     24  O   UNL     1      38.386  15.884   4.473  1.00  0.00    -0.507 OA
ATOM     25  H   UNL     1      37.568  15.769   3.893  1.00  0.00     0.293 HD
ENDBRANCH   6  24
BRANCH   8  26
ATOM     26  O   UNL     1      41.529  15.875   0.865  1.00  0.00    -0.508 OA
ATOM     27  H   UNL     1      41.039  16.211   0.044  1.00  0.00     0.293 HD
ENDBRANCH   8  26
TORSDOF 6
ENDMDL
MODEL 3
REMARK VINA RESULT:    -4.156      1.720      3.322
REMARK INTER + INTRA:          -5.251
REMARK INTER:                  -4.931
REMARK INTRA:                  -0.321
REMARK UNBOUND:                -0.244
REMARK SMILES O=c1c(O)c(-c2ccc(O)c(O)c2)oc2cc(O)cc(O)c12
REMARK SMILES IDX 5 1 3 2 2 3 1 4 22 5 20 6 19 7 17 8 16 9 15 10 14 11 6 12
REMARK SMILES IDX 7 13 8 14 9 15 13 16 11 17 10 18 12 20 4 22 21 24 18 26
REMARK H PARENT 10 19 12 21 4 23 21 25 18 27
REMARK Flexibility Score: inf
ROOT
ATOM      1  C   UNL     1      42.826  19.197   7.233  1.00  0.00     0.180 A 
ATOM      2  C   UNL     1      42.814  20.601   7.193  1.00  0.00     0.208 A 
ATOM      3  C   UNL     1      44.014  21.299   7.404  1.00  0.00     0.238 A 
ATOM      4  O   UNL     1      44.008  22.555   7.314  1.00  0.00    -0.285 OA
ATOM      5  C   UNL     1      45.207  20.585   7.671  1.00  0.00     0.111 A 
ATOM      6  C   UNL     1      46.471  21.190   7.940  1.00  0.00     0.134 A 
ATOM      7  C   UNL     1      47.610  20.384   8.059  1.00  0.00     0.093 A 
ATOM      8  C   UNL     1      47.521  18.995   7.984  1.00  0.00     0.123 A 
ATOM      9  C   UNL     1      46.281  18.391   7.781  1.00  0.00     0.094 A 
ATOM     10  C   UNL     1      45.132  19.168   7.621  1.00  0.00     0.146 A 
ATOM     11  O   UNL     1      43.972  18.553   7.419  1.00  0.00    -0.452 OA
ENDROOT
BRANCH   1  12
ATOM     12  C   UNL     1      41.596  18.393   7.044  1.00  0.00     0.025 A 
ATOM     13  C   UNL     1      40.702  18.163   8.103  1.00  0.00     0.016 A 
ATOM     14  C   UNL     1      39.561  17.380   7.907  1.00  0.00     0.051 A 
ATOM     15  C   UNL     1      39.304  16.806   6.656  1.00  0.00     0.157 A 
ATOM     16  C   UNL     1      41.345  17.798   5.797  1.00  0.00     0.062 A 
ATOM     17  C   UNL     1      40.203  17.014   5.597  1.00  0.00     0.158 A 
BRANCH  15  18
ATOM     18  O   UNL     1      38.163  16.028   6.463  1.00  0.00    -0.504 OA
ATOM     19  H   UNL     1      37.431  16.309   5.822  1.00  0.00     0.293 HD
ENDBRANCH  15  18
BRANCH  17  20
ATOM     20  O   UNL     1      39.979  16.449   4.341  1.00  0.00    -0.504 OA
ATOM     21  H   UNL     1      39.341  15.675   4.205  1.00  0.00     0.293 HD
ENDBRANCH  17  20
ENDBRANCH   1  12
BRANCH   2  22
ATOM     22  O   UNL     1      41.630  21.287   6.908  1.00  0.00    -0.502 OA
ATOM     23  H   UNL     1      40.722  20.839   6.930  1.00  0.00     0.293 HD
ENDBRANCH   2  22
BRANCH   6  24
ATOM     24  O   UNL     1      46.656  22.563   8.125  1.00  0.00    -0.507 OA
ATOM     25  H   UNL     1      47.076  22.981   8.942  1.00  0.00     0.293 HD
ENDBRANCH   6  24
BRANCH   8  26
ATOM     26  O   UNL     1      48.674  18.224   8.123  1.00  0.00    -0.508 OA
ATOM     27  H   UNL     1      49.343  18.131   7.367  1.00  0.00     0.293 HD
ENDBRANCH   8  26
TORSDOF 6
ENDMDL
MODEL 4
REMARK VINA RESULT:    -3.721      1.527      6.917
REMARK INTER + INTRA:          -4.727
REMARK INTER:                  -4.420
REMARK INTRA:                  -0.308
REMARK UNBOUND:                -0.244
REMARK SMILES O=c1c(O)c(-c2ccc(O)c(O)c2)oc2cc(O)cc(O)c12
REMARK SMILES IDX 5 1 3 2 2 3 1 4 22 5 20 6 19 7 17 8 16 9 15 10 14 11 6 12
REMARK SMILES IDX 7 13 8 14 9 15 13 16 11 17 10 18 12 20 4 22 21 24 18 26
REMARK H PARENT 10 19 12 21 4 23 21 25 18 27
REMARK Flexibility Score: inf
ROOT
ATOM      1  C   UNL     1      42.052  18.794   6.114  1.00  0.00     0.180 A 
ATOM      2  C   UNL     1      41.968  18.438   4.757  1.00  0.00     0.208 A 
ATOM      3  C   UNL     1      40.867  17.687   4.317  1.00  0.00     0.238 A 
ATOM      4  O   UNL     1      40.769  17.417   3.091  1.00  0.00    -0.285 OA
ATOM      5  C   UNL     1      39.873  17.285   5.243  1.00  0.00     0.111 A 
ATOM      6  C   UNL     1      38.736  16.487   4.915  1.00  0.00     0.134 A 
ATOM      7  C   UNL     1      37.750  16.261   5.883  1.00  0.00     0.093 A 
ATOM      8  C   UNL     1      37.891  16.747   7.182  1.00  0.00     0.123 A 
ATOM      9  C   UNL     1      39.027  17.478   7.529  1.00  0.00     0.094 A 
ATOM     10  C   UNL     1      40.011  17.751   6.576  1.00  0.00     0.146 A 
ATOM     11  O   UNL     1      41.072  18.459   6.945  1.00  0.00    -0.452 OA
ENDROOT
BRANCH   1  12
ATOM     12  C   UNL     1      43.195  19.565   6.657  1.00  0.00     0.025 A 
ATOM     13  C   UNL     1      43.133  20.961   6.801  1.00  0.00     0.016 A 
ATOM     14  C   UNL     1      44.232  21.670   7.291  1.00  0.00     0.051 A 
ATOM     15  C   UNL     1      45.412  20.998   7.633  1.00  0.00     0.157 A 
ATOM     16  C   UNL     1      44.388  18.897   6.981  1.00  0.00     0.062 A 
ATOM     17  C   UNL     1      45.491  19.605   7.474  1.00  0.00     0.158 A 
BRANCH  15  18
ATOM     18  O   UNL     1      46.507  21.709   8.125  1.00  0.00    -0.504 OA
ATOM     19  H   UNL     1      47.271  21.243   8.599  1.00  0.00     0.293 HD
ENDBRANCH  15  18
BRANCH  17  20
ATOM     20  O   UNL     1      46.654  18.907   7.798  1.00  0.00    -0.504 OA
ATOM     21  H   UNL     1      47.479  18.935   7.211  1.00  0.00     0.293 HD
ENDBRANCH  17  20
ENDBRANCH   1  12
BRANCH   2  22
ATOM     22  O   UNL     1      42.949  18.863   3.856  1.00  0.00    -0.502 OA
ATOM     23  H   UNL     1      42.873  18.712   2.857  1.00  0.00     0.293 HD
ENDBRANCH   2  22
BRANCH   6  24
ATOM     24  O   UNL     1      38.543  15.876   3.673  1.00  0.00    -0.507 OA
ATOM     25  H   UNL     1      38.337  16.367   2.816  1.00  0.00     0.293 HD
ENDBRANCH   6  24
BRANCH   8  26
ATOM     26  O   UNL     1      36.896  16.489   8.124  1.00  0.00    -0.508 OA
ATOM     27  H   UNL     1      36.345  15.639   8.093  1.00  0.00     0.293 HD
ENDBRANCH   8  26
TORSDOF 6
ENDMDL
MODEL 5
REMARK VINA RESULT:    -3.430      2.543      4.842
REMARK INTER + INTRA:          -4.376
REMARK INTER:                  -4.183
REMARK INTRA:                  -0.193
REMARK UNBOUND:                -0.244
REMARK SMILES O=c1c(O)c(-c2ccc(O)c(O)c2)oc2cc(O)cc(O)c12
REMARK SMILES IDX 5 1 3 2 2 3 1 4 22 5 20 6 19 7 17 8 16 9 15 10 14 11 6 12
REMARK SMILES IDX 7 13 8 14 9 15 13 16 11 17 10 18 12 20 4 22 21 24 18 26
REMARK H PARENT 10 19 12 21 4 23 21 25 18 27
REMARK Flexibility Score: inf
ROOT
ATOM      1  C   UNL     1      38.640  17.001   5.572  1.00  0.00     0.180 A 
ATOM      2  C   UNL     1      39.153  16.537   4.350  1.00  0.00     0.208 A 
ATOM      3  C   UNL     1      40.518  16.712   4.072  1.00  0.00     0.238 A 
ATOM      4  O   UNL     1      40.982  16.247   2.999  1.00  0.00    -0.285 OA
ATOM      5  C   UNL     1      41.349  17.366   5.014  1.00  0.00     0.111 A 
ATOM      6  C   UNL     1      42.738  17.634   4.820  1.00  0.00     0.134 A 
ATOM      7  C   UNL     1      43.491  18.169   5.873  1.00  0.00     0.093 A 
ATOM      8  C   UNL     1      42.894  18.504   7.087  1.00  0.00     0.123 A 
ATOM      9  C   UNL     1      41.526  18.301   7.266  1.00  0.00     0.094 A 
ATOM     10  C   UNL     1      40.754  17.736   6.248  1.00  0.00     0.146 A 
ATOM     11  O   UNL     1      39.457  17.550   6.463  1.00  0.00    -0.452 OA
ENDROOT
BRANCH   1  12
ATOM     12  C   UNL     1      37.207  16.873   5.926  1.00  0.00     0.025 A 
ATOM     13  C   UNL     1      36.779  15.998   6.939  1.00  0.00     0.016 A 
ATOM     14  C   UNL     1      35.419  15.875   7.237  1.00  0.00     0.051 A 
ATOM     15  C   UNL     1      34.468  16.612   6.521  1.00  0.00     0.157 A 
ATOM     16  C   UNL     1      36.248  17.594   5.196  1.00  0.00     0.062 A 
ATOM     17  C   UNL     1      34.885  17.474   5.493  1.00  0.00     0.158 A 
BRANCH  15  18
ATOM     18  O   UNL     1      33.113  16.489   6.824  1.00  0.00    -0.504 OA
ATOM     19  H   UNL     1      32.593  17.249   7.246  1.00  0.00     0.293 HD
ENDBRANCH  15  18
BRANCH  17  20
ATOM     20  O   UNL     1      33.963  18.217   4.757  1.00  0.00    -0.504 OA
ATOM     21  H   UNL     1      33.948  18.203   3.744  1.00  0.00     0.293 HD
ENDBRANCH  17  20
ENDBRANCH   1  12
BRANCH   2  22
ATOM     22  O   UNL     1      38.319  15.875   3.443  1.00  0.00    -0.502 OA
ATOM     23  H   UNL     1      38.125  14.883   3.505  1.00  0.00     0.293 HD
ENDBRANCH   2  22
BRANCH   6  24
ATOM     24  O   UNL     1      43.413  17.422   3.615  1.00  0.00    -0.507 OA
ATOM     25  H   UNL     1      44.345  17.751   3.413  1.00  0.00     0.293 HD
ENDBRANCH   6  24
BRANCH   8  26
ATOM     26  O   UNL     1      43.672  19.048   8.108  1.00  0.00    -0.508 OA
ATOM     27  H   UNL     1      44.484  18.562   8.471  1.00  0.00     0.293 HD
ENDBRANCH   8  26
TORSDOF 6
ENDMDL
MODEL 6
REMARK VINA RESULT:    -3.257      1.046      1.180
REMARK INTER + INTRA:          -4.167
REMARK INTER:                  -3.890
REMARK INTRA:                  -0.277
REMARK UNBOUND:                -0.244
REMARK SMILES O=c1c(O)c(-c2ccc(O)c(O)c2)oc2cc(O)cc(O)c12
REMARK SMILES IDX 5 1 3 2 2 3 1 4 22 5 20 6 19 7 17 8 16 9 15 10 14 11 6 12
REMARK SMILES IDX 7 13 8 14 9 15 13 16 11 17 10 18 12 20 4 22 21 24 18 26
REMARK H PARENT 10 19 12 21 4 23 21 25 18 27
REMARK Flexibility Score: inf
ROOT
ATOM      1  C   UNL     1      42.567  19.001   7.050  1.00  0.00     0.180 A 
ATOM      2  C   UNL     1      43.809  18.406   7.326  1.00  0.00     0.208 A 
ATOM      3  C   UNL     1      44.902  19.227   7.648  1.00  0.00     0.238 A 
ATOM      4  O   UNL     1      45.998  18.686   7.947  1.00  0.00    -0.285 OA
ATOM      5  C   UNL     1      44.742  20.634   7.674  1.00  0.00     0.111 A 
ATOM      6  C   UNL     1      45.790  21.563   7.948  1.00  0.00     0.134 A 
ATOM      7  C   UNL     1      45.488  22.925   8.077  1.00  0.00     0.093 A 
ATOM      8  C   UNL     1      44.192  23.398   7.877  1.00  0.00     0.123 A 
ATOM      9  C   UNL     1      43.172  22.504   7.550  1.00  0.00     0.094 A 
ATOM     10  C   UNL     1      43.433  21.136   7.450  1.00  0.00     0.146 A 
ATOM     11  O   UNL     1      42.432  20.319   7.147  1.00  0.00    -0.452 OA
ENDROOT
BRANCH   1  12
ATOM     12  C   UNL     1      41.375  18.203   6.679  1.00  0.00     0.025 A 
ATOM     13  C   UNL     1      40.640  17.494   7.645  1.00  0.00     0.016 A 
ATOM     14  C   UNL     1      39.535  16.727   7.268  1.00  0.00     0.051 A 
ATOM     15  C   UNL     1      39.156  16.646   5.922  1.00  0.00     0.157 A 
ATOM     16  C   UNL     1      41.004  18.101   5.328  1.00  0.00     0.062 A 
ATOM     17  C   UNL     1      39.897  17.335   4.948  1.00  0.00     0.158 A 
BRANCH  15  18
ATOM     18  O   UNL     1      38.051  15.882   5.550  1.00  0.00    -0.504 OA
ATOM     19  H   UNL     1      37.796  15.755   4.577  1.00  0.00     0.293 HD
ENDBRANCH  15  18
BRANCH  17  20
ATOM     20  O   UNL     1      39.550  17.268   3.599  1.00  0.00    -0.504 OA
ATOM     21  H   UNL     1      38.712  16.796   3.281  1.00  0.00     0.293 HD
ENDBRANCH  17  20
ENDBRANCH   1  12
BRANCH   2  22
ATOM     22  O   UNL     1      43.940  17.014   7.316  1.00  0.00    -0.502 OA
ATOM     23  H   UNL     1      44.727  16.538   7.741  1.00  0.00     0.293 HD
ENDBRANCH   2  22
BRANCH   6  24
ATOM     24  O   UNL     1      47.135  21.208   8.075  1.00  0.00    -0.507 OA
ATOM     25  H   UNL     1      47.912  21.802   7.827  1.00  0.00     0.293 HD
ENDBRANCH   6  24
BRANCH   8  26
ATOM     26  O   UNL     1      43.932  24.762   7.998  1.00  0.00    -0.508 OA
ATOM     27  H   UNL     1      43.663  25.173   8.885  1.00  0.00     0.293 HD
ENDBRANCH   8  26
TORSDOF 6
ENDMDL
MODEL 7
REMARK VINA RESULT:    -2.789      2.407      4.156
REMARK INTER + INTRA:          -3.604
REMARK INTER:                  -3.280
REMARK INTRA:                  -0.324
REMARK UNBOUND:                -0.244
REMARK SMILES O=c1c(O)c(-c2ccc(O)c(O)c2)oc2cc(O)cc(O)c12
REMARK SMILES IDX 5 1 3 2 2 3 1 4 22 5 20 6 19 7 17 8 16 9 15 10 14 11 6 12
REMARK SMILES IDX 7 13 8 14 9 15 13 16 11 17 10 18 12 20 4 22 21 24 18 26
REMARK H PARENT 10 19 12 21 4 23 21 25 18 27
REMARK Flexibility Score: inf
ROOT
ATOM      1  C   UNL     1      44.256  19.459   7.240  1.00  0.00     0.180 A 
ATOM      2  C   UNL     1      44.515  20.839   7.194  1.00  0.00     0.208 A 
ATOM      3  C   UNL     1      45.827  21.293   7.402  1.00  0.00     0.238 A 
ATOM      4  O   UNL     1      46.063  22.526   7.307  1.00  0.00    -0.285 OA
ATOM      5  C   UNL     1      46.861  20.362   7.669  1.00  0.00     0.111 A 
ATOM      6  C   UNL     1      48.218  20.713   7.934  1.00  0.00     0.134 A 
ATOM      7  C   UNL     1      49.181  19.703   8.055  1.00  0.00     0.093 A 
ATOM      8  C   UNL     1      48.825  18.357   7.985  1.00  0.00     0.123 A 
ATOM      9  C   UNL     1      47.491  18.002   7.785  1.00  0.00     0.094 A 
ATOM     10  C   UNL     1      46.513  18.987   7.625  1.00  0.00     0.146 A 
ATOM     11  O   UNL     1      45.257  18.606   7.426  1.00  0.00    -0.452 OA
ENDROOT
BRANCH   1  12
ATOM     12  C   UNL     1      42.893  18.906   7.054  1.00  0.00     0.025 A 
ATOM     13  C   UNL     1      41.979  18.842   8.120  1.00  0.00     0.016 A 
ATOM     14  C   UNL     1      40.709  18.293   7.928  1.00  0.00     0.051 A 
ATOM     15  C   UNL     1      40.338  17.790   6.675  1.00  0.00     0.157 A 
ATOM     16  C   UNL     1      42.524  18.382   5.805  1.00  0.00     0.062 A 
ATOM     17  C   UNL     1      41.251  17.833   5.609  1.00  0.00     0.158 A 
BRANCH  15  18
ATOM     18  O   UNL     1      39.068  17.247   6.485  1.00  0.00    -0.504 OA
ATOM     19  H   UNL     1      38.474  17.540   5.719  1.00  0.00     0.293 HD
ENDBRANCH  15  18
BRANCH  17  20
ATOM     20  O   UNL     1      40.915  17.334   4.351  1.00  0.00    -0.504 OA
ATOM     21  H   UNL     1      41.584  17.295   3.591  1.00  0.00     0.293 HD
ENDBRANCH  17  20
ENDBRANCH   1  12
BRANCH   2  22
ATOM     22  O   UNL     1      43.485  21.739   6.908  1.00  0.00    -0.502 OA
ATOM     23  H   UNL     1      43.531  22.392   6.135  1.00  0.00     0.293 HD
ENDBRANCH   2  22
BRANCH   6  24
ATOM     24  O   UNL     1      48.665  22.025   8.114  1.00  0.00    -0.507 OA
ATOM     25  H   UNL     1      49.551  22.279   8.525  1.00  0.00     0.293 HD
ENDBRANCH   6  24
BRANCH   8  26
ATOM     26  O   UNL     1      49.808  17.378   8.125  1.00  0.00    -0.508 OA
ATOM     27  H   UNL     1      50.790  17.620   8.196  1.00  0.00     0.293 HD
ENDBRANCH   8  26
TORSDOF 6
ENDMDL
