MODEL 1
REMARK VINA RESULT:    -3.749      0.000      0.000
REMARK INTER + INTRA:          -4.289
REMARK INTER:                  -3.968
REMARK INTRA:                  -0.320
REMARK UNBOUND:                -0.320
REMARK SMILES c1ccc(-c2ccccc2)cc1
REMARK SMILES IDX 1 1 2 2 3 3 4 4 11 5 12 6 5 7 6 8 10 9 7 10 9 11 8 12
REMARK H PARENT
REMARK Flexibility Score: inf
ROOT
ATOM      1  C   UNL     1      72.039  74.271  92.784  1.00  0.00     0.000 A 
ATOM      2  C   UNL     1      72.503  73.002  92.434  1.00  0.00     0.001 A 
ATOM      3  C   UNL     1      73.876  72.736  92.419  1.00  0.00     0.009 A 
ATOM      4  C   UNL     1      74.800  73.742  92.758  1.00  0.00    -0.018 A 
ATOM      5  C   UNL     1      74.319  75.018  93.110  1.00  0.00     0.009 A 
ATOM      6  C   UNL     1      72.946  75.278  93.122  1.00  0.00     0.001 A 
ENDROOT
BRANCH   4   7
ATOM      7  C   UNL     1      76.260  73.462  92.743  1.00  0.00    -0.018 A 
ATOM      8  C   UNL     1      77.191  74.517  92.761  1.00  0.00     0.009 A 
ATOM      9  C   UNL     1      76.734  72.136  92.712  1.00  0.00     0.009 A 
ATOM     10  C   UNL     1      78.563  74.251  92.747  1.00  0.00     0.001 A 
ATOM     11  C   UNL     1      78.108  71.876  92.697  1.00  0.00     0.001 A 
ATOM     12  C   UNL     1      79.021  72.932  92.715  1.00  0.00     0.000 A 
ENDBRANCH   4   7
TORSDOF 1
ENDMDL
MODEL 2
REMARK VINA RESULT:    -3.724     13.898     15.882
REMARK INTER + INTRA:          -4.263
REMARK INTER:                  -3.964
REMARK INTRA:                  -0.298
REMARK UNBOUND:                -0.320
REMARK SMILES c1ccc(-c2ccccc2)cc1
REMARK SMILES IDX 1 1 2 2 3 3 4 4 11 5 12 6 5 7 6 8 10 9 7 10 9 11 8 12
REMARK H PARENT
REMARK Flexibility Score: inf
ROOT
ATOM      1  C   UNL     1      77.441  90.999  92.533  1.00  0.00     0.000 A 
ATOM      2  C   UNL     1      77.602  89.805  91.827  1.00  0.00     0.001 A 
ATOM      3  C   UNL     1      76.516  88.940  91.654  1.00  0.00     0.009 A 
ATOM      4  C   UNL     1      75.254  89.265  92.187  1.00  0.00    -0.018 A 
ATOM      5  C   UNL     1      75.105  90.472  92.896  1.00  0.00     0.009 A 
ATOM      6  C   UNL     1      76.193  91.332  93.066  1.00  0.00     0.001 A 
ENDROOT
BRANCH   4   7
ATOM      7  C   UNL     1      74.099  88.348  92.004  1.00  0.00    -0.018 A 
ATOM      8  C   UNL     1      73.377  87.876  93.116  1.00  0.00     0.009 A 
ATOM      9  C   UNL     1      73.708  87.938  90.715  1.00  0.00     0.009 A 
ATOM     10  C   UNL     1      72.290  87.014  92.941  1.00  0.00     0.001 A 
ATOM     11  C   UNL     1      72.621  87.074  90.546  1.00  0.00     0.001 A 
ATOM     12  C   UNL     1      71.913  86.613  91.657  1.00  0.00     0.000 A 
ENDBRANCH   4   7
TORSDOF 1
ENDMDL
MODEL 3
REMARK VINA RESULT:    -3.687      0.467      2.026
REMARK INTER + INTRA:          -4.223
REMARK INTER:                  -3.903
REMARK INTRA:                  -0.320
REMARK UNBOUND:                -0.320
REMARK SMILES c1ccc(-c2ccccc2)cc1
REMARK SMILES IDX 1 1 2 2 3 3 4 4 11 5 12 6 5 7 6 8 10 9 7 10 9 11 8 12
REMARK H PARENT
REMARK Flexibility Score: inf
ROOT
ATOM      1  C   UNL     1      71.964  73.788  92.873  1.00  0.00     0.000 A 
ATOM      2  C   UNL     1      72.790  74.887  93.117  1.00  0.00     0.001 A 
ATOM      3  C   UNL     1      74.175  74.772  92.963  1.00  0.00     0.009 A 
ATOM      4  C   UNL     1      74.749  73.551  92.561  1.00  0.00    -0.018 A 
ATOM      5  C   UNL     1      73.905  72.450  92.317  1.00  0.00     0.009 A 
ATOM      6  C   UNL     1      72.522  72.571  92.473  1.00  0.00     0.001 A 
ENDROOT
BRANCH   4   7
ATOM      7  C   UNL     1      76.221  73.426  92.397  1.00  0.00    -0.018 A 
ATOM      8  C   UNL     1      76.835  72.159  92.384  1.00  0.00     0.009 A 
ATOM      9  C   UNL     1      77.024  74.573  92.252  1.00  0.00     0.009 A 
ATOM     10  C   UNL     1      78.219  72.044  92.229  1.00  0.00     0.001 A 
ATOM     11  C   UNL     1      78.409  74.453  92.099  1.00  0.00     0.001 A 
ATOM     12  C   UNL     1      79.006  73.190  92.088  1.00  0.00     0.000 A 
ENDBRANCH   4   7
TORSDOF 1
ENDMDL
MODEL 4
REMARK VINA RESULT:    -3.637     13.607     15.609
REMARK INTER + INTRA:          -4.170
REMARK INTER:                  -3.857
REMARK INTRA:                  -0.313
REMARK UNBOUND:                -0.320
REMARK SMILES c1ccc(-c2ccccc2)cc1
REMARK SMILES IDX 1 1 2 2 3 3 4 4 11 5 12 6 5 7 6 8 10 9 7 10 9 11 8 12
REMARK H PARENT
REMARK Flexibility Score: inf
ROOT
ATOM      1  C   UNL     1      76.902  91.036  92.087  1.00  0.00     0.000 A 
ATOM      2  C   UNL     1      77.090  89.886  91.317  1.00  0.00     0.001 A 
ATOM      3  C   UNL     1      76.102  88.896  91.284  1.00  0.00     0.009 A 
ATOM      4  C   UNL     1      74.914  89.049  92.023  1.00  0.00    -0.018 A 
ATOM      5  C   UNL     1      74.737  90.213  92.794  1.00  0.00     0.009 A 
ATOM      6  C   UNL     1      75.727  91.199  92.825  1.00  0.00     0.001 A 
ENDROOT
BRANCH   4   7
ATOM      7  C   UNL     1      73.863  87.998  91.989  1.00  0.00    -0.018 A 
ATOM      8  C   UNL     1      73.662  87.223  90.830  1.00  0.00     0.009 A 
ATOM      9  C   UNL     1      73.053  87.760  93.115  1.00  0.00     0.009 A 
ATOM     10  C   UNL     1      72.674  86.236  90.801  1.00  0.00     0.001 A 
ATOM     11  C   UNL     1      72.064  86.772  93.081  1.00  0.00     0.001 A 
ATOM     12  C   UNL     1      71.875  86.011  91.925  1.00  0.00     0.000 A 
ENDBRANCH   4   7
TORSDOF 1
ENDMDL
MODEL 5
REMARK VINA RESULT:    -3.507     23.400     24.224
REMARK INTER + INTRA:          -4.032
REMARK INTER:                  -3.720
REMARK INTRA:                  -0.312
REMARK UNBOUND:                -0.320
REMARK SMILES c1ccc(-c2ccccc2)cc1
REMARK SMILES IDX 1 1 2 2 3 3 4 4 11 5 12 6 5 7 6 8 10 9 7 10 9 11 8 12
REMARK H PARENT
REMARK Flexibility Score: inf
ROOT
ATOM      1  C   UNL     1      74.995  84.936  74.163  1.00  0.00     0.000 A 
ATOM      2  C   UNL     1      74.926  85.596  72.935  1.00  0.00     0.001 A 
ATOM      3  C   UNL     1      74.835  86.992  72.892  1.00  0.00     0.009 A 
ATOM      4  C   UNL     1      74.814  87.741  74.084  1.00  0.00    -0.018 A 
ATOM      5  C   UNL     1      74.885  87.063  75.316  1.00  0.00     0.009 A 
ATOM      6  C   UNL     1      74.975  85.668  75.352  1.00  0.00     0.001 A 
ENDROOT
BRANCH   4   7
ATOM      7  C   UNL     1      74.718  89.224  74.042  1.00  0.00    -0.018 A 
ATOM      8  C   UNL     1      75.364  90.010  75.014  1.00  0.00     0.009 A 
ATOM      9  C   UNL     1      73.980  89.864  73.028  1.00  0.00     0.009 A 
ATOM     10  C   UNL     1      75.272  91.405  74.972  1.00  0.00     0.001 A 
ATOM     11  C   UNL     1      73.890  91.259  72.992  1.00  0.00     0.001 A 
ATOM     12  C   UNL     1      74.535  92.028  73.962  1.00  0.00     0.000 A 
ENDBRANCH   4   7
TORSDOF 1
ENDMDL
MODEL 6
REMARK VINA RESULT:    -3.445     23.576     24.601
REMARK INTER + INTRA:          -3.967
REMARK INTER:                  -3.660
REMARK INTRA:                  -0.307
REMARK UNBOUND:                -0.320
REMARK SMILES c1ccc(-c2ccccc2)cc1
REMARK SMILES IDX 1 1 2 2 3 3 4 4 11 5 12 6 5 7 6 8 10 9 7 10 9 11 8 12
REMARK H PARENT
REMARK Flexibility Score: inf
ROOT
ATOM      1  C   UNL     1      77.865  90.637  78.442  1.00  0.00     0.000 A 
ATOM      2  C   UNL     1      78.211  90.002  77.247  1.00  0.00     0.001 A 
ATOM      3  C   UNL     1      77.343  90.049  76.151  1.00  0.00     0.009 A 
ATOM      4  C   UNL     1      76.118  90.736  76.241  1.00  0.00    -0.018 A 
ATOM      5  C   UNL     1      75.781  91.373  77.450  1.00  0.00     0.009 A 
ATOM      6  C   UNL     1      76.652  91.322  78.543  1.00  0.00     0.001 A 
ENDROOT
BRANCH   4   7
ATOM      7  C   UNL     1      75.194  90.787  75.077  1.00  0.00    -0.018 A 
ATOM      8  C   UNL     1      74.529  91.982  74.743  1.00  0.00     0.009 A 
ATOM      9  C   UNL     1      74.970  89.641  74.290  1.00  0.00     0.009 A 
ATOM     10  C   UNL     1      73.662  92.028  73.649  1.00  0.00     0.001 A 
ATOM     11  C   UNL     1      74.100  89.692  73.197  1.00  0.00     0.001 A 
ATOM     12  C   UNL     1      73.447  90.884  72.876  1.00  0.00     0.000 A 
ENDBRANCH   4   7
TORSDOF 1
ENDMDL
MODEL 7
REMARK VINA RESULT:    -3.413     22.727     23.391
REMARK INTER + INTRA:          -3.933
REMARK INTER:                  -3.627
REMARK INTRA:                  -0.305
REMARK UNBOUND:                -0.320
REMARK SMILES c1ccc(-c2ccccc2)cc1
REMARK SMILES IDX 1 1 2 2 3 3 4 4 11 5 12 6 5 7 6 8 10 9 7 10 9 11 8 12
REMARK H PARENT
REMARK Flexibility Score: inf
ROOT
ATOM      1  C   UNL     1      74.783  90.716  73.913  1.00  0.00     0.000 A 
ATOM      2  C   UNL     1      75.397  90.047  74.974  1.00  0.00     0.001 A 
ATOM      3  C   UNL     1      75.399  88.649  75.014  1.00  0.00     0.009 A 
ATOM      4  C   UNL     1      74.785  87.906  73.989  1.00  0.00    -0.018 A 
ATOM      5  C   UNL     1      74.170  88.593  72.924  1.00  0.00     0.009 A 
ATOM      6  C   UNL     1      74.171  89.990  72.890  1.00  0.00     0.001 A 
ENDROOT
BRANCH   4   7
ATOM      7  C   UNL     1      74.785  86.420  74.029  1.00  0.00    -0.018 A 
ATOM      8  C   UNL     1      74.475  85.736  75.220  1.00  0.00     0.009 A 
ATOM      9  C   UNL     1      75.094  85.673  72.876  1.00  0.00     0.009 A 
ATOM     10  C   UNL     1      74.476  84.338  75.254  1.00  0.00     0.001 A 
ATOM     11  C   UNL     1      75.095  84.275  72.916  1.00  0.00     0.001 A 
ATOM     12  C   UNL     1      74.786  83.609  74.104  1.00  0.00     0.000 A 
ENDBRANCH   4   7
TORSDOF 1
ENDMDL
MODEL 8
REMARK VINA RESULT:    -3.382     23.132     23.853
REMARK INTER + INTRA:          -3.900
REMARK INTER:                  -3.593
REMARK INTRA:                  -0.307
REMARK UNBOUND:                -0.320
REMARK SMILES c1ccc(-c2ccccc2)cc1
REMARK SMILES IDX 1 1 2 2 3 3 4 4 11 5 12 6 5 7 6 8 10 9 7 10 9 11 8 12
REMARK H PARENT
REMARK Flexibility Score: inf
ROOT
ATOM      1  C   UNL     1      74.889  91.848  74.515  1.00  0.00     0.000 A 
ATOM      2  C   UNL     1      74.147  91.226  73.508  1.00  0.00     0.001 A 
ATOM      3  C   UNL     1      74.128  89.831  73.411  1.00  0.00     0.009 A 
ATOM      4  C   UNL     1      74.852  89.043  74.324  1.00  0.00    -0.018 A 
ATOM      5  C   UNL     1      75.596  89.682  75.335  1.00  0.00     0.009 A 
ATOM      6  C   UNL     1      75.612  91.076  75.427  1.00  0.00     0.001 A 
ENDROOT
BRANCH   4   7
ATOM      7  C   UNL     1      74.833  87.560  74.223  1.00  0.00    -0.018 A 
ATOM      8  C   UNL     1      74.742  86.765  75.381  1.00  0.00     0.009 A 
ATOM      9  C   UNL     1      74.905  86.928  72.967  1.00  0.00     0.009 A 
ATOM     10  C   UNL     1      74.724  85.370  75.284  1.00  0.00     0.001 A 
ATOM     11  C   UNL     1      74.888  85.532  72.875  1.00  0.00     0.001 A 
ATOM     12  C   UNL     1      74.798  84.755  74.032  1.00  0.00     0.000 A 
ENDBRANCH   4   7
TORSDOF 1
ENDMDL
