MODEL 1
REMARK VINA RESULT:    -3.276      0.000      0.000
REMARK INTER + INTRA:          -8.325
REMARK INTER:                  -5.957
REMARK INTRA:                  -2.368
REMARK UNBOUND:                -2.368
REMARK SMILES CCCCCCCCCCCCCC[C@H](C)C(=O)[O-]
REMARK SMILES IDX 9 1 10 2 11 3 12 4 13 5 14 6 15 7 16 8 17 9 18 10 19 11 8 12
REMARK SMILES IDX 7 13 6 14 5 15 4 16 3 17 2 18 1 19
REMARK H PARENT
REMARK Flexibility Score: inf
ROOT
ATOM      1  C   UNL     1      62.318  33.122  59.016  1.00  0.00     0.000 C 
ENDROOT
BRANCH   1   2
ATOM      2  C   UNL     1      63.279  32.659  60.125  1.00  0.00     0.000 C 
BRANCH   2   3
ATOM      3  C   UNL     1      64.461  31.830  59.577  1.00  0.00     0.000 C 
BRANCH   3   4
ATOM      4  C   UNL     1      64.680  30.496  60.315  1.00  0.00     0.000 C 
BRANCH   4   5
ATOM      5  C   UNL     1      63.598  30.144  61.353  1.00  0.00     0.001 C 
BRANCH   5   6
ATOM      6  C   UNL     1      62.608  29.041  60.925  1.00  0.00     0.009 C 
BRANCH   6   7
ATOM      7  C   UNL     1      61.191  29.535  60.557  1.00  0.00     0.032 C 
ATOM      8  C   UNL     1      60.669  30.598  61.533  1.00  0.00     0.014 C 
BRANCH   7   9
ATOM      9  C   UNL     1      60.245  28.367  60.528  1.00  0.00     0.044 C 
ATOM     10  O   UNL     1      59.052  28.526  60.156  1.00  0.00    -0.550 OA
ATOM     11  O   UNL     1      60.683  27.099  60.894  1.00  0.00    -0.550 OA
ENDBRANCH   7   9
ENDBRANCH   6   7
ENDBRANCH   5   6
ENDBRANCH   4   5
ENDBRANCH   3   4
ENDBRANCH   2   3
ENDBRANCH   1   2
BRANCH   1  12
ATOM     12  C   UNL     1      61.727  34.514  59.288  1.00  0.00     0.000 C 
BRANCH  12  13
ATOM     13  C   UNL     1      62.090  35.046  60.683  1.00  0.00    -0.000 C 
BRANCH  13  14
ATOM     14  C   UNL     1      63.042  36.244  60.582  1.00  0.00    -0.000 C 
BRANCH  14  15
ATOM     15  C   UNL     1      64.253  36.066  61.510  1.00  0.00    -0.000 C 
BRANCH  15  16
ATOM     16  C   UNL     1      65.507  35.587  60.746  1.00  0.00    -0.000 C 
BRANCH  16  17
ATOM     17  C   UNL     1      65.572  36.091  59.294  1.00  0.00    -0.000 C 
BRANCH  17  18
ATOM     18  C   UNL     1      65.677  34.953  58.270  1.00  0.00    -0.003 C 
ATOM     19  C   UNL     1      64.754  35.195  57.080  1.00  0.00     0.004 C 
ENDBRANCH  17  18
ENDBRANCH  16  17
ENDBRANCH  15  16
ENDBRANCH  14  15
ENDBRANCH  13  14
ENDBRANCH  12  13
ENDBRANCH   1  12
TORSDOF 14
ENDMDL
MODEL 2
REMARK VINA RESULT:    -3.272     11.147     12.931
REMARK INTER + INTRA:          -8.319
REMARK INTER:                  -5.799
REMARK INTRA:                  -2.520
REMARK UNBOUND:                -2.368
REMARK SMILES CCCCCCCCCCCCCC[C@H](C)C(=O)[O-]
REMARK SMILES IDX 9 1 10 2 11 3 12 4 13 5 14 6 15 7 16 8 17 9 18 10 19 11 8 12
REMARK SMILES IDX 7 13 6 14 5 15 4 16 3 17 2 18 1 19
REMARK H PARENT
REMARK Flexibility Score: inf
ROOT
ATOM      1  C   UNL     1      57.656  27.481  51.769  1.00  0.00     0.000 C 
ENDROOT
BRANCH   1   2
ATOM      2  C   UNL     1      57.001  26.157  51.338  1.00  0.00     0.000 C 
BRANCH   2   3
ATOM      3  C   UNL     1      56.556  26.171  49.859  1.00  0.00     0.000 C 
BRANCH   3   4
ATOM      4  C   UNL     1      55.051  25.905  49.661  1.00  0.00     0.000 C 
BRANCH   4   5
ATOM      5  C   UNL     1      54.205  27.156  49.360  1.00  0.00     0.001 C 
BRANCH   5   6
ATOM      6  C   UNL     1      53.163  27.522  50.438  1.00  0.00     0.009 C 
BRANCH   6   7
ATOM      7  C   UNL     1      53.422  28.854  51.177  1.00  0.00     0.032 C 
ATOM      8  C   UNL     1      54.174  29.871  50.307  1.00  0.00     0.014 C 
BRANCH   7   9
ATOM      9  C   UNL     1      54.205  28.586  52.432  1.00  0.00     0.044 C 
ATOM     10  O   UNL     1      54.165  27.450  52.974  1.00  0.00    -0.550 OA
ATOM     11  O   UNL     1      54.993  29.584  52.995  1.00  0.00    -0.550 OA
ENDBRANCH   7   9
ENDBRANCH   6   7
ENDBRANCH   5   6
ENDBRANCH   4   5
ENDBRANCH   3   4
ENDBRANCH   2   3
ENDBRANCH   1   2
BRANCH   1  12
ATOM     12  C   UNL     1      57.554  28.570  50.689  1.00  0.00     0.000 C 
BRANCH  12  13
ATOM     13  C   UNL     1      58.788  29.484  50.654  1.00  0.00    -0.000 C 
BRANCH  13  14
ATOM     14  C   UNL     1      59.385  29.547  49.243  1.00  0.00    -0.000 C 
BRANCH  14  15
ATOM     15  C   UNL     1      60.063  28.220  48.871  1.00  0.00    -0.000 C 
BRANCH  15  16
ATOM     16  C   UNL     1      61.233  27.877  49.818  1.00  0.00    -0.000 C 
BRANCH  16  17
ATOM     17  C   UNL     1      61.026  26.570  50.603  1.00  0.00    -0.000 C 
BRANCH  17  18
ATOM     18  C   UNL     1      60.300  25.491  49.787  1.00  0.00    -0.003 C 
ATOM     19  C   UNL     1      60.840  24.101  50.111  1.00  0.00     0.004 C 
ENDBRANCH  17  18
ENDBRANCH  16  17
ENDBRANCH  15  16
ENDBRANCH  14  15
ENDBRANCH  13  14
ENDBRANCH  12  13
ENDBRANCH   1  12
TORSDOF 14
ENDMDL
MODEL 3
REMARK VINA RESULT:    -3.247     10.604     12.973
REMARK INTER + INTRA:          -8.273
REMARK INTER:                  -5.918
REMARK INTRA:                  -2.355
REMARK UNBOUND:                -2.368
REMARK SMILES CCCCCCCCCCCCCC[C@H](C)C(=O)[O-]
REMARK SMILES IDX 9 1 10 2 11 3 12 4 13 5 14 6 15 7 16 8 17 9 18 10 19 11 8 12
REMARK SMILES IDX 7 13 6 14 5 15 4 16 3 17 2 18 1 19
REMARK H PARENT
REMARK Flexibility Score: inf
ROOT
ATOM      1  C   UNL     1      57.468  28.637  51.054  1.00  0.00     0.000 C 
ENDROOT
BRANCH   1   2
ATOM      2  C   UNL     1      58.487  29.641  51.621  1.00  0.00     0.000 C 
BRANCH   2   3
ATOM      3  C   UNL     1      59.679  29.876  50.667  1.00  0.00     0.000 C 
BRANCH   3   4
ATOM      4  C   UNL     1      59.429  29.385  49.228  1.00  0.00     0.000 C 
BRANCH   4   5
ATOM      5  C   UNL     1      60.004  27.993  48.909  1.00  0.00     0.001 C 
BRANCH   5   6
ATOM      6  C   UNL     1      61.321  27.642  49.633  1.00  0.00     0.009 C 
BRANCH   6   7
ATOM      7  C   UNL     1      61.283  26.348  50.476  1.00  0.00     0.032 C 
ATOM      8  C   UNL     1      60.120  25.426  50.084  1.00  0.00     0.014 C 
BRANCH   7   9
ATOM      9  C   UNL     1      61.178  26.702  51.933  1.00  0.00     0.044 C 
ATOM     10  O   UNL     1      61.858  27.652  52.405  1.00  0.00    -0.550 OA
ATOM     11  O   UNL     1      60.318  25.997  52.768  1.00  0.00    -0.550 OA
ENDBRANCH   7   9
ENDBRANCH   6   7
ENDBRANCH   5   6
ENDBRANCH   4   5
ENDBRANCH   3   4
ENDBRANCH   2   3
ENDBRANCH   1   2
BRANCH   1  12
ATOM     12  C   UNL     1      57.221  27.449  51.997  1.00  0.00     0.000 C 
BRANCH  12  13
ATOM     13  C   UNL     1      56.657  26.222  51.264  1.00  0.00    -0.000 C 
BRANCH  13  14
ATOM     14  C   UNL     1      56.380  26.543  49.791  1.00  0.00    -0.000 C 
BRANCH  14  15
ATOM     15  C   UNL     1      55.064  25.901  49.325  1.00  0.00    -0.000 C 
BRANCH  15  16
ATOM     16  C   UNL     1      53.836  26.771  49.671  1.00  0.00    -0.000 C 
BRANCH  16  17
ATOM     17  C   UNL     1      54.127  28.281  49.652  1.00  0.00    -0.000 C 
BRANCH  17  18
ATOM     18  C   UNL     1      53.585  29.010  50.889  1.00  0.00    -0.003 C 
ATOM     19  C   UNL     1      54.113  30.440  50.960  1.00  0.00     0.004 C 
ENDBRANCH  17  18
ENDBRANCH  16  17
ENDBRANCH  15  16
ENDBRANCH  14  15
ENDBRANCH  13  14
ENDBRANCH  12  13
ENDBRANCH   1  12
TORSDOF 14
ENDMDL
MODEL 4
REMARK VINA RESULT:    -3.236     11.255     13.395
REMARK INTER + INTRA:          -8.253
REMARK INTER:                  -6.194
REMARK INTRA:                  -2.058
REMARK UNBOUND:                -2.368
REMARK SMILES CCCCCCCCCCCCCC[C@H](C)C(=O)[O-]
REMARK SMILES IDX 9 1 10 2 11 3 12 4 13 5 14 6 15 7 16 8 17 9 18 10 19 11 8 12
REMARK SMILES IDX 7 13 6 14 5 15 4 16 3 17 2 18 1 19
REMARK H PARENT
REMARK Flexibility Score: inf
ROOT
ATOM      1  C   UNL     1      57.637  28.885  50.012  1.00  0.00     0.000 C 
ENDROOT
BRANCH   1   2
ATOM      2  C   UNL     1      59.052  29.445  49.785  1.00  0.00     0.000 C 
BRANCH   2   3
ATOM      3  C   UNL     1      59.918  28.524  48.898  1.00  0.00     0.000 C 
BRANCH   3   4
ATOM      4  C   UNL     1      60.321  27.204  49.582  1.00  0.00     0.000 C 
BRANCH   4   5
ATOM      5  C   UNL     1      60.971  27.363  50.969  1.00  0.00     0.001 C 
BRANCH   5   6
ATOM      6  C   UNL     1      62.512  27.281  50.988  1.00  0.00     0.009 C 
BRANCH   6   7
ATOM      7  C   UNL     1      63.160  26.799  49.671  1.00  0.00     0.032 C 
ATOM      8  C   UNL     1      64.201  25.694  49.900  1.00  0.00     0.014 C 
BRANCH   7   9
ATOM      9  C   UNL     1      63.806  27.965  48.975  1.00  0.00     0.044 C 
ATOM     10  O   UNL     1      64.668  27.769  48.078  1.00  0.00    -0.550 OA
ATOM     11  O   UNL     1      63.446  29.267  49.303  1.00  0.00    -0.550 OA
ENDBRANCH   7   9
ENDBRANCH   6   7
ENDBRANCH   5   6
ENDBRANCH   4   5
ENDBRANCH   3   4
ENDBRANCH   2   3
ENDBRANCH   1   2
BRANCH   1  12
ATOM     12  C   UNL     1      57.417  28.403  51.455  1.00  0.00     0.000 C 
BRANCH  12  13
ATOM     13  C   UNL     1      57.111  26.900  51.534  1.00  0.00    -0.000 C 
BRANCH  13  14
ATOM     14  C   UNL     1      56.680  26.355  50.167  1.00  0.00    -0.000 C 
BRANCH  14  15
ATOM     15  C   UNL     1      55.191  25.979  50.166  1.00  0.00    -0.000 C 
BRANCH  15  16
ATOM     16  C   UNL     1      54.323  27.033  49.445  1.00  0.00    -0.000 C 
BRANCH  16  17
ATOM     17  C   UNL     1      53.650  28.033  50.401  1.00  0.00    -0.000 C 
BRANCH  17  18
ATOM     18  C   UNL     1      53.973  29.494  50.061  1.00  0.00    -0.003 C 
ATOM     19  C   UNL     1      54.227  30.310  51.326  1.00  0.00     0.004 C 
ENDBRANCH  17  18
ENDBRANCH  16  17
ENDBRANCH  15  16
ENDBRANCH  14  15
ENDBRANCH  13  14
ENDBRANCH  12  13
ENDBRANCH   1  12
TORSDOF 14
ENDMDL
MODEL 5
REMARK VINA RESULT:    -3.199      2.822      4.468
REMARK INTER + INTRA:          -8.185
REMARK INTER:                  -5.712
REMARK INTRA:                  -2.473
REMARK UNBOUND:                -2.368
REMARK SMILES CCCCCCCCCCCCCC[C@H](C)C(=O)[O-]
REMARK SMILES IDX 9 1 10 2 11 3 12 4 13 5 14 6 15 7 16 8 17 9 18 10 19 11 8 12
REMARK SMILES IDX 7 13 6 14 5 15 4 16 3 17 2 18 1 19
REMARK H PARENT
REMARK Flexibility Score: inf
ROOT
ATOM      1  C   UNL     1      60.946  31.698  59.485  1.00  0.00     0.000 C 
ENDROOT
BRANCH   1   2
ATOM      2  C   UNL     1      60.665  30.896  60.768  1.00  0.00     0.000 C 
BRANCH   2   3
ATOM      3  C   UNL     1      61.955  30.353  61.420  1.00  0.00     0.000 C 
BRANCH   3   4
ATOM      4  C   UNL     1      62.114  28.825  61.304  1.00  0.00     0.000 C 
BRANCH   4   5
ATOM      5  C   UNL     1      63.457  28.355  60.717  1.00  0.00     0.001 C 
BRANCH   5   6
ATOM      6  C   UNL     1      64.559  29.433  60.648  1.00  0.00     0.009 C 
BRANCH   6   7
ATOM      7  C   UNL     1      65.531  29.304  59.453  1.00  0.00     0.032 C 
ATOM      8  C   UNL     1      65.010  28.344  58.374  1.00  0.00     0.014 C 
BRANCH   7   9
ATOM      9  C   UNL     1      66.870  28.831  59.946  1.00  0.00     0.044 C 
ATOM     10  O   UNL     1      67.896  28.972  59.229  1.00  0.00    -0.550 OA
ATOM     11  O   UNL     1      66.991  28.251  61.204  1.00  0.00    -0.550 OA
ENDBRANCH   7   9
ENDBRANCH   6   7
ENDBRANCH   5   6
ENDBRANCH   4   5
ENDBRANCH   3   4
ENDBRANCH   2   3
ENDBRANCH   1   2
BRANCH   1  12
ATOM     12  C   UNL     1      61.618  30.851  58.393  1.00  0.00     0.000 C 
BRANCH  12  13
ATOM     13  C   UNL     1      62.927  31.474  57.884  1.00  0.00    -0.000 C 
BRANCH  13  14
ATOM     14  C   UNL     1      63.151  32.860  58.501  1.00  0.00    -0.000 C 
BRANCH  14  15
ATOM     15  C   UNL     1      64.397  32.870  59.399  1.00  0.00    -0.000 C 
BRANCH  15  16
ATOM     16  C   UNL     1      64.150  33.609  60.732  1.00  0.00    -0.000 C 
BRANCH  16  17
ATOM     17  C   UNL     1      62.930  34.545  60.699  1.00  0.00    -0.000 C 
BRANCH  17  18
ATOM     18  C   UNL     1      63.308  36.010  60.441  1.00  0.00    -0.003 C 
ATOM     19  C   UNL     1      64.281  36.522  61.499  1.00  0.00     0.004 C 
ENDBRANCH  17  18
ENDBRANCH  16  17
ENDBRANCH  15  16
ENDBRANCH  14  15
ENDBRANCH  13  14
ENDBRANCH  12  13
ENDBRANCH   1  12
TORSDOF 14
ENDMDL
MODEL 6
REMARK VINA RESULT:    -3.166     10.824     13.380
REMARK INTER + INTRA:          -8.125
REMARK INTER:                  -5.743
REMARK INTRA:                  -2.381
REMARK UNBOUND:                -2.368
REMARK SMILES CCCCCCCCCCCCCC[C@H](C)C(=O)[O-]
REMARK SMILES IDX 9 1 10 2 11 3 12 4 13 5 14 6 15 7 16 8 17 9 18 10 19 11 8 12
REMARK SMILES IDX 7 13 6 14 5 15 4 16 3 17 2 18 1 19
REMARK H PARENT
REMARK Flexibility Score: inf
ROOT
ATOM      1  C   UNL     1      53.614  28.240  49.737  1.00  0.00     0.000 C 
ENDROOT
BRANCH   1   2
ATOM      2  C   UNL     1      54.077  29.557  50.384  1.00  0.00     0.000 C 
BRANCH   2   3
ATOM      3  C   UNL     1      55.602  29.597  50.620  1.00  0.00     0.000 C 
BRANCH   3   4
ATOM      4  C   UNL     1      56.010  29.371  52.089  1.00  0.00     0.000 C 
BRANCH   4   5
ATOM      5  C   UNL     1      57.528  29.334  52.342  1.00  0.00     0.001 C 
BRANCH   5   6
ATOM      6  C   UNL     1      58.407  29.737  51.139  1.00  0.00     0.009 C 
BRANCH   6   7
ATOM      7  C   UNL     1      59.592  28.790  50.844  1.00  0.00     0.032 C 
ATOM      8  C   UNL     1      60.845  29.147  51.655  1.00  0.00     0.014 C 
BRANCH   7   9
ATOM      9  C   UNL     1      59.912  28.832  49.375  1.00  0.00     0.044 C 
ATOM     10  O   UNL     1      59.286  29.614  48.612  1.00  0.00    -0.550 OA
ATOM     11  O   UNL     1      60.913  28.021  48.851  1.00  0.00    -0.550 OA
ENDBRANCH   7   9
ENDBRANCH   6   7
ENDBRANCH   5   6
ENDBRANCH   4   5
ENDBRANCH   3   4
ENDBRANCH   2   3
ENDBRANCH   1   2
BRANCH   1  12
ATOM     12  C   UNL     1      53.364  27.130  50.770  1.00  0.00     0.000 C 
BRANCH  12  13
ATOM     13  C   UNL     1      54.313  25.935  50.594  1.00  0.00    -0.000 C 
BRANCH  13  14
ATOM     14  C   UNL     1      55.189  26.109  49.347  1.00  0.00    -0.000 C 
BRANCH  14  15
ATOM     15  C   UNL     1      56.674  26.217  49.726  1.00  0.00    -0.000 C 
BRANCH  15  16
ATOM     16  C   UNL     1      56.915  25.938  51.225  1.00  0.00    -0.000 C 
BRANCH  16  17
ATOM     17  C   UNL     1      58.295  25.326  51.522  1.00  0.00    -0.000 C 
BRANCH  17  18
ATOM     18  C   UNL     1      59.218  25.309  50.297  1.00  0.00    -0.003 C 
ATOM     19  C   UNL     1      60.525  24.585  50.602  1.00  0.00     0.004 C 
ENDBRANCH  17  18
ENDBRANCH  16  17
ENDBRANCH  15  16
ENDBRANCH  14  15
ENDBRANCH  13  14
ENDBRANCH  12  13
ENDBRANCH   1  12
TORSDOF 14
ENDMDL
MODEL 7
REMARK VINA RESULT:    -3.166     10.754     12.936
REMARK INTER + INTRA:          -8.125
REMARK INTER:                  -5.822
REMARK INTRA:                  -2.303
REMARK UNBOUND:                -2.368
REMARK SMILES CCCCCCCCCCCCCC[C@H](C)C(=O)[O-]
REMARK SMILES IDX 9 1 10 2 11 3 12 4 13 5 14 6 15 7 16 8 17 9 18 10 19 11 8 12
REMARK SMILES IDX 7 13 6 14 5 15 4 16 3 17 2 18 1 19
REMARK H PARENT
REMARK Flexibility Score: inf
ROOT
ATOM      1  C   UNL     1      59.572  30.139  51.987  1.00  0.00     0.000 C 
ENDROOT
BRANCH   1   2
ATOM      2  C   UNL     1      60.505  29.867  50.794  1.00  0.00     0.000 C 
BRANCH   2   3
ATOM      3  C   UNL     1      59.743  29.788  49.453  1.00  0.00     0.000 C 
BRANCH   3   4
ATOM      4  C   UNL     1      60.025  28.502  48.653  1.00  0.00     0.000 C 
BRANCH   4   5
ATOM      5  C   UNL     1      60.870  27.449  49.395  1.00  0.00     0.001 C 
BRANCH   5   6
ATOM      6  C   UNL     1      60.258  26.034  49.452  1.00  0.00     0.009 C 
BRANCH   6   7
ATOM      7  C   UNL     1      60.099  25.443  50.870  1.00  0.00     0.032 C 
ATOM      8  C   UNL     1      60.995  26.143  51.901  1.00  0.00     0.014 C 
BRANCH   7   9
ATOM      9  C   UNL     1      60.417  23.973  50.839  1.00  0.00     0.044 C 
ATOM     10  O   UNL     1      60.890  23.449  49.796  1.00  0.00    -0.550 OA
ATOM     11  O   UNL     1      60.209  23.185  51.966  1.00  0.00    -0.550 OA
ENDBRANCH   7   9
ENDBRANCH   6   7
ENDBRANCH   5   6
ENDBRANCH   4   5
ENDBRANCH   3   4
ENDBRANCH   2   3
ENDBRANCH   1   2
BRANCH   1  12
ATOM     12  C   UNL     1      58.123  29.703  51.716  1.00  0.00     0.000 C 
BRANCH  12  13
ATOM     13  C   UNL     1      57.829  28.284  52.224  1.00  0.00    -0.000 C 
BRANCH  13  14
ATOM     14  C   UNL     1      57.177  27.433  51.128  1.00  0.00    -0.000 C 
BRANCH  14  15
ATOM     15  C   UNL     1      56.431  28.314  50.115  1.00  0.00    -0.000 C 
BRANCH  15  16
ATOM     16  C   UNL     1      54.916  28.020  50.090  1.00  0.00    -0.000 C 
BRANCH  16  17
ATOM     17  C   UNL     1      54.568  26.557  50.416  1.00  0.00    -0.000 C 
BRANCH  17  18
ATOM     18  C   UNL     1      54.432  25.681  49.163  1.00  0.00    -0.003 C 
ATOM     19  C   UNL     1      53.080  25.893  48.489  1.00  0.00     0.004 C 
ENDBRANCH  17  18
ENDBRANCH  16  17
ENDBRANCH  15  16
ENDBRANCH  14  15
ENDBRANCH  13  14
ENDBRANCH  12  13
ENDBRANCH   1  12
TORSDOF 14
ENDMDL
MODEL 8
REMARK VINA RESULT:    -3.142      2.090      2.883
REMARK INTER + INTRA:          -8.081
REMARK INTER:                  -5.784
REMARK INTRA:                  -2.298
REMARK UNBOUND:                -2.368
REMARK SMILES CCCCCCCCCCCCCC[C@H](C)C(=O)[O-]
REMARK SMILES IDX 9 1 10 2 11 3 12 4 13 5 14 6 15 7 16 8 17 9 18 10 19 11 8 12
REMARK SMILES IDX 7 13 6 14 5 15 4 16 3 17 2 18 1 19
REMARK H PARENT
REMARK Flexibility Score: inf
ROOT
ATOM      1  C   UNL     1      60.768  33.783  58.765  1.00  0.00     0.000 C 
ENDROOT
BRANCH   1   2
ATOM      2  C   UNL     1      61.051  32.480  57.995  1.00  0.00     0.000 C 
BRANCH   2   3
ATOM      3  C   UNL     1      61.309  31.282  58.935  1.00  0.00     0.000 C 
BRANCH   3   4
ATOM      4  C   UNL     1      61.117  31.612  60.428  1.00  0.00     0.000 C 
BRANCH   4   5
ATOM      5  C   UNL     1      60.722  30.413  61.311  1.00  0.00     0.001 C 
BRANCH   5   6
ATOM      6  C   UNL     1      61.894  29.521  61.773  1.00  0.00     0.009 C 
BRANCH   6   7
ATOM      7  C   UNL     1      62.241  28.350  60.827  1.00  0.00     0.032 C 
ATOM      8  C   UNL     1      61.909  26.983  61.441  1.00  0.00     0.014 C 
BRANCH   7   9
ATOM      9  C   UNL     1      63.703  28.405  60.478  1.00  0.00     0.044 C 
ATOM     10  O   UNL     1      64.420  29.352  60.897  1.00  0.00    -0.550 OA
ATOM     11  O   UNL     1      64.278  27.403  59.704  1.00  0.00    -0.550 OA
ENDBRANCH   7   9
ENDBRANCH   6   7
ENDBRANCH   5   6
ENDBRANCH   4   5
ENDBRANCH   3   4
ENDBRANCH   2   3
ENDBRANCH   1   2
BRANCH   1  12
ATOM     12  C   UNL     1      61.056  35.039  57.928  1.00  0.00     0.000 C 
BRANCH  12  13
ATOM     13  C   UNL     1      61.563  36.212  58.780  1.00  0.00    -0.000 C 
BRANCH  13  14
ATOM     14  C   UNL     1      61.468  35.886  60.275  1.00  0.00    -0.000 C 
BRANCH  14  15
ATOM     15  C   UNL     1      62.770  36.251  61.004  1.00  0.00    -0.000 C 
BRANCH  15  16
ATOM     16  C   UNL     1      63.978  35.446  60.478  1.00  0.00    -0.000 C 
BRANCH  16  17
ATOM     17  C   UNL     1      64.006  33.988  60.968  1.00  0.00    -0.000 C 
BRANCH  17  18
ATOM     18  C   UNL     1      64.426  32.998  59.874  1.00  0.00    -0.003 C 
ATOM     19  C   UNL     1      64.567  33.696  58.525  1.00  0.00     0.004 C 
ENDBRANCH  17  18
ENDBRANCH  16  17
ENDBRANCH  15  16
ENDBRANCH  14  15
ENDBRANCH  13  14
ENDBRANCH  12  13
ENDBRANCH   1  12
TORSDOF 14
ENDMDL
MODEL 9
REMARK VINA RESULT:    -3.036     10.376     12.622
REMARK INTER + INTRA:          -7.889
REMARK INTER:                  -5.087
REMARK INTRA:                  -2.802
REMARK UNBOUND:                -2.368
REMARK SMILES CCCCCCCCCCCCCC[C@H](C)C(=O)[O-]
REMARK SMILES IDX 9 1 10 2 11 3 12 4 13 5 14 6 15 7 16 8 17 9 18 10 19 11 8 12
REMARK SMILES IDX 7 13 6 14 5 15 4 16 3 17 2 18 1 19
REMARK H PARENT
REMARK Flexibility Score: inf
ROOT
ATOM      1  C   UNL     1      59.801  26.721  53.183  1.00  0.00     0.000 C 
ENDROOT
BRANCH   1   2
ATOM      2  C   UNL     1      58.800  25.658  52.696  1.00  0.00     0.000 C 
BRANCH   2   3
ATOM      3  C   UNL     1      59.245  24.987  51.378  1.00  0.00     0.000 C 
BRANCH   3   4
ATOM      4  C   UNL     1      60.391  25.727  50.660  1.00  0.00     0.000 C 
BRANCH   4   5
ATOM      5  C   UNL     1      59.995  26.405  49.336  1.00  0.00     0.001 C 
BRANCH   5   6
ATOM      6  C   UNL     1      60.556  27.828  49.130  1.00  0.00     0.009 C 
BRANCH   6   7
ATOM      7  C   UNL     1      61.653  28.253  50.132  1.00  0.00     0.032 C 
ATOM      8  C   UNL     1      61.424  29.665  50.689  1.00  0.00     0.014 C 
BRANCH   7   9
ATOM      9  C   UNL     1      62.997  28.185  49.462  1.00  0.00     0.044 C 
ATOM     10  O   UNL     1      63.457  27.079  49.073  1.00  0.00    -0.550 OA
ATOM     11  O   UNL     1      63.735  29.344  49.249  1.00  0.00    -0.550 OA
ENDBRANCH   7   9
ENDBRANCH   6   7
ENDBRANCH   5   6
ENDBRANCH   4   5
ENDBRANCH   3   4
ENDBRANCH   2   3
ENDBRANCH   1   2
BRANCH   1  12
ATOM     12  C   UNL     1      59.178  28.123  53.269  1.00  0.00     0.000 C 
BRANCH  12  13
ATOM     13  C   UNL     1      57.828  28.215  52.541  1.00  0.00    -0.000 C 
BRANCH  13  14
ATOM     14  C   UNL     1      57.861  29.303  51.461  1.00  0.00    -0.000 C 
BRANCH  14  15
ATOM     15  C   UNL     1      57.223  28.804  50.156  1.00  0.00    -0.000 C 
BRANCH  15  16
ATOM     16  C   UNL     1      56.499  27.453  50.340  1.00  0.00    -0.000 C 
BRANCH  16  17
ATOM     17  C   UNL     1      55.066  27.442  49.779  1.00  0.00    -0.000 C 
BRANCH  17  18
ATOM     18  C   UNL     1      54.062  28.160  50.690  1.00  0.00    -0.003 C 
ATOM     19  C   UNL     1      53.718  29.544  50.146  1.00  0.00     0.004 C 
ENDBRANCH  17  18
ENDBRANCH  16  17
ENDBRANCH  15  16
ENDBRANCH  14  15
ENDBRANCH  13  14
ENDBRANCH  12  13
ENDBRANCH   1  12
TORSDOF 14
ENDMDL
