MODEL 1
REMARK VINA RESULT:    -5.160      0.000      0.000
REMARK INTER + INTRA:          -6.020
REMARK INTER:                  -5.763
REMARK INTRA:                  -0.257
REMARK UNBOUND:                -0.257
REMARK SMILES COc1cc(C)ccc1C(C)C
REMARK SMILES IDX 6 1 5 2 4 3 3 4 9 5 8 6 7 7 2 8 1 9 10 10 11 11 12 12
REMARK H PARENT
REMARK Flexibility Score: inf
ROOT
ATOM      1  C   UNL     1     -10.882  72.110  33.075  1.00  0.00     0.044 C 
ATOM      2  C   UNL     1     -10.680  72.611  31.674  1.00  0.00    -0.047 A 
ATOM      3  C   UNL     1     -11.759  72.667  30.783  1.00  0.00     0.050 A 
ATOM      4  C   UNL     1     -11.576  73.101  29.453  1.00  0.00     0.122 A 
ATOM      5  C   UNL     1     -10.279  73.473  29.016  1.00  0.00    -0.003 A 
ATOM      6  C   UNL     1      -9.204  73.392  29.919  1.00  0.00     0.008 A 
ATOM      7  C   UNL     1      -9.401  72.960  31.231  1.00  0.00     0.004 A 
ENDROOT
BRANCH   4   8
ATOM      8  O   UNL     1     -12.653  73.170  28.557  1.00  0.00    -0.496 OA
ATOM      9  C   UNL     1     -13.525  74.287  28.413  1.00  0.00     0.278 C 
ENDBRANCH   4   8
BRANCH   5  10
ATOM     10  C   UNL     1     -10.004  73.953  27.595  1.00  0.00     0.017 C 
ATOM     11  C   UNL     1      -8.739  73.312  27.010  1.00  0.00     0.012 C 
ATOM     12  C   UNL     1      -9.956  75.483  27.507  1.00  0.00     0.012 C 
ENDBRANCH   5  10
TORSDOF 2
ENDMDL
MODEL 2
REMARK VINA RESULT:    -5.137      2.239      4.765
REMARK INTER + INTRA:          -5.994
REMARK INTER:                  -5.864
REMARK INTRA:                  -0.130
REMARK UNBOUND:                -0.257
REMARK SMILES COc1cc(C)ccc1C(C)C
REMARK SMILES IDX 6 1 5 2 4 3 3 4 9 5 8 6 7 7 2 8 1 9 10 10 11 11 12 12
REMARK H PARENT
REMARK Flexibility Score: inf
ROOT
ATOM      1  C   UNL     1     -10.996  73.851  27.656  1.00  0.00     0.044 C 
ATOM      2  C   UNL     1     -10.992  73.703  29.150  1.00  0.00    -0.047 A 
ATOM      3  C   UNL     1     -10.603  74.775  29.964  1.00  0.00     0.050 A 
ATOM      4  C   UNL     1     -10.559  74.638  31.367  1.00  0.00     0.122 A 
ATOM      5  C   UNL     1     -10.901  73.394  31.954  1.00  0.00    -0.003 A 
ATOM      6  C   UNL     1     -11.269  72.323  31.121  1.00  0.00     0.008 A 
ATOM      7  C   UNL     1     -11.309  72.473  29.735  1.00  0.00     0.004 A 
ENDROOT
BRANCH   4   8
ATOM      8  O   UNL     1     -10.181  75.710  32.190  1.00  0.00    -0.496 OA
ATOM      9  C   UNL     1     -11.085  76.576  32.867  1.00  0.00     0.278 C 
ENDBRANCH   4   8
BRANCH   5  10
ATOM     10  C   UNL     1     -10.878  73.171  33.463  1.00  0.00     0.017 C 
ATOM     11  C   UNL     1     -10.332  71.784  33.827  1.00  0.00     0.012 C 
ATOM     12  C   UNL     1     -12.251  73.423  34.100  1.00  0.00     0.012 C 
ENDBRANCH   5  10
TORSDOF 2
ENDMDL
MODEL 3
REMARK VINA RESULT:    -5.086      1.315      3.876
REMARK INTER + INTRA:          -5.938
REMARK INTER:                  -5.703
REMARK INTRA:                  -0.235
REMARK UNBOUND:                -0.257
REMARK SMILES COc1cc(C)ccc1C(C)C
REMARK SMILES IDX 6 1 5 2 4 3 3 4 9 5 8 6 7 7 2 8 1 9 10 10 11 11 12 12
REMARK H PARENT
REMARK Flexibility Score: inf
ROOT
ATOM      1  C   UNL     1      -8.990  73.541  26.112  1.00  0.00     0.044 C 
ATOM      2  C   UNL     1      -9.618  73.697  27.467  1.00  0.00    -0.047 A 
ATOM      3  C   UNL     1     -11.007  73.825  27.590  1.00  0.00     0.050 A 
ATOM      4  C   UNL     1     -11.607  74.008  28.853  1.00  0.00     0.122 A 
ATOM      5  C   UNL     1     -10.787  74.075  30.008  1.00  0.00    -0.003 A 
ATOM      6  C   UNL     1      -9.393  73.965  29.864  1.00  0.00     0.008 A 
ATOM      7  C   UNL     1      -8.814  73.784  28.608  1.00  0.00     0.004 A 
ENDROOT
BRANCH   4   8
ATOM      8  O   UNL     1     -12.999  74.127  28.987  1.00  0.00    -0.496 OA
ATOM      9  C   UNL     1     -13.924  74.137  27.904  1.00  0.00     0.278 C 
ENDBRANCH   4   8
BRANCH   5  10
ATOM     10  C   UNL     1     -11.363  74.270  31.407  1.00  0.00     0.017 C 
ATOM     11  C   UNL     1     -10.578  75.318  32.207  1.00  0.00     0.012 C 
ATOM     12  C   UNL     1     -11.476  72.944  32.169  1.00  0.00     0.012 C 
ENDBRANCH   5  10
TORSDOF 2
ENDMDL
MODEL 4
REMARK VINA RESULT:    -5.074      2.452      3.491
REMARK INTER + INTRA:          -5.924
REMARK INTER:                  -5.692
REMARK INTRA:                  -0.233
REMARK UNBOUND:                -0.257
REMARK SMILES COc1cc(C)ccc1C(C)C
REMARK SMILES IDX 6 1 5 2 4 3 3 4 9 5 8 6 7 7 2 8 1 9 10 10 11 11 12 12
REMARK H PARENT
REMARK Flexibility Score: inf
ROOT
ATOM      1  C   UNL     1     -10.523  72.272  35.362  1.00  0.00     0.044 C 
ATOM      2  C   UNL     1     -10.677  72.835  33.979  1.00  0.00    -0.047 A 
ATOM      3  C   UNL     1     -10.739  74.220  33.784  1.00  0.00     0.050 A 
ATOM      4  C   UNL     1     -10.920  74.761  32.494  1.00  0.00     0.122 A 
ATOM      5  C   UNL     1     -11.052  73.887  31.386  1.00  0.00    -0.003 A 
ATOM      6  C   UNL     1     -11.008  72.498  31.603  1.00  0.00     0.008 A 
ATOM      7  C   UNL     1     -10.828  71.978  32.885  1.00  0.00     0.004 A 
ENDROOT
BRANCH   4   8
ATOM      8  O   UNL     1     -10.974  76.149  32.289  1.00  0.00    -0.496 OA
ATOM      9  C   UNL     1     -11.006  77.125  33.324  1.00  0.00     0.278 C 
ENDBRANCH   4   8
BRANCH   5  10
ATOM     10  C   UNL     1     -11.250  74.397  29.963  1.00  0.00     0.017 C 
ATOM     11  C   UNL     1     -12.165  73.475  29.147  1.00  0.00     0.012 C 
ATOM     12  C   UNL     1      -9.913  74.640  29.252  1.00  0.00     0.012 C 
ENDBRANCH   5  10
TORSDOF 2
ENDMDL
MODEL 5
REMARK VINA RESULT:    -4.750      6.414      8.599
REMARK INTER + INTRA:          -5.562
REMARK INTER:                  -5.313
REMARK INTRA:                  -0.249
REMARK UNBOUND:                -0.257
REMARK SMILES COc1cc(C)ccc1C(C)C
REMARK SMILES IDX 6 1 5 2 4 3 3 4 9 5 8 6 7 7 2 8 1 9 10 10 11 11 12 12
REMARK H PARENT
REMARK Flexibility Score: inf
ROOT
ATOM      1  C   UNL     1      -8.702  68.046  38.120  1.00  0.00     0.044 C 
ATOM      2  C   UNL     1      -9.316  69.358  37.727  1.00  0.00    -0.047 A 
ATOM      3  C   UNL     1     -10.386  69.884  38.462  1.00  0.00     0.050 A 
ATOM      4  C   UNL     1     -10.996  71.098  38.082  1.00  0.00     0.122 A 
ATOM      5  C   UNL     1     -10.524  71.784  36.934  1.00  0.00    -0.003 A 
ATOM      6  C   UNL     1      -9.462  71.230  36.197  1.00  0.00     0.008 A 
ATOM      7  C   UNL     1      -8.869  70.029  36.585  1.00  0.00     0.004 A 
ENDROOT
BRANCH   4   8
ATOM      8  O   UNL     1     -12.063  71.637  38.819  1.00  0.00    -0.496 OA
ATOM      9  C   UNL     1     -12.076  71.801  40.233  1.00  0.00     0.278 C 
ENDBRANCH   4   8
BRANCH   5  10
ATOM     10  C   UNL     1     -11.132  73.100  36.463  1.00  0.00     0.017 C 
ATOM     11  C   UNL     1     -11.342  73.121  34.943  1.00  0.00     0.012 C 
ATOM     12  C   UNL     1     -10.317  74.309  36.938  1.00  0.00     0.012 C 
ENDBRANCH   5  10
TORSDOF 2
ENDMDL
MODEL 6
REMARK VINA RESULT:    -4.629      4.372      7.623
REMARK INTER + INTRA:          -5.427
REMARK INTER:                  -5.206
REMARK INTRA:                  -0.221
REMARK UNBOUND:                -0.257
REMARK SMILES COc1cc(C)ccc1C(C)C
REMARK SMILES IDX 6 1 5 2 4 3 3 4 9 5 8 6 7 7 2 8 1 9 10 10 11 11 12 12
REMARK H PARENT
REMARK Flexibility Score: inf
ROOT
ATOM      1  C   UNL     1      -4.944  73.787  21.652  1.00  0.00     0.044 C 
ATOM      2  C   UNL     1      -6.074  73.608  22.623  1.00  0.00    -0.047 A 
ATOM      3  C   UNL     1      -5.961  72.693  23.678  1.00  0.00     0.050 A 
ATOM      4  C   UNL     1      -7.029  72.489  24.576  1.00  0.00     0.122 A 
ATOM      5  C   UNL     1      -8.235  73.212  24.397  1.00  0.00    -0.003 A 
ATOM      6  C   UNL     1      -8.339  74.112  23.321  1.00  0.00     0.008 A 
ATOM      7  C   UNL     1      -7.274  74.303  22.441  1.00  0.00     0.004 A 
ENDROOT
BRANCH   4   8
ATOM      8  O   UNL     1      -6.920  71.581  25.641  1.00  0.00    -0.496 OA
ATOM      9  C   UNL     1      -5.719  70.924  26.032  1.00  0.00     0.278 C 
ENDBRANCH   4   8
BRANCH   5  10
ATOM     10  C   UNL     1      -9.432  73.046  25.327  1.00  0.00     0.017 C 
ATOM     11  C   UNL     1     -10.760  73.277  24.596  1.00  0.00     0.012 C 
ATOM     12  C   UNL     1      -9.313  73.928  26.576  1.00  0.00     0.012 C 
ENDBRANCH   5  10
TORSDOF 2
ENDMDL
MODEL 7
REMARK VINA RESULT:    -4.596      3.986      7.115
REMARK INTER + INTRA:          -5.391
REMARK INTER:                  -5.169
REMARK INTRA:                  -0.221
REMARK UNBOUND:                -0.257
REMARK SMILES COc1cc(C)ccc1C(C)C
REMARK SMILES IDX 6 1 5 2 4 3 3 4 9 5 8 6 7 7 2 8 1 9 10 10 11 11 12 12
REMARK H PARENT
REMARK Flexibility Score: inf
ROOT
ATOM      1  C   UNL     1      -9.824  75.344  21.949  1.00  0.00     0.044 C 
ATOM      2  C   UNL     1      -8.888  74.505  22.771  1.00  0.00    -0.047 A 
ATOM      3  C   UNL     1      -9.281  74.041  24.033  1.00  0.00     0.050 A 
ATOM      4  C   UNL     1      -8.399  73.282  24.830  1.00  0.00     0.122 A 
ATOM      5  C   UNL     1      -7.096  73.000  24.349  1.00  0.00    -0.003 A 
ATOM      6  C   UNL     1      -6.712  73.491  23.089  1.00  0.00     0.008 A 
ATOM      7  C   UNL     1      -7.595  74.240  22.311  1.00  0.00     0.004 A 
ENDROOT
BRANCH   4   8
ATOM      8  O   UNL     1      -8.789  72.805  26.092  1.00  0.00    -0.496 OA
ATOM      9  C   UNL     1      -9.115  73.625  27.209  1.00  0.00     0.278 C 
ENDBRANCH   4   8
BRANCH   5  10
ATOM     10  C   UNL     1      -6.088  72.186  25.154  1.00  0.00     0.017 C 
ATOM     11  C   UNL     1      -4.642  72.564  24.808  1.00  0.00     0.012 C 
ATOM     12  C   UNL     1      -6.328  70.678  25.013  1.00  0.00     0.012 C 
ENDBRANCH   5  10
TORSDOF 2
ENDMDL
MODEL 8
REMARK VINA RESULT:    -4.565      4.431      7.161
REMARK INTER + INTRA:          -5.356
REMARK INTER:                  -5.111
REMARK INTRA:                  -0.245
REMARK UNBOUND:                -0.257
REMARK SMILES COc1cc(C)ccc1C(C)C
REMARK SMILES IDX 6 1 5 2 4 3 3 4 9 5 8 6 7 7 2 8 1 9 10 10 11 11 12 12
REMARK H PARENT
REMARK Flexibility Score: inf
ROOT
ATOM      1  C   UNL     1      -4.472  72.006  23.481  1.00  0.00     0.044 C 
ATOM      2  C   UNL     1      -5.840  72.511  23.836  1.00  0.00    -0.047 A 
ATOM      3  C   UNL     1      -6.452  73.498  23.053  1.00  0.00     0.050 A 
ATOM      4  C   UNL     1      -7.722  74.008  23.397  1.00  0.00     0.122 A 
ATOM      5  C   UNL     1      -8.376  73.521  24.556  1.00  0.00    -0.003 A 
ATOM      6  C   UNL     1      -7.737  72.545  25.342  1.00  0.00     0.008 A 
ATOM      7  C   UNL     1      -6.482  72.050  24.990  1.00  0.00     0.004 A 
ENDROOT
BRANCH   4   8
ATOM      8  O   UNL     1      -8.347  74.990  22.612  1.00  0.00    -0.496 OA
ATOM      9  C   UNL     1      -8.432  74.965  21.191  1.00  0.00     0.278 C 
ENDBRANCH   4   8
BRANCH   5  10
ATOM     10  C   UNL     1      -9.749  74.023  24.990  1.00  0.00     0.017 C 
ATOM     11  C   UNL     1      -9.904  74.017  26.516  1.00  0.00     0.012 C 
ATOM     12  C   UNL     1     -10.883  73.253  24.303  1.00  0.00     0.012 C 
ENDBRANCH   5  10
TORSDOF 2
ENDMDL
MODEL 9
REMARK VINA RESULT:    -4.432      4.175      6.511
REMARK INTER + INTRA:          -5.207
REMARK INTER:                  -5.191
REMARK INTRA:                  -0.016
REMARK UNBOUND:                -0.257
REMARK SMILES COc1cc(C)ccc1C(C)C
REMARK SMILES IDX 6 1 5 2 4 3 3 4 9 5 8 6 7 7 2 8 1 9 10 10 11 11 12 12
REMARK H PARENT
REMARK Flexibility Score: inf
ROOT
ATOM      1  C   UNL     1     -10.214  73.835  27.197  1.00  0.00     0.044 C 
ATOM      2  C   UNL     1      -9.451  73.754  25.907  1.00  0.00    -0.047 A 
ATOM      3  C   UNL     1      -8.491  72.751  25.717  1.00  0.00     0.050 A 
ATOM      4  C   UNL     1      -7.741  72.685  24.525  1.00  0.00     0.122 A 
ATOM      5  C   UNL     1      -7.957  73.655  23.514  1.00  0.00    -0.003 A 
ATOM      6  C   UNL     1      -8.910  74.666  23.729  1.00  0.00     0.008 A 
ATOM      7  C   UNL     1      -9.644  74.719  24.914  1.00  0.00     0.004 A 
ENDROOT
BRANCH   4   8
ATOM      8  O   UNL     1      -6.785  71.677  24.322  1.00  0.00    -0.496 OA
ATOM      9  C   UNL     1      -6.876  70.352  24.835  1.00  0.00     0.278 C 
ENDBRANCH   4   8
BRANCH   5  10
ATOM     10  C   UNL     1      -7.186  73.647  22.198  1.00  0.00     0.017 C 
ATOM     11  C   UNL     1      -5.683  73.865  22.415  1.00  0.00     0.012 C 
ATOM     12  C   UNL     1      -7.762  74.650  21.191  1.00  0.00     0.012 C 
ENDBRANCH   5  10
TORSDOF 2
ENDMDL
