MODEL 1
REMARK VINA RESULT:    -4.770      0.000      0.000
REMARK INTER + INTRA:         -11.360
REMARK INTER:                  -9.232
REMARK INTRA:                  -2.128
REMARK UNBOUND:                -2.128
REMARK SMILES CCCCCCCCCCCCCCCCCC(=O)[O-]
REMARK SMILES IDX 10 1 11 2 12 3 13 4 14 5 15 6 16 7 17 8 18 9 19 10 20 11
REMARK SMILES IDX 9 12 8 13 7 14 6 15 5 16 4 17 3 18 2 19 1 20
REMARK H PARENT
REMARK Flexibility Score: inf
ROOT
ATOM      1  C   UNL     1      50.543 -36.810  -5.781  1.00  0.00     0.000 C 
ENDROOT
BRANCH   1   2
ATOM      2  C   UNL     1      50.761 -38.118  -4.998  1.00  0.00     0.000 C 
BRANCH   2   3
ATOM      3  C   UNL     1      50.750 -39.405  -5.841  1.00  0.00     0.000 C 
BRANCH   3   4
ATOM      4  C   UNL     1      50.087 -40.591  -5.120  1.00  0.00     0.000 C 
BRANCH   4   5
ATOM      5  C   UNL     1      50.366 -40.599  -3.607  1.00  0.00     0.000 C 
BRANCH   5   6
ATOM      6  C   UNL     1      51.127 -41.852  -3.125  1.00  0.00     0.000 C 
BRANCH   6   7
ATOM      7  C   UNL     1      52.332 -41.492  -2.244  1.00  0.00     0.006 C 
BRANCH   7   8
ATOM      8  C   UNL     1      52.779 -40.046  -2.485  1.00  0.00     0.053 C 
BRANCH   8   9
ATOM      9  C   UNL     1      54.218 -39.875  -2.118  1.00  0.00     0.041 C 
ATOM     10  O   UNL     1      54.710 -38.721  -2.005  1.00  0.00    -0.550 OA
ATOM     11  O   UNL     1      55.006 -40.988  -1.853  1.00  0.00    -0.550 OA
ENDBRANCH   8   9
ENDBRANCH   7   8
ENDBRANCH   6   7
ENDBRANCH   5   6
ENDBRANCH   4   5
ENDBRANCH   3   4
ENDBRANCH   2   3
ENDBRANCH   1   2
BRANCH   1  12
ATOM     12  C   UNL     1      49.204 -36.129  -5.453  1.00  0.00     0.000 C 
BRANCH  12  13
ATOM     13  C   UNL     1      48.209 -37.067  -4.744  1.00  0.00    -0.000 C 
BRANCH  13  14
ATOM     14  C   UNL     1      46.761 -37.012  -5.267  1.00  0.00    -0.000 C 
BRANCH  14  15
ATOM     15  C   UNL     1      45.990 -38.324  -5.037  1.00  0.00    -0.000 C 
BRANCH  15  16
ATOM     16  C   UNL     1      46.896 -39.458  -4.529  1.00  0.00    -0.000 C 
BRANCH  16  17
ATOM     17  C   UNL     1      46.198 -40.354  -3.495  1.00  0.00    -0.000 C 
BRANCH  17  18
ATOM     18  C   UNL     1      47.038 -40.465  -2.212  1.00  0.00    -0.000 C 
BRANCH  18  19
ATOM     19  C   UNL     1      47.652 -39.123  -1.789  1.00  0.00    -0.003 C 
ATOM     20  C   UNL     1      47.327 -38.752  -0.342  1.00  0.00     0.004 C 
ENDBRANCH  18  19
ENDBRANCH  17  18
ENDBRANCH  16  17
ENDBRANCH  15  16
ENDBRANCH  14  15
ENDBRANCH  13  14
ENDBRANCH  12  13
ENDBRANCH   1  12
TORSDOF 16
ENDMDL
MODEL 2
REMARK VINA RESULT:    -4.669      1.503      3.473
REMARK INTER + INTRA:         -11.164
REMARK INTER:                  -9.137
REMARK INTRA:                  -2.027
REMARK UNBOUND:                -2.128
REMARK SMILES CCCCCCCCCCCCCCCCCC(=O)[O-]
REMARK SMILES IDX 10 1 11 2 12 3 13 4 14 5 15 6 16 7 17 8 18 9 19 10 20 11
REMARK SMILES IDX 9 12 8 13 7 14 6 15 5 16 4 17 3 18 2 19 1 20
REMARK H PARENT
REMARK Flexibility Score: inf
ROOT
ATOM      1  C   UNL     1      45.268 -39.927  -3.415  1.00  0.00     0.000 C 
ENDROOT
BRANCH   1   2
ATOM      2  C   UNL     1      46.757 -40.323  -3.410  1.00  0.00     0.000 C 
BRANCH   2   3
ATOM      3  C   UNL     1      47.485 -40.184  -4.759  1.00  0.00     0.000 C 
BRANCH   3   4
ATOM      4  C   UNL     1      48.940 -40.680  -4.711  1.00  0.00     0.000 C 
BRANCH   4   5
ATOM      5  C   UNL     1      49.127 -41.885  -3.773  1.00  0.00     0.000 C 
BRANCH   5   6
ATOM      6  C   UNL     1      50.602 -42.168  -3.417  1.00  0.00     0.000 C 
BRANCH   6   7
ATOM      7  C   UNL     1      51.263 -40.978  -2.708  1.00  0.00     0.006 C 
BRANCH   7   8
ATOM      8  C   UNL     1      52.624 -41.371  -2.124  1.00  0.00     0.053 C 
BRANCH   8   9
ATOM      9  C   UNL     1      53.570 -40.214  -2.176  1.00  0.00     0.041 C 
ATOM     10  O   UNL     1      54.761 -40.352  -1.790  1.00  0.00    -0.550 OA
ATOM     11  O   UNL     1      53.151 -38.995  -2.695  1.00  0.00    -0.550 OA
ENDBRANCH   8   9
ENDBRANCH   7   8
ENDBRANCH   6   7
ENDBRANCH   5   6
ENDBRANCH   4   5
ENDBRANCH   3   4
ENDBRANCH   2   3
ENDBRANCH   1   2
BRANCH   1  12
ATOM     12  C   UNL     1      45.033 -38.483  -3.888  1.00  0.00     0.000 C 
BRANCH  12  13
ATOM     13  C   UNL     1      44.341 -38.404  -5.262  1.00  0.00    -0.000 C 
BRANCH  13  14
ATOM     14  C   UNL     1      45.032 -37.500  -6.300  1.00  0.00    -0.000 C 
BRANCH  14  15
ATOM     15  C   UNL     1      45.439 -36.131  -5.728  1.00  0.00    -0.000 C 
BRANCH  15  16
ATOM     16  C   UNL     1      46.811 -35.662  -6.243  1.00  0.00    -0.000 C 
BRANCH  16  17
ATOM     17  C   UNL     1      47.873 -35.616  -5.134  1.00  0.00    -0.000 C 
BRANCH  17  18
ATOM     18  C   UNL     1      48.740 -36.886  -5.154  1.00  0.00    -0.000 C 
BRANCH  18  19
ATOM     19  C   UNL     1      49.449 -37.137  -3.815  1.00  0.00    -0.003 C 
ATOM     20  C   UNL     1      48.481 -37.205  -2.634  1.00  0.00     0.004 C 
ENDBRANCH  18  19
ENDBRANCH  17  18
ENDBRANCH  16  17
ENDBRANCH  15  16
ENDBRANCH  14  15
ENDBRANCH  13  14
ENDBRANCH  12  13
ENDBRANCH   1  12
TORSDOF 16
ENDMDL
MODEL 3
REMARK VINA RESULT:    -4.531      2.860      6.111
REMARK INTER + INTRA:         -10.897
REMARK INTER:                  -8.042
REMARK INTRA:                  -2.856
REMARK UNBOUND:                -2.128
REMARK SMILES CCCCCCCCCCCCCCCCCC(=O)[O-]
REMARK SMILES IDX 10 1 11 2 12 3 13 4 14 5 15 6 16 7 17 8 18 9 19 10 20 11
REMARK SMILES IDX 9 12 8 13 7 14 6 15 5 16 4 17 3 18 2 19 1 20
REMARK H PARENT
REMARK Flexibility Score: inf
ROOT
ATOM      1  C   UNL     1      47.387 -39.932  -4.730  1.00  0.00     0.000 C 
ENDROOT
BRANCH   1   2
ATOM      2  C   UNL     1      46.053 -39.304  -4.284  1.00  0.00     0.000 C 
BRANCH   2   3
ATOM      3  C   UNL     1      45.176 -40.184  -3.376  1.00  0.00     0.000 C 
BRANCH   3   4
ATOM      4  C   UNL     1      44.790 -39.491  -2.058  1.00  0.00     0.000 C 
BRANCH   4   5
ATOM      5  C   UNL     1      45.405 -40.175  -0.824  1.00  0.00     0.000 C 
BRANCH   5   6
ATOM      6  C   UNL     1      46.838 -39.698  -0.504  1.00  0.00     0.000 C 
BRANCH   6   7
ATOM      7  C   UNL     1      46.971 -38.171  -0.590  1.00  0.00     0.006 C 
BRANCH   7   8
ATOM      8  C   UNL     1      48.102 -37.769  -1.542  1.00  0.00     0.053 C 
BRANCH   8   9
ATOM      9  C   UNL     1      47.719 -36.556  -2.328  1.00  0.00     0.041 C 
ATOM     10  O   UNL     1      48.609 -35.810  -2.816  1.00  0.00    -0.550 OA
ATOM     11  O   UNL     1      46.379 -36.274  -2.564  1.00  0.00    -0.550 OA
ENDBRANCH   8   9
ENDBRANCH   7   8
ENDBRANCH   6   7
ENDBRANCH   5   6
ENDBRANCH   4   5
ENDBRANCH   3   4
ENDBRANCH   2   3
ENDBRANCH   1   2
BRANCH   1  12
ATOM     12  C   UNL     1      48.033 -40.805  -3.641  1.00  0.00     0.000 C 
BRANCH  12  13
ATOM     13  C   UNL     1      49.128 -41.740  -4.190  1.00  0.00    -0.000 C 
BRANCH  13  14
ATOM     14  C   UNL     1      50.388 -41.866  -3.314  1.00  0.00    -0.000 C 
BRANCH  14  15
ATOM     15  C   UNL     1      50.748 -40.559  -2.587  1.00  0.00    -0.000 C 
BRANCH  15  16
ATOM     16  C   UNL     1      51.733 -39.691  -3.390  1.00  0.00    -0.000 C 
BRANCH  16  17
ATOM     17  C   UNL     1      51.238 -38.248  -3.569  1.00  0.00    -0.000 C 
BRANCH  17  18
ATOM     18  C   UNL     1      50.436 -38.102  -4.872  1.00  0.00    -0.000 C 
BRANCH  18  19
ATOM     19  C   UNL     1      50.977 -38.992  -6.001  1.00  0.00    -0.003 C 
ATOM     20  C   UNL     1      52.116 -38.335  -6.780  1.00  0.00     0.004 C 
ENDBRANCH  18  19
ENDBRANCH  17  18
ENDBRANCH  16  17
ENDBRANCH  15  16
ENDBRANCH  14  15
ENDBRANCH  13  14
ENDBRANCH  12  13
ENDBRANCH   1  12
TORSDOF 16
ENDMDL
MODEL 4
REMARK VINA RESULT:    -4.517      3.419      6.515
REMARK INTER + INTRA:         -10.870
REMARK INTER:                  -8.166
REMARK INTRA:                  -2.704
REMARK UNBOUND:                -2.128
REMARK SMILES CCCCCCCCCCCCCCCCCC(=O)[O-]
REMARK SMILES IDX 10 1 11 2 12 3 13 4 14 5 15 6 16 7 17 8 18 9 19 10 20 11
REMARK SMILES IDX 9 12 8 13 7 14 6 15 5 16 4 17 3 18 2 19 1 20
REMARK H PARENT
REMARK Flexibility Score: inf
ROOT
ATOM      1  C   UNL     1      46.872 -40.646  -3.764  1.00  0.00     0.000 C 
ENDROOT
BRANCH   1   2
ATOM      2  C   UNL     1      46.908 -39.538  -4.833  1.00  0.00     0.000 C 
BRANCH   2   3
ATOM      3  C   UNL     1      45.632 -38.684  -4.946  1.00  0.00     0.000 C 
BRANCH   3   4
ATOM      4  C   UNL     1      45.599 -37.515  -3.948  1.00  0.00     0.000 C 
BRANCH   4   5
ATOM      5  C   UNL     1      47.005 -37.055  -3.524  1.00  0.00     0.000 C 
BRANCH   5   6
ATOM      6  C   UNL     1      47.211 -37.029  -1.995  1.00  0.00     0.000 C 
BRANCH   6   7
ATOM      7  C   UNL     1      46.045 -37.688  -1.244  1.00  0.00     0.006 C 
BRANCH   7   8
ATOM      8  C   UNL     1      46.522 -38.901  -0.440  1.00  0.00     0.053 C 
BRANCH   8   9
ATOM      9  C   UNL     1      45.489 -39.982  -0.458  1.00  0.00     0.041 C 
ATOM     10  O   UNL     1      44.534 -39.932  -1.278  1.00  0.00    -0.550 OA
ATOM     11  O   UNL     1      45.604 -41.070   0.399  1.00  0.00    -0.550 OA
ENDBRANCH   8   9
ENDBRANCH   7   8
ENDBRANCH   6   7
ENDBRANCH   5   6
ENDBRANCH   4   5
ENDBRANCH   3   4
ENDBRANCH   2   3
ENDBRANCH   1   2
BRANCH   1  12
ATOM     12  C   UNL     1      48.238 -40.882  -3.097  1.00  0.00     0.000 C 
BRANCH  12  13
ATOM     13  C   UNL     1      49.170 -41.777  -3.936  1.00  0.00    -0.000 C 
BRANCH  13  14
ATOM     14  C   UNL     1      50.632 -41.843  -3.454  1.00  0.00    -0.000 C 
BRANCH  14  15
ATOM     15  C   UNL     1      51.046 -40.615  -2.623  1.00  0.00    -0.000 C 
BRANCH  15  16
ATOM     16  C   UNL     1      51.765 -39.549  -3.467  1.00  0.00    -0.000 C 
BRANCH  16  17
ATOM     17  C   UNL     1      50.917 -38.285  -3.669  1.00  0.00    -0.000 C 
BRANCH  17  18
ATOM     18  C   UNL     1      50.243 -38.292  -5.050  1.00  0.00    -0.000 C 
BRANCH  18  19
ATOM     19  C   UNL     1      50.954 -39.217  -6.049  1.00  0.00    -0.003 C 
ATOM     20  C   UNL     1      51.867 -38.458  -7.012  1.00  0.00     0.004 C 
ENDBRANCH  18  19
ENDBRANCH  17  18
ENDBRANCH  16  17
ENDBRANCH  15  16
ENDBRANCH  14  15
ENDBRANCH  13  14
ENDBRANCH  12  13
ENDBRANCH   1  12
TORSDOF 16
ENDMDL
MODEL 5
REMARK VINA RESULT:    -4.485      3.255      5.343
REMARK INTER + INTRA:         -10.808
REMARK INTER:                  -7.673
REMARK INTRA:                  -3.135
REMARK UNBOUND:                -2.128
REMARK SMILES CCCCCCCCCCCCCCCCCC(=O)[O-]
REMARK SMILES IDX 10 1 11 2 12 3 13 4 14 5 15 6 16 7 17 8 18 9 19 10 20 11
REMARK SMILES IDX 9 12 8 13 7 14 6 15 5 16 4 17 3 18 2 19 1 20
REMARK H PARENT
REMARK Flexibility Score: inf
ROOT
ATOM      1  C   UNL     1      50.701 -40.761  -2.830  1.00  0.00     0.000 C 
ENDROOT
BRANCH   1   2
ATOM      2  C   UNL     1      51.290 -39.736  -3.817  1.00  0.00     0.000 C 
BRANCH   2   3
ATOM      3  C   UNL     1      51.168 -38.261  -3.394  1.00  0.00     0.000 C 
BRANCH   3   4
ATOM      4  C   UNL     1      50.247 -37.445  -4.317  1.00  0.00     0.000 C 
BRANCH   4   5
ATOM      5  C   UNL     1      48.953 -36.994  -3.618  1.00  0.00     0.000 C 
BRANCH   5   6
ATOM      6  C   UNL     1      48.953 -37.244  -2.094  1.00  0.00     0.000 C 
BRANCH   6   7
ATOM      7  C   UNL     1      47.570 -37.667  -1.579  1.00  0.00     0.006 C 
BRANCH   7   8
ATOM      8  C   UNL     1      47.676 -38.882  -0.652  1.00  0.00     0.053 C 
BRANCH   8   9
ATOM      9  C   UNL     1      46.325 -39.276  -0.147  1.00  0.00     0.041 C 
ATOM     10  O   UNL     1      45.981 -40.487  -0.135  1.00  0.00    -0.550 OA
ATOM     11  O   UNL     1      45.461 -38.310   0.355  1.00  0.00    -0.550 OA
ENDBRANCH   8   9
ENDBRANCH   7   8
ENDBRANCH   6   7
ENDBRANCH   5   6
ENDBRANCH   4   5
ENDBRANCH   3   4
ENDBRANCH   2   3
ENDBRANCH   1   2
BRANCH   1  12
ATOM     12  C   UNL     1      49.493 -41.521  -3.402  1.00  0.00     0.000 C 
BRANCH  12  13
ATOM     13  C   UNL     1      49.071 -41.020  -4.796  1.00  0.00    -0.000 C 
BRANCH  13  14
ATOM     14  C   UNL     1      47.748 -40.233  -4.843  1.00  0.00    -0.000 C 
BRANCH  14  15
ATOM     15  C   UNL     1      46.790 -40.600  -3.697  1.00  0.00    -0.000 C 
BRANCH  15  16
ATOM     16  C   UNL     1      45.494 -39.772  -3.726  1.00  0.00    -0.000 C 
BRANCH  16  17
ATOM     17  C   UNL     1      45.564 -38.602  -4.718  1.00  0.00    -0.000 C 
BRANCH  17  18
ATOM     18  C   UNL     1      44.840 -37.366  -4.159  1.00  0.00    -0.000 C 
BRANCH  18  19
ATOM     19  C   UNL     1      45.036 -36.120  -5.035  1.00  0.00    -0.003 C 
ATOM     20  C   UNL     1      46.170 -36.279  -6.047  1.00  0.00     0.004 C 
ENDBRANCH  18  19
ENDBRANCH  17  18
ENDBRANCH  16  17
ENDBRANCH  15  16
ENDBRANCH  14  15
ENDBRANCH  13  14
ENDBRANCH  12  13
ENDBRANCH   1  12
TORSDOF 16
ENDMDL
MODEL 6
REMARK VINA RESULT:    -4.461      3.608      5.611
REMARK INTER + INTRA:         -10.762
REMARK INTER:                  -7.936
REMARK INTRA:                  -2.827
REMARK UNBOUND:                -2.128
REMARK SMILES CCCCCCCCCCCCCCCCCC(=O)[O-]
REMARK SMILES IDX 10 1 11 2 12 3 13 4 14 5 15 6 16 7 17 8 18 9 19 10 20 11
REMARK SMILES IDX 9 12 8 13 7 14 6 15 5 16 4 17 3 18 2 19 1 20
REMARK H PARENT
REMARK Flexibility Score: inf
ROOT
ATOM      1  C   UNL     1      51.888 -39.090  -3.378  1.00  0.00     0.000 C 
ENDROOT
BRANCH   1   2
ATOM      2  C   UNL     1      51.501 -40.564  -3.155  1.00  0.00     0.000 C 
BRANCH   2   3
ATOM      3  C   UNL     1      50.064 -40.805  -2.660  1.00  0.00     0.000 C 
BRANCH   3   4
ATOM      4  C   UNL     1      49.260 -41.741  -3.578  1.00  0.00     0.000 C 
BRANCH   4   5
ATOM      5  C   UNL     1      48.766 -41.041  -4.856  1.00  0.00     0.000 C 
BRANCH   5   6
ATOM      6  C   UNL     1      47.710 -39.946  -4.592  1.00  0.00     0.000 C 
BRANCH   6   7
ATOM      7  C   UNL     1      46.516 -40.479  -3.786  1.00  0.00     0.006 C 
BRANCH   7   8
ATOM      8  C   UNL     1      46.309 -39.665  -2.505  1.00  0.00     0.053 C 
BRANCH   8   9
ATOM      9  C   UNL     1      44.868 -39.296  -2.346  1.00  0.00     0.041 C 
ATOM     10  O   UNL     1      44.550 -38.176  -1.865  1.00  0.00    -0.550 OA
ATOM     11  O   UNL     1      43.875 -40.168  -2.774  1.00  0.00    -0.550 OA
ENDBRANCH   8   9
ENDBRANCH   7   8
ENDBRANCH   6   7
ENDBRANCH   5   6
ENDBRANCH   4   5
ENDBRANCH   3   4
ENDBRANCH   2   3
ENDBRANCH   1   2
BRANCH   1  12
ATOM     12  C   UNL     1      51.554 -38.588  -4.793  1.00  0.00     0.000 C 
BRANCH  12  13
ATOM     13  C   UNL     1      50.485 -37.479  -4.802  1.00  0.00    -0.000 C 
BRANCH  13  14
ATOM     14  C   UNL     1      49.862 -37.151  -3.432  1.00  0.00    -0.000 C 
BRANCH  14  15
ATOM     15  C   UNL     1      48.490 -36.461  -3.547  1.00  0.00    -0.000 C 
BRANCH  15  16
ATOM     16  C   UNL     1      48.340 -35.665  -4.854  1.00  0.00    -0.000 C 
BRANCH  16  17
ATOM     17  C   UNL     1      47.172 -36.163  -5.718  1.00  0.00    -0.000 C 
BRANCH  17  18
ATOM     18  C   UNL     1      46.057 -36.756  -4.841  1.00  0.00    -0.000 C 
BRANCH  18  19
ATOM     19  C   UNL     1      44.684 -36.724  -5.529  1.00  0.00    -0.003 C 
ATOM     20  C   UNL     1      44.082 -38.117  -5.715  1.00  0.00     0.004 C 
ENDBRANCH  18  19
ENDBRANCH  17  18
ENDBRANCH  16  17
ENDBRANCH  15  16
ENDBRANCH  14  15
ENDBRANCH  13  14
ENDBRANCH  12  13
ENDBRANCH   1  12
TORSDOF 16
ENDMDL
MODEL 7
REMARK VINA RESULT:    -4.454      1.555      4.198
REMARK INTER + INTRA:         -10.749
REMARK INTER:                  -8.163
REMARK INTRA:                  -2.586
REMARK UNBOUND:                -2.128
REMARK SMILES CCCCCCCCCCCCCCCCCC(=O)[O-]
REMARK SMILES IDX 10 1 11 2 12 3 13 4 14 5 15 6 16 7 17 8 18 9 19 10 20 11
REMARK SMILES IDX 9 12 8 13 7 14 6 15 5 16 4 17 3 18 2 19 1 20
REMARK H PARENT
REMARK Flexibility Score: inf
ROOT
ATOM      1  C   UNL     1      46.261 -40.167  -1.937  1.00  0.00     0.000 C 
ENDROOT
BRANCH   1   2
ATOM      2  C   UNL     1      45.741 -39.998  -3.377  1.00  0.00     0.000 C 
BRANCH   2   3
ATOM      3  C   UNL     1      46.811 -40.070  -4.481  1.00  0.00     0.000 C 
BRANCH   3   4
ATOM      4  C   UNL     1      48.238 -40.222  -3.927  1.00  0.00     0.000 C 
BRANCH   4   5
ATOM      5  C   UNL     1      49.259 -40.607  -5.012  1.00  0.00     0.000 C 
BRANCH   5   6
ATOM      6  C   UNL     1      50.668 -40.025  -4.769  1.00  0.00     0.000 C 
BRANCH   6   7
ATOM      7  C   UNL     1      51.221 -40.411  -3.390  1.00  0.00     0.006 C 
BRANCH   7   8
ATOM      8  C   UNL     1      52.351 -39.468  -2.966  1.00  0.00     0.053 C 
BRANCH   8   9
ATOM      9  C   UNL     1      53.395 -40.212  -2.197  1.00  0.00     0.041 C 
ATOM     10  O   UNL     1      54.473 -39.644  -1.878  1.00  0.00    -0.550 OA
ATOM     11  O   UNL     1      53.159 -41.520  -1.789  1.00  0.00    -0.550 OA
ENDBRANCH   8   9
ENDBRANCH   7   8
ENDBRANCH   6   7
ENDBRANCH   5   6
ENDBRANCH   4   5
ENDBRANCH   3   4
ENDBRANCH   2   3
ENDBRANCH   1   2
BRANCH   1  12
ATOM     12  C   UNL     1      45.589 -39.208  -0.940  1.00  0.00     0.000 C 
BRANCH  12  13
ATOM     13  C   UNL     1      46.296 -37.843  -0.848  1.00  0.00    -0.000 C 
BRANCH  13  14
ATOM     14  C   UNL     1      47.817 -37.901  -0.611  1.00  0.00    -0.000 C 
BRANCH  14  15
ATOM     15  C   UNL     1      48.429 -36.523  -0.301  1.00  0.00    -0.000 C 
BRANCH  15  16
ATOM     16  C   UNL     1      49.301 -35.994  -1.453  1.00  0.00    -0.000 C 
BRANCH  16  17
ATOM     17  C   UNL     1      49.585 -37.065  -2.518  1.00  0.00    -0.000 C 
BRANCH  17  18
ATOM     18  C   UNL     1      49.144 -36.583  -3.909  1.00  0.00    -0.000 C 
BRANCH  18  19
ATOM     19  C   UNL     1      47.617 -36.488  -4.046  1.00  0.00    -0.003 C 
ATOM     20  C   UNL     1      47.156 -36.422  -5.502  1.00  0.00     0.004 C 
ENDBRANCH  18  19
ENDBRANCH  17  18
ENDBRANCH  16  17
ENDBRANCH  15  16
ENDBRANCH  14  15
ENDBRANCH  13  14
ENDBRANCH  12  13
ENDBRANCH   1  12
TORSDOF 16
ENDMDL
MODEL 8
REMARK VINA RESULT:    -4.423      3.534      6.292
REMARK INTER + INTRA:         -10.688
REMARK INTER:                  -7.896
REMARK INTRA:                  -2.792
REMARK UNBOUND:                -2.128
REMARK SMILES CCCCCCCCCCCCCCCCCC(=O)[O-]
REMARK SMILES IDX 10 1 11 2 12 3 13 4 14 5 15 6 16 7 17 8 18 9 19 10 20 11
REMARK SMILES IDX 9 12 8 13 7 14 6 15 5 16 4 17 3 18 2 19 1 20
REMARK H PARENT
REMARK Flexibility Score: inf
ROOT
ATOM      1  C   UNL     1      50.539 -37.854  -3.972  1.00  0.00     0.000 C 
ENDROOT
BRANCH   1   2
ATOM      2  C   UNL     1      49.670 -37.666  -5.230  1.00  0.00     0.000 C 
BRANCH   2   3
ATOM      3  C   UNL     1      48.646 -36.518  -5.163  1.00  0.00     0.000 C 
BRANCH   3   4
ATOM      4  C   UNL     1      47.268 -36.969  -4.652  1.00  0.00     0.000 C 
BRANCH   4   5
ATOM      5  C   UNL     1      46.149 -36.748  -5.685  1.00  0.00     0.000 C 
BRANCH   5   6
ATOM      6  C   UNL     1      45.237 -37.977  -5.880  1.00  0.00     0.000 C 
BRANCH   6   7
ATOM      7  C   UNL     1      44.013 -37.940  -4.953  1.00  0.00     0.006 C 
BRANCH   7   8
ATOM      8  C   UNL     1      43.909 -39.225  -4.125  1.00  0.00     0.053 C 
BRANCH   8   9
ATOM      9  C   UNL     1      44.219 -38.949  -2.689  1.00  0.00     0.041 C 
ATOM     10  O   UNL     1      44.252 -39.892  -1.855  1.00  0.00    -0.550 OA
ATOM     11  O   UNL     1      44.521 -37.656  -2.278  1.00  0.00    -0.550 OA
ENDBRANCH   8   9
ENDBRANCH   7   8
ENDBRANCH   6   7
ENDBRANCH   5   6
ENDBRANCH   4   5
ENDBRANCH   3   4
ENDBRANCH   2   3
ENDBRANCH   1   2
BRANCH   1  12
ATOM     12  C   UNL     1      51.655 -38.894  -4.164  1.00  0.00     0.000 C 
BRANCH  12  13
ATOM     13  C   UNL     1      52.169 -39.478  -2.835  1.00  0.00    -0.000 C 
BRANCH  13  14
ATOM     14  C   UNL     1      51.825 -40.959  -2.586  1.00  0.00    -0.000 C 
BRANCH  14  15
ATOM     15  C   UNL     1      51.014 -41.587  -3.733  1.00  0.00    -0.000 C 
BRANCH  15  16
ATOM     16  C   UNL     1      49.533 -41.786  -3.366  1.00  0.00    -0.000 C 
BRANCH  16  17
ATOM     17  C   UNL     1      48.581 -41.141  -4.384  1.00  0.00    -0.000 C 
BRANCH  17  18
ATOM     18  C   UNL     1      47.495 -40.318  -3.673  1.00  0.00    -0.000 C 
BRANCH  18  19
ATOM     19  C   UNL     1      47.683 -40.284  -2.149  1.00  0.00    -0.003 C 
ATOM     20  C   UNL     1      47.858 -38.867  -1.605  1.00  0.00     0.004 C 
ENDBRANCH  18  19
ENDBRANCH  17  18
ENDBRANCH  16  17
ENDBRANCH  15  16
ENDBRANCH  14  15
ENDBRANCH  13  14
ENDBRANCH  12  13
ENDBRANCH   1  12
TORSDOF 16
ENDMDL
MODEL 9
REMARK VINA RESULT:    -4.401      2.325      4.416
REMARK INTER + INTRA:         -10.645
REMARK INTER:                  -7.688
REMARK INTRA:                  -2.957
REMARK UNBOUND:                -2.128
REMARK SMILES CCCCCCCCCCCCCCCCCC(=O)[O-]
REMARK SMILES IDX 10 1 11 2 12 3 13 4 14 5 15 6 16 7 17 8 18 9 19 10 20 11
REMARK SMILES IDX 9 12 8 13 7 14 6 15 5 16 4 17 3 18 2 19 1 20
REMARK H PARENT
REMARK Flexibility Score: inf
ROOT
ATOM      1  C   UNL     1      46.972 -38.950  -1.176  1.00  0.00     0.000 C 
ENDROOT
BRANCH   1   2
ATOM      2  C   UNL     1      48.239 -38.151  -1.537  1.00  0.00     0.000 C 
BRANCH   2   3
ATOM      3  C   UNL     1      47.994 -36.768  -2.167  1.00  0.00     0.000 C 
BRANCH   3   4
ATOM      4  C   UNL     1      48.925 -36.474  -3.354  1.00  0.00     0.000 C 
BRANCH   4   5
ATOM      5  C   UNL     1      49.952 -37.594  -3.597  1.00  0.00     0.000 C 
BRANCH   5   6
ATOM      6  C   UNL     1      49.891 -38.190  -5.019  1.00  0.00     0.000 C 
BRANCH   6   7
ATOM      7  C   UNL     1      50.388 -39.643  -5.057  1.00  0.00     0.006 C 
BRANCH   7   8
ATOM      8  C   UNL     1      50.810 -40.118  -3.663  1.00  0.00     0.053 C 
BRANCH   8   9
ATOM      9  C   UNL     1      50.578 -41.588  -3.518  1.00  0.00     0.041 C 
ATOM     10  O   UNL     1      51.506 -42.339  -3.118  1.00  0.00    -0.550 OA
ATOM     11  O   UNL     1      49.322 -42.123  -3.777  1.00  0.00    -0.550 OA
ENDBRANCH   8   9
ENDBRANCH   7   8
ENDBRANCH   6   7
ENDBRANCH   5   6
ENDBRANCH   4   5
ENDBRANCH   3   4
ENDBRANCH   2   3
ENDBRANCH   1   2
BRANCH   1  12
ATOM     12  C   UNL     1      46.881 -40.297  -1.911  1.00  0.00     0.000 C 
BRANCH  12  13
ATOM     13  C   UNL     1      45.973 -40.245  -3.154  1.00  0.00    -0.000 C 
BRANCH  13  14
ATOM     14  C   UNL     1      46.679 -39.881  -4.474  1.00  0.00    -0.000 C 
BRANCH  14  15
ATOM     15  C   UNL     1      46.320 -38.473  -4.979  1.00  0.00    -0.000 C 
BRANCH  15  16
ATOM     16  C   UNL     1      44.991 -38.448  -5.754  1.00  0.00    -0.000 C 
BRANCH  16  17
ATOM     17  C   UNL     1      43.876 -37.720  -4.989  1.00  0.00    -0.000 C 
BRANCH  17  18
ATOM     18  C   UNL     1      44.280 -36.269  -4.682  1.00  0.00    -0.000 C 
BRANCH  18  19
ATOM     19  C   UNL     1      44.205 -35.939  -3.184  1.00  0.00    -0.003 C 
ATOM     20  C   UNL     1      43.970 -37.176  -2.316  1.00  0.00     0.004 C 
ENDBRANCH  18  19
ENDBRANCH  17  18
ENDBRANCH  16  17
ENDBRANCH  15  16
ENDBRANCH  14  15
ENDBRANCH  13  14
ENDBRANCH  12  13
ENDBRANCH   1  12
TORSDOF 16
ENDMDL
