MODEL 1
REMARK VINA RESULT:    -3.266      0.000      0.000
REMARK INTER + INTRA:           0.529
REMARK INTER:                  -4.411
REMARK INTRA:                   4.940
REMARK UNBOUND:                 4.940
REMARK SMILES C=C1CCC=C(C)CC[C@@H]2[C@H]1CC2(C)C
REMARK SMILES IDX 11 1 12 2 13 3 10 4 14 5 15 6 9 7 8 8 6 9 7 10 5 11 2 13
REMARK SMILES IDX 1 14 3 15 4 16
REMARK H PARENT
REMARK Flexibility Score: 70.00
ROOT
ATOM      1  C   UNL     1     137.195 137.317 122.156  1.00  0.00     0.018 C 
ATOM      2  C   UNL     1     137.406 138.641 122.905  1.00  0.00     0.015 C 
ATOM      3  C   UNL     1     136.119 138.396 123.713  1.00  0.00    -0.031 C 
ATOM      4  C   UNL     1     135.903 137.055 122.958  1.00  0.00     0.002 C 
ATOM      5  C   UNL     1     135.024 139.431 123.396  1.00  0.00     0.011 C 
ATOM      6  C   UNL     1     136.374 138.312 125.231  1.00  0.00     0.011 C 
ENDROOT
BRANCH   4   7
ATOM      7  C   UNL     1     135.803 135.769 123.819  1.00  0.00     0.009 C 
BRANCH   7   8
ATOM      8  C   UNL     1     137.118 134.959 123.839  1.00  0.00     0.030 C 
BRANCH   8   9
ATOM      9  C   UNL     1     137.937 135.205 125.095  1.00  0.00    -0.077 C 
ATOM     10  C   UNL     1     137.223 135.207 126.423  1.00  0.00     0.039 C 
ATOM     11  C   UNL     1     139.271 135.433 125.092  1.00  0.00    -0.028 CG0
ATOM     12  G   UNL     1     140.133 135.591 123.864  1.00  0.00     0.000 G0
ENDBRANCH   8   9
ENDBRANCH   7   8
ENDBRANCH   4   7
BRANCH   1  13
ATOM     13  C   UNL     1     138.332 136.300 122.242  1.00  0.00    -0.074 C 
ATOM     14  C   UNL     1     138.267 135.071 121.698  1.00  0.00     0.008 C 
BRANCH  13  15
ATOM     15  C   UNL     1     139.596 136.718 122.961  1.00  0.00     0.035 C 
BRANCH  15  16
ATOM     16  C   UNL     1     140.124 135.598 123.863  1.00  0.00     0.032 CG0
ATOM     17  G   UNL     1     139.258 135.436 125.088  1.00  0.00     0.000 G0
ENDBRANCH  15  16
ENDBRANCH  13  15
ENDBRANCH   1  13
TORSDOF 0
ENDMDL
MODEL 2
REMARK VINA RESULT:    -2.827      1.811      4.318
REMARK INTER + INTRA:           1.122
REMARK INTER:                  -2.190
REMARK INTRA:                   3.312
REMARK UNBOUND:                 4.940
REMARK SMILES C=C1CCC=C(C)CC[C@@H]2[C@H]1CC2(C)C
REMARK SMILES IDX 11 1 12 2 13 3 10 4 14 5 15 6 9 7 8 8 6 9 7 10 5 11 2 13
REMARK SMILES IDX 1 14 3 15 4 16
REMARK H PARENT
REMARK Flexibility Score: 70.00
ROOT
ATOM      1  C   UNL     1     136.935 135.475 124.582  1.00  0.00     0.018 C 
ATOM      2  C   UNL     1     137.756 136.307 125.577  1.00  0.00     0.015 C 
ATOM      3  C   UNL     1     139.060 135.759 124.969  1.00  0.00    -0.031 C 
ATOM      4  C   UNL     1     138.232 134.915 123.960  1.00  0.00     0.002 C 
ATOM      5  C   UNL     1     139.844 134.881 125.962  1.00  0.00     0.011 C 
ATOM      6  C   UNL     1     139.959 136.866 124.384  1.00  0.00     0.011 C 
ENDROOT
BRANCH   4   7
ATOM      7  C   UNL     1     138.503 135.153 122.452  1.00  0.00     0.009 C 
BRANCH   7   8
ATOM      8  C   UNL     1     139.124 136.538 122.167  1.00  0.00     0.030 C 
BRANCH   8   9
ATOM      9  C   UNL     1     138.194 137.447 121.383  1.00  0.00    -0.077 C 
ATOM     10  C   UNL     1     138.314 137.465 119.880  1.00  0.00     0.039 C 
ATOM     11  C   UNL     1     137.268 138.252 121.954  1.00  0.00    -0.028 CG0
ATOM     12  G   UNL     1     137.083 138.465 123.437  1.00  0.00     0.000 G0
ENDBRANCH   8   9
ENDBRANCH   7   8
ENDBRANCH   4   7
BRANCH   1  13
ATOM     13  C   UNL     1     135.965 136.246 123.689  1.00  0.00    -0.074 C 
ATOM     14  C   UNL     1     135.222 135.664 122.729  1.00  0.00     0.008 C 
BRANCH  13  15
ATOM     15  C   UNL     1     135.831 137.735 123.920  1.00  0.00     0.035 C 
BRANCH  15  16
ATOM     16  C   UNL     1     137.068 138.493 123.426  1.00  0.00     0.032 CG0
ATOM     17  G   UNL     1     137.283 138.273 121.949  1.00  0.00     0.000 G0
ENDBRANCH  15  16
ENDBRANCH  13  15
ENDBRANCH   1  13
TORSDOF 0
ENDMDL
