MODEL 1
REMARK VINA RESULT:    -3.703      0.000      0.000
REMARK INTER + INTRA:         -14.440
REMARK INTER:                  -9.331
REMARK INTRA:                  -5.109
REMARK UNBOUND:                -5.109
REMARK SMILES CCCCCCCCCCCCCCCCCCCCCCCCCCCC(=O)[O-]
REMARK SMILES IDX 15 1 16 2 17 3 18 4 19 5 20 6 21 7 22 8 23 9 24 10 25 11
REMARK SMILES IDX 26 12 27 13 28 14 29 15 30 16 14 17 13 18 12 19 11 20 10 21
REMARK SMILES IDX 9 22 8 23 7 24 6 25 5 26 4 27 3 28 2 29 1 30
REMARK H PARENT
REMARK Flexibility Score: inf
ROOT
ATOM      1  C   UNL     1       6.472   2.094  47.451  1.00  0.00     0.000 C 
ENDROOT
BRANCH   1   2
ATOM      2  C   UNL     1       5.798   3.384  47.958  1.00  0.00     0.000 C 
BRANCH   2   3
ATOM      3  C   UNL     1       6.765   4.509  48.382  1.00  0.00     0.000 C 
BRANCH   3   4
ATOM      4  C   UNL     1       6.255   5.406  49.526  1.00  0.00     0.000 C 
BRANCH   4   5
ATOM      5  C   UNL     1       7.356   5.784  50.528  1.00  0.00     0.000 C 
BRANCH   5   6
ATOM      6  C   UNL     1       6.811   6.727  51.610  1.00  0.00     0.000 C 
BRANCH   6   7
ATOM      7  C   UNL     1       5.292   6.935  51.505  1.00  0.00     0.000 C 
BRANCH   7   8
ATOM      8  C   UNL     1       4.872   8.376  51.846  1.00  0.00     0.000 C 
BRANCH   8   9
ATOM      9  C   UNL     1       5.341   9.400  50.798  1.00  0.00     0.000 C 
BRANCH   9  10
ATOM     10  C   UNL     1       4.536   9.411  49.484  1.00  0.00     0.000 C 
BRANCH  10  11
ATOM     11  C   UNL     1       5.409   9.343  48.213  1.00  0.00     0.000 C 
BRANCH  11  12
ATOM     12  C   UNL     1       6.913   9.283  48.540  1.00  0.00     0.006 C 
BRANCH  12  13
ATOM     13  C   UNL     1       7.633   8.172  47.766  1.00  0.00     0.053 C 
BRANCH  13  14
ATOM     14  C   UNL     1       9.123   8.317  47.831  1.00  0.00     0.041 C 
ATOM     15  O   UNL     1       9.640   9.416  48.165  1.00  0.00    -0.550 OA
ATOM     16  O   UNL     1       9.942   7.235  47.530  1.00  0.00    -0.550 OA
ENDBRANCH  13  14
ENDBRANCH  12  13
ENDBRANCH  11  12
ENDBRANCH  10  11
ENDBRANCH   9  10
ENDBRANCH   8   9
ENDBRANCH   7   8
ENDBRANCH   6   7
ENDBRANCH   5   6
ENDBRANCH   4   5
ENDBRANCH   3   4
ENDBRANCH   2   3
ENDBRANCH   1   2
BRANCH   1  17
ATOM     17  C   UNL     1       7.162   1.254  48.539  1.00  0.00     0.000 C 
BRANCH  17  18
ATOM     18  C   UNL     1       6.340   1.165  49.834  1.00  0.00     0.000 C 
BRANCH  18  19
ATOM     19  C   UNL     1       7.061   1.880  50.988  1.00  0.00     0.000 C 
BRANCH  19  20
ATOM     20  C   UNL     1       6.204   1.974  52.260  1.00  0.00     0.000 C 
BRANCH  20  21
ATOM     21  C   UNL     1       5.320   3.233  52.285  1.00  0.00     0.000 C 
BRANCH  21  22
ATOM     22  C   UNL     1       3.829   2.910  52.089  1.00  0.00    -0.000 C 
BRANCH  22  23
ATOM     23  C   UNL     1       3.296   3.385  50.729  1.00  0.00    -0.000 C 
BRANCH  23  24
ATOM     24  C   UNL     1       3.007   2.190  49.806  1.00  0.00    -0.000 C 
BRANCH  24  25
ATOM     25  C   UNL     1       2.322   1.019  50.536  1.00  0.00    -0.000 C 
BRANCH  25  26
ATOM     26  C   UNL     1       2.953  -0.364  50.278  1.00  0.00    -0.000 C 
BRANCH  26  27
ATOM     27  C   UNL     1       3.809  -0.908  51.438  1.00  0.00    -0.000 C 
BRANCH  27  28
ATOM     28  C   UNL     1       4.856  -1.955  50.991  1.00  0.00    -0.000 C 
BRANCH  28  29
ATOM     29  C   UNL     1       4.874  -2.193  49.471  1.00  0.00    -0.003 C 
ATOM     30  C   UNL     1       4.604  -3.654  49.110  1.00  0.00     0.004 C 
ENDBRANCH  28  29
ENDBRANCH  27  28
ENDBRANCH  26  27
ENDBRANCH  25  26
ENDBRANCH  24  25
ENDBRANCH  23  24
ENDBRANCH  22  23
ENDBRANCH  21  22
ENDBRANCH  20  21
ENDBRANCH  19  20
ENDBRANCH  18  19
ENDBRANCH  17  18
ENDBRANCH   1  17
TORSDOF 26
ENDMDL
MODEL 2
REMARK VINA RESULT:    -3.702      3.574      7.197
REMARK INTER + INTRA:         -14.440
REMARK INTER:                  -9.368
REMARK INTRA:                  -5.071
REMARK UNBOUND:                -5.109
REMARK SMILES CCCCCCCCCCCCCCCCCCCCCCCCCCCC(=O)[O-]
REMARK SMILES IDX 15 1 16 2 17 3 18 4 19 5 20 6 21 7 22 8 23 9 24 10 25 11
REMARK SMILES IDX 26 12 27 13 28 14 29 15 30 16 14 17 13 18 12 19 11 20 10 21
REMARK SMILES IDX 9 22 8 23 7 24 6 25 5 26 4 27 3 28 2 29 1 30
REMARK H PARENT
REMARK Flexibility Score: inf
ROOT
ATOM      1  C   UNL     1       6.721   1.998  47.578  1.00  0.00     0.000 C 
ENDROOT
BRANCH   1   2
ATOM      2  C   UNL     1       6.056   3.353  47.892  1.00  0.00     0.000 C 
BRANCH   2   3
ATOM      3  C   UNL     1       4.707   3.266  48.638  1.00  0.00     0.000 C 
BRANCH   3   4
ATOM      4  C   UNL     1       4.470   4.374  49.681  1.00  0.00     0.000 C 
BRANCH   4   5
ATOM      5  C   UNL     1       3.815   3.855  50.968  1.00  0.00     0.000 C 
BRANCH   5   6
ATOM      6  C   UNL     1       3.661   4.984  51.998  1.00  0.00     0.000 C 
BRANCH   6   7
ATOM      7  C   UNL     1       2.673   6.069  51.546  1.00  0.00     0.000 C 
BRANCH   7   8
ATOM      8  C   UNL     1       1.287   5.494  51.200  1.00  0.00     0.000 C 
BRANCH   8   9
ATOM      9  C   UNL     1       0.573   4.880  52.418  1.00  0.00     0.000 C 
BRANCH   9  10
ATOM     10  C   UNL     1       0.013   3.460  52.203  1.00  0.00     0.000 C 
BRANCH  10  11
ATOM     11  C   UNL     1       0.994   2.334  52.594  1.00  0.00     0.000 C 
BRANCH  11  12
ATOM     12  C   UNL     1       0.741   1.038  51.801  1.00  0.00     0.006 C 
BRANCH  12  13
ATOM     13  C   UNL     1       1.635   0.932  50.559  1.00  0.00     0.053 C 
BRANCH  13  14
ATOM     14  C   UNL     1       1.384  -0.330  49.792  1.00  0.00     0.041 C 
ATOM     15  O   UNL     1       0.229  -0.593  49.363  1.00  0.00    -0.550 OA
ATOM     16  O   UNL     1       2.428  -1.213  49.543  1.00  0.00    -0.550 OA
ENDBRANCH  13  14
ENDBRANCH  12  13
ENDBRANCH  11  12
ENDBRANCH  10  11
ENDBRANCH   9  10
ENDBRANCH   8   9
ENDBRANCH   7   8
ENDBRANCH   6   7
ENDBRANCH   5   6
ENDBRANCH   4   5
ENDBRANCH   3   4
ENDBRANCH   2   3
ENDBRANCH   1   2
BRANCH   1  17
ATOM     17  C   UNL     1       7.015   1.121  48.807  1.00  0.00     0.000 C 
BRANCH  17  18
ATOM     18  C   UNL     1       5.919   0.076  49.069  1.00  0.00     0.000 C 
BRANCH  18  19
ATOM     19  C   UNL     1       5.469   0.115  50.538  1.00  0.00     0.000 C 
BRANCH  19  20
ATOM     20  C   UNL     1       6.524   0.734  51.469  1.00  0.00     0.000 C 
BRANCH  20  21
ATOM     21  C   UNL     1       5.896   1.563  52.603  1.00  0.00     0.000 C 
BRANCH  21  22
ATOM     22  C   UNL     1       6.759   2.773  52.997  1.00  0.00    -0.000 C 
BRANCH  22  23
ATOM     23  C   UNL     1       7.895   3.039  51.997  1.00  0.00    -0.000 C 
BRANCH  23  24
ATOM     24  C   UNL     1       7.572   4.253  51.111  1.00  0.00    -0.000 C 
BRANCH  24  25
ATOM     25  C   UNL     1       7.343   5.543  51.922  1.00  0.00    -0.000 C 
BRANCH  25  26
ATOM     26  C   UNL     1       7.592   6.850  51.144  1.00  0.00    -0.000 C 
BRANCH  26  27
ATOM     27  C   UNL     1       6.333   7.476  50.513  1.00  0.00    -0.000 C 
BRANCH  27  28
ATOM     28  C   UNL     1       6.468   7.731  48.994  1.00  0.00    -0.000 C 
BRANCH  28  29
ATOM     29  C   UNL     1       7.624   6.953  48.342  1.00  0.00    -0.003 C 
ATOM     30  C   UNL     1       8.483   7.838  47.439  1.00  0.00     0.004 C 
ENDBRANCH  28  29
ENDBRANCH  27  28
ENDBRANCH  26  27
ENDBRANCH  25  26
ENDBRANCH  24  25
ENDBRANCH  23  24
ENDBRANCH  22  23
ENDBRANCH  21  22
ENDBRANCH  20  21
ENDBRANCH  19  20
ENDBRANCH  18  19
ENDBRANCH  17  18
ENDBRANCH   1  17
TORSDOF 26
ENDMDL
MODEL 3
REMARK VINA RESULT:    -3.668      3.460      7.901
REMARK INTER + INTRA:         -14.353
REMARK INTER:                  -8.931
REMARK INTRA:                  -5.422
REMARK UNBOUND:                -5.109
REMARK SMILES CCCCCCCCCCCCCCCCCCCCCCCCCCCC(=O)[O-]
REMARK SMILES IDX 15 1 16 2 17 3 18 4 19 5 20 6 21 7 22 8 23 9 24 10 25 11
REMARK SMILES IDX 26 12 27 13 28 14 29 15 30 16 14 17 13 18 12 19 11 20 10 21
REMARK SMILES IDX 9 22 8 23 7 24 6 25 5 26 4 27 3 28 2 29 1 30
REMARK H PARENT
REMARK Flexibility Score: inf
ROOT
ATOM      1  C   UNL     1       5.746   3.396  48.099  1.00  0.00     0.000 C 
ENDROOT
BRANCH   1   2
ATOM      2  C   UNL     1       6.367   2.055  47.661  1.00  0.00     0.000 C 
BRANCH   2   3
ATOM      3  C   UNL     1       7.043   1.245  48.788  1.00  0.00     0.000 C 
BRANCH   3   4
ATOM      4  C   UNL     1       6.256   1.189  50.110  1.00  0.00     0.000 C 
BRANCH   4   5
ATOM      5  C   UNL     1       6.979   1.890  51.269  1.00  0.00     0.000 C 
BRANCH   5   6
ATOM      6  C   UNL     1       6.058   2.017  52.491  1.00  0.00     0.000 C 
BRANCH   6   7
ATOM      7  C   UNL     1       5.557   3.453  52.708  1.00  0.00     0.000 C 
BRANCH   7   8
ATOM      8  C   UNL     1       4.022   3.554  52.648  1.00  0.00     0.000 C 
BRANCH   8   9
ATOM      9  C   UNL     1       3.506   4.022  51.277  1.00  0.00     0.000 C 
BRANCH   9  10
ATOM     10  C   UNL     1       3.023   2.897  50.339  1.00  0.00     0.000 C 
BRANCH  10  11
ATOM     11  C   UNL     1       2.552   1.625  51.075  1.00  0.00     0.000 C 
BRANCH  11  12
ATOM     12  C   UNL     1       2.332   0.442  50.114  1.00  0.00     0.006 C 
BRANCH  12  13
ATOM     13  C   UNL     1       3.200  -0.770  50.476  1.00  0.00     0.053 C 
BRANCH  13  14
ATOM     14  C   UNL     1       2.738  -2.018  49.788  1.00  0.00     0.041 C 
ATOM     15  O   UNL     1       2.184  -1.952  48.657  1.00  0.00    -0.550 OA
ATOM     16  O   UNL     1       2.926  -3.256  50.389  1.00  0.00    -0.550 OA
ENDBRANCH  13  14
ENDBRANCH  12  13
ENDBRANCH  11  12
ENDBRANCH  10  11
ENDBRANCH   9  10
ENDBRANCH   8   9
ENDBRANCH   7   8
ENDBRANCH   6   7
ENDBRANCH   5   6
ENDBRANCH   4   5
ENDBRANCH   3   4
ENDBRANCH   2   3
ENDBRANCH   1   2
BRANCH   1  17
ATOM     17  C   UNL     1       6.762   4.518  48.381  1.00  0.00     0.000 C 
BRANCH  17  18
ATOM     18  C   UNL     1       6.349   5.412  49.560  1.00  0.00     0.000 C 
BRANCH  18  19
ATOM     19  C   UNL     1       7.497   5.539  50.575  1.00  0.00     0.000 C 
BRANCH  19  20
ATOM     20  C   UNL     1       7.508   6.896  51.296  1.00  0.00     0.000 C 
BRANCH  20  21
ATOM     21  C   UNL     1       6.494   6.959  52.451  1.00  0.00     0.000 C 
BRANCH  21  22
ATOM     22  C   UNL     1       5.494   8.118  52.296  1.00  0.00    -0.000 C 
BRANCH  22  23
ATOM     23  C   UNL     1       4.135   7.656  51.749  1.00  0.00    -0.000 C 
BRANCH  23  24
ATOM     24  C   UNL     1       3.956   8.092  50.286  1.00  0.00    -0.000 C 
BRANCH  24  25
ATOM     25  C   UNL     1       4.756   9.362  49.936  1.00  0.00    -0.000 C 
BRANCH  25  26
ATOM     26  C   UNL     1       5.144   9.494  48.450  1.00  0.00    -0.000 C 
BRANCH  26  27
ATOM     27  C   UNL     1       6.466   8.804  48.064  1.00  0.00    -0.000 C 
BRANCH  27  28
ATOM     28  C   UNL     1       7.700   9.386  48.793  1.00  0.00    -0.000 C 
BRANCH  28  29
ATOM     29  C   UNL     1       9.039   8.954  48.172  1.00  0.00    -0.003 C 
ATOM     30  C   UNL     1       9.034   7.486  47.745  1.00  0.00     0.004 C 
ENDBRANCH  28  29
ENDBRANCH  27  28
ENDBRANCH  26  27
ENDBRANCH  25  26
ENDBRANCH  24  25
ENDBRANCH  23  24
ENDBRANCH  22  23
ENDBRANCH  21  22
ENDBRANCH  20  21
ENDBRANCH  19  20
ENDBRANCH  18  19
ENDBRANCH  17  18
ENDBRANCH   1  17
TORSDOF 26
ENDMDL
MODEL 4
REMARK VINA RESULT:    -3.564      1.733      4.440
REMARK INTER + INTRA:         -14.091
REMARK INTER:                  -9.508
REMARK INTRA:                  -4.583
REMARK UNBOUND:                -5.109
REMARK SMILES CCCCCCCCCCCCCCCCCCCCCCCCCCCC(=O)[O-]
REMARK SMILES IDX 15 1 16 2 17 3 18 4 19 5 20 6 21 7 22 8 23 9 24 10 25 11
REMARK SMILES IDX 26 12 27 13 28 14 29 15 30 16 14 17 13 18 12 19 11 20 10 21
REMARK SMILES IDX 9 22 8 23 7 24 6 25 5 26 4 27 3 28 2 29 1 30
REMARK H PARENT
REMARK Flexibility Score: inf
ROOT
ATOM      1  C   UNL     1       4.653   3.119  48.466  1.00  0.00     0.000 C 
ENDROOT
BRANCH   1   2
ATOM      2  C   UNL     1       6.168   3.002  48.204  1.00  0.00     0.000 C 
BRANCH   2   3
ATOM      3  C   UNL     1       6.731   1.566  48.229  1.00  0.00     0.000 C 
BRANCH   3   4
ATOM      4  C   UNL     1       6.053   0.620  49.238  1.00  0.00     0.000 C 
BRANCH   4   5
ATOM      5  C   UNL     1       6.771   0.575  50.594  1.00  0.00     0.000 C 
BRANCH   5   6
ATOM      6  C   UNL     1       5.864   1.109  51.712  1.00  0.00     0.000 C 
BRANCH   6   7
ATOM      7  C   UNL     1       6.448   2.347  52.409  1.00  0.00     0.000 C 
BRANCH   7   8
ATOM      8  C   UNL     1       7.553   3.023  51.578  1.00  0.00     0.000 C 
BRANCH   8   9
ATOM      9  C   UNL     1       7.839   4.467  52.024  1.00  0.00     0.000 C 
BRANCH   9  10
ATOM     10  C   UNL     1       6.607   5.394  52.079  1.00  0.00     0.000 C 
BRANCH  10  11
ATOM     11  C   UNL     1       6.383   6.216  50.792  1.00  0.00     0.000 C 
BRANCH  11  12
ATOM     12  C   UNL     1       7.670   6.358  49.959  1.00  0.00     0.006 C 
BRANCH  12  13
ATOM     13  C   UNL     1       7.383   6.432  48.453  1.00  0.00     0.053 C 
BRANCH  13  14
ATOM     14  C   UNL     1       7.627   7.803  47.901  1.00  0.00     0.041 C 
ATOM     15  O   UNL     1       6.772   8.714  48.063  1.00  0.00    -0.550 OA
ATOM     16  O   UNL     1       8.804   8.078  47.216  1.00  0.00    -0.550 OA
ENDBRANCH  13  14
ENDBRANCH  12  13
ENDBRANCH  11  12
ENDBRANCH  10  11
ENDBRANCH   9  10
ENDBRANCH   8   9
ENDBRANCH   7   8
ENDBRANCH   6   7
ENDBRANCH   5   6
ENDBRANCH   4   5
ENDBRANCH   3   4
ENDBRANCH   2   3
ENDBRANCH   1   2
BRANCH   1  17
ATOM     17  C   UNL     1       4.276   3.880  49.750  1.00  0.00     0.000 C 
BRANCH  17  18
ATOM     18  C   UNL     1       3.204   3.155  50.579  1.00  0.00     0.000 C 
BRANCH  18  19
ATOM     19  C   UNL     1       2.688   1.913  49.835  1.00  0.00     0.000 C 
BRANCH  19  20
ATOM     20  C   UNL     1       2.226   0.797  50.786  1.00  0.00     0.000 C 
BRANCH  20  21
ATOM     21  C   UNL     1       2.031  -0.548  50.066  1.00  0.00     0.000 C 
BRANCH  21  22
ATOM     22  C   UNL     1       3.208  -1.513  50.288  1.00  0.00    -0.000 C 
BRANCH  22  23
ATOM     23  C   UNL     1       3.701  -2.152  48.980  1.00  0.00    -0.000 C 
BRANCH  23  24
ATOM     24  C   UNL     1       4.919  -3.053  49.236  1.00  0.00    -0.000 C 
BRANCH  24  25
ATOM     25  C   UNL     1       5.163  -3.323  50.734  1.00  0.00    -0.000 C 
BRANCH  25  26
ATOM     26  C   UNL     1       5.093  -4.807  51.145  1.00  0.00    -0.000 C 
BRANCH  26  27
ATOM     27  C   UNL     1       5.348  -5.807  50.000  1.00  0.00    -0.000 C 
BRANCH  27  28
ATOM     28  C   UNL     1       6.816  -6.284  49.917  1.00  0.00    -0.000 C 
BRANCH  28  29
ATOM     29  C   UNL     1       7.305  -6.514  48.476  1.00  0.00    -0.003 C 
ATOM     30  C   UNL     1       6.356  -5.913  47.439  1.00  0.00     0.004 C 
ENDBRANCH  28  29
ENDBRANCH  27  28
ENDBRANCH  26  27
ENDBRANCH  25  26
ENDBRANCH  24  25
ENDBRANCH  23  24
ENDBRANCH  22  23
ENDBRANCH  21  22
ENDBRANCH  20  21
ENDBRANCH  19  20
ENDBRANCH  18  19
ENDBRANCH  17  18
ENDBRANCH   1  17
TORSDOF 26
ENDMDL
MODEL 5
REMARK VINA RESULT:    -3.560      3.276      8.074
REMARK INTER + INTRA:         -14.080
REMARK INTER:                  -9.388
REMARK INTRA:                  -4.692
REMARK UNBOUND:                -5.109
REMARK SMILES CCCCCCCCCCCCCCCCCCCCCCCCCCCC(=O)[O-]
REMARK SMILES IDX 15 1 16 2 17 3 18 4 19 5 20 6 21 7 22 8 23 9 24 10 25 11
REMARK SMILES IDX 26 12 27 13 28 14 29 15 30 16 14 17 13 18 12 19 11 20 10 21
REMARK SMILES IDX 9 22 8 23 7 24 6 25 5 26 4 27 3 28 2 29 1 30
REMARK H PARENT
REMARK Flexibility Score: inf
ROOT
ATOM      1  C   UNL     1       6.413   2.112  47.474  1.00  0.00     0.000 C 
ENDROOT
BRANCH   1   2
ATOM      2  C   UNL     1       7.066   1.239  48.564  1.00  0.00     0.000 C 
BRANCH   2   3
ATOM      3  C   UNL     1       6.112   0.747  49.672  1.00  0.00     0.000 C 
BRANCH   3   4
ATOM      4  C   UNL     1       6.388   1.328  51.072  1.00  0.00     0.000 C 
BRANCH   4   5
ATOM      5  C   UNL     1       5.157   1.294  51.989  1.00  0.00     0.000 C 
BRANCH   5   6
ATOM      6  C   UNL     1       4.760   2.712  52.424  1.00  0.00     0.000 C 
BRANCH   6   7
ATOM      7  C   UNL     1       4.025   3.487  51.321  1.00  0.00     0.000 C 
BRANCH   7   8
ATOM      8  C   UNL     1       2.964   2.630  50.608  1.00  0.00     0.000 C 
BRANCH   8   9
ATOM      9  C   UNL     1       1.783   2.257  51.520  1.00  0.00     0.000 C 
BRANCH   9  10
ATOM     10  C   UNL     1       1.069   0.937  51.164  1.00  0.00     0.000 C 
BRANCH  10  11
ATOM     11  C   UNL     1       1.463   0.363  49.787  1.00  0.00     0.000 C 
BRANCH  11  12
ATOM     12  C   UNL     1       1.736  -1.151  49.841  1.00  0.00     0.006 C 
BRANCH  12  13
ATOM     13  C   UNL     1       3.219  -1.467  50.075  1.00  0.00     0.053 C 
BRANCH  13  14
ATOM     14  C   UNL     1       3.757  -2.424  49.056  1.00  0.00     0.041 C 
ATOM     15  O   UNL     1       3.007  -2.874  48.148  1.00  0.00    -0.550 OA
ATOM     16  O   UNL     1       5.090  -2.815  49.102  1.00  0.00    -0.550 OA
ENDBRANCH  13  14
ENDBRANCH  12  13
ENDBRANCH  11  12
ENDBRANCH  10  11
ENDBRANCH   9  10
ENDBRANCH   8   9
ENDBRANCH   7   8
ENDBRANCH   6   7
ENDBRANCH   5   6
ENDBRANCH   4   5
ENDBRANCH   3   4
ENDBRANCH   2   3
ENDBRANCH   1   2
BRANCH   1  17
ATOM     17  C   UNL     1       5.758   3.406  47.987  1.00  0.00     0.000 C 
BRANCH  17  18
ATOM     18  C   UNL     1       6.780   4.516  48.279  1.00  0.00     0.000 C 
BRANCH  18  19
ATOM     19  C   UNL     1       6.440   5.237  49.593  1.00  0.00     0.000 C 
BRANCH  19  20
ATOM     20  C   UNL     1       7.445   4.935  50.716  1.00  0.00     0.000 C 
BRANCH  20  21
ATOM     21  C   UNL     1       7.230   5.823  51.955  1.00  0.00     0.000 C 
BRANCH  21  22
ATOM     22  C   UNL     1       7.527   7.306  51.676  1.00  0.00    -0.000 C 
BRANCH  22  23
ATOM     23  C   UNL     1       6.417   8.237  52.187  1.00  0.00    -0.000 C 
BRANCH  23  24
ATOM     24  C   UNL     1       5.028   7.656  51.875  1.00  0.00    -0.000 C 
BRANCH  24  25
ATOM     25  C   UNL     1       4.491   8.094  50.498  1.00  0.00    -0.000 C 
BRANCH  25  26
ATOM     26  C   UNL     1       4.942   9.496  50.042  1.00  0.00    -0.000 C 
BRANCH  26  27
ATOM     27  C   UNL     1       5.583   9.544  48.642  1.00  0.00    -0.000 C 
BRANCH  27  28
ATOM     28  C   UNL     1       7.097   9.227  48.646  1.00  0.00    -0.000 C 
BRANCH  28  29
ATOM     29  C   UNL     1       7.485   8.080  47.699  1.00  0.00    -0.003 C 
ATOM     30  C   UNL     1       8.964   7.710  47.811  1.00  0.00     0.004 C 
ENDBRANCH  28  29
ENDBRANCH  27  28
ENDBRANCH  26  27
ENDBRANCH  25  26
ENDBRANCH  24  25
ENDBRANCH  23  24
ENDBRANCH  22  23
ENDBRANCH  21  22
ENDBRANCH  20  21
ENDBRANCH  19  20
ENDBRANCH  18  19
ENDBRANCH  17  18
ENDBRANCH   1  17
TORSDOF 26
ENDMDL
MODEL 6
REMARK VINA RESULT:    -3.552      4.081      8.788
REMARK INTER + INTRA:         -14.059
REMARK INTER:                  -8.905
REMARK INTRA:                  -5.154
REMARK UNBOUND:                -5.109
REMARK SMILES CCCCCCCCCCCCCCCCCCCCCCCCCCCC(=O)[O-]
REMARK SMILES IDX 15 1 16 2 17 3 18 4 19 5 20 6 21 7 22 8 23 9 24 10 25 11
REMARK SMILES IDX 26 12 27 13 28 14 29 15 30 16 14 17 13 18 12 19 11 20 10 21
REMARK SMILES IDX 9 22 8 23 7 24 6 25 5 26 4 27 3 28 2 29 1 30
REMARK H PARENT
REMARK Flexibility Score: inf
ROOT
ATOM      1  C   UNL     1       4.877   3.122  48.522  1.00  0.00     0.000 C 
ENDROOT
BRANCH   1   2
ATOM      2  C   UNL     1       4.774   4.237  49.582  1.00  0.00     0.000 C 
BRANCH   2   3
ATOM      3  C   UNL     1       3.654   4.049  50.626  1.00  0.00     0.000 C 
BRANCH   3   4
ATOM      4  C   UNL     1       2.817   2.767  50.458  1.00  0.00     0.000 C 
BRANCH   4   5
ATOM      5  C   UNL     1       2.365   2.166  51.797  1.00  0.00     0.000 C 
BRANCH   5   6
ATOM      6  C   UNL     1       1.590   0.859  51.576  1.00  0.00     0.000 C 
BRANCH   6   7
ATOM      7  C   UNL     1       1.537   0.444  50.098  1.00  0.00     0.000 C 
BRANCH   7   8
ATOM      8  C   UNL     1       2.438  -0.766  49.795  1.00  0.00     0.000 C 
BRANCH   8   9
ATOM      9  C   UNL     1       2.855  -1.534  51.061  1.00  0.00     0.000 C 
BRANCH   9  10
ATOM     10  C   UNL     1       4.011  -2.537  50.870  1.00  0.00     0.000 C 
BRANCH  10  11
ATOM     11  C   UNL     1       4.467  -2.695  49.404  1.00  0.00     0.000 C 
BRANCH  11  12
ATOM     12  C   UNL     1       5.304  -3.970  49.188  1.00  0.00     0.006 C 
BRANCH  12  13
ATOM     13  C   UNL     1       4.463  -5.133  48.647  1.00  0.00     0.053 C 
BRANCH  13  14
ATOM     14  C   UNL     1       5.055  -5.725  47.404  1.00  0.00     0.041 C 
ATOM     15  O   UNL     1       4.310  -6.081  46.452  1.00  0.00    -0.550 OA
ATOM     16  O   UNL     1       6.432  -5.875  47.293  1.00  0.00    -0.550 OA
ENDBRANCH  13  14
ENDBRANCH  12  13
ENDBRANCH  11  12
ENDBRANCH  10  11
ENDBRANCH   9  10
ENDBRANCH   8   9
ENDBRANCH   7   8
ENDBRANCH   6   7
ENDBRANCH   5   6
ENDBRANCH   4   5
ENDBRANCH   3   4
ENDBRANCH   2   3
ENDBRANCH   1   2
BRANCH   1  17
ATOM     17  C   UNL     1       6.309   2.802  48.057  1.00  0.00     0.000 C 
BRANCH  17  18
ATOM     18  C   UNL     1       6.690   1.330  48.274  1.00  0.00     0.000 C 
BRANCH  18  19
ATOM     19  C   UNL     1       5.755   0.671  49.301  1.00  0.00     0.000 C 
BRANCH  19  20
ATOM     20  C   UNL     1       6.464   0.330  50.622  1.00  0.00     0.000 C 
BRANCH  20  21
ATOM     21  C   UNL     1       5.723   0.887  51.850  1.00  0.00     0.000 C 
BRANCH  21  22
ATOM     22  C   UNL     1       6.297   2.233  52.325  1.00  0.00    -0.000 C 
BRANCH  22  23
ATOM     23  C   UNL     1       7.586   2.619  51.584  1.00  0.00    -0.000 C 
BRANCH  23  24
ATOM     24  C   UNL     1       7.881   4.119  51.742  1.00  0.00    -0.000 C 
BRANCH  24  25
ATOM     25  C   UNL     1       6.780   4.869  52.518  1.00  0.00    -0.000 C 
BRANCH  25  26
ATOM     26  C   UNL     1       6.606   6.350  52.128  1.00  0.00    -0.000 C 
BRANCH  26  27
ATOM     27  C   UNL     1       7.563   6.844  51.026  1.00  0.00    -0.000 C 
BRANCH  27  28
ATOM     28  C   UNL     1       6.855   7.142  49.684  1.00  0.00    -0.000 C 
BRANCH  28  29
ATOM     29  C   UNL     1       7.520   6.461  48.476  1.00  0.00    -0.003 C 
ATOM     30  C   UNL     1       8.533   7.371  47.781  1.00  0.00     0.004 C 
ENDBRANCH  28  29
ENDBRANCH  27  28
ENDBRANCH  26  27
ENDBRANCH  25  26
ENDBRANCH  24  25
ENDBRANCH  23  24
ENDBRANCH  22  23
ENDBRANCH  21  22
ENDBRANCH  20  21
ENDBRANCH  19  20
ENDBRANCH  18  19
ENDBRANCH  17  18
ENDBRANCH   1  17
TORSDOF 26
ENDMDL
MODEL 7
REMARK VINA RESULT:    -3.551      3.424      8.006
REMARK INTER + INTRA:         -14.058
REMARK INTER:                  -8.951
REMARK INTRA:                  -5.108
REMARK UNBOUND:                -5.109
REMARK SMILES CCCCCCCCCCCCCCCCCCCCCCCCCCCC(=O)[O-]
REMARK SMILES IDX 15 1 16 2 17 3 18 4 19 5 20 6 21 7 22 8 23 9 24 10 25 11
REMARK SMILES IDX 26 12 27 13 28 14 29 15 30 16 14 17 13 18 12 19 11 20 10 21
REMARK SMILES IDX 9 22 8 23 7 24 6 25 5 26 4 27 3 28 2 29 1 30
REMARK H PARENT
REMARK Flexibility Score: inf
ROOT
ATOM      1  C   UNL     1       5.385   3.150  48.208  1.00  0.00     0.000 C 
ENDROOT
BRANCH   1   2
ATOM      2  C   UNL     1       6.673   3.996  48.248  1.00  0.00     0.000 C 
BRANCH   2   3
ATOM      3  C   UNL     1       6.585   5.289  49.086  1.00  0.00     0.000 C 
BRANCH   3   4
ATOM      4  C   UNL     1       7.391   5.268  50.398  1.00  0.00     0.000 C 
BRANCH   4   5
ATOM      5  C   UNL     1       6.506   5.388  51.647  1.00  0.00     0.000 C 
BRANCH   5   6
ATOM      6  C   UNL     1       6.494   4.071  52.437  1.00  0.00     0.000 C 
BRANCH   6   7
ATOM      7  C   UNL     1       7.302   2.960  51.749  1.00  0.00     0.000 C 
BRANCH   7   8
ATOM      8  C   UNL     1       6.590   1.597  51.802  1.00  0.00     0.000 C 
BRANCH   8   9
ATOM      9  C   UNL     1       6.757   0.784  50.506  1.00  0.00     0.000 C 
BRANCH   9  10
ATOM     10  C   UNL     1       5.613  -0.202  50.197  1.00  0.00     0.000 C 
BRANCH  10  11
ATOM     11  C   UNL     1       5.336  -1.216  51.328  1.00  0.00     0.000 C 
BRANCH  11  12
ATOM     12  C   UNL     1       4.156  -2.149  50.999  1.00  0.00     0.006 C 
BRANCH  12  13
ATOM     13  C   UNL     1       2.819  -1.399  50.942  1.00  0.00     0.053 C 
BRANCH  13  14
ATOM     14  C   UNL     1       2.231  -1.404  49.564  1.00  0.00     0.041 C 
ATOM     15  O   UNL     1       1.330  -0.578  49.254  1.00  0.00    -0.550 OA
ATOM     16  O   UNL     1       2.683  -2.314  48.616  1.00  0.00    -0.550 OA
ENDBRANCH  13  14
ENDBRANCH  12  13
ENDBRANCH  11  12
ENDBRANCH  10  11
ENDBRANCH   9  10
ENDBRANCH   8   9
ENDBRANCH   7   8
ENDBRANCH   6   7
ENDBRANCH   5   6
ENDBRANCH   4   5
ENDBRANCH   3   4
ENDBRANCH   2   3
ENDBRANCH   1   2
BRANCH   1  17
ATOM     17  C   UNL     1       4.350   3.495  49.293  1.00  0.00     0.000 C 
BRANCH  17  18
ATOM     18  C   UNL     1       3.442   2.309  49.648  1.00  0.00     0.000 C 
BRANCH  18  19
ATOM     19  C   UNL     1       2.854   2.476  51.059  1.00  0.00     0.000 C 
BRANCH  19  20
ATOM     20  C   UNL     1       2.958   3.917  51.582  1.00  0.00     0.000 C 
BRANCH  20  21
ATOM     21  C   UNL     1       1.580   4.572  51.785  1.00  0.00     0.000 C 
BRANCH  21  22
ATOM     22  C   UNL     1       1.583   6.071  51.441  1.00  0.00    -0.000 C 
BRANCH  22  23
ATOM     23  C   UNL     1       2.793   6.478  50.586  1.00  0.00    -0.000 C 
BRANCH  23  24
ATOM     24  C   UNL     1       3.303   7.872  50.986  1.00  0.00    -0.000 C 
BRANCH  24  25
ATOM     25  C   UNL     1       4.687   8.197  50.392  1.00  0.00    -0.000 C 
BRANCH  25  26
ATOM     26  C   UNL     1       4.663   9.123  49.160  1.00  0.00    -0.000 C 
BRANCH  26  27
ATOM     27  C   UNL     1       6.034   9.349  48.494  1.00  0.00    -0.000 C 
BRANCH  27  28
ATOM     28  C   UNL     1       7.228   8.993  49.409  1.00  0.00    -0.000 C 
BRANCH  28  29
ATOM     29  C   UNL     1       8.550   8.804  48.645  1.00  0.00    -0.003 C 
ATOM     30  C   UNL     1       8.383   7.926  47.404  1.00  0.00     0.004 C 
ENDBRANCH  28  29
ENDBRANCH  27  28
ENDBRANCH  26  27
ENDBRANCH  25  26
ENDBRANCH  24  25
ENDBRANCH  23  24
ENDBRANCH  22  23
ENDBRANCH  21  22
ENDBRANCH  20  21
ENDBRANCH  19  20
ENDBRANCH  18  19
ENDBRANCH  17  18
ENDBRANCH   1  17
TORSDOF 26
ENDMDL
MODEL 8
REMARK VINA RESULT:    -3.535      3.704      8.212
REMARK INTER + INTRA:         -14.018
REMARK INTER:                  -9.047
REMARK INTRA:                  -4.972
REMARK UNBOUND:                -5.109
REMARK SMILES CCCCCCCCCCCCCCCCCCCCCCCCCCCC(=O)[O-]
REMARK SMILES IDX 15 1 16 2 17 3 18 4 19 5 20 6 21 7 22 8 23 9 24 10 25 11
REMARK SMILES IDX 26 12 27 13 28 14 29 15 30 16 14 17 13 18 12 19 11 20 10 21
REMARK SMILES IDX 9 22 8 23 7 24 6 25 5 26 4 27 3 28 2 29 1 30
REMARK H PARENT
REMARK Flexibility Score: inf
ROOT
ATOM      1  C   UNL     1       6.070   0.126  48.969  1.00  0.00     0.000 C 
ENDROOT
BRANCH   1   2
ATOM      2  C   UNL     1       7.068   1.234  48.575  1.00  0.00     0.000 C 
BRANCH   2   3
ATOM      3  C   UNL     1       6.485   2.364  47.702  1.00  0.00     0.000 C 
BRANCH   3   4
ATOM      4  C   UNL     1       5.803   3.503  48.483  1.00  0.00     0.000 C 
BRANCH   4   5
ATOM      5  C   UNL     1       4.410   3.122  49.004  1.00  0.00     0.000 C 
BRANCH   5   6
ATOM      6  C   UNL     1       4.071   3.904  50.282  1.00  0.00     0.000 C 
BRANCH   6   7
ATOM      7  C   UNL     1       2.934   3.258  51.088  1.00  0.00     0.000 C 
BRANCH   7   8
ATOM      8  C   UNL     1       2.600   1.838  50.598  1.00  0.00     0.000 C 
BRANCH   8   9
ATOM      9  C   UNL     1       2.257   0.873  51.746  1.00  0.00     0.000 C 
BRANCH   9  10
ATOM     10  C   UNL     1       1.807  -0.535  51.309  1.00  0.00     0.000 C 
BRANCH  10  11
ATOM     11  C   UNL     1       2.764  -1.664  51.750  1.00  0.00     0.000 C 
BRANCH  11  12
ATOM     12  C   UNL     1       3.220  -2.538  50.568  1.00  0.00     0.006 C 
BRANCH  12  13
ATOM     13  C   UNL     1       2.823  -1.937  49.213  1.00  0.00     0.053 C 
BRANCH  13  14
ATOM     14  C   UNL     1       2.856  -2.956  48.115  1.00  0.00     0.041 C 
ATOM     15  O   UNL     1       3.434  -4.062  48.292  1.00  0.00    -0.550 OA
ATOM     16  O   UNL     1       2.239  -2.690  46.899  1.00  0.00    -0.550 OA
ENDBRANCH  13  14
ENDBRANCH  12  13
ENDBRANCH  11  12
ENDBRANCH  10  11
ENDBRANCH   9  10
ENDBRANCH   8   9
ENDBRANCH   7   8
ENDBRANCH   6   7
ENDBRANCH   5   6
ENDBRANCH   4   5
ENDBRANCH   3   4
ENDBRANCH   2   3
ENDBRANCH   1   2
BRANCH   1  17
ATOM     17  C   UNL     1       5.769   0.031  50.475  1.00  0.00     0.000 C 
BRANCH  17  18
ATOM     18  C   UNL     1       6.764   0.828  51.332  1.00  0.00     0.000 C 
BRANCH  18  19
ATOM     19  C   UNL     1       6.039   1.543  52.484  1.00  0.00     0.000 C 
BRANCH  19  20
ATOM     20  C   UNL     1       6.622   2.933  52.784  1.00  0.00     0.000 C 
BRANCH  20  21
ATOM     21  C   UNL     1       7.646   3.385  51.728  1.00  0.00     0.000 C 
BRANCH  21  22
ATOM     22  C   UNL     1       7.487   4.866  51.347  1.00  0.00    -0.000 C 
BRANCH  22  23
ATOM     23  C   UNL     1       6.703   5.665  52.400  1.00  0.00    -0.000 C 
BRANCH  23  24
ATOM     24  C   UNL     1       6.236   7.014  51.830  1.00  0.00    -0.000 C 
BRANCH  24  25
ATOM     25  C   UNL     1       6.083   6.996  50.296  1.00  0.00    -0.000 C 
BRANCH  25  26
ATOM     26  C   UNL     1       6.260   8.366  49.612  1.00  0.00    -0.000 C 
BRANCH  26  27
ATOM     27  C   UNL     1       6.704   8.298  48.137  1.00  0.00    -0.000 C 
BRANCH  27  28
ATOM     28  C   UNL     1       7.624   7.095  47.826  1.00  0.00    -0.000 C 
BRANCH  28  29
ATOM     29  C   UNL     1       9.122   7.438  47.889  1.00  0.00    -0.003 C 
ATOM     30  C   UNL     1       9.373   8.946  47.905  1.00  0.00     0.004 C 
ENDBRANCH  28  29
ENDBRANCH  27  28
ENDBRANCH  26  27
ENDBRANCH  25  26
ENDBRANCH  24  25
ENDBRANCH  23  24
ENDBRANCH  22  23
ENDBRANCH  21  22
ENDBRANCH  20  21
ENDBRANCH  19  20
ENDBRANCH  18  19
ENDBRANCH  17  18
ENDBRANCH   1  17
TORSDOF 26
ENDMDL
MODEL 9
REMARK VINA RESULT:    -3.491      3.682      8.044
REMARK INTER + INTRA:         -13.906
REMARK INTER:                  -8.816
REMARK INTRA:                  -5.091
REMARK UNBOUND:                -5.109
REMARK SMILES CCCCCCCCCCCCCCCCCCCCCCCCCCCC(=O)[O-]
REMARK SMILES IDX 15 1 16 2 17 3 18 4 19 5 20 6 21 7 22 8 23 9 24 10 25 11
REMARK SMILES IDX 26 12 27 13 28 14 29 15 30 16 14 17 13 18 12 19 11 20 10 21
REMARK SMILES IDX 9 22 8 23 7 24 6 25 5 26 4 27 3 28 2 29 1 30
REMARK H PARENT
REMARK Flexibility Score: inf
ROOT
ATOM      1  C   UNL     1       6.379   1.953  47.866  1.00  0.00     0.000 C 
ENDROOT
BRANCH   1   2
ATOM      2  C   UNL     1       5.970   3.337  48.406  1.00  0.00     0.000 C 
BRANCH   2   3
ATOM      3  C   UNL     1       4.626   3.377  49.164  1.00  0.00     0.000 C 
BRANCH   3   4
ATOM      4  C   UNL     1       4.461   4.565  50.130  1.00  0.00     0.000 C 
BRANCH   4   5
ATOM      5  C   UNL     1       3.744   4.184  51.433  1.00  0.00     0.000 C 
BRANCH   5   6
ATOM      6  C   UNL     1       2.221   4.158  51.232  1.00  0.00     0.000 C 
BRANCH   6   7
ATOM      7  C   UNL     1       1.546   2.995  51.974  1.00  0.00     0.000 C 
BRANCH   7   8
ATOM      8  C   UNL     1       2.489   1.794  52.166  1.00  0.00     0.000 C 
BRANCH   8   9
ATOM      9  C   UNL     1       1.990   0.522  51.458  1.00  0.00     0.000 C 
BRANCH   9  10
ATOM     10  C   UNL     1       1.763   0.662  49.939  1.00  0.00     0.000 C 
BRANCH  10  11
ATOM     11  C   UNL     1       1.393  -0.661  49.236  1.00  0.00     0.000 C 
BRANCH  11  12
ATOM     12  C   UNL     1       2.185  -1.859  49.792  1.00  0.00     0.006 C 
BRANCH  12  13
ATOM     13  C   UNL     1       3.034  -2.546  48.715  1.00  0.00     0.053 C 
BRANCH  13  14
ATOM     14  C   UNL     1       3.926  -3.602  49.292  1.00  0.00     0.041 C 
ATOM     15  O   UNL     1       4.067  -4.707  48.701  1.00  0.00    -0.550 OA
ATOM     16  O   UNL     1       4.610  -3.365  50.478  1.00  0.00    -0.550 OA
ENDBRANCH  13  14
ENDBRANCH  12  13
ENDBRANCH  11  12
ENDBRANCH  10  11
ENDBRANCH   9  10
ENDBRANCH   8   9
ENDBRANCH   7   8
ENDBRANCH   6   7
ENDBRANCH   5   6
ENDBRANCH   4   5
ENDBRANCH   3   4
ENDBRANCH   2   3
ENDBRANCH   1   2
BRANCH   1  17
ATOM     17  C   UNL     1       6.799   0.936  48.942  1.00  0.00     0.000 C 
BRANCH  17  18
ATOM     18  C   UNL     1       5.658  -0.011  49.345  1.00  0.00     0.000 C 
BRANCH  18  19
ATOM     19  C   UNL     1       5.489  -0.042  50.872  1.00  0.00     0.000 C 
BRANCH  19  20
ATOM     20  C   UNL     1       6.620   0.690  51.613  1.00  0.00     0.000 C 
BRANCH  20  21
ATOM     21  C   UNL     1       6.096   1.596  52.741  1.00  0.00     0.000 C 
BRANCH  21  22
ATOM     22  C   UNL     1       6.897   2.903  52.869  1.00  0.00    -0.000 C 
BRANCH  22  23
ATOM     23  C   UNL     1       7.799   3.163  51.652  1.00  0.00    -0.000 C 
BRANCH  23  24
ATOM     24  C   UNL     1       7.839   4.661  51.310  1.00  0.00    -0.000 C 
BRANCH  24  25
ATOM     25  C   UNL     1       7.305   5.551  52.449  1.00  0.00    -0.000 C 
BRANCH  25  26
ATOM     26  C   UNL     1       6.812   6.943  52.006  1.00  0.00    -0.000 C 
BRANCH  26  27
ATOM     27  C   UNL     1       7.349   7.414  50.641  1.00  0.00    -0.000 C 
BRANCH  27  28
ATOM     28  C   UNL     1       6.235   7.824  49.649  1.00  0.00    -0.000 C 
BRANCH  28  29
ATOM     29  C   UNL     1       6.729   8.742  48.518  1.00  0.00    -0.003 C 
ATOM     30  C   UNL     1       5.582   9.481  47.828  1.00  0.00     0.004 C 
ENDBRANCH  28  29
ENDBRANCH  27  28
ENDBRANCH  26  27
ENDBRANCH  25  26
ENDBRANCH  24  25
ENDBRANCH  23  24
ENDBRANCH  22  23
ENDBRANCH  21  22
ENDBRANCH  20  21
ENDBRANCH  19  20
ENDBRANCH  18  19
ENDBRANCH  17  18
ENDBRANCH   1  17
TORSDOF 26
ENDMDL
