MODEL 1
REMARK VINA RESULT:    -4.622      0.000      0.000
REMARK INTER + INTRA:         -10.521
REMARK INTER:                  -8.674
REMARK INTRA:                  -1.846
REMARK UNBOUND:                -1.846
REMARK SMILES CCCCCCCCC=CCCCCCCCC(=O)[O-]
REMARK SMILES IDX 10 1 9 2 11 3 12 4 13 5 14 6 15 7 16 8 17 9 18 10 19 11
REMARK SMILES IDX 20 12 8 13 7 14 6 15 5 16 4 17 3 18 2 19 1 20
REMARK H PARENT
REMARK Flexibility Score: inf
ROOT
ATOM      1  C   UNL     1      35.572   6.588   4.082  1.00  0.00    -0.031 C 
ATOM      2  C   UNL     1      36.808   6.902   3.651  1.00  0.00    -0.031 C 
ENDROOT
BRANCH   1   3
ATOM      3  C   UNL     1      35.212   6.231   5.506  1.00  0.00     0.027 C 
BRANCH   3   4
ATOM      4  C   UNL     1      34.414   7.355   6.179  1.00  0.00     0.004 C 
BRANCH   4   5
ATOM      5  C   UNL     1      35.331   8.403   6.833  1.00  0.00     0.000 C 
BRANCH   5   6
ATOM      6  C   UNL     1      35.109   9.816   6.272  1.00  0.00     0.000 C 
BRANCH   6   7
ATOM      7  C   UNL     1      36.153  10.205   5.214  1.00  0.00     0.000 C 
BRANCH   7   8
ATOM      8  C   UNL     1      35.488  10.906   4.021  1.00  0.00     0.006 C 
BRANCH   8   9
ATOM      9  C   UNL     1      34.293  10.114   3.473  1.00  0.00     0.053 C 
BRANCH   9  10
ATOM     10  C   UNL     1      33.435  10.954   2.577  1.00  0.00     0.041 C 
ATOM     11  O   UNL     1      33.945  11.882   1.895  1.00  0.00    -0.550 OA
ATOM     12  O   UNL     1      32.067  10.723   2.512  1.00  0.00    -0.550 OA
ENDBRANCH   9  10
ENDBRANCH   8   9
ENDBRANCH   7   8
ENDBRANCH   6   7
ENDBRANCH   5   6
ENDBRANCH   4   5
ENDBRANCH   3   4
ENDBRANCH   1   3
BRANCH   2  13
ATOM     13  C   UNL     1      38.050   6.893   4.509  1.00  0.00     0.027 C 
BRANCH  13  14
ATOM     14  C   UNL     1      38.824   8.217   4.418  1.00  0.00     0.004 C 
BRANCH  14  15
ATOM     15  C   UNL     1      40.285   8.002   3.996  1.00  0.00     0.000 C 
BRANCH  15  16
ATOM     16  C   UNL     1      40.368   7.278   2.646  1.00  0.00     0.000 C 
BRANCH  16  17
ATOM     17  C   UNL     1      41.128   8.125   1.614  1.00  0.00    -0.000 C 
BRANCH  17  18
ATOM     18  C   UNL     1      41.044   7.545   0.194  1.00  0.00    -0.000 C 
BRANCH  18  19
ATOM     19  C   UNL     1      41.646   8.482  -0.863  1.00  0.00    -0.003 C 
ATOM     20  C   UNL     1      41.082   9.894  -0.730  1.00  0.00     0.004 C 
ENDBRANCH  18  19
ENDBRANCH  17  18
ENDBRANCH  16  17
ENDBRANCH  15  16
ENDBRANCH  14  15
ENDBRANCH  13  14
ENDBRANCH   2  13
TORSDOF 15
ENDMDL
MODEL 2
REMARK VINA RESULT:    -4.532      1.631      2.781
REMARK INTER + INTRA:         -10.353
REMARK INTER:                  -8.647
REMARK INTRA:                  -1.706
REMARK UNBOUND:                -1.846
REMARK SMILES CCCCCCCCC=CCCCCCCCC(=O)[O-]
REMARK SMILES IDX 10 1 9 2 11 3 12 4 13 5 14 6 15 7 16 8 17 9 18 10 19 11
REMARK SMILES IDX 20 12 8 13 7 14 6 15 5 16 4 17 3 18 2 19 1 20
REMARK H PARENT
REMARK Flexibility Score: inf
ROOT
ATOM      1  C   UNL     1      39.316   7.249   3.559  1.00  0.00    -0.031 C 
ATOM      2  C   UNL     1      40.244   8.219   3.462  1.00  0.00    -0.031 C 
ENDROOT
BRANCH   1   3
ATOM      3  C   UNL     1      38.046   7.340   4.373  1.00  0.00     0.027 C 
BRANCH   3   4
ATOM      4  C   UNL     1      36.832   6.857   3.568  1.00  0.00     0.004 C 
BRANCH   4   5
ATOM      5  C   UNL     1      35.517   7.466   4.085  1.00  0.00     0.000 C 
BRANCH   5   6
ATOM      6  C   UNL     1      35.723   8.360   5.318  1.00  0.00     0.000 C 
BRANCH   6   7
ATOM      7  C   UNL     1      35.044   9.731   5.177  1.00  0.00     0.000 C 
BRANCH   7   8
ATOM      8  C   UNL     1      35.446  10.407   3.857  1.00  0.00     0.006 C 
BRANCH   8   9
ATOM      9  C   UNL     1      34.325  11.287   3.290  1.00  0.00     0.053 C 
BRANCH   9  10
ATOM     10  C   UNL     1      33.460  10.533   2.327  1.00  0.00     0.041 C 
ATOM     11  O   UNL     1      33.971   9.702   1.531  1.00  0.00    -0.550 OA
ATOM     12  O   UNL     1      32.091  10.766   2.294  1.00  0.00    -0.550 OA
ENDBRANCH   9  10
ENDBRANCH   8   9
ENDBRANCH   7   8
ENDBRANCH   6   7
ENDBRANCH   5   6
ENDBRANCH   4   5
ENDBRANCH   3   4
ENDBRANCH   1   3
BRANCH   2  13
ATOM     13  C   UNL     1      40.198   9.536   4.196  1.00  0.00     0.027 C 
BRANCH  13  14
ATOM     14  C   UNL     1      41.135  10.581   3.568  1.00  0.00     0.004 C 
BRANCH  14  15
ATOM     15  C   UNL     1      40.357  11.753   2.951  1.00  0.00     0.000 C 
BRANCH  15  16
ATOM     16  C   UNL     1      40.629  11.863   1.445  1.00  0.00     0.000 C 
BRANCH  16  17
ATOM     17  C   UNL     1      41.564  10.739   0.973  1.00  0.00    -0.000 C 
BRANCH  17  18
ATOM     18  C   UNL     1      41.296  10.318  -0.480  1.00  0.00    -0.000 C 
BRANCH  18  19
ATOM     19  C   UNL     1      40.868   8.848  -0.599  1.00  0.00    -0.003 C 
ATOM     20  C   UNL     1      41.823   7.934   0.167  1.00  0.00     0.004 C 
ENDBRANCH  18  19
ENDBRANCH  17  18
ENDBRANCH  16  17
ENDBRANCH  15  16
ENDBRANCH  14  15
ENDBRANCH  13  14
ENDBRANCH   2  13
TORSDOF 15
ENDMDL
MODEL 3
REMARK VINA RESULT:    -4.504     12.535     14.670
REMARK INTER + INTRA:         -10.300
REMARK INTER:                  -7.713
REMARK INTRA:                  -2.587
REMARK UNBOUND:                -1.846
REMARK SMILES CCCCCCCCC=CCCCCCCCC(=O)[O-]
REMARK SMILES IDX 10 1 9 2 11 3 12 4 13 5 14 6 15 7 16 8 17 9 18 10 19 11
REMARK SMILES IDX 20 12 8 13 7 14 6 15 5 16 4 17 3 18 2 19 1 20
REMARK H PARENT
REMARK Flexibility Score: inf
ROOT
ATOM      1  C   UNL     1      39.807   6.006 -10.781  1.00  0.00    -0.031 C 
ATOM      2  C   UNL     1      40.391   5.197 -11.684  1.00  0.00    -0.031 C 
ENDROOT
BRANCH   1   3
ATOM      3  C   UNL     1      40.492   6.595  -9.570  1.00  0.00     0.027 C 
BRANCH   3   4
ATOM      4  C   UNL     1      40.324   5.694  -8.340  1.00  0.00     0.004 C 
BRANCH   4   5
ATOM      5  C   UNL     1      38.849   5.537  -7.935  1.00  0.00     0.000 C 
BRANCH   5   6
ATOM      6  C   UNL     1      38.475   4.080  -7.615  1.00  0.00     0.000 C 
BRANCH   6   7
ATOM      7  C   UNL     1      39.189   3.071  -8.527  1.00  0.00     0.000 C 
BRANCH   7   8
ATOM      8  C   UNL     1      38.172   2.226  -9.309  1.00  0.00     0.006 C 
BRANCH   8   9
ATOM      9  C   UNL     1      38.029   2.690 -10.765  1.00  0.00     0.053 C 
BRANCH   9  10
ATOM     10  C   UNL     1      36.765   3.465 -10.979  1.00  0.00     0.041 C 
ATOM     11  O   UNL     1      36.748   4.449 -11.764  1.00  0.00    -0.550 OA
ATOM     12  O   UNL     1      35.610   3.111 -10.293  1.00  0.00    -0.550 OA
ENDBRANCH   9  10
ENDBRANCH   8   9
ENDBRANCH   7   8
ENDBRANCH   6   7
ENDBRANCH   5   6
ENDBRANCH   4   5
ENDBRANCH   3   4
ENDBRANCH   1   3
BRANCH   2  13
ATOM     13  C   UNL     1      41.813   4.698 -11.604  1.00  0.00     0.027 C 
BRANCH  13  14
ATOM     14  C   UNL     1      41.914   3.356 -10.862  1.00  0.00     0.004 C 
BRANCH  14  15
ATOM     15  C   UNL     1      43.356   3.038 -10.441  1.00  0.00     0.000 C 
BRANCH  15  16
ATOM     16  C   UNL     1      43.701   3.711  -9.106  1.00  0.00     0.000 C 
BRANCH  16  17
ATOM     17  C   UNL     1      42.894   3.091  -7.955  1.00  0.00    -0.000 C 
BRANCH  17  18
ATOM     18  C   UNL     1      43.651   1.958  -7.245  1.00  0.00    -0.000 C 
BRANCH  18  19
ATOM     19  C   UNL     1      43.398   1.938  -5.730  1.00  0.00    -0.003 C 
ATOM     20  C   UNL     1      41.903   1.934  -5.423  1.00  0.00     0.004 C 
ENDBRANCH  18  19
ENDBRANCH  17  18
ENDBRANCH  16  17
ENDBRANCH  15  16
ENDBRANCH  14  15
ENDBRANCH  13  14
ENDBRANCH   2  13
TORSDOF 15
ENDMDL
MODEL 4
REMARK VINA RESULT:    -4.479      2.836      6.228
REMARK INTER + INTRA:         -10.253
REMARK INTER:                  -8.315
REMARK INTRA:                  -1.938
REMARK UNBOUND:                -1.846
REMARK SMILES CCCCCCCCC=CCCCCCCCC(=O)[O-]
REMARK SMILES IDX 10 1 9 2 11 3 12 4 13 5 14 6 15 7 16 8 17 9 18 10 19 11
REMARK SMILES IDX 20 12 8 13 7 14 6 15 5 16 4 17 3 18 2 19 1 20
REMARK H PARENT
REMARK Flexibility Score: inf
ROOT
ATOM      1  C   UNL     1      35.345   7.018   3.942  1.00  0.00    -0.031 C 
ATOM      2  C   UNL     1      34.410   7.582   4.730  1.00  0.00    -0.031 C 
ENDROOT
BRANCH   1   3
ATOM      3  C   UNL     1      36.455   6.112   4.421  1.00  0.00     0.027 C 
BRANCH   3   4
ATOM      4  C   UNL     1      37.688   6.918   4.848  1.00  0.00     0.004 C 
BRANCH   4   5
ATOM      5  C   UNL     1      38.587   7.277   3.652  1.00  0.00     0.000 C 
BRANCH   5   6
ATOM      6  C   UNL     1      39.871   8.009   4.076  1.00  0.00     0.000 C 
BRANCH   6   7
ATOM      7  C   UNL     1      40.799   8.311   2.890  1.00  0.00     0.000 C 
BRANCH   7   8
ATOM      8  C   UNL     1      40.523   7.353   1.721  1.00  0.00     0.006 C 
BRANCH   8   9
ATOM      9  C   UNL     1      41.509   7.549   0.562  1.00  0.00     0.053 C 
BRANCH   9  10
ATOM     10  C   UNL     1      41.064   8.637  -0.367  1.00  0.00     0.041 C 
ATOM     11  O   UNL     1      41.062   9.837   0.014  1.00  0.00    -0.550 OA
ATOM     12  O   UNL     1      40.630   8.320  -1.648  1.00  0.00    -0.550 OA
ENDBRANCH   9  10
ENDBRANCH   8   9
ENDBRANCH   7   8
ENDBRANCH   6   7
ENDBRANCH   5   6
ENDBRANCH   4   5
ENDBRANCH   3   4
ENDBRANCH   1   3
BRANCH   2  13
ATOM     13  C   UNL     1      34.352   7.448   6.232  1.00  0.00     0.027 C 
BRANCH  13  14
ATOM     14  C   UNL     1      35.244   8.481   6.939  1.00  0.00     0.004 C 
BRANCH  14  15
ATOM     15  C   UNL     1      35.059   9.892   6.360  1.00  0.00     0.000 C 
BRANCH  15  16
ATOM     16  C   UNL     1      36.382  10.438   5.807  1.00  0.00     0.000 C 
BRANCH  16  17
ATOM     17  C   UNL     1      36.284  10.687   4.295  1.00  0.00    -0.000 C 
BRANCH  17  18
ATOM     18  C   UNL     1      34.849  10.993   3.837  1.00  0.00    -0.000 C 
BRANCH  18  19
ATOM     19  C   UNL     1      34.724  11.088   2.310  1.00  0.00    -0.003 C 
ATOM     20  C   UNL     1      33.891   9.935   1.754  1.00  0.00     0.004 C 
ENDBRANCH  18  19
ENDBRANCH  17  18
ENDBRANCH  16  17
ENDBRANCH  15  16
ENDBRANCH  14  15
ENDBRANCH  13  14
ENDBRANCH   2  13
TORSDOF 15
ENDMDL
MODEL 5
REMARK VINA RESULT:    -4.440      3.979      6.294
REMARK INTER + INTRA:         -10.180
REMARK INTER:                  -7.711
REMARK INTRA:                  -2.469
REMARK UNBOUND:                -1.846
REMARK SMILES CCCCCCCCC=CCCCCCCCC(=O)[O-]
REMARK SMILES IDX 10 1 9 2 11 3 12 4 13 5 14 6 15 7 16 8 17 9 18 10 19 11
REMARK SMILES IDX 20 12 8 13 7 14 6 15 5 16 4 17 3 18 2 19 1 20
REMARK H PARENT
REMARK Flexibility Score: inf
ROOT
ATOM      1  C   UNL     1      38.220   9.029   4.783  1.00  0.00    -0.031 C 
ATOM      2  C   UNL     1      37.916  10.003   5.661  1.00  0.00    -0.031 C 
ENDROOT
BRANCH   1   3
ATOM      3  C   UNL     1      38.089   7.547   5.048  1.00  0.00     0.027 C 
BRANCH   3   4
ATOM      4  C   UNL     1      37.263   6.855   3.956  1.00  0.00     0.004 C 
BRANCH   4   5
ATOM      5  C   UNL     1      35.970   7.624   3.635  1.00  0.00     0.000 C 
BRANCH   5   6
ATOM      6  C   UNL     1      34.748   7.063   4.378  1.00  0.00     0.000 C 
BRANCH   6   7
ATOM      7  C   UNL     1      34.515   7.744   5.735  1.00  0.00     0.000 C 
BRANCH   7   8
ATOM      8  C   UNL     1      34.219   6.703   6.826  1.00  0.00     0.006 C 
BRANCH   8   9
ATOM      9  C   UNL     1      34.740   5.309   6.455  1.00  0.00     0.053 C 
BRANCH   9  10
ATOM     10  C   UNL     1      35.885   4.893   7.327  1.00  0.00     0.041 C 
ATOM     11  O   UNL     1      35.966   3.709   7.748  1.00  0.00    -0.550 OA
ATOM     12  O   UNL     1      36.851   5.822   7.693  1.00  0.00    -0.550 OA
ENDBRANCH   9  10
ENDBRANCH   8   9
ENDBRANCH   7   8
ENDBRANCH   6   7
ENDBRANCH   5   6
ENDBRANCH   4   5
ENDBRANCH   3   4
ENDBRANCH   1   3
BRANCH   2  13
ATOM     13  C   UNL     1      37.449   9.773   7.078  1.00  0.00     0.027 C 
BRANCH  13  14
ATOM     14  C   UNL     1      36.514  10.892   7.566  1.00  0.00     0.004 C 
BRANCH  14  15
ATOM     15  C   UNL     1      35.190  10.915   6.789  1.00  0.00     0.000 C 
BRANCH  15  16
ATOM     16  C   UNL     1      35.124  12.125   5.848  1.00  0.00     0.000 C 
BRANCH  16  17
ATOM     17  C   UNL     1      34.253  11.818   4.620  1.00  0.00    -0.000 C 
BRANCH  17  18
ATOM     18  C   UNL     1      35.021  11.062   3.525  1.00  0.00    -0.000 C 
BRANCH  18  19
ATOM     19  C   UNL     1      34.443  11.307   2.123  1.00  0.00    -0.003 C 
ATOM     20  C   UNL     1      33.377  10.269   1.780  1.00  0.00     0.004 C 
ENDBRANCH  18  19
ENDBRANCH  17  18
ENDBRANCH  16  17
ENDBRANCH  15  16
ENDBRANCH  14  15
ENDBRANCH  13  14
ENDBRANCH   2  13
TORSDOF 15
ENDMDL
MODEL 6
REMARK VINA RESULT:    -4.438      1.800      3.817
REMARK INTER + INTRA:         -10.176
REMARK INTER:                  -8.328
REMARK INTRA:                  -1.848
REMARK UNBOUND:                -1.846
REMARK SMILES CCCCCCCCC=CCCCCCCCC(=O)[O-]
REMARK SMILES IDX 10 1 9 2 11 3 12 4 13 5 14 6 15 7 16 8 17 9 18 10 19 11
REMARK SMILES IDX 20 12 8 13 7 14 6 15 5 16 4 17 3 18 2 19 1 20
REMARK H PARENT
REMARK Flexibility Score: inf
ROOT
ATOM      1  C   UNL     1      40.124   9.733   4.494  1.00  0.00    -0.031 C 
ATOM      2  C   UNL     1      40.829  10.513   3.653  1.00  0.00    -0.031 C 
ENDROOT
BRANCH   1   3
ATOM      3  C   UNL     1      38.657   9.901   4.811  1.00  0.00     0.027 C 
BRANCH   3   4
ATOM      4  C   UNL     1      38.260   9.100   6.059  1.00  0.00     0.004 C 
BRANCH   4   5
ATOM      5  C   UNL     1      38.580   7.603   5.910  1.00  0.00     0.000 C 
BRANCH   5   6
ATOM      6  C   UNL     1      37.739   6.924   4.817  1.00  0.00     0.000 C 
BRANCH   6   7
ATOM      7  C   UNL     1      36.251   7.295   4.898  1.00  0.00     0.000 C 
BRANCH   7   8
ATOM      8  C   UNL     1      35.715   7.713   3.521  1.00  0.00     0.006 C 
BRANCH   8   9
ATOM      9  C   UNL     1      34.424   8.535   3.624  1.00  0.00     0.053 C 
BRANCH   9  10
ATOM     10  C   UNL     1      34.528   9.830   2.880  1.00  0.00     0.041 C 
ATOM     11  O   UNL     1      35.177  10.793   3.367  1.00  0.00    -0.550 OA
ATOM     12  O   UNL     1      33.890   9.980   1.655  1.00  0.00    -0.550 OA
ENDBRANCH   9  10
ENDBRANCH   8   9
ENDBRANCH   7   8
ENDBRANCH   6   7
ENDBRANCH   5   6
ENDBRANCH   4   5
ENDBRANCH   3   4
ENDBRANCH   1   3
BRANCH   2  13
ATOM     13  C   UNL     1      40.282  11.721   2.933  1.00  0.00     0.027 C 
BRANCH  13  14
ATOM     14  C   UNL     1      40.920  11.905   1.546  1.00  0.00     0.004 C 
BRANCH  14  15
ATOM     15  C   UNL     1      41.474  10.587   0.989  1.00  0.00     0.000 C 
BRANCH  15  16
ATOM     16  C   UNL     1      41.041  10.378  -0.468  1.00  0.00     0.000 C 
BRANCH  16  17
ATOM     17  C   UNL     1      41.119   8.894  -0.857  1.00  0.00    -0.000 C 
BRANCH  17  18
ATOM     18  C   UNL     1      41.720   8.021   0.256  1.00  0.00    -0.000 C 
BRANCH  18  19
ATOM     19  C   UNL     1      40.766   6.908   0.712  1.00  0.00    -0.003 C 
ATOM     20  C   UNL     1      40.556   6.949   2.224  1.00  0.00     0.004 C 
ENDBRANCH  18  19
ENDBRANCH  17  18
ENDBRANCH  16  17
ENDBRANCH  15  16
ENDBRANCH  14  15
ENDBRANCH  13  14
ENDBRANCH   2  13
TORSDOF 15
ENDMDL
MODEL 7
REMARK VINA RESULT:    -4.437      2.075      4.293
REMARK INTER + INTRA:         -10.173
REMARK INTER:                  -8.610
REMARK INTRA:                  -1.563
REMARK UNBOUND:                -1.846
REMARK SMILES CCCCCCCCC=CCCCCCCCC(=O)[O-]
REMARK SMILES IDX 10 1 9 2 11 3 12 4 13 5 14 6 15 7 16 8 17 9 18 10 19 11
REMARK SMILES IDX 20 12 8 13 7 14 6 15 5 16 4 17 3 18 2 19 1 20
REMARK H PARENT
REMARK Flexibility Score: inf
ROOT
ATOM      1  C   UNL     1      40.981  11.270   3.528  1.00  0.00    -0.031 C 
ATOM      2  C   UNL     1      41.289  11.449   2.230  1.00  0.00    -0.031 C 
ENDROOT
BRANCH   1   3
ATOM      3  C   UNL     1      39.672  11.662   4.173  1.00  0.00     0.027 C 
BRANCH   3   4
ATOM      4  C   UNL     1      39.009  10.464   4.865  1.00  0.00     0.004 C 
BRANCH   4   5
ATOM      5  C   UNL     1      37.554  10.761   5.268  1.00  0.00     0.000 C 
BRANCH   5   6
ATOM      6  C   UNL     1      36.536   9.945   4.455  1.00  0.00     0.000 C 
BRANCH   6   7
ATOM      7  C   UNL     1      35.082  10.270   4.828  1.00  0.00     0.000 C 
BRANCH   7   8
ATOM      8  C   UNL     1      34.554  11.449   3.998  1.00  0.00     0.006 C 
BRANCH   8   9
ATOM      9  C   UNL     1      34.736  11.227   2.491  1.00  0.00     0.053 C 
BRANCH   9  10
ATOM     10  C   UNL     1      33.654  10.359   1.923  1.00  0.00     0.041 C 
ATOM     11  O   UNL     1      32.444  10.671   2.077  1.00  0.00    -0.550 OA
ATOM     12  O   UNL     1      33.985   9.194   1.243  1.00  0.00    -0.550 OA
ENDBRANCH   9  10
ENDBRANCH   8   9
ENDBRANCH   7   8
ENDBRANCH   6   7
ENDBRANCH   5   6
ENDBRANCH   4   5
ENDBRANCH   3   4
ENDBRANCH   1   3
BRANCH   2  13
ATOM     13  C   UNL     1      40.398  12.125   1.217  1.00  0.00     0.027 C 
BRANCH  13  14
ATOM     14  C   UNL     1      40.401  11.393  -0.135  1.00  0.00     0.004 C 
BRANCH  14  15
ATOM     15  C   UNL     1      41.688  10.582  -0.347  1.00  0.00     0.000 C 
BRANCH  15  16
ATOM     16  C   UNL     1      41.369   9.134  -0.740  1.00  0.00     0.000 C 
BRANCH  16  17
ATOM     17  C   UNL     1      41.743   8.163   0.390  1.00  0.00    -0.000 C 
BRANCH  17  18
ATOM     18  C   UNL     1      40.702   7.050   0.583  1.00  0.00    -0.000 C 
BRANCH  18  19
ATOM     19  C   UNL     1      40.635   6.549   2.033  1.00  0.00    -0.003 C 
ATOM     20  C   UNL     1      40.303   7.690   2.993  1.00  0.00     0.004 C 
ENDBRANCH  18  19
ENDBRANCH  17  18
ENDBRANCH  16  17
ENDBRANCH  15  16
ENDBRANCH  14  15
ENDBRANCH  13  14
ENDBRANCH   2  13
TORSDOF 15
ENDMDL
MODEL 8
REMARK VINA RESULT:    -4.412      2.874      4.135
REMARK INTER + INTRA:         -10.127
REMARK INTER:                  -8.281
REMARK INTRA:                  -1.846
REMARK UNBOUND:                -1.846
REMARK SMILES CCCCCCCCC=CCCCCCCCC(=O)[O-]
REMARK SMILES IDX 10 1 9 2 11 3 12 4 13 5 14 6 15 7 16 8 17 9 18 10 19 11
REMARK SMILES IDX 20 12 8 13 7 14 6 15 5 16 4 17 3 18 2 19 1 20
REMARK H PARENT
REMARK Flexibility Score: inf
ROOT
ATOM      1  C   UNL     1      36.526   7.261   3.841  1.00  0.00    -0.031 C 
ATOM      2  C   UNL     1      37.826   6.990   4.060  1.00  0.00    -0.031 C 
ENDROOT
BRANCH   1   3
ATOM      3  C   UNL     1      35.886   8.622   3.982  1.00  0.00     0.027 C 
BRANCH   3   4
ATOM      4  C   UNL     1      34.954   8.677   5.200  1.00  0.00     0.004 C 
BRANCH   4   5
ATOM      5  C   UNL     1      35.495   9.604   6.301  1.00  0.00     0.000 C 
BRANCH   5   6
ATOM      6  C   UNL     1      36.454   8.884   7.263  1.00  0.00     0.000 C 
BRANCH   6   7
ATOM      7  C   UNL     1      35.819   7.647   7.916  1.00  0.00     0.000 C 
BRANCH   7   8
ATOM      8  C   UNL     1      36.613   6.378   7.572  1.00  0.00     0.006 C 
BRANCH   8   9
ATOM      9  C   UNL     1      35.862   5.099   7.962  1.00  0.00     0.053 C 
BRANCH   9  10
ATOM     10  C   UNL     1      35.184   4.471   6.783  1.00  0.00     0.041 C 
ATOM     11  O   UNL     1      35.283   3.232   6.579  1.00  0.00    -0.550 OA
ATOM     12  O   UNL     1      34.460   5.259   5.898  1.00  0.00    -0.550 OA
ENDBRANCH   9  10
ENDBRANCH   8   9
ENDBRANCH   7   8
ENDBRANCH   6   7
ENDBRANCH   5   6
ENDBRANCH   4   5
ENDBRANCH   3   4
ENDBRANCH   1   3
BRANCH   2  13
ATOM     13  C   UNL     1      38.848   7.991   4.539  1.00  0.00     0.027 C 
BRANCH  13  14
ATOM     14  C   UNL     1      40.124   7.970   3.682  1.00  0.00     0.004 C 
BRANCH  14  15
ATOM     15  C   UNL     1      40.043   6.930   2.556  1.00  0.00     0.000 C 
BRANCH  15  16
ATOM     16  C   UNL     1      40.901   7.349   1.355  1.00  0.00     0.000 C 
BRANCH  16  17
ATOM     17  C   UNL     1      41.204   8.855   1.395  1.00  0.00    -0.000 C 
BRANCH  17  18
ATOM     18  C   UNL     1      41.307   9.476  -0.006  1.00  0.00    -0.000 C 
BRANCH  18  19
ATOM     19  C   UNL     1      41.526   8.423  -1.103  1.00  0.00    -0.003 C 
ATOM     20  C   UNL     1      40.745   8.777  -2.367  1.00  0.00     0.004 C 
ENDBRANCH  18  19
ENDBRANCH  17  18
ENDBRANCH  16  17
ENDBRANCH  15  16
ENDBRANCH  14  15
ENDBRANCH  13  14
ENDBRANCH   2  13
TORSDOF 15
ENDMDL
MODEL 9
REMARK VINA RESULT:    -4.397      2.511      5.498
REMARK INTER + INTRA:         -10.098
REMARK INTER:                  -7.644
REMARK INTRA:                  -2.454
REMARK UNBOUND:                -1.846
REMARK SMILES CCCCCCCCC=CCCCCCCCC(=O)[O-]
REMARK SMILES IDX 10 1 9 2 11 3 12 4 13 5 14 6 15 7 16 8 17 9 18 10 19 11
REMARK SMILES IDX 20 12 8 13 7 14 6 15 5 16 4 17 3 18 2 19 1 20
REMARK H PARENT
REMARK Flexibility Score: inf
ROOT
ATOM      1  C   UNL     1      38.828   7.689   4.224  1.00  0.00    -0.031 C 
ATOM      2  C   UNL     1      37.987   6.806   3.653  1.00  0.00    -0.031 C 
ENDROOT
BRANCH   1   3
ATOM      3  C   UNL     1      38.656   8.288   5.600  1.00  0.00     0.027 C 
BRANCH   3   4
ATOM      4  C   UNL     1      39.283   9.686   5.683  1.00  0.00     0.004 C 
BRANCH   4   5
ATOM      5  C   UNL     1      38.226  10.781   5.907  1.00  0.00     0.000 C 
BRANCH   5   6
ATOM      6  C   UNL     1      36.789  10.259   5.745  1.00  0.00     0.000 C 
BRANCH   6   7
ATOM      7  C   UNL     1      36.139  10.714   4.430  1.00  0.00     0.000 C 
BRANCH   7   8
ATOM      8  C   UNL     1      34.618  10.855   4.592  1.00  0.00     0.006 C 
BRANCH   8   9
ATOM      9  C   UNL     1      33.989  11.697   3.475  1.00  0.00     0.053 C 
BRANCH   9  10
ATOM     10  C   UNL     1      33.255  10.846   2.485  1.00  0.00     0.041 C 
ATOM     11  O   UNL     1      31.996  10.854   2.450  1.00  0.00    -0.550 OA
ATOM     12  O   UNL     1      33.962  10.027   1.614  1.00  0.00    -0.550 OA
ENDBRANCH   9  10
ENDBRANCH   8   9
ENDBRANCH   7   8
ENDBRANCH   6   7
ENDBRANCH   5   6
ENDBRANCH   4   5
ENDBRANCH   3   4
ENDBRANCH   1   3
BRANCH   2  13
ATOM     13  C   UNL     1      36.702   6.313   4.272  1.00  0.00     0.027 C 
BRANCH  13  14
ATOM     14  C   UNL     1      35.499   7.186   3.879  1.00  0.00     0.004 C 
BRANCH  14  15
ATOM     15  C   UNL     1      34.266   6.888   4.743  1.00  0.00     0.000 C 
BRANCH  15  16
ATOM     16  C   UNL     1      34.393   7.537   6.128  1.00  0.00     0.000 C 
BRANCH  16  17
ATOM     17  C   UNL     1      34.405   6.472   7.235  1.00  0.00    -0.000 C 
BRANCH  17  18
ATOM     18  C   UNL     1      35.713   6.471   8.041  1.00  0.00    -0.000 C 
BRANCH  18  19
ATOM     19  C   UNL     1      36.580   5.236   7.758  1.00  0.00    -0.003 C 
ATOM     20  C   UNL     1      35.715   4.005   7.499  1.00  0.00     0.004 C 
ENDBRANCH  18  19
ENDBRANCH  17  18
ENDBRANCH  16  17
ENDBRANCH  15  16
ENDBRANCH  14  15
ENDBRANCH  13  14
ENDBRANCH   2  13
TORSDOF 15
ENDMDL
