MODEL 1
REMARK VINA RESULT:    -4.537      0.000      0.000
REMARK INTER + INTRA:          -6.263
REMARK INTER:                  -5.730
REMARK INTRA:                  -0.533
REMARK UNBOUND:                -0.533
REMARK SMILES CC(C)=CCCC(C)=CCO
REMARK SMILES IDX 7 1 9 2 8 3 6 4 5 5 4 6 1 7 2 8 3 9 10 10 11 11
REMARK H PARENT 11 12
REMARK Flexibility Score: inf
ROOT
ATOM      1  C   UNL     1       0.059   6.501  -2.320  1.00  0.00    -0.075 C 
ATOM      2  C   UNL     1      -0.946   7.130  -1.668  1.00  0.00    -0.000 C 
ATOM      3  C   UNL     1      -0.212   5.508  -3.425  1.00  0.00     0.039 C 
ENDROOT
BRANCH   1   4
ATOM      4  C   UNL     1       1.495   6.839  -1.978  1.00  0.00     0.034 C 
BRANCH   4   5
ATOM      5  C   UNL     1       1.609   8.207  -1.293  1.00  0.00     0.032 C 
BRANCH   5   6
ATOM      6  C   UNL     1       2.346   9.210  -2.150  1.00  0.00    -0.028 C 
ATOM      7  C   UNL     1       2.618  11.085  -3.712  1.00  0.00     0.039 C 
ATOM      8  C   UNL     1       1.751  10.191  -2.863  1.00  0.00    -0.080 C 
ATOM      9  C   UNL     1       0.259  10.426  -2.817  1.00  0.00     0.039 C 
ENDBRANCH   5   6
ENDBRANCH   4   5
ENDBRANCH   1   4
BRANCH   2  10
ATOM     10  C   UNL     1      -2.404   6.896  -1.950  1.00  0.00     0.183 C 
BRANCH  10  11
ATOM     11  O   UNL     1      -3.089   6.664  -0.751  1.00  0.00    -0.392 OA
ATOM     12  H   UNL     1      -3.025   7.508  -0.231  1.00  0.00     0.210 HD
ENDBRANCH  10  11
ENDBRANCH   2  10
TORSDOF 5
ENDMDL
MODEL 2
REMARK VINA RESULT:    -4.425      8.872     10.252
REMARK INTER + INTRA:          -6.122
REMARK INTER:                  -5.872
REMARK INTRA:                  -0.250
REMARK UNBOUND:                -0.533
REMARK SMILES CC(C)=CCCC(C)=CCO
REMARK SMILES IDX 7 1 9 2 8 3 6 4 5 5 4 6 1 7 2 8 3 9 10 10 11 11
REMARK H PARENT 11 12
REMARK Flexibility Score: inf
ROOT
ATOM      1  C   UNL     1      -2.391   9.754 -11.662  1.00  0.00    -0.075 C 
ATOM      2  C   UNL     1      -3.672   9.321 -11.682  1.00  0.00    -0.000 C 
ATOM      3  C   UNL     1      -2.026  11.125 -11.145  1.00  0.00     0.039 C 
ENDROOT
BRANCH   1   4
ATOM      4  C   UNL     1      -1.283   8.824 -12.112  1.00  0.00     0.034 C 
BRANCH   4   5
ATOM      5  C   UNL     1      -1.630   7.354 -11.844  1.00  0.00     0.032 C 
BRANCH   5   6
ATOM      6  C   UNL     1      -0.580   6.670 -11.000  1.00  0.00    -0.028 C 
ATOM      7  C   UNL     1       0.455   4.859  -9.704  1.00  0.00     0.039 C 
ATOM      8  C   UNL     1      -0.649   5.386 -10.584  1.00  0.00    -0.080 C 
ATOM      9  C   UNL     1      -1.780   4.470 -10.989  1.00  0.00     0.039 C 
ENDBRANCH   5   6
ENDBRANCH   4   5
ENDBRANCH   1   4
BRANCH   2  10
ATOM     10  C   UNL     1      -4.844  10.146 -11.227  1.00  0.00     0.183 C 
BRANCH  10  11
ATOM     11  O   UNL     1      -6.029   9.617 -11.750  1.00  0.00    -0.392 OA
ATOM     12  H   UNL     1      -6.758  10.213 -11.436  1.00  0.00     0.210 HD
ENDBRANCH  10  11
ENDBRANCH   2  10
TORSDOF 5
ENDMDL
MODEL 3
REMARK VINA RESULT:    -4.403      3.485      5.303
REMARK INTER + INTRA:          -6.095
REMARK INTER:                  -5.548
REMARK INTRA:                  -0.547
REMARK UNBOUND:                -0.533
REMARK SMILES CC(C)=CCCC(C)=CCO
REMARK SMILES IDX 7 1 9 2 8 3 6 4 5 5 4 6 1 7 2 8 3 9 10 10 11 11
REMARK H PARENT 11 12
REMARK Flexibility Score: inf
ROOT
ATOM      1  C   UNL     1       3.559   7.375  -2.211  1.00  0.00    -0.075 C 
ATOM      2  C   UNL     1       4.411   7.375  -3.261  1.00  0.00    -0.000 C 
ATOM      3  C   UNL     1       3.572   6.271  -1.180  1.00  0.00     0.039 C 
ENDROOT
BRANCH   1   4
ATOM      4  C   UNL     1       2.605   8.536  -2.025  1.00  0.00     0.034 C 
BRANCH   4   5
ATOM      5  C   UNL     1       1.459   8.499  -3.044  1.00  0.00     0.032 C 
BRANCH   5   6
ATOM      6  C   UNL     1       0.125   8.233  -2.387  1.00  0.00    -0.028 C 
ATOM      7  C   UNL     1      -1.857   6.940  -1.731  1.00  0.00     0.039 C 
ATOM      8  C   UNL     1      -0.505   7.038  -2.389  1.00  0.00    -0.080 C 
ATOM      9  C   UNL     1       0.113   5.806  -3.008  1.00  0.00     0.039 C 
ENDBRANCH   5   6
ENDBRANCH   4   5
ENDBRANCH   1   4
BRANCH   2  10
ATOM     10  C   UNL     1       5.421   6.292  -3.522  1.00  0.00     0.183 C 
BRANCH  10  11
ATOM     11  O   UNL     1       5.419   5.959  -4.882  1.00  0.00    -0.392 OA
ATOM     12  H   UNL     1       5.916   5.103  -4.956  1.00  0.00     0.210 HD
ENDBRANCH  10  11
ENDBRANCH   2  10
TORSDOF 5
ENDMDL
MODEL 4
REMARK VINA RESULT:    -4.378      2.435      3.286
REMARK INTER + INTRA:          -6.063
REMARK INTER:                  -5.730
REMARK INTRA:                  -0.333
REMARK UNBOUND:                -0.533
REMARK SMILES CC(C)=CCCC(C)=CCO
REMARK SMILES IDX 7 1 9 2 8 3 6 4 5 5 4 6 1 7 2 8 3 9 10 10 11 11
REMARK H PARENT 11 12
REMARK Flexibility Score: inf
ROOT
ATOM      1  C   UNL     1      -0.310   7.534  -1.998  1.00  0.00    -0.075 C 
ATOM      2  C   UNL     1      -0.008   8.838  -2.198  1.00  0.00    -0.000 C 
ATOM      3  C   UNL     1      -1.739   7.059  -1.886  1.00  0.00     0.039 C 
ENDROOT
BRANCH   1   4
ATOM      4  C   UNL     1       0.806   6.512  -1.941  1.00  0.00     0.034 C 
BRANCH   4   5
ATOM      5  C   UNL     1       1.952   6.971  -1.030  1.00  0.00     0.032 C 
BRANCH   5   6
ATOM      6  C   UNL     1       3.302   6.555  -1.566  1.00  0.00    -0.028 C 
ATOM      7  C   UNL     1       5.265   6.601  -3.041  1.00  0.00     0.039 C 
ATOM      8  C   UNL     1       3.943   7.164  -2.587  1.00  0.00    -0.080 C 
ATOM      9  C   UNL     1       3.384   8.394  -3.265  1.00  0.00     0.039 C 
ENDBRANCH   5   6
ENDBRANCH   4   5
ENDBRANCH   1   4
BRANCH   2  10
ATOM     10  C   UNL     1      -1.037   9.930  -2.304  1.00  0.00     0.183 C 
BRANCH  10  11
ATOM     11  O   UNL     1      -0.797  10.699  -3.449  1.00  0.00    -0.392 OA
ATOM     12  H   UNL     1       0.054  11.183  -3.281  1.00  0.00     0.210 HD
ENDBRANCH  10  11
ENDBRANCH   2  10
TORSDOF 5
ENDMDL
MODEL 5
REMARK VINA RESULT:    -4.364      2.520      3.924
REMARK INTER + INTRA:          -6.044
REMARK INTER:                  -5.476
REMARK INTRA:                  -0.569
REMARK UNBOUND:                -0.533
REMARK SMILES CC(C)=CCCC(C)=CCO
REMARK SMILES IDX 7 1 9 2 8 3 6 4 5 5 4 6 1 7 2 8 3 9 10 10 11 11
REMARK H PARENT 11 12
REMARK Flexibility Score: inf
ROOT
ATOM      1  C   UNL     1       1.721   9.367  -3.573  1.00  0.00    -0.075 C 
ATOM      2  C   UNL     1       0.472   9.221  -3.076  1.00  0.00    -0.000 C 
ATOM      3  C   UNL     1       2.387  10.720  -3.659  1.00  0.00     0.039 C 
ENDROOT
BRANCH   1   4
ATOM      4  C   UNL     1       2.499   8.142  -4.004  1.00  0.00     0.034 C 
BRANCH   4   5
ATOM      5  C   UNL     1       3.576   7.763  -2.979  1.00  0.00     0.032 C 
BRANCH   5   6
ATOM      6  C   UNL     1       2.978   7.199  -1.711  1.00  0.00    -0.028 C 
ATOM      7  C   UNL     1       2.353   7.132   0.663  1.00  0.00     0.039 C 
ATOM      8  C   UNL     1       2.940   7.848  -0.527  1.00  0.00    -0.080 C 
ATOM      9  C   UNL     1       3.447   9.262  -0.370  1.00  0.00     0.039 C 
ENDBRANCH   5   6
ENDBRANCH   4   5
ENDBRANCH   1   4
BRANCH   2  10
ATOM     10  C   UNL     1      -0.376  10.364  -2.588  1.00  0.00     0.183 C 
BRANCH  10  11
ATOM     11  O   UNL     1      -1.663   9.904  -2.286  1.00  0.00    -0.392 OA
ATOM     12  H   UNL     1      -2.125   9.788  -3.157  1.00  0.00     0.210 HD
ENDBRANCH  10  11
ENDBRANCH   2  10
TORSDOF 5
ENDMDL
MODEL 6
REMARK VINA RESULT:    -4.318      1.479      2.069
REMARK INTER + INTRA:          -5.986
REMARK INTER:                  -5.399
REMARK INTRA:                  -0.588
REMARK UNBOUND:                -0.533
REMARK SMILES CC(C)=CCCC(C)=CCO
REMARK SMILES IDX 7 1 9 2 8 3 6 4 5 5 4 6 1 7 2 8 3 9 10 10 11 11
REMARK H PARENT 11 12
REMARK Flexibility Score: inf
ROOT
ATOM      1  C   UNL     1       1.200   7.057  -1.321  1.00  0.00    -0.075 C 
ATOM      2  C   UNL     1       0.194   6.916  -2.214  1.00  0.00    -0.000 C 
ATOM      3  C   UNL     1       0.949   7.552   0.084  1.00  0.00     0.039 C 
ENDROOT
BRANCH   1   4
ATOM      4  C   UNL     1       2.606   6.656  -1.714  1.00  0.00     0.034 C 
BRANCH   4   5
ATOM      5  C   UNL     1       3.572   7.848  -1.664  1.00  0.00     0.032 C 
BRANCH   5   6
ATOM      6  C   UNL     1       3.292   8.850  -2.759  1.00  0.00    -0.028 C 
ATOM      7  C   UNL     1       2.469  10.933  -3.765  1.00  0.00     0.039 C 
ATOM      8  C   UNL     1       2.731  10.063  -2.563  1.00  0.00    -0.080 C 
ATOM      9  C   UNL     1       2.382  10.572  -1.184  1.00  0.00     0.039 C 
ENDBRANCH   5   6
ENDBRANCH   4   5
ENDBRANCH   1   4
BRANCH   2  10
ATOM     10  C   UNL     1      -1.242   7.251  -1.919  1.00  0.00     0.183 C 
BRANCH  10  11
ATOM     11  O   UNL     1      -1.462   8.619  -2.121  1.00  0.00    -0.392 OA
ATOM     12  H   UNL     1      -2.118   8.897  -1.429  1.00  0.00     0.210 HD
ENDBRANCH  10  11
ENDBRANCH   2  10
TORSDOF 5
ENDMDL
MODEL 7
REMARK VINA RESULT:    -4.264      8.327      9.727
REMARK INTER + INTRA:          -5.919
REMARK INTER:                  -5.620
REMARK INTRA:                  -0.299
REMARK UNBOUND:                -0.533
REMARK SMILES CC(C)=CCCC(C)=CCO
REMARK SMILES IDX 7 1 9 2 8 3 6 4 5 5 4 6 1 7 2 8 3 9 10 10 11 11
REMARK H PARENT 11 12
REMARK Flexibility Score: inf
ROOT
ATOM      1  C   UNL     1       3.615  -0.864  -2.855  1.00  0.00    -0.075 C 
ATOM      2  C   UNL     1       4.225  -1.609  -3.805  1.00  0.00    -0.000 C 
ATOM      3  C   UNL     1       2.344  -0.101  -3.141  1.00  0.00     0.039 C 
ENDROOT
BRANCH   1   4
ATOM      4  C   UNL     1       4.185  -0.834  -1.453  1.00  0.00     0.034 C 
BRANCH   4   5
ATOM      5  C   UNL     1       3.459   0.186  -0.566  1.00  0.00     0.032 C 
BRANCH   5   6
ATOM      6  C   UNL     1       4.118   0.330   0.787  1.00  0.00    -0.028 C 
ATOM      7  C   UNL     1       5.490   1.371   2.537  1.00  0.00     0.039 C 
ATOM      8  C   UNL     1       4.854   1.395   1.171  1.00  0.00    -0.080 C 
ATOM      9  C   UNL     1       5.039   2.605   0.285  1.00  0.00     0.039 C 
ENDBRANCH   5   6
ENDBRANCH   4   5
ENDBRANCH   1   4
BRANCH   2  10
ATOM     10  C   UNL     1       3.727  -1.737  -5.218  1.00  0.00     0.183 C 
BRANCH  10  11
ATOM     11  O   UNL     1       4.427  -0.855  -6.050  1.00  0.00    -0.392 OA
ATOM     12  H   UNL     1       3.871  -0.746  -6.865  1.00  0.00     0.210 HD
ENDBRANCH  10  11
ENDBRANCH   2  10
TORSDOF 5
ENDMDL
MODEL 8
REMARK VINA RESULT:    -4.196      2.356      3.976
REMARK INTER + INTRA:          -5.833
REMARK INTER:                  -5.205
REMARK INTRA:                  -0.628
REMARK UNBOUND:                -0.533
REMARK SMILES CC(C)=CCCC(C)=CCO
REMARK SMILES IDX 7 1 9 2 8 3 6 4 5 5 4 6 1 7 2 8 3 9 10 10 11 11
REMARK H PARENT 11 12
REMARK Flexibility Score: inf
ROOT
ATOM      1  C   UNL     1       1.677  10.569  -1.832  1.00  0.00    -0.075 C 
ATOM      2  C   UNL     1       0.357  10.376  -1.612  1.00  0.00    -0.000 C 
ATOM      3  C   UNL     1       2.223  10.801  -3.221  1.00  0.00     0.039 C 
ENDROOT
BRANCH   1   4
ATOM      4  C   UNL     1       2.630  10.611  -0.656  1.00  0.00     0.034 C 
BRANCH   4   5
ATOM      5  C   UNL     1       2.967   9.203  -0.147  1.00  0.00     0.032 C 
BRANCH   5   6
ATOM      6  C   UNL     1       3.927   8.484  -1.065  1.00  0.00    -0.028 C 
ATOM      7  C   UNL     1       4.698   6.755  -2.630  1.00  0.00     0.039 C 
ATOM      8  C   UNL     1       3.616   7.392  -1.797  1.00  0.00    -0.080 C 
ATOM      9  C   UNL     1       2.221   6.811  -1.818  1.00  0.00     0.039 C 
ENDBRANCH   5   6
ENDBRANCH   4   5
ENDBRANCH   1   4
BRANCH   2  10
ATOM     10  C   UNL     1      -0.680  10.351  -2.701  1.00  0.00     0.183 C 
BRANCH  10  11
ATOM     11  O   UNL     1      -1.763   9.555  -2.308  1.00  0.00    -0.392 OA
ATOM     12  H   UNL     1      -1.380   8.673  -2.060  1.00  0.00     0.210 HD
ENDBRANCH  10  11
ENDBRANCH   2  10
TORSDOF 5
ENDMDL
MODEL 9
REMARK VINA RESULT:    -4.150      2.184      4.305
REMARK INTER + INTRA:          -5.775
REMARK INTER:                  -5.188
REMARK INTRA:                  -0.587
REMARK UNBOUND:                -0.533
REMARK SMILES CC(C)=CCCC(C)=CCO
REMARK SMILES IDX 7 1 9 2 8 3 6 4 5 5 4 6 1 7 2 8 3 9 10 10 11 11
REMARK H PARENT 11 12
REMARK Flexibility Score: inf
ROOT
ATOM      1  C   UNL     1       1.365  10.341  -2.402  1.00  0.00    -0.075 C 
ATOM      2  C   UNL     1       1.802  10.619  -1.153  1.00  0.00    -0.000 C 
ATOM      3  C   UNL     1      -0.102  10.389  -2.757  1.00  0.00     0.039 C 
ENDROOT
BRANCH   1   4
ATOM      4  C   UNL     1       2.370  10.031  -3.492  1.00  0.00     0.034 C 
BRANCH   4   5
ATOM      5  C   UNL     1       2.388   8.537  -3.840  1.00  0.00     0.032 C 
BRANCH   5   6
ATOM      6  C   UNL     1       2.906   7.695  -2.696  1.00  0.00    -0.028 C 
ATOM      7  C   UNL     1       2.798   6.133  -0.805  1.00  0.00     0.039 C 
ATOM      8  C   UNL     1       2.144   6.871  -1.945  1.00  0.00    -0.080 C 
ATOM      9  C   UNL     1       0.676   6.655  -2.227  1.00  0.00     0.039 C 
ENDBRANCH   5   6
ENDBRANCH   4   5
ENDBRANCH   1   4
BRANCH   2  10
ATOM     10  C   UNL     1       0.896  10.973  -0.006  1.00  0.00     0.183 C 
BRANCH  10  11
ATOM     11  O   UNL     1       0.844   9.910   0.903  1.00  0.00    -0.392 OA
ATOM     12  H   UNL     1       1.568   9.285   0.637  1.00  0.00     0.210 HD
ENDBRANCH  10  11
ENDBRANCH   2  10
TORSDOF 5
ENDMDL
