MODEL 1
REMARK VINA RESULT:     1.280      0.000      0.000
REMARK INTER + INTRA:           1.598
REMARK INTER:                   3.375
REMARK INTRA:                  -1.777
REMARK UNBOUND:                -1.777
REMARK SMILES CCCCCCCCCCCCCCCCCCCCCCCCCCCCCC(=O)[O-]
REMARK SMILES IDX 16 1 17 2 18 3 19 4 20 5 21 6 22 7 23 8 24 9 25 10 26 11
REMARK SMILES IDX 27 12 28 13 29 14 30 15 31 16 32 17 15 18 14 19 13 20 12 21
REMARK SMILES IDX 11 22 10 23 9 24 8 25 7 26 6 27 5 28 4 29 3 30 2 31 1 32
REMARK H PARENT
REMARK Flexibility Score: inf
ROOT
ATOM      1  C   UNL     1      19.151   2.257 -14.412  1.00  0.00     0.000 C 
ENDROOT
BRANCH   1   2
ATOM      2  C   UNL     1      18.592   1.070 -15.220  1.00  0.00     0.000 C 
BRANCH   2   3
ATOM      3  C   UNL     1      19.402   0.720 -16.488  1.00  0.00     0.000 C 
BRANCH   3   4
ATOM      4  C   UNL     1      20.885   1.123 -16.404  1.00  0.00     0.000 C 
BRANCH   4   5
ATOM      5  C   UNL     1      21.632   0.930 -17.742  1.00  0.00     0.000 C 
BRANCH   5   6
ATOM      6  C   UNL     1      22.695  -0.181 -17.670  1.00  0.00     0.000 C 
BRANCH   6   7
ATOM      7  C   UNL     1      23.506  -0.358 -18.973  1.00  0.00     0.000 C 
BRANCH   7   8
ATOM      8  C   UNL     1      23.794  -1.823 -19.352  1.00  0.00     0.000 C 
BRANCH   8   9
ATOM      9  C   UNL     1      25.049  -1.973 -20.228  1.00  0.00     0.000 C 
BRANCH   9  10
ATOM     10  C   UNL     1      26.202  -2.692 -19.504  1.00  0.00     0.000 C 
BRANCH  10  11
ATOM     11  C   UNL     1      25.922  -3.057 -18.033  1.00  0.00     0.000 C 
BRANCH  11  12
ATOM     12  C   UNL     1      25.498  -4.521 -17.844  1.00  0.00     0.000 C 
BRANCH  12  13
ATOM     13  C   UNL     1      24.949  -5.109 -19.153  1.00  0.00     0.006 C 
BRANCH  13  14
ATOM     14  C   UNL     1      25.648  -6.420 -19.537  1.00  0.00     0.053 C 
BRANCH  14  15
ATOM     15  C   UNL     1      25.892  -6.509 -21.011  1.00  0.00     0.041 C 
ATOM     16  O   UNL     1      26.520  -5.593 -21.607  1.00  0.00    -0.550 OA
ATOM     17  O   UNL     1      25.410  -7.595 -21.734  1.00  0.00    -0.550 OA
ENDBRANCH  14  15
ENDBRANCH  13  14
ENDBRANCH  12  13
ENDBRANCH  11  12
ENDBRANCH  10  11
ENDBRANCH   9  10
ENDBRANCH   8   9
ENDBRANCH   7   8
ENDBRANCH   6   7
ENDBRANCH   5   6
ENDBRANCH   4   5
ENDBRANCH   3   4
ENDBRANCH   2   3
ENDBRANCH   1   2
BRANCH   1  18
ATOM     18  C   UNL     1      18.656   2.273 -12.957  1.00  0.00     0.000 C 
BRANCH  18  19
ATOM     19  C   UNL     1      18.650   3.686 -12.348  1.00  0.00     0.000 C 
BRANCH  19  20
ATOM     20  C   UNL     1      17.757   3.861 -11.104  1.00  0.00     0.000 C 
BRANCH  20  21
ATOM     21  C   UNL     1      17.238   5.290 -10.869  1.00  0.00     0.000 C 
BRANCH  21  22
ATOM     22  C   UNL     1      18.327   6.358 -11.068  1.00  0.00     0.000 C 
BRANCH  22  23
ATOM     23  C   UNL     1      19.175   6.586  -9.804  1.00  0.00     0.000 C 
BRANCH  23  24
ATOM     24  C   UNL     1      20.603   6.007  -9.866  1.00  0.00    -0.000 C 
BRANCH  24  25
ATOM     25  C   UNL     1      21.697   7.076 -10.075  1.00  0.00    -0.000 C 
BRANCH  25  26
ATOM     26  C   UNL     1      22.254   7.065 -11.510  1.00  0.00    -0.000 C 
BRANCH  26  27
ATOM     27  C   UNL     1      21.521   6.055 -12.420  1.00  0.00    -0.000 C 
BRANCH  27  28
ATOM     28  C   UNL     1      22.448   4.994 -13.040  1.00  0.00    -0.000 C 
BRANCH  28  29
ATOM     29  C   UNL     1      23.866   5.491 -13.380  1.00  0.00    -0.000 C 
BRANCH  29  30
ATOM     30  C   UNL     1      24.770   4.462 -14.086  1.00  0.00    -0.000 C 
BRANCH  30  31
ATOM     31  C   UNL     1      26.038   5.042 -14.735  1.00  0.00    -0.003 C 
ATOM     32  C   UNL     1      27.278   4.180 -14.503  1.00  0.00     0.004 C 
ENDBRANCH  30  31
ENDBRANCH  29  30
ENDBRANCH  28  29
ENDBRANCH  27  28
ENDBRANCH  26  27
ENDBRANCH  25  26
ENDBRANCH  24  25
ENDBRANCH  23  24
ENDBRANCH  22  23
ENDBRANCH  21  22
ENDBRANCH  20  21
ENDBRANCH  19  20
ENDBRANCH  18  19
ENDBRANCH   1  18
TORSDOF 28
ENDMDL
MODEL 2
REMARK VINA RESULT:     1.746      3.248     10.131
REMARK INTER + INTRA:           2.826
REMARK INTER:                   5.232
REMARK INTRA:                  -2.407
REMARK UNBOUND:                -1.777
REMARK SMILES CCCCCCCCCCCCCCCCCCCCCCCCCCCCCC(=O)[O-]
REMARK SMILES IDX 16 1 17 2 18 3 19 4 20 5 21 6 22 7 23 8 24 9 25 10 26 11
REMARK SMILES IDX 27 12 28 13 29 14 30 15 31 16 32 17 15 18 14 19 13 20 12 21
REMARK SMILES IDX 11 22 10 23 9 24 8 25 7 26 6 27 5 28 4 29 3 30 2 31 1 32
REMARK H PARENT
REMARK Flexibility Score: inf
ROOT
ATOM      1  C   UNL     1      19.402   3.616 -13.185  1.00  0.00     0.000 C 
ENDROOT
BRANCH   1   2
ATOM      2  C   UNL     1      18.243   2.792 -12.594  1.00  0.00     0.000 C 
BRANCH   2   3
ATOM      3  C   UNL     1      17.651   3.364 -11.286  1.00  0.00     0.000 C 
BRANCH   3   4
ATOM      4  C   UNL     1      18.409   4.592 -10.751  1.00  0.00     0.000 C 
BRANCH   4   5
ATOM      5  C   UNL     1      17.681   5.920 -11.050  1.00  0.00     0.000 C 
BRANCH   5   6
ATOM      6  C   UNL     1      18.644   7.117 -11.131  1.00  0.00     0.000 C 
BRANCH   6   7
ATOM      7  C   UNL     1      20.004   6.877 -10.439  1.00  0.00     0.000 C 
BRANCH   7   8
ATOM      8  C   UNL     1      21.227   7.039 -11.362  1.00  0.00     0.000 C 
BRANCH   8   9
ATOM      9  C   UNL     1      22.064   5.753 -11.468  1.00  0.00     0.000 C 
BRANCH   9  10
ATOM     10  C   UNL     1      22.379   5.362 -12.924  1.00  0.00     0.000 C 
BRANCH  10  11
ATOM     11  C   UNL     1      23.703   4.600 -13.123  1.00  0.00     0.000 C 
BRANCH  11  12
ATOM     12  C   UNL     1      24.768   5.421 -13.866  1.00  0.00     0.000 C 
BRANCH  12  13
ATOM     13  C   UNL     1      25.720   4.506 -14.651  1.00  0.00     0.006 C 
BRANCH  13  14
ATOM     14  C   UNL     1      27.079   5.170 -14.910  1.00  0.00     0.053 C 
BRANCH  14  15
ATOM     15  C   UNL     1      28.200   4.178 -14.869  1.00  0.00     0.041 C 
ATOM     16  O   UNL     1      28.502   3.607 -13.787  1.00  0.00    -0.550 OA
ATOM     17  O   UNL     1      28.925   3.897 -16.021  1.00  0.00    -0.550 OA
ENDBRANCH  14  15
ENDBRANCH  13  14
ENDBRANCH  12  13
ENDBRANCH  11  12
ENDBRANCH  10  11
ENDBRANCH   9  10
ENDBRANCH   8   9
ENDBRANCH   7   8
ENDBRANCH   6   7
ENDBRANCH   5   6
ENDBRANCH   4   5
ENDBRANCH   3   4
ENDBRANCH   2   3
ENDBRANCH   1   2
BRANCH   1  18
ATOM     18  C   UNL     1      19.995   2.984 -14.455  1.00  0.00     0.000 C 
BRANCH  18  19
ATOM     19  C   UNL     1      19.304   1.665 -14.840  1.00  0.00     0.000 C 
BRANCH  19  20
ATOM     20  C   UNL     1      19.678   1.107 -16.226  1.00  0.00     0.000 C 
BRANCH  20  21
ATOM     21  C   UNL     1      21.180   0.851 -16.443  1.00  0.00     0.000 C 
BRANCH  21  22
ATOM     22  C   UNL     1      21.586   0.918 -17.925  1.00  0.00     0.000 C 
BRANCH  22  23
ATOM     23  C   UNL     1      22.723  -0.057 -18.276  1.00  0.00     0.000 C 
BRANCH  23  24
ATOM     24  C   UNL     1      23.811  -0.204 -17.194  1.00  0.00    -0.000 C 
BRANCH  24  25
ATOM     25  C   UNL     1      23.971  -1.646 -16.668  1.00  0.00    -0.000 C 
BRANCH  25  26
ATOM     26  C   UNL     1      25.110  -2.401 -17.376  1.00  0.00    -0.000 C 
BRANCH  26  27
ATOM     27  C   UNL     1      24.619  -3.684 -18.082  1.00  0.00    -0.000 C 
BRANCH  27  28
ATOM     28  C   UNL     1      23.871  -3.416 -19.401  1.00  0.00    -0.000 C 
BRANCH  28  29
ATOM     29  C   UNL     1      24.766  -2.987 -20.579  1.00  0.00    -0.000 C 
BRANCH  29  30
ATOM     30  C   UNL     1      26.166  -3.633 -20.607  1.00  0.00    -0.000 C 
BRANCH  30  31
ATOM     31  C   UNL     1      26.398  -4.638 -21.748  1.00  0.00    -0.003 C 
ATOM     32  C   UNL     1      26.414  -6.090 -21.273  1.00  0.00     0.004 C 
ENDBRANCH  30  31
ENDBRANCH  29  30
ENDBRANCH  28  29
ENDBRANCH  27  28
ENDBRANCH  26  27
ENDBRANCH  25  26
ENDBRANCH  24  25
ENDBRANCH  23  24
ENDBRANCH  22  23
ENDBRANCH  21  22
ENDBRANCH  20  21
ENDBRANCH  19  20
ENDBRANCH  18  19
ENDBRANCH   1  18
TORSDOF 28
ENDMDL
MODEL 3
REMARK VINA RESULT:     2.080      1.446      4.699
REMARK INTER + INTRA:           3.708
REMARK INTER:                   5.855
REMARK INTRA:                  -2.147
REMARK UNBOUND:                -1.777
REMARK SMILES CCCCCCCCCCCCCCCCCCCCCCCCCCCCCC(=O)[O-]
REMARK SMILES IDX 16 1 17 2 18 3 19 4 20 5 21 6 22 7 23 8 24 9 25 10 26 11
REMARK SMILES IDX 27 12 28 13 29 14 30 15 31 16 32 17 15 18 14 19 13 20 12 21
REMARK SMILES IDX 11 22 10 23 9 24 8 25 7 26 6 27 5 28 4 29 3 30 2 31 1 32
REMARK H PARENT
REMARK Flexibility Score: inf
ROOT
ATOM      1  C   UNL     1      24.996   4.744 -14.126  1.00  0.00     0.000 C 
ENDROOT
BRANCH   1   2
ATOM      2  C   UNL     1      26.389   4.204 -14.505  1.00  0.00     0.000 C 
BRANCH   2   3
ATOM      3  C   UNL     1      26.496   2.663 -14.524  1.00  0.00     0.000 C 
BRANCH   3   4
ATOM      4  C   UNL     1      25.183   1.957 -14.910  1.00  0.00     0.000 C 
BRANCH   4   5
ATOM      5  C   UNL     1      25.313   0.419 -14.919  1.00  0.00     0.000 C 
BRANCH   5   6
ATOM      6  C   UNL     1      24.453  -0.241 -16.012  1.00  0.00     0.000 C 
BRANCH   6   7
ATOM      7  C   UNL     1      24.477  -1.785 -15.982  1.00  0.00     0.000 C 
BRANCH   7   8
ATOM      8  C   UNL     1      24.746  -2.445 -17.348  1.00  0.00     0.000 C 
BRANCH   8   9
ATOM      9  C   UNL     1      24.009  -1.743 -18.501  1.00  0.00     0.000 C 
BRANCH   9  10
ATOM     10  C   UNL     1      24.773  -1.821 -19.835  1.00  0.00     0.000 C 
BRANCH  10  11
ATOM     11  C   UNL     1      26.247  -2.253 -19.719  1.00  0.00     0.000 C 
BRANCH  11  12
ATOM     12  C   UNL     1      26.654  -3.302 -20.765  1.00  0.00     0.000 C 
BRANCH  12  13
ATOM     13  C   UNL     1      25.461  -4.191 -21.147  1.00  0.00     0.006 C 
BRANCH  13  14
ATOM     14  C   UNL     1      25.280  -5.365 -20.175  1.00  0.00     0.053 C 
BRANCH  14  15
ATOM     15  C   UNL     1      25.810  -6.645 -20.744  1.00  0.00     0.041 C 
ATOM     16  O   UNL     1      25.293  -7.746 -20.419  1.00  0.00    -0.550 OA
ATOM     17  O   UNL     1      26.890  -6.623 -21.620  1.00  0.00    -0.550 OA
ENDBRANCH  14  15
ENDBRANCH  13  14
ENDBRANCH  12  13
ENDBRANCH  11  12
ENDBRANCH  10  11
ENDBRANCH   9  10
ENDBRANCH   8   9
ENDBRANCH   7   8
ENDBRANCH   6   7
ENDBRANCH   5   6
ENDBRANCH   4   5
ENDBRANCH   3   4
ENDBRANCH   2   3
ENDBRANCH   1   2
BRANCH   1  18
ATOM     18  C   UNL     1      24.937   6.280 -14.112  1.00  0.00     0.000 C 
BRANCH  18  19
ATOM     19  C   UNL     1      23.830   6.822 -13.191  1.00  0.00     0.000 C 
BRANCH  19  20
ATOM     20  C   UNL     1      22.532   5.992 -13.165  1.00  0.00     0.000 C 
BRANCH  20  21
ATOM     21  C   UNL     1      22.026   5.615 -11.762  1.00  0.00     0.000 C 
BRANCH  21  22
ATOM     22  C   UNL     1      21.978   6.818 -10.805  1.00  0.00     0.000 C 
BRANCH  22  23
ATOM     23  C   UNL     1      21.520   6.434  -9.387  1.00  0.00     0.000 C 
BRANCH  23  24
ATOM     24  C   UNL     1      20.027   6.071  -9.261  1.00  0.00    -0.000 C 
BRANCH  24  25
ATOM     25  C   UNL     1      19.083   7.076  -9.955  1.00  0.00    -0.000 C 
BRANCH  25  26
ATOM     26  C   UNL     1      18.385   6.466 -11.183  1.00  0.00    -0.000 C 
BRANCH  26  27
ATOM     27  C   UNL     1      17.633   5.160 -10.846  1.00  0.00    -0.000 C 
BRANCH  27  28
ATOM     28  C   UNL     1      18.138   3.935 -11.630  1.00  0.00    -0.000 C 
BRANCH  28  29
ATOM     29  C   UNL     1      19.373   4.195 -12.514  1.00  0.00    -0.000 C 
BRANCH  29  30
ATOM     30  C   UNL     1      19.474   3.313 -13.774  1.00  0.00    -0.000 C 
BRANCH  30  31
ATOM     31  C   UNL     1      18.604   2.045 -13.755  1.00  0.00    -0.003 C 
ATOM     32  C   UNL     1      18.744   1.204 -15.023  1.00  0.00     0.004 C 
ENDBRANCH  30  31
ENDBRANCH  29  30
ENDBRANCH  28  29
ENDBRANCH  27  28
ENDBRANCH  26  27
ENDBRANCH  25  26
ENDBRANCH  24  25
ENDBRANCH  23  24
ENDBRANCH  22  23
ENDBRANCH  21  22
ENDBRANCH  20  21
ENDBRANCH  19  20
ENDBRANCH  18  19
ENDBRANCH   1  18
TORSDOF 28
ENDMDL
MODEL 4
REMARK VINA RESULT:     2.123      3.353     10.313
REMARK INTER + INTRA:           3.822
REMARK INTER:                   5.056
REMARK INTRA:                  -1.234
REMARK UNBOUND:                -1.777
REMARK SMILES CCCCCCCCCCCCCCCCCCCCCCCCCCCCCC(=O)[O-]
REMARK SMILES IDX 16 1 17 2 18 3 19 4 20 5 21 6 22 7 23 8 24 9 25 10 26 11
REMARK SMILES IDX 27 12 28 13 29 14 30 15 31 16 32 17 15 18 14 19 13 20 12 21
REMARK SMILES IDX 11 22 10 23 9 24 8 25 7 26 6 27 5 28 4 29 3 30 2 31 1 32
REMARK H PARENT
REMARK Flexibility Score: inf
ROOT
ATOM      1  C   UNL     1      22.759   5.036 -13.327  1.00  0.00     0.000 C 
ENDROOT
BRANCH   1   2
ATOM      2  C   UNL     1      22.097   5.250 -11.952  1.00  0.00     0.000 C 
BRANCH   2   3
ATOM      3  C   UNL     1      21.888   6.731 -11.565  1.00  0.00     0.000 C 
BRANCH   3   4
ATOM      4  C   UNL     1      21.633   6.946 -10.062  1.00  0.00     0.000 C 
BRANCH   4   5
ATOM      5  C   UNL     1      20.252   6.425  -9.611  1.00  0.00     0.000 C 
BRANCH   5   6
ATOM      6  C   UNL     1      19.406   5.898 -10.785  1.00  0.00     0.000 C 
BRANCH   6   7
ATOM      7  C   UNL     1      17.908   6.259 -10.691  1.00  0.00     0.000 C 
BRANCH   7   8
ATOM      8  C   UNL     1      16.956   5.048 -10.730  1.00  0.00     0.000 C 
BRANCH   8   9
ATOM      9  C   UNL     1      17.702   3.705 -10.644  1.00  0.00     0.000 C 
BRANCH   9  10
ATOM     10  C   UNL     1      17.869   3.026 -12.015  1.00  0.00     0.000 C 
BRANCH  10  11
ATOM     11  C   UNL     1      18.997   3.599 -12.894  1.00  0.00     0.000 C 
BRANCH  11  12
ATOM     12  C   UNL     1      19.501   2.608 -13.954  1.00  0.00     0.000 C 
BRANCH  12  13
ATOM     13  C   UNL     1      18.555   1.403 -14.076  1.00  0.00     0.006 C 
BRANCH  13  14
ATOM     14  C   UNL     1      18.211   1.082 -15.536  1.00  0.00     0.053 C 
BRANCH  14  15
ATOM     15  C   UNL     1      17.386  -0.162 -15.653  1.00  0.00     0.041 C 
ATOM     16  O   UNL     1      16.910  -0.706 -14.621  1.00  0.00    -0.550 OA
ATOM     17  O   UNL     1      17.156  -0.732 -16.900  1.00  0.00    -0.550 OA
ENDBRANCH  14  15
ENDBRANCH  13  14
ENDBRANCH  12  13
ENDBRANCH  11  12
ENDBRANCH  10  11
ENDBRANCH   9  10
ENDBRANCH   8   9
ENDBRANCH   7   8
ENDBRANCH   6   7
ENDBRANCH   5   6
ENDBRANCH   4   5
ENDBRANCH   3   4
ENDBRANCH   2   3
ENDBRANCH   1   2
BRANCH   1  18
ATOM     18  C   UNL     1      24.014   5.902 -13.524  1.00  0.00     0.000 C 
BRANCH  18  19
ATOM     19  C   UNL     1      25.031   5.262 -14.485  1.00  0.00     0.000 C 
BRANCH  19  20
ATOM     20  C   UNL     1      25.855   4.102 -13.892  1.00  0.00     0.000 C 
BRANCH  20  21
ATOM     21  C   UNL     1      26.277   3.020 -14.901  1.00  0.00     0.000 C 
BRANCH  21  22
ATOM     22  C   UNL     1      25.992   1.595 -14.398  1.00  0.00     0.000 C 
BRANCH  22  23
ATOM     23  C   UNL     1      24.963   0.850 -15.267  1.00  0.00     0.000 C 
BRANCH  23  24
ATOM     24  C   UNL     1      25.108  -0.685 -15.275  1.00  0.00    -0.000 C 
BRANCH  24  25
ATOM     25  C   UNL     1      24.200  -1.388 -16.306  1.00  0.00    -0.000 C 
BRANCH  25  26
ATOM     26  C   UNL     1      23.634  -0.406 -17.347  1.00  0.00    -0.000 C 
BRANCH  26  27
ATOM     27  C   UNL     1      24.029  -0.785 -18.792  1.00  0.00    -0.000 C 
BRANCH  27  28
ATOM     28  C   UNL     1      24.914  -2.042 -18.881  1.00  0.00    -0.000 C 
BRANCH  28  29
ATOM     29  C   UNL     1      24.712  -2.888 -20.153  1.00  0.00    -0.000 C 
BRANCH  29  30
ATOM     30  C   UNL     1      25.870  -3.847 -20.493  1.00  0.00    -0.000 C 
BRANCH  30  31
ATOM     31  C   UNL     1      25.774  -5.241 -19.851  1.00  0.00    -0.003 C 
ATOM     32  C   UNL     1      25.742  -6.372 -20.877  1.00  0.00     0.004 C 
ENDBRANCH  30  31
ENDBRANCH  29  30
ENDBRANCH  28  29
ENDBRANCH  27  28
ENDBRANCH  26  27
ENDBRANCH  25  26
ENDBRANCH  24  25
ENDBRANCH  23  24
ENDBRANCH  22  23
ENDBRANCH  21  22
ENDBRANCH  20  21
ENDBRANCH  19  20
ENDBRANCH  18  19
ENDBRANCH   1  18
TORSDOF 28
ENDMDL
MODEL 5
REMARK VINA RESULT:     2.284      1.763      5.576
REMARK INTER + INTRA:           4.245
REMARK INTER:                   6.220
REMARK INTRA:                  -1.975
REMARK UNBOUND:                -1.777
REMARK SMILES CCCCCCCCCCCCCCCCCCCCCCCCCCCCCC(=O)[O-]
REMARK SMILES IDX 16 1 17 2 18 3 19 4 20 5 21 6 22 7 23 8 24 9 25 10 26 11
REMARK SMILES IDX 27 12 28 13 29 14 30 15 31 16 32 17 15 18 14 19 13 20 12 21
REMARK SMILES IDX 11 22 10 23 9 24 8 25 7 26 6 27 5 28 4 29 3 30 2 31 1 32
REMARK H PARENT
REMARK Flexibility Score: inf
ROOT
ATOM      1  C   UNL     1      21.442   5.965 -12.699  1.00  0.00     0.000 C 
ENDROOT
BRANCH   1   2
ATOM      2  C   UNL     1      22.271   4.831 -13.332  1.00  0.00     0.000 C 
BRANCH   2   3
ATOM      3  C   UNL     1      23.788   4.910 -13.049  1.00  0.00     0.000 C 
BRANCH   3   4
ATOM      4  C   UNL     1      24.588   5.612 -14.161  1.00  0.00     0.000 C 
BRANCH   4   5
ATOM      5  C   UNL     1      25.745   4.746 -14.701  1.00  0.00     0.000 C 
BRANCH   5   6
ATOM      6  C   UNL     1      25.876   3.404 -13.959  1.00  0.00     0.000 C 
BRANCH   6   7
ATOM      7  C   UNL     1      25.891   2.171 -14.889  1.00  0.00     0.000 C 
BRANCH   7   8
ATOM      8  C   UNL     1      24.610   1.316 -14.837  1.00  0.00     0.000 C 
BRANCH   8   9
ATOM      9  C   UNL     1      24.465   0.391 -16.058  1.00  0.00     0.000 C 
BRANCH   9  10
ATOM     10  C   UNL     1      24.776  -1.082 -15.733  1.00  0.00     0.000 C 
BRANCH  10  11
ATOM     11  C   UNL     1      24.504  -2.074 -16.880  1.00  0.00     0.000 C 
BRANCH  11  12
ATOM     12  C   UNL     1      25.707  -2.973 -17.200  1.00  0.00     0.000 C 
BRANCH  12  13
ATOM     13  C   UNL     1      25.270  -4.221 -17.982  1.00  0.00     0.006 C 
BRANCH  13  14
ATOM     14  C   UNL     1      24.554  -3.862 -19.291  1.00  0.00     0.053 C 
BRANCH  14  15
ATOM     15  C   UNL     1      25.469  -3.168 -20.253  1.00  0.00     0.041 C 
ATOM     16  O   UNL     1      26.378  -3.812 -20.841  1.00  0.00    -0.550 OA
ATOM     17  O   UNL     1      25.330  -1.804 -20.486  1.00  0.00    -0.550 OA
ENDBRANCH  14  15
ENDBRANCH  13  14
ENDBRANCH  12  13
ENDBRANCH  11  12
ENDBRANCH  10  11
ENDBRANCH   9  10
ENDBRANCH   8   9
ENDBRANCH   7   8
ENDBRANCH   6   7
ENDBRANCH   5   6
ENDBRANCH   4   5
ENDBRANCH   3   4
ENDBRANCH   2   3
ENDBRANCH   1   2
BRANCH   1  18
ATOM     18  C   UNL     1      22.317   7.052 -12.054  1.00  0.00     0.000 C 
BRANCH  18  19
ATOM     19  C   UNL     1      22.163   7.107 -10.524  1.00  0.00     0.000 C 
BRANCH  19  20
ATOM     20  C   UNL     1      20.947   6.349  -9.958  1.00  0.00     0.000 C 
BRANCH  20  21
ATOM     21  C   UNL     1      19.586   7.026 -10.200  1.00  0.00     0.000 C 
BRANCH  21  22
ATOM     22  C   UNL     1      18.399   6.133  -9.802  1.00  0.00     0.000 C 
BRANCH  22  23
ATOM     23  C   UNL     1      17.588   5.645 -11.016  1.00  0.00     0.000 C 
BRANCH  23  24
ATOM     24  C   UNL     1      17.058   4.201 -10.906  1.00  0.00    -0.000 C 
BRANCH  24  25
ATOM     25  C   UNL     1      17.952   3.158 -11.610  1.00  0.00    -0.000 C 
BRANCH  25  26
ATOM     26  C   UNL     1      18.828   3.788 -12.707  1.00  0.00    -0.000 C 
BRANCH  26  27
ATOM     27  C   UNL     1      19.346   2.744 -13.721  1.00  0.00    -0.000 C 
BRANCH  27  28
ATOM     28  C   UNL     1      18.553   1.425 -13.710  1.00  0.00    -0.000 C 
BRANCH  28  29
ATOM     29  C   UNL     1      18.038   0.966 -15.088  1.00  0.00    -0.000 C 
BRANCH  29  30
ATOM     30  C   UNL     1      17.209  -0.334 -15.078  1.00  0.00    -0.000 C 
BRANCH  30  31
ATOM     31  C   UNL     1      17.134  -1.071 -16.425  1.00  0.00    -0.003 C 
ATOM     32  C   UNL     1      17.048  -0.124 -17.622  1.00  0.00     0.004 C 
ENDBRANCH  30  31
ENDBRANCH  29  30
ENDBRANCH  28  29
ENDBRANCH  27  28
ENDBRANCH  26  27
ENDBRANCH  25  26
ENDBRANCH  24  25
ENDBRANCH  23  24
ENDBRANCH  22  23
ENDBRANCH  21  22
ENDBRANCH  20  21
ENDBRANCH  19  20
ENDBRANCH  18  19
ENDBRANCH   1  18
TORSDOF 28
ENDMDL
MODEL 6
REMARK VINA RESULT:     2.289      1.620      5.189
REMARK INTER + INTRA:           4.258
REMARK INTER:                   5.415
REMARK INTRA:                  -1.156
REMARK UNBOUND:                -1.777
REMARK SMILES CCCCCCCCCCCCCCCCCCCCCCCCCCCCCC(=O)[O-]
REMARK SMILES IDX 16 1 17 2 18 3 19 4 20 5 21 6 22 7 23 8 24 9 25 10 26 11
REMARK SMILES IDX 27 12 28 13 29 14 30 15 31 16 32 17 15 18 14 19 13 20 12 21
REMARK SMILES IDX 11 22 10 23 9 24 8 25 7 26 6 27 5 28 4 29 3 30 2 31 1 32
REMARK H PARENT
REMARK Flexibility Score: inf
ROOT
ATOM      1  C   UNL     1      23.557   6.854 -13.307  1.00  0.00     0.000 C 
ENDROOT
BRANCH   1   2
ATOM      2  C   UNL     1      23.901   5.357 -13.434  1.00  0.00     0.000 C 
BRANCH   2   3
ATOM      3  C   UNL     1      25.022   5.041 -14.449  1.00  0.00     0.000 C 
BRANCH   3   4
ATOM      4  C   UNL     1      26.136   4.145 -13.880  1.00  0.00     0.000 C 
BRANCH   4   5
ATOM      5  C   UNL     1      26.633   3.093 -14.895  1.00  0.00     0.000 C 
BRANCH   5   6
ATOM      6  C   UNL     1      26.233   1.659 -14.505  1.00  0.00     0.000 C 
BRANCH   6   7
ATOM      7  C   UNL     1      25.010   1.116 -15.277  1.00  0.00     0.000 C 
BRANCH   7   8
ATOM      8  C   UNL     1      24.987  -0.416 -15.440  1.00  0.00     0.000 C 
BRANCH   8   9
ATOM      9  C   UNL     1      24.033  -0.879 -16.555  1.00  0.00     0.000 C 
BRANCH   9  10
ATOM     10  C   UNL     1      24.740  -1.713 -17.639  1.00  0.00     0.000 C 
BRANCH  10  11
ATOM     11  C   UNL     1      24.134  -1.596 -19.051  1.00  0.00     0.000 C 
BRANCH  11  12
ATOM     12  C   UNL     1      25.058  -2.139 -20.152  1.00  0.00     0.000 C 
BRANCH  12  13
ATOM     13  C   UNL     1      26.146  -3.046 -19.559  1.00  0.00     0.006 C 
BRANCH  13  14
ATOM     14  C   UNL     1      25.566  -4.099 -18.605  1.00  0.00     0.053 C 
BRANCH  14  15
ATOM     15  C   UNL     1      24.790  -5.148 -19.339  1.00  0.00     0.041 C 
ATOM     16  O   UNL     1      23.546  -5.251 -19.170  1.00  0.00    -0.550 OA
ATOM     17  O   UNL     1      25.443  -6.025 -20.198  1.00  0.00    -0.550 OA
ENDBRANCH  14  15
ENDBRANCH  13  14
ENDBRANCH  12  13
ENDBRANCH  11  12
ENDBRANCH  10  11
ENDBRANCH   9  10
ENDBRANCH   8   9
ENDBRANCH   7   8
ENDBRANCH   6   7
ENDBRANCH   5   6
ENDBRANCH   4   5
ENDBRANCH   3   4
ENDBRANCH   2   3
ENDBRANCH   1   2
BRANCH   1  18
ATOM     18  C   UNL     1      22.231   7.099 -12.568  1.00  0.00     0.000 C 
BRANCH  18  19
ATOM     19  C   UNL     1      22.030   6.146 -11.377  1.00  0.00     0.000 C 
BRANCH  19  20
ATOM     20  C   UNL     1      21.933   6.828  -9.999  1.00  0.00     0.000 C 
BRANCH  20  21
ATOM     21  C   UNL     1      21.357   5.949  -8.875  1.00  0.00     0.000 C 
BRANCH  21  22
ATOM     22  C   UNL     1      20.002   5.323  -9.245  1.00  0.00     0.000 C 
BRANCH  22  23
ATOM     23  C   UNL     1      18.922   6.376  -9.550  1.00  0.00     0.000 C 
BRANCH  23  24
ATOM     24  C   UNL     1      17.898   5.965 -10.626  1.00  0.00    -0.000 C 
BRANCH  24  25
ATOM     25  C   UNL     1      18.516   5.767 -12.027  1.00  0.00    -0.000 C 
BRANCH  25  26
ATOM     26  C   UNL     1      18.872   4.295 -12.302  1.00  0.00    -0.000 C 
BRANCH  26  27
ATOM     27  C   UNL     1      20.085   4.148 -13.247  1.00  0.00    -0.000 C 
BRANCH  27  28
ATOM     28  C   UNL     1      19.854   3.154 -14.400  1.00  0.00    -0.000 C 
BRANCH  28  29
ATOM     29  C   UNL     1      18.999   1.926 -14.035  1.00  0.00    -0.000 C 
BRANCH  29  30
ATOM     30  C   UNL     1      18.358   1.195 -15.232  1.00  0.00    -0.000 C 
BRANCH  30  31
ATOM     31  C   UNL     1      17.352   0.093 -14.862  1.00  0.00    -0.003 C 
ATOM     32  C   UNL     1      17.067  -0.869 -16.014  1.00  0.00     0.004 C 
ENDBRANCH  30  31
ENDBRANCH  29  30
ENDBRANCH  28  29
ENDBRANCH  27  28
ENDBRANCH  26  27
ENDBRANCH  25  26
ENDBRANCH  24  25
ENDBRANCH  23  24
ENDBRANCH  22  23
ENDBRANCH  21  22
ENDBRANCH  20  21
ENDBRANCH  19  20
ENDBRANCH  18  19
ENDBRANCH   1  18
TORSDOF 28
ENDMDL
MODEL 7
REMARK VINA RESULT:     2.522      1.768      4.198
REMARK INTER + INTRA:           4.874
REMARK INTER:                   5.992
REMARK INTRA:                  -1.118
REMARK UNBOUND:                -1.777
REMARK SMILES CCCCCCCCCCCCCCCCCCCCCCCCCCCCCC(=O)[O-]
REMARK SMILES IDX 16 1 17 2 18 3 19 4 20 5 21 6 22 7 23 8 24 9 25 10 26 11
REMARK SMILES IDX 27 12 28 13 29 14 30 15 31 16 32 17 15 18 14 19 13 20 12 21
REMARK SMILES IDX 11 22 10 23 9 24 8 25 7 26 6 27 5 28 4 29 3 30 2 31 1 32
REMARK H PARENT
REMARK Flexibility Score: inf
ROOT
ATOM      1  C   UNL     1      18.084  -0.012 -17.456  1.00  0.00     0.000 C 
ENDROOT
BRANCH   1   2
ATOM      2  C   UNL     1      19.467   0.395 -16.911  1.00  0.00     0.000 C 
BRANCH   2   3
ATOM      3  C   UNL     1      20.602   0.369 -17.959  1.00  0.00     0.000 C 
BRANCH   3   4
ATOM      4  C   UNL     1      21.978   0.754 -17.389  1.00  0.00     0.000 C 
BRANCH   4   5
ATOM      5  C   UNL     1      23.115  -0.151 -17.910  1.00  0.00     0.000 C 
BRANCH   5   6
ATOM      6  C   UNL     1      24.140  -0.503 -16.817  1.00  0.00     0.000 C 
BRANCH   6   7
ATOM      7  C   UNL     1      24.236  -2.013 -16.509  1.00  0.00     0.000 C 
BRANCH   7   8
ATOM      8  C   UNL     1      25.395  -2.737 -17.221  1.00  0.00     0.000 C 
BRANCH   8   9
ATOM      9  C   UNL     1      24.943  -4.026 -17.929  1.00  0.00     0.000 C 
BRANCH   9  10
ATOM     10  C   UNL     1      24.028  -3.756 -19.137  1.00  0.00     0.000 C 
BRANCH  10  11
ATOM     11  C   UNL     1      24.483  -2.606 -20.055  1.00  0.00     0.000 C 
BRANCH  11  12
ATOM     12  C   UNL     1      25.296  -3.085 -21.268  1.00  0.00     0.000 C 
BRANCH  12  13
ATOM     13  C   UNL     1      26.441  -4.011 -20.832  1.00  0.00     0.006 C 
BRANCH  13  14
ATOM     14  C   UNL     1      26.543  -5.261 -21.716  1.00  0.00     0.053 C 
BRANCH  14  15
ATOM     15  C   UNL     1      25.863  -6.440 -21.092  1.00  0.00     0.041 C 
ATOM     16  O   UNL     1      25.754  -7.521 -21.730  1.00  0.00    -0.550 OA
ATOM     17  O   UNL     1      25.333  -6.342 -19.811  1.00  0.00    -0.550 OA
ENDBRANCH  14  15
ENDBRANCH  13  14
ENDBRANCH  12  13
ENDBRANCH  11  12
ENDBRANCH  10  11
ENDBRANCH   9  10
ENDBRANCH   8   9
ENDBRANCH   7   8
ENDBRANCH   6   7
ENDBRANCH   5   6
ENDBRANCH   4   5
ENDBRANCH   3   4
ENDBRANCH   2   3
ENDBRANCH   1   2
BRANCH   1  18
ATOM     18  C   UNL     1      17.133  -0.509 -16.355  1.00  0.00     0.000 C 
BRANCH  18  19
ATOM     19  C   UNL     1      17.534  -0.012 -14.956  1.00  0.00     0.000 C 
BRANCH  19  20
ATOM     20  C   UNL     1      17.889   1.484 -14.867  1.00  0.00     0.000 C 
BRANCH  20  21
ATOM     21  C   UNL     1      18.863   1.858 -13.736  1.00  0.00     0.000 C 
BRANCH  21  22
ATOM     22  C   UNL     1      19.783   3.033 -14.109  1.00  0.00     0.000 C 
BRANCH  22  23
ATOM     23  C   UNL     1      19.995   4.016 -12.944  1.00  0.00     0.000 C 
BRANCH  23  24
ATOM     24  C   UNL     1      20.393   5.446 -13.363  1.00  0.00    -0.000 C 
BRANCH  24  25
ATOM     25  C   UNL     1      21.888   5.763 -13.146  1.00  0.00    -0.000 C 
BRANCH  25  26
ATOM     26  C   UNL     1      22.303   5.622 -11.671  1.00  0.00    -0.000 C 
BRANCH  26  27
ATOM     27  C   UNL     1      21.580   6.634 -10.755  1.00  0.00    -0.000 C 
BRANCH  27  28
ATOM     28  C   UNL     1      21.059   6.018  -9.443  1.00  0.00    -0.000 C 
BRANCH  28  29
ATOM     29  C   UNL     1      19.630   5.447  -9.517  1.00  0.00    -0.000 C 
BRANCH  29  30
ATOM     30  C   UNL     1      18.631   6.286 -10.338  1.00  0.00    -0.000 C 
BRANCH  30  31
ATOM     31  C   UNL     1      17.458   5.496 -10.944  1.00  0.00    -0.003 C 
ATOM     32  C   UNL     1      17.528   3.999 -10.647  1.00  0.00     0.004 C 
ENDBRANCH  30  31
ENDBRANCH  29  30
ENDBRANCH  28  29
ENDBRANCH  27  28
ENDBRANCH  26  27
ENDBRANCH  25  26
ENDBRANCH  24  25
ENDBRANCH  23  24
ENDBRANCH  22  23
ENDBRANCH  21  22
ENDBRANCH  20  21
ENDBRANCH  19  20
ENDBRANCH  18  19
ENDBRANCH   1  18
TORSDOF 28
ENDMDL
MODEL 8
REMARK VINA RESULT:     2.562      1.423      2.407
REMARK INTER + INTRA:           4.979
REMARK INTER:                   5.964
REMARK INTRA:                  -0.985
REMARK UNBOUND:                -1.777
REMARK SMILES CCCCCCCCCCCCCCCCCCCCCCCCCCCCCC(=O)[O-]
REMARK SMILES IDX 16 1 17 2 18 3 19 4 20 5 21 6 22 7 23 8 24 9 25 10 26 11
REMARK SMILES IDX 27 12 28 13 29 14 30 15 31 16 32 17 15 18 14 19 13 20 12 21
REMARK SMILES IDX 11 22 10 23 9 24 8 25 7 26 6 27 5 28 4 29 3 30 2 31 1 32
REMARK H PARENT
REMARK Flexibility Score: inf
ROOT
ATOM      1  C   UNL     1      18.019   0.500 -14.769  1.00  0.00     0.000 C 
ENDROOT
BRANCH   1   2
ATOM      2  C   UNL     1      17.452   0.406 -16.199  1.00  0.00     0.000 C 
BRANCH   2   3
ATOM      3  C   UNL     1      18.523   0.347 -17.311  1.00  0.00     0.000 C 
BRANCH   3   4
ATOM      4  C   UNL     1      19.958   0.565 -16.798  1.00  0.00     0.000 C 
BRANCH   4   5
ATOM      5  C   UNL     1      21.018   0.406 -17.909  1.00  0.00     0.000 C 
BRANCH   5   6
ATOM      6  C   UNL     1      22.449   0.306 -17.350  1.00  0.00     0.000 C 
BRANCH   6   7
ATOM      7  C   UNL     1      23.525   0.038 -18.426  1.00  0.00     0.000 C 
BRANCH   7   8
ATOM      8  C   UNL     1      23.888  -1.448 -18.608  1.00  0.00     0.000 C 
BRANCH   8   9
ATOM      9  C   UNL     1      24.213  -1.804 -20.069  1.00  0.00     0.000 C 
BRANCH   9  10
ATOM     10  C   UNL     1      25.486  -2.660 -20.208  1.00  0.00     0.000 C 
BRANCH  10  11
ATOM     11  C   UNL     1      26.053  -3.205 -18.883  1.00  0.00     0.000 C 
BRANCH  11  12
ATOM     12  C   UNL     1      25.122  -4.217 -18.198  1.00  0.00     0.000 C 
BRANCH  12  13
ATOM     13  C   UNL     1      24.658  -5.296 -19.187  1.00  0.00     0.006 C 
BRANCH  13  14
ATOM     14  C   UNL     1      25.776  -6.293 -19.523  1.00  0.00     0.053 C 
BRANCH  14  15
ATOM     15  C   UNL     1      25.933  -6.475 -21.001  1.00  0.00     0.041 C 
ATOM     16  O   UNL     1      25.416  -7.470 -21.577  1.00  0.00    -0.550 OA
ATOM     17  O   UNL     1      26.665  -5.555 -21.743  1.00  0.00    -0.550 OA
ENDBRANCH  14  15
ENDBRANCH  13  14
ENDBRANCH  12  13
ENDBRANCH  11  12
ENDBRANCH  10  11
ENDBRANCH   9  10
ENDBRANCH   8   9
ENDBRANCH   7   8
ENDBRANCH   6   7
ENDBRANCH   5   6
ENDBRANCH   4   5
ENDBRANCH   3   4
ENDBRANCH   2   3
ENDBRANCH   1   2
BRANCH   1  18
ATOM     18  C   UNL     1      18.617   1.881 -14.456  1.00  0.00     0.000 C 
BRANCH  18  19
ATOM     19  C   UNL     1      18.903   2.077 -12.957  1.00  0.00     0.000 C 
BRANCH  19  20
ATOM     20  C   UNL     1      18.277   3.337 -12.328  1.00  0.00     0.000 C 
BRANCH  20  21
ATOM     21  C   UNL     1      17.216   3.068 -11.247  1.00  0.00     0.000 C 
BRANCH  21  22
ATOM     22  C   UNL     1      16.353   4.304 -10.942  1.00  0.00     0.000 C 
BRANCH  22  23
ATOM     23  C   UNL     1      17.149   5.435 -10.267  1.00  0.00     0.000 C 
BRANCH  23  24
ATOM     24  C   UNL     1      17.930   6.347 -11.234  1.00  0.00    -0.000 C 
BRANCH  24  25
ATOM     25  C   UNL     1      19.113   7.084 -10.572  1.00  0.00    -0.000 C 
BRANCH  25  26
ATOM     26  C   UNL     1      19.707   6.291  -9.394  1.00  0.00    -0.000 C 
BRANCH  26  27
ATOM     27  C   UNL     1      21.247   6.387  -9.335  1.00  0.00    -0.000 C 
BRANCH  27  28
ATOM     28  C   UNL     1      21.913   6.508 -10.718  1.00  0.00    -0.000 C 
BRANCH  28  29
ATOM     29  C   UNL     1      22.329   5.169 -11.356  1.00  0.00    -0.000 C 
BRANCH  29  30
ATOM     30  C   UNL     1      22.601   5.222 -12.872  1.00  0.00    -0.000 C 
BRANCH  30  31
ATOM     31  C   UNL     1      21.479   4.654 -13.757  1.00  0.00    -0.003 C 
ATOM     32  C   UNL     1      20.180   5.452 -13.662  1.00  0.00     0.004 C 
ENDBRANCH  30  31
ENDBRANCH  29  30
ENDBRANCH  28  29
ENDBRANCH  27  28
ENDBRANCH  26  27
ENDBRANCH  25  26
ENDBRANCH  24  25
ENDBRANCH  23  24
ENDBRANCH  22  23
ENDBRANCH  21  22
ENDBRANCH  20  21
ENDBRANCH  19  20
ENDBRANCH  18  19
ENDBRANCH   1  18
TORSDOF 28
ENDMDL
MODEL 9
REMARK VINA RESULT:     2.662      3.888     12.164
REMARK INTER + INTRA:           5.241
REMARK INTER:                   6.327
REMARK INTRA:                  -1.087
REMARK UNBOUND:                -1.777
REMARK SMILES CCCCCCCCCCCCCCCCCCCCCCCCCCCCCC(=O)[O-]
REMARK SMILES IDX 16 1 17 2 18 3 19 4 20 5 21 6 22 7 23 8 24 9 25 10 26 11
REMARK SMILES IDX 27 12 28 13 29 14 30 15 31 16 32 17 15 18 14 19 13 20 12 21
REMARK SMILES IDX 11 22 10 23 9 24 8 25 7 26 6 27 5 28 4 29 3 30 2 31 1 32
REMARK H PARENT
REMARK Flexibility Score: inf
ROOT
ATOM      1  C   UNL     1      24.997   1.688 -14.929  1.00  0.00     0.000 C 
ENDROOT
BRANCH   1   2
ATOM      2  C   UNL     1      26.282   2.445 -14.541  1.00  0.00     0.000 C 
BRANCH   2   3
ATOM      3  C   UNL     1      26.153   3.985 -14.571  1.00  0.00     0.000 C 
BRANCH   3   4
ATOM      4  C   UNL     1      24.887   4.512 -13.872  1.00  0.00     0.000 C 
BRANCH   4   5
ATOM      5  C   UNL     1      24.579   5.982 -14.226  1.00  0.00     0.000 C 
BRANCH   5   6
ATOM      6  C   UNL     1      23.861   6.727 -13.087  1.00  0.00     0.000 C 
BRANCH   6   7
ATOM      7  C   UNL     1      22.656   5.961 -12.497  1.00  0.00     0.000 C 
BRANCH   7   8
ATOM      8  C   UNL     1      21.682   6.834 -11.682  1.00  0.00     0.000 C 
BRANCH   8   9
ATOM      9  C   UNL     1      21.777   6.572 -10.169  1.00  0.00     0.000 C 
BRANCH   9  10
ATOM     10  C   UNL     1      20.422   6.197  -9.541  1.00  0.00     0.000 C 
BRANCH  10  11
ATOM     11  C   UNL     1      19.185   6.714 -10.300  1.00  0.00     0.000 C 
BRANCH  11  12
ATOM     12  C   UNL     1      18.030   5.701 -10.334  1.00  0.00     0.000 C 
BRANCH  12  13
ATOM     13  C   UNL     1      18.370   4.509 -11.242  1.00  0.00     0.006 C 
BRANCH  13  14
ATOM     14  C   UNL     1      19.108   4.944 -12.516  1.00  0.00     0.053 C 
BRANCH  14  15
ATOM     15  C   UNL     1      19.588   3.768 -13.309  1.00  0.00     0.041 C 
ATOM     16  O   UNL     1      19.004   2.656 -13.212  1.00  0.00    -0.550 OA
ATOM     17  O   UNL     1      20.694   3.894 -14.142  1.00  0.00    -0.550 OA
ENDBRANCH  14  15
ENDBRANCH  13  14
ENDBRANCH  12  13
ENDBRANCH  11  12
ENDBRANCH  10  11
ENDBRANCH   9  10
ENDBRANCH   8   9
ENDBRANCH   7   8
ENDBRANCH   6   7
ENDBRANCH   5   6
ENDBRANCH   4   5
ENDBRANCH   3   4
ENDBRANCH   2   3
ENDBRANCH   1   2
BRANCH   1  18
ATOM     18  C   UNL     1      25.258   0.216 -15.285  1.00  0.00     0.000 C 
BRANCH  18  19
ATOM     19  C   UNL     1      24.134  -0.396 -16.138  1.00  0.00     0.000 C 
BRANCH  19  20
ATOM     20  C   UNL     1      24.604  -1.291 -17.301  1.00  0.00     0.000 C 
BRANCH  20  21
ATOM     21  C   UNL     1      24.990  -2.727 -16.904  1.00  0.00     0.000 C 
BRANCH  21  22
ATOM     22  C   UNL     1      26.428  -3.090 -17.313  1.00  0.00     0.000 C 
BRANCH  22  23
ATOM     23  C   UNL     1      26.859  -2.422 -18.631  1.00  0.00     0.000 C 
BRANCH  23  24
ATOM     24  C   UNL     1      26.242  -3.036 -19.904  1.00  0.00    -0.000 C 
BRANCH  24  25
ATOM     25  C   UNL     1      25.014  -2.265 -20.432  1.00  0.00    -0.000 C 
BRANCH  25  26
ATOM     26  C   UNL     1      23.789  -3.179 -20.616  1.00  0.00    -0.000 C 
BRANCH  26  27
ATOM     27  C   UNL     1      23.419  -3.937 -19.322  1.00  0.00    -0.000 C 
BRANCH  27  28
ATOM     28  C   UNL     1      23.753  -5.440 -19.369  1.00  0.00    -0.000 C 
BRANCH  28  29
ATOM     29  C   UNL     1      25.250  -5.767 -19.529  1.00  0.00    -0.000 C 
BRANCH  29  30
ATOM     30  C   UNL     1      25.608  -6.611 -20.769  1.00  0.00    -0.000 C 
BRANCH  30  31
ATOM     31  C   UNL     1      26.866  -6.156 -21.527  1.00  0.00    -0.003 C 
ATOM     32  C   UNL     1      26.638  -4.898 -22.364  1.00  0.00     0.004 C 
ENDBRANCH  30  31
ENDBRANCH  29  30
ENDBRANCH  28  29
ENDBRANCH  27  28
ENDBRANCH  26  27
ENDBRANCH  25  26
ENDBRANCH  24  25
ENDBRANCH  23  24
ENDBRANCH  22  23
ENDBRANCH  21  22
ENDBRANCH  20  21
ENDBRANCH  19  20
ENDBRANCH  18  19
ENDBRANCH   1  18
TORSDOF 28
ENDMDL
