MODEL 1
REMARK VINA RESULT:    -3.375      0.000      0.000
REMARK INTER + INTRA:          -4.650
REMARK INTER:                  -4.362
REMARK INTRA:                  -0.288
REMARK UNBOUND:                -0.288
REMARK SMILES CCCCCCC(C)=O
REMARK SMILES IDX 4 1 3 2 2 3 1 4 5 5 6 6 7 7 9 8 8 9
REMARK H PARENT
REMARK Flexibility Score: inf
ROOT
ATOM      1  C   UNL     1     104.598 107.812 102.544  1.00  0.00     0.000 C 
ENDROOT
BRANCH   1   2
ATOM      2  C   UNL     1     104.533 106.312 102.865  1.00  0.00    -0.000 C 
BRANCH   2   3
ATOM      3  C   UNL     1     103.519 105.563 101.985  1.00  0.00    -0.003 C 
ATOM      4  C   UNL     1     102.967 104.307 102.660  1.00  0.00     0.004 C 
ENDBRANCH   2   3
ENDBRANCH   1   2
BRANCH   1   5
ATOM      5  C   UNL     1     106.010 108.218 102.099  1.00  0.00     0.008 C 
BRANCH   5   6
ATOM      6  C   UNL     1     106.999 107.045 102.164  1.00  0.00     0.075 C 
BRANCH   6   7
ATOM      7  C   UNL     1     108.169 107.344 103.066  1.00  0.00     0.129 C 
ATOM      8  O   UNL     1     109.128 107.960 102.626  1.00  0.00    -0.300 OA
ATOM      9  C   UNL     1     108.161 106.926 104.505  1.00  0.00     0.087 C 
ENDBRANCH   6   7
ENDBRANCH   5   6
ENDBRANCH   1   5
TORSDOF 5
ENDMDL
MODEL 2
REMARK VINA RESULT:    -3.363      2.781      3.716
REMARK INTER + INTRA:          -4.634
REMARK INTER:                  -4.329
REMARK INTRA:                  -0.306
REMARK UNBOUND:                -0.288
REMARK SMILES CCCCCCC(C)=O
REMARK SMILES IDX 4 1 3 2 2 3 1 4 5 5 6 6 7 7 9 8 8 9
REMARK H PARENT
REMARK Flexibility Score: inf
ROOT
ATOM      1  C   UNL     1     104.427 104.505 102.662  1.00  0.00     0.000 C 
ENDROOT
BRANCH   1   2
ATOM      2  C   UNL     1     105.883 104.493 102.172  1.00  0.00    -0.000 C 
BRANCH   2   3
ATOM      3  C   UNL     1     106.838 103.821 103.172  1.00  0.00    -0.003 C 
ATOM      4  C   UNL     1     107.773 102.811 102.508  1.00  0.00     0.004 C 
ENDBRANCH   2   3
ENDBRANCH   1   2
BRANCH   1   5
ATOM      5  C   UNL     1     103.720 105.803 102.247  1.00  0.00     0.008 C 
BRANCH   5   6
ATOM      6  C   UNL     1     104.713 106.924 101.910  1.00  0.00     0.075 C 
BRANCH   6   7
ATOM      7  C   UNL     1     104.610 108.077 102.875  1.00  0.00     0.129 C 
ATOM      8  O   UNL     1     104.073 109.116 102.519  1.00  0.00    -0.300 OA
ATOM      9  C   UNL     1     105.126 107.960 104.277  1.00  0.00     0.087 C 
ENDBRANCH   6   7
ENDBRANCH   5   6
ENDBRANCH   1   5
TORSDOF 5
ENDMDL
MODEL 3
REMARK VINA RESULT:    -3.360      2.672      3.543
REMARK INTER + INTRA:          -4.630
REMARK INTER:                  -4.300
REMARK INTRA:                  -0.330
REMARK UNBOUND:                -0.288
REMARK SMILES CCCCCCC(C)=O
REMARK SMILES IDX 4 1 3 2 2 3 1 4 5 5 6 6 7 7 9 8 8 9
REMARK H PARENT
REMARK Flexibility Score: inf
ROOT
ATOM      1  C   UNL     1     107.802 106.008 102.550  1.00  0.00     0.000 C 
ENDROOT
BRANCH   1   2
ATOM      2  C   UNL     1     107.391 105.222 103.804  1.00  0.00    -0.000 C 
BRANCH   2   3
ATOM      3  C   UNL     1     106.776 103.853 103.468  1.00  0.00    -0.003 C 
ATOM      4  C   UNL     1     107.512 103.137 102.336  1.00  0.00     0.004 C 
ENDBRANCH   2   3
ENDBRANCH   1   2
BRANCH   1   5
ATOM      5  C   UNL     1     107.394 107.483 102.669  1.00  0.00     0.008 C 
BRANCH   5   6
ATOM      6  C   UNL     1     106.037 107.767 102.011  1.00  0.00     0.075 C 
BRANCH   6   7
ATOM      7  C   UNL     1     105.085 108.453 102.956  1.00  0.00     0.129 C 
ATOM      8  O   UNL     1     104.214 109.185 102.509  1.00  0.00    -0.300 OA
ATOM      9  C   UNL     1     105.167 108.227 104.435  1.00  0.00     0.087 C 
ENDBRANCH   6   7
ENDBRANCH   5   6
ENDBRANCH   1   5
TORSDOF 5
ENDMDL
MODEL 4
REMARK VINA RESULT:    -3.324      2.840      4.421
REMARK INTER + INTRA:          -4.584
REMARK INTER:                  -4.065
REMARK INTRA:                  -0.518
REMARK UNBOUND:                -0.288
REMARK SMILES CCCCCCC(C)=O
REMARK SMILES IDX 4 1 3 2 2 3 1 4 5 5 6 6 7 7 9 8 8 9
REMARK H PARENT
REMARK Flexibility Score: inf
ROOT
ATOM      1  C   UNL     1     106.993 106.055 102.335  1.00  0.00     0.000 C 
ENDROOT
BRANCH   1   2
ATOM      2  C   UNL     1     106.543 107.368 102.992  1.00  0.00    -0.000 C 
BRANCH   2   3
ATOM      3  C   UNL     1     105.722 108.254 102.041  1.00  0.00    -0.003 C 
ATOM      4  C   UNL     1     104.394 108.703 102.651  1.00  0.00     0.004 C 
ENDBRANCH   2   3
ENDBRANCH   1   2
BRANCH   1   5
ATOM      5  C   UNL     1     106.192 104.865 102.883  1.00  0.00     0.008 C 
BRANCH   5   6
ATOM      6  C   UNL     1     104.883 104.641 102.114  1.00  0.00     0.075 C 
BRANCH   6   7
ATOM      7  C   UNL     1     103.684 104.653 103.027  1.00  0.00     0.129 C 
ATOM      8  O   UNL     1     102.640 104.135 102.659  1.00  0.00    -0.300 OA
ATOM      9  C   UNL     1     103.760 105.261 104.394  1.00  0.00     0.087 C 
ENDBRANCH   6   7
ENDBRANCH   5   6
ENDBRANCH   1   5
TORSDOF 5
ENDMDL
MODEL 5
REMARK VINA RESULT:    -3.305      2.322      4.417
REMARK INTER + INTRA:          -4.560
REMARK INTER:                  -4.108
REMARK INTRA:                  -0.452
REMARK UNBOUND:                -0.288
REMARK SMILES CCCCCCC(C)=O
REMARK SMILES IDX 4 1 3 2 2 3 1 4 5 5 6 6 7 7 9 8 8 9
REMARK H PARENT
REMARK Flexibility Score: inf
ROOT
ATOM      1  C   UNL     1     106.852 107.411 105.553  1.00  0.00     0.000 C 
ENDROOT
BRANCH   1   2
ATOM      2  C   UNL     1     108.163 106.870 104.966  1.00  0.00    -0.000 C 
BRANCH   2   3
ATOM      3  C   UNL     1     108.068 106.603 103.455  1.00  0.00    -0.003 C 
ATOM      4  C   UNL     1     108.833 107.634 102.624  1.00  0.00     0.004 C 
ENDBRANCH   2   3
ENDBRANCH   1   2
BRANCH   1   5
ATOM      5  C   UNL     1     105.667 107.102 104.627  1.00  0.00     0.008 C 
BRANCH   5   6
ATOM      6  C   UNL     1     104.927 108.373 104.186  1.00  0.00     0.075 C 
BRANCH   6   7
ATOM      7  C   UNL     1     104.692 108.400 102.698  1.00  0.00     0.129 C 
ATOM      8  O   UNL     1     104.456 109.462 102.143  1.00  0.00    -0.300 OA
ATOM      9  C   UNL     1     104.774 107.146 101.880  1.00  0.00     0.087 C 
ENDBRANCH   6   7
ENDBRANCH   5   6
ENDBRANCH   1   5
TORSDOF 5
ENDMDL
MODEL 6
REMARK VINA RESULT:    -3.304      2.531      2.678
REMARK INTER + INTRA:          -4.558
REMARK INTER:                  -4.029
REMARK INTRA:                  -0.529
REMARK UNBOUND:                -0.288
REMARK SMILES CCCCCCC(C)=O
REMARK SMILES IDX 4 1 3 2 2 3 1 4 5 5 6 6 7 7 9 8 8 9
REMARK H PARENT
REMARK Flexibility Score: inf
ROOT
ATOM      1  C   UNL     1     105.919 107.135 102.532  1.00  0.00     0.000 C 
ENDROOT
BRANCH   1   2
ATOM      2  C   UNL     1     104.547 106.660 103.032  1.00  0.00    -0.000 C 
BRANCH   2   3
ATOM      3  C   UNL     1     103.862 105.694 102.051  1.00  0.00    -0.003 C 
ATOM      4  C   UNL     1     103.360 104.420 102.731  1.00  0.00     0.004 C 
ENDBRANCH   2   3
ENDBRANCH   1   2
BRANCH   1   5
ATOM      5  C   UNL     1     107.052 106.342 103.199  1.00  0.00     0.008 C 
BRANCH   5   6
ATOM      6  C   UNL     1     107.592 105.227 102.293  1.00  0.00     0.075 C 
BRANCH   6   7
ATOM      7  C   UNL     1     107.441 103.866 102.923  1.00  0.00     0.129 C 
ATOM      8  O   UNL     1     107.890 102.883 102.353  1.00  0.00    -0.300 OA
ATOM      9  C   UNL     1     106.777 103.702 104.256  1.00  0.00     0.087 C 
ENDBRANCH   6   7
ENDBRANCH   5   6
ENDBRANCH   1   5
TORSDOF 5
ENDMDL
MODEL 7
REMARK VINA RESULT:    -3.293      2.990      5.095
REMARK INTER + INTRA:          -4.544
REMARK INTER:                  -4.269
REMARK INTRA:                  -0.275
REMARK UNBOUND:                -0.288
REMARK SMILES CCCCCCC(C)=O
REMARK SMILES IDX 4 1 3 2 2 3 1 4 5 5 6 6 7 7 9 8 8 9
REMARK H PARENT
REMARK Flexibility Score: inf
ROOT
ATOM      1  C   UNL     1     107.178 104.605 102.791  1.00  0.00     0.000 C 
ENDROOT
BRANCH   1   2
ATOM      2  C   UNL     1     107.472 105.966 102.144  1.00  0.00    -0.000 C 
BRANCH   2   3
ATOM      3  C   UNL     1     108.018 106.993 103.150  1.00  0.00    -0.003 C 
ATOM      4  C   UNL     1     109.139 107.853 102.566  1.00  0.00     0.004 C 
ENDBRANCH   2   3
ENDBRANCH   1   2
BRANCH   1   5
ATOM      5  C   UNL     1     105.953 103.943 102.143  1.00  0.00     0.008 C 
BRANCH   5   6
ATOM      6  C   UNL     1     104.803 104.936 101.925  1.00  0.00     0.075 C 
BRANCH   6   7
ATOM      7  C   UNL     1     103.684 104.726 102.912  1.00  0.00     0.129 C 
ATOM      8  O   UNL     1     102.689 104.102 102.573  1.00  0.00    -0.300 OA
ATOM      9  C   UNL     1     103.784 105.243 104.315  1.00  0.00     0.087 C 
ENDBRANCH   6   7
ENDBRANCH   5   6
ENDBRANCH   1   5
TORSDOF 5
ENDMDL
MODEL 8
REMARK VINA RESULT:    -3.252      2.525      4.409
REMARK INTER + INTRA:          -4.490
REMARK INTER:                  -4.077
REMARK INTRA:                  -0.413
REMARK UNBOUND:                -0.288
REMARK SMILES CCCCCCC(C)=O
REMARK SMILES IDX 4 1 3 2 2 3 1 4 5 5 6 6 7 7 9 8 8 9
REMARK H PARENT
REMARK Flexibility Score: inf
ROOT
ATOM      1  C   UNL     1     105.852 108.104 102.170  1.00  0.00     0.000 C 
ENDROOT
BRANCH   1   2
ATOM      2  C   UNL     1     106.994 107.080 102.103  1.00  0.00    -0.000 C 
BRANCH   2   3
ATOM      3  C   UNL     1     108.145 107.414 103.067  1.00  0.00    -0.003 C 
ATOM      4  C   UNL     1     107.941 106.819 104.459  1.00  0.00     0.004 C 
ENDBRANCH   2   3
ENDBRANCH   1   2
BRANCH   1   5
ATOM      5  C   UNL     1     104.514 107.415 102.475  1.00  0.00     0.008 C 
BRANCH   5   6
ATOM      6  C   UNL     1     104.491 105.956 102.000  1.00  0.00     0.075 C 
BRANCH   6   7
ATOM      7  C   UNL     1     103.815 105.050 102.997  1.00  0.00     0.129 C 
ATOM      8  O   UNL     1     103.115 104.130 102.599  1.00  0.00    -0.300 OA
ATOM      9  C   UNL     1     104.013 105.238 104.470  1.00  0.00     0.087 C 
ENDBRANCH   6   7
ENDBRANCH   5   6
ENDBRANCH   1   5
TORSDOF 5
ENDMDL
MODEL 9
REMARK VINA RESULT:    -3.236      1.542      2.125
REMARK INTER + INTRA:          -4.470
REMARK INTER:                  -4.126
REMARK INTRA:                  -0.344
REMARK UNBOUND:                -0.288
REMARK SMILES CCCCCCC(C)=O
REMARK SMILES IDX 4 1 3 2 2 3 1 4 5 5 6 6 7 7 9 8 8 9
REMARK H PARENT
REMARK Flexibility Score: inf
ROOT
ATOM      1  C   UNL     1     106.197 103.983 102.311  1.00  0.00     0.000 C 
ENDROOT
BRANCH   1   2
ATOM      2  C   UNL     1     104.987 104.822 101.875  1.00  0.00    -0.000 C 
BRANCH   2   3
ATOM      3  C   UNL     1     103.717 104.490 102.677  1.00  0.00    -0.003 C 
ATOM      4  C   UNL     1     103.809 104.933 104.137  1.00  0.00     0.004 C 
ENDBRANCH   2   3
ENDBRANCH   1   2
BRANCH   1   5
ATOM      5  C   UNL     1     107.504 104.765 102.122  1.00  0.00     0.008 C 
BRANCH   5   6
ATOM      6  C   UNL     1     107.268 106.279 102.033  1.00  0.00     0.075 C 
BRANCH   6   7
ATOM      7  C   UNL     1     108.166 107.045 102.970  1.00  0.00     0.129 C 
ATOM      8  O   UNL     1     108.924 107.892 102.521  1.00  0.00    -0.300 OA
ATOM      9  C   UNL     1     108.121 106.809 104.449  1.00  0.00     0.087 C 
ENDBRANCH   6   7
ENDBRANCH   5   6
ENDBRANCH   1   5
TORSDOF 5
ENDMDL
