MODEL 1
REMARK VINA RESULT:    -3.043      0.000      0.000
REMARK INTER + INTRA:          -5.239
REMARK INTER:                  -4.466
REMARK INTRA:                  -0.773
REMARK UNBOUND:                -0.773
REMARK SMILES O=C([O-])CCCCCCCC(=O)[O-]
REMARK SMILES IDX 7 1 6 2 5 3 4 4 2 5 1 6 3 7 8 8 9 9 10 10 11 11 12 12 13 13
REMARK H PARENT
REMARK Flexibility Score: inf
ROOT
ATOM      1  C   UNL     1    -101.279 -27.975 -12.689  1.00  0.00     0.000 C 
ENDROOT
BRANCH   1   2
ATOM      2  C   UNL     1     -99.837 -28.081 -13.209  1.00  0.00     0.000 C 
BRANCH   2   3
ATOM      3  C   UNL     1     -99.218 -29.436 -12.835  1.00  0.00     0.006 C 
BRANCH   3   4
ATOM      4  C   UNL     1     -98.783 -30.236 -14.071  1.00  0.00     0.053 C 
BRANCH   4   5
ATOM      5  C   UNL     1     -99.955 -30.636 -14.914  1.00  0.00     0.041 C 
ATOM      6  O   UNL     1     -99.924 -30.474 -16.162  1.00  0.00    -0.550 OA
ATOM      7  O   UNL     1    -101.069 -31.219 -14.324  1.00  0.00    -0.550 OA
ENDBRANCH   4   5
ENDBRANCH   3   4
ENDBRANCH   2   3
ENDBRANCH   1   2
BRANCH   1   8
ATOM      8  C   UNL     1    -102.307 -27.834 -13.822  1.00  0.00     0.000 C 
BRANCH   8   9
ATOM      9  C   UNL     1    -101.667 -27.395 -15.151  1.00  0.00     0.006 C 
BRANCH   9  10
ATOM     10  C   UNL     1    -102.444 -27.916 -16.368  1.00  0.00     0.053 C 
BRANCH  10  11
ATOM     11  C   UNL     1    -103.589 -27.017 -16.721  1.00  0.00     0.041 C 
ATOM     12  O   UNL     1    -103.411 -25.774 -16.819  1.00  0.00    -0.550 OA
ATOM     13  O   UNL     1    -104.844 -27.555 -16.976  1.00  0.00    -0.550 OA
ENDBRANCH  10  11
ENDBRANCH   9  10
ENDBRANCH   8   9
ENDBRANCH   1   8
TORSDOF 8
ENDMDL
MODEL 2
REMARK VINA RESULT:    -2.981      1.377      1.902
REMARK INTER + INTRA:          -5.149
REMARK INTER:                  -4.630
REMARK INTRA:                  -0.519
REMARK UNBOUND:                -0.773
REMARK SMILES O=C([O-])CCCCCCCC(=O)[O-]
REMARK SMILES IDX 7 1 6 2 5 3 4 4 2 5 1 6 3 7 8 8 9 9 10 10 11 11 12 12 13 13
REMARK H PARENT
REMARK Flexibility Score: inf
ROOT
ATOM      1  C   UNL     1    -102.430 -28.010 -13.860  1.00  0.00     0.000 C 
ENDROOT
BRANCH   1   2
ATOM      2  C   UNL     1    -101.393 -28.035 -12.727  1.00  0.00     0.000 C 
BRANCH   2   3
ATOM      3  C   UNL     1     -99.965 -27.959 -13.290  1.00  0.00     0.006 C 
BRANCH   3   4
ATOM      4  C   UNL     1     -99.124 -29.185 -12.908  1.00  0.00     0.053 C 
BRANCH   4   5
ATOM      5  C   UNL     1     -98.901 -30.091 -14.079  1.00  0.00     0.041 C 
ATOM      6  O   UNL     1     -97.842 -30.766 -14.167  1.00  0.00    -0.550 OA
ATOM      7  O   UNL     1     -99.880 -30.216 -15.058  1.00  0.00    -0.550 OA
ENDBRANCH   4   5
ENDBRANCH   3   4
ENDBRANCH   2   3
ENDBRANCH   1   2
BRANCH   1   8
ATOM      8  C   UNL     1    -101.941 -27.229 -15.091  1.00  0.00     0.000 C 
BRANCH   8   9
ATOM      9  C   UNL     1    -102.848 -27.429 -16.317  1.00  0.00     0.006 C 
BRANCH   9  10
ATOM     10  C   UNL     1    -103.435 -26.106 -16.826  1.00  0.00     0.053 C 
BRANCH  10  11
ATOM     11  C   UNL     1    -104.357 -25.486 -15.822  1.00  0.00     0.041 C 
ATOM     12  O   UNL     1    -104.238 -24.269 -15.519  1.00  0.00    -0.550 OA
ATOM     13  O   UNL     1    -105.370 -26.242 -15.246  1.00  0.00    -0.550 OA
ENDBRANCH  10  11
ENDBRANCH   9  10
ENDBRANCH   8   9
ENDBRANCH   1   8
TORSDOF 8
ENDMDL
MODEL 3
REMARK VINA RESULT:    -2.948      2.146      6.250
REMARK INTER + INTRA:          -5.100
REMARK INTER:                  -4.764
REMARK INTRA:                  -0.336
REMARK UNBOUND:                -0.773
REMARK SMILES O=C([O-])CCCCCCCC(=O)[O-]
REMARK SMILES IDX 7 1 6 2 5 3 4 4 2 5 1 6 3 7 8 8 9 9 10 10 11 11 12 12 13 13
REMARK H PARENT
REMARK Flexibility Score: inf
ROOT
ATOM      1  C   UNL     1    -101.346 -28.308 -15.519  1.00  0.00     0.000 C 
ENDROOT
BRANCH   1   2
ATOM      2  C   UNL     1    -102.439 -27.582 -16.319  1.00  0.00     0.000 C 
BRANCH   2   3
ATOM      3  C   UNL     1    -103.144 -26.529 -15.451  1.00  0.00     0.006 C 
BRANCH   3   4
ATOM      4  C   UNL     1    -103.891 -25.487 -16.295  1.00  0.00     0.053 C 
BRANCH   4   5
ATOM      5  C   UNL     1    -104.656 -24.525 -15.439  1.00  0.00     0.041 C 
ATOM      6  O   UNL     1    -104.372 -24.395 -14.220  1.00  0.00    -0.550 OA
ATOM      7  O   UNL     1    -105.663 -23.746 -15.997  1.00  0.00    -0.550 OA
ENDBRANCH   4   5
ENDBRANCH   3   4
ENDBRANCH   2   3
ENDBRANCH   1   2
BRANCH   1   8
ATOM      8  C   UNL     1    -101.432 -28.024 -14.011  1.00  0.00     0.000 C 
BRANCH   8   9
ATOM      9  C   UNL     1    -100.048 -27.877 -13.356  1.00  0.00     0.006 C 
BRANCH   9  10
ATOM     10  C   UNL     1     -99.580 -29.178 -12.692  1.00  0.00     0.053 C 
BRANCH  10  11
ATOM     11  C   UNL     1     -98.373 -29.746 -13.374  1.00  0.00     0.041 C 
ATOM     12  O   UNL     1     -97.220 -29.498 -12.931  1.00  0.00    -0.550 OA
ATOM     13  O   UNL     1     -98.522 -30.576 -14.478  1.00  0.00    -0.550 OA
ENDBRANCH  10  11
ENDBRANCH   9  10
ENDBRANCH   8   9
ENDBRANCH   1   8
TORSDOF 8
ENDMDL
MODEL 4
REMARK VINA RESULT:    -2.942      2.590      6.300
REMARK INTER + INTRA:          -5.092
REMARK INTER:                  -4.780
REMARK INTRA:                  -0.312
REMARK UNBOUND:                -0.773
REMARK SMILES O=C([O-])CCCCCCCC(=O)[O-]
REMARK SMILES IDX 7 1 6 2 5 3 4 4 2 5 1 6 3 7 8 8 9 9 10 10 11 11 12 12 13 13
REMARK H PARENT
REMARK Flexibility Score: inf
ROOT
ATOM      1  C   UNL     1    -100.852 -29.451 -14.414  1.00  0.00     0.000 C 
ENDROOT
BRANCH   1   2
ATOM      2  C   UNL     1    -101.209 -29.507 -15.907  1.00  0.00     0.000 C 
BRANCH   2   3
ATOM      3  C   UNL     1    -101.795 -28.168 -16.381  1.00  0.00     0.006 C 
BRANCH   3   4
ATOM      4  C   UNL     1    -102.114 -27.228 -15.210  1.00  0.00     0.053 C 
BRANCH   4   5
ATOM      5  C   UNL     1    -103.198 -26.255 -15.559  1.00  0.00     0.041 C 
ATOM      6  O   UNL     1    -103.864 -25.694 -14.651  1.00  0.00    -0.550 OA
ATOM      7  O   UNL     1    -103.451 -25.945 -16.890  1.00  0.00    -0.550 OA
ENDBRANCH   4   5
ENDBRANCH   3   4
ENDBRANCH   2   3
ENDBRANCH   1   2
BRANCH   1   8
ATOM      8  C   UNL     1     -99.461 -30.034 -14.118  1.00  0.00     0.000 C 
BRANCH   8   9
ATOM      9  C   UNL     1     -98.637 -29.146 -13.170  1.00  0.00     0.006 C 
BRANCH   9  10
ATOM     10  C   UNL     1     -97.386 -29.864 -12.644  1.00  0.00     0.053 C 
BRANCH  10  11
ATOM     11  C   UNL     1     -97.371 -29.927 -11.148  1.00  0.00     0.041 C 
ATOM     12  O   UNL     1     -96.276 -29.931 -10.525  1.00  0.00    -0.550 OA
ATOM     13  O   UNL     1     -98.566 -29.947 -10.440  1.00  0.00    -0.550 OA
ENDBRANCH  10  11
ENDBRANCH   9  10
ENDBRANCH   8   9
ENDBRANCH   1   8
TORSDOF 8
ENDMDL
MODEL 5
REMARK VINA RESULT:    -2.940      2.472      5.533
REMARK INTER + INTRA:          -5.088
REMARK INTER:                  -4.523
REMARK INTRA:                  -0.565
REMARK UNBOUND:                -0.773
REMARK SMILES O=C([O-])CCCCCCCC(=O)[O-]
REMARK SMILES IDX 7 1 6 2 5 3 4 4 2 5 1 6 3 7 8 8 9 9 10 10 11 11 12 12 13 13
REMARK H PARENT
REMARK Flexibility Score: inf
ROOT
ATOM      1  C   UNL     1    -101.212 -27.949 -12.759  1.00  0.00     0.000 C 
ENDROOT
BRANCH   1   2
ATOM      2  C   UNL     1    -102.291 -27.982 -13.851  1.00  0.00     0.000 C 
BRANCH   2   3
ATOM      3  C   UNL     1    -101.777 -27.339 -15.148  1.00  0.00     0.006 C 
BRANCH   3   4
ATOM      4  C   UNL     1    -102.262 -28.085 -16.399  1.00  0.00     0.053 C 
BRANCH   4   5
ATOM      5  C   UNL     1    -101.926 -29.543 -16.340  1.00  0.00     0.041 C 
ATOM      6  O   UNL     1    -102.841 -30.407 -16.361  1.00  0.00    -0.550 OA
ATOM      7  O   UNL     1    -100.598 -29.949 -16.295  1.00  0.00    -0.550 OA
ENDBRANCH   4   5
ENDBRANCH   3   4
ENDBRANCH   2   3
ENDBRANCH   1   2
BRANCH   1   8
ATOM      8  C   UNL     1     -99.796 -28.151 -13.321  1.00  0.00     0.000 C 
BRANCH   8   9
ATOM      9  C   UNL     1     -99.274 -29.583 -13.113  1.00  0.00     0.006 C 
BRANCH   9  10
ATOM     10  C   UNL     1     -97.753 -29.623 -12.915  1.00  0.00     0.053 C 
BRANCH  10  11
ATOM     11  C   UNL     1     -97.386 -29.859 -11.482  1.00  0.00     0.041 C 
ATOM     12  O   UNL     1     -98.279 -29.869 -10.593  1.00  0.00    -0.550 OA
ATOM     13  O   UNL     1     -96.064 -30.102 -11.132  1.00  0.00    -0.550 OA
ENDBRANCH  10  11
ENDBRANCH   9  10
ENDBRANCH   8   9
ENDBRANCH   1   8
TORSDOF 8
ENDMDL
MODEL 6
REMARK VINA RESULT:    -2.897      1.942      2.846
REMARK INTER + INTRA:          -5.025
REMARK INTER:                  -4.547
REMARK INTRA:                  -0.478
REMARK UNBOUND:                -0.773
REMARK SMILES O=C([O-])CCCCCCCC(=O)[O-]
REMARK SMILES IDX 7 1 6 2 5 3 4 4 2 5 1 6 3 7 8 8 9 9 10 10 11 11 12 12 13 13
REMARK H PARENT
REMARK Flexibility Score: inf
ROOT
ATOM      1  C   UNL     1    -102.587 -29.421 -16.276  1.00  0.00     0.000 C 
ENDROOT
BRANCH   1   2
ATOM      2  C   UNL     1    -101.648 -30.634 -16.351  1.00  0.00     0.000 C 
BRANCH   2   3
ATOM      3  C   UNL     1    -100.214 -30.241 -15.963  1.00  0.00     0.006 C 
BRANCH   3   4
ATOM      4  C   UNL     1     -99.852 -30.694 -14.542  1.00  0.00     0.053 C 
BRANCH   4   5
ATOM      5  C   UNL     1     -99.497 -29.534 -13.664  1.00  0.00     0.041 C 
ATOM      6  O   UNL     1    -100.394 -28.756 -13.245  1.00  0.00    -0.550 OA
ATOM      7  O   UNL     1     -98.177 -29.331 -13.280  1.00  0.00    -0.550 OA
ENDBRANCH   4   5
ENDBRANCH   3   4
ENDBRANCH   2   3
ENDBRANCH   1   2
BRANCH   1   8
ATOM      8  C   UNL     1    -101.834 -28.085 -16.373  1.00  0.00     0.000 C 
BRANCH   8   9
ATOM      9  C   UNL     1    -102.597 -26.925 -15.709  1.00  0.00     0.006 C 
BRANCH   9  10
ATOM     10  C   UNL     1    -103.429 -26.125 -16.720  1.00  0.00     0.053 C 
BRANCH  10  11
ATOM     11  C   UNL     1    -104.446 -25.261 -16.039  1.00  0.00     0.041 C 
ATOM     12  O   UNL     1    -104.108 -24.522 -15.076  1.00  0.00    -0.550 OA
ATOM     13  O   UNL     1    -105.760 -25.244 -16.491  1.00  0.00    -0.550 OA
ENDBRANCH  10  11
ENDBRANCH   9  10
ENDBRANCH   8   9
ENDBRANCH   1   8
TORSDOF 8
ENDMDL
MODEL 7
REMARK VINA RESULT:    -2.874      2.591      3.153
REMARK INTER + INTRA:          -4.992
REMARK INTER:                  -4.655
REMARK INTRA:                  -0.337
REMARK UNBOUND:                -0.773
REMARK SMILES O=C([O-])CCCCCCCC(=O)[O-]
REMARK SMILES IDX 7 1 6 2 5 3 4 4 2 5 1 6 3 7 8 8 9 9 10 10 11 11 12 12 13 13
REMARK H PARENT
REMARK Flexibility Score: inf
ROOT
ATOM      1  C   UNL     1    -100.922 -29.657 -14.401  1.00  0.00     0.000 C 
ENDROOT
BRANCH   1   2
ATOM      2  C   UNL     1     -99.595 -30.290 -13.957  1.00  0.00     0.000 C 
BRANCH   2   3
ATOM      3  C   UNL     1     -98.675 -29.241 -13.315  1.00  0.00     0.006 C 
BRANCH   3   4
ATOM      4  C   UNL     1     -97.335 -29.840 -12.867  1.00  0.00     0.053 C 
BRANCH   4   5
ATOM      5  C   UNL     1     -97.218 -29.884 -11.374  1.00  0.00     0.041 C 
ATOM      6  O   UNL     1     -96.085 -29.874 -10.826  1.00  0.00    -0.550 OA
ATOM      7  O   UNL     1     -98.363 -29.901 -10.587  1.00  0.00    -0.550 OA
ENDBRANCH   4   5
ENDBRANCH   3   4
ENDBRANCH   2   3
ENDBRANCH   1   2
BRANCH   1   8
ATOM      8  C   UNL     1    -101.061 -29.588 -15.930  1.00  0.00     0.000 C 
BRANCH   8   9
ATOM      9  C   UNL     1    -101.875 -28.368 -16.396  1.00  0.00     0.006 C 
BRANCH   9  10
ATOM     10  C   UNL     1    -101.972 -27.287 -15.310  1.00  0.00     0.053 C 
BRANCH  10  11
ATOM     11  C   UNL     1    -103.193 -26.437 -15.483  1.00  0.00     0.041 C 
ATOM     12  O   UNL     1    -103.997 -26.281 -14.525  1.00  0.00    -0.550 OA
ATOM     13  O   UNL     1    -103.426 -25.789 -16.689  1.00  0.00    -0.550 OA
ENDBRANCH  10  11
ENDBRANCH   9  10
ENDBRANCH   8   9
ENDBRANCH   1   8
TORSDOF 8
ENDMDL
MODEL 8
REMARK VINA RESULT:    -2.847      2.671      3.585
REMARK INTER + INTRA:          -4.951
REMARK INTER:                  -4.638
REMARK INTRA:                  -0.313
REMARK UNBOUND:                -0.773
REMARK SMILES O=C([O-])CCCCCCCC(=O)[O-]
REMARK SMILES IDX 7 1 6 2 5 3 4 4 2 5 1 6 3 7 8 8 9 9 10 10 11 11 12 12 13 13
REMARK H PARENT
REMARK Flexibility Score: inf
ROOT
ATOM      1  C   UNL     1    -102.808 -27.298 -16.371  1.00  0.00     0.000 C 
ENDROOT
BRANCH   1   2
ATOM      2  C   UNL     1    -101.546 -27.858 -15.697  1.00  0.00     0.000 C 
BRANCH   2   3
ATOM      3  C   UNL     1    -101.671 -27.797 -14.167  1.00  0.00     0.006 C 
BRANCH   3   4
ATOM      4  C   UNL     1    -100.305 -27.679 -13.477  1.00  0.00     0.053 C 
BRANCH   4   5
ATOM      5  C   UNL     1     -99.684 -29.022 -13.242  1.00  0.00     0.041 C 
ATOM      6  O   UNL     1     -98.443 -29.180 -13.381  1.00  0.00    -0.550 OA
ATOM      7  O   UNL     1    -100.473 -30.091 -12.838  1.00  0.00    -0.550 OA
ENDBRANCH   4   5
ENDBRANCH   3   4
ENDBRANCH   2   3
ENDBRANCH   1   2
BRANCH   1   8
ATOM      8  C   UNL     1    -103.646 -26.425 -15.424  1.00  0.00     0.000 C 
BRANCH   8   9
ATOM      9  C   UNL     1    -104.216 -25.176 -16.119  1.00  0.00     0.006 C 
BRANCH   9  10
ATOM     10  C   UNL     1    -104.485 -24.034 -15.129  1.00  0.00     0.053 C 
BRANCH  10  11
ATOM     11  C   UNL     1    -105.352 -22.971 -15.730  1.00  0.00     0.041 C 
ATOM     12  O   UNL     1    -104.971 -21.771 -15.735  1.00  0.00    -0.550 OA
ATOM     13  O   UNL     1    -106.564 -23.311 -16.317  1.00  0.00    -0.550 OA
ENDBRANCH  10  11
ENDBRANCH   9  10
ENDBRANCH   8   9
ENDBRANCH   1   8
TORSDOF 8
ENDMDL
MODEL 9
REMARK VINA RESULT:    -2.831      2.506      3.408
REMARK INTER + INTRA:          -4.928
REMARK INTER:                  -4.398
REMARK INTRA:                  -0.529
REMARK UNBOUND:                -0.773
REMARK SMILES O=C([O-])CCCCCCCC(=O)[O-]
REMARK SMILES IDX 7 1 6 2 5 3 4 4 2 5 1 6 3 7 8 8 9 9 10 10 11 11 12 12 13 13
REMARK H PARENT
REMARK Flexibility Score: inf
ROOT
ATOM      1  C   UNL     1    -101.239 -28.235 -12.922  1.00  0.00     0.000 C 
ENDROOT
BRANCH   1   2
ATOM      2  C   UNL     1     -99.780 -27.999 -13.342  1.00  0.00     0.000 C 
BRANCH   2   3
ATOM      3  C   UNL     1     -98.980 -29.310 -13.302  1.00  0.00     0.006 C 
BRANCH   3   4
ATOM      4  C   UNL     1     -98.730 -29.794 -11.867  1.00  0.00     0.053 C 
BRANCH   4   5
ATOM      5  C   UNL     1     -97.268 -29.830 -11.542  1.00  0.00     0.041 C 
ATOM      6  O   UNL     1     -96.886 -29.930 -10.346  1.00  0.00    -0.550 OA
ATOM      7  O   UNL     1     -96.327 -29.787 -12.563  1.00  0.00    -0.550 OA
ENDBRANCH   4   5
ENDBRANCH   3   4
ENDBRANCH   2   3
ENDBRANCH   1   2
BRANCH   1   8
ATOM      8  C   UNL     1    -102.244 -27.632 -13.916  1.00  0.00     0.000 C 
BRANCH   8   9
ATOM      9  C   UNL     1    -101.705 -27.598 -15.357  1.00  0.00     0.006 C 
BRANCH   9  10
ATOM     10  C   UNL     1    -102.481 -28.540 -16.288  1.00  0.00     0.053 C 
BRANCH  10  11
ATOM     11  C   UNL     1    -101.816 -29.878 -16.402  1.00  0.00     0.041 C 
ATOM     12  O   UNL     1    -100.564 -29.974 -16.295  1.00  0.00    -0.550 OA
ATOM     13  O   UNL     1    -102.581 -31.022 -16.592  1.00  0.00    -0.550 OA
ENDBRANCH  10  11
ENDBRANCH   9  10
ENDBRANCH   8   9
ENDBRANCH   1   8
TORSDOF 8
ENDMDL
