MODEL 1
REMARK VINA RESULT:    -3.279      0.000      0.000
REMARK INTER + INTRA:          -3.972
REMARK INTER:                  -3.854
REMARK INTRA:                  -0.118
REMARK UNBOUND:                -0.118
REMARK SMILES O=C([O-])CCC(=O)[O-]
REMARK SMILES IDX 4 1 2 2 1 3 3 4 5 5 6 6 7 7 8 8
REMARK H PARENT
REMARK Flexibility Score: inf
ROOT
ATOM      1  C   UNL     1     176.969 173.808 170.171  1.00  0.00     0.059 C 
ENDROOT
BRANCH   1   2
ATOM      2  C   UNL     1     178.340 174.308 170.510  1.00  0.00     0.042 C 
ATOM      3  O   UNL     1     178.874 175.211 169.815  1.00  0.00    -0.550 OA
ATOM      4  O   UNL     1     179.010 173.805 171.617  1.00  0.00    -0.550 OA
ENDBRANCH   1   2
BRANCH   1   5
ATOM      5  C   UNL     1     176.853 173.437 168.689  1.00  0.00     0.059 C 
BRANCH   5   6
ATOM      6  C   UNL     1     175.807 174.254 167.995  1.00  0.00     0.042 C 
ATOM      7  O   UNL     1     175.983 175.487 167.814  1.00  0.00    -0.550 OA
ATOM      8  O   UNL     1     174.620 173.660 167.585  1.00  0.00    -0.550 OA
ENDBRANCH   5   6
ENDBRANCH   1   5
TORSDOF 3
ENDMDL
MODEL 2
REMARK VINA RESULT:    -3.262      0.202      4.086
REMARK INTER + INTRA:          -3.952
REMARK INTER:                  -3.845
REMARK INTRA:                  -0.107
REMARK UNBOUND:                -0.118
REMARK SMILES O=C([O-])CCC(=O)[O-]
REMARK SMILES IDX 4 1 2 2 1 3 3 4 5 5 6 6 7 7 8 8
REMARK H PARENT
REMARK Flexibility Score: inf
ROOT
ATOM      1  C   UNL     1     176.717 173.409 168.662  1.00  0.00     0.059 C 
ENDROOT
BRANCH   1   2
ATOM      2  C   UNL     1     175.751 174.248 167.882  1.00  0.00     0.042 C 
ATOM      3  O   UNL     1     174.720 173.728 167.383  1.00  0.00    -0.550 OA
ATOM      4  O   UNL     1     175.970 175.613 167.742  1.00  0.00    -0.550 OA
ENDBRANCH   1   2
BRANCH   1   5
ATOM      5  C   UNL     1     176.829 173.880 170.116  1.00  0.00     0.059 C 
BRANCH   5   6
ATOM      6  C   UNL     1     178.238 174.242 170.472  1.00  0.00     0.042 C 
ATOM      7  O   UNL     1     178.862 173.579 171.341  1.00  0.00    -0.550 OA
ATOM      8  O   UNL     1     178.847 175.337 169.872  1.00  0.00    -0.550 OA
ENDBRANCH   5   6
ENDBRANCH   1   5
TORSDOF 3
ENDMDL
MODEL 3
REMARK VINA RESULT:    -3.071     12.635     12.986
REMARK INTER + INTRA:          -3.728
REMARK INTER:                  -3.664
REMARK INTRA:                  -0.064
REMARK UNBOUND:                -0.118
REMARK SMILES O=C([O-])CCC(=O)[O-]
REMARK SMILES IDX 4 1 2 2 1 3 3 4 5 5 6 6 7 7 8 8
REMARK H PARENT
REMARK Flexibility Score: inf
ROOT
ATOM      1  C   UNL     1     174.847 162.185 169.407  1.00  0.00     0.059 C 
ENDROOT
BRANCH   1   2
ATOM      2  C   UNL     1     176.151 161.451 169.339  1.00  0.00     0.042 C 
ATOM      3  O   UNL     1     176.818 161.246 170.387  1.00  0.00    -0.550 OA
ATOM      4  O   UNL     1     176.609 160.958 168.124  1.00  0.00    -0.550 OA
ENDBRANCH   1   2
BRANCH   1   5
ATOM      5  C   UNL     1     174.169 162.261 168.035  1.00  0.00     0.059 C 
BRANCH   5   6
ATOM      6  C   UNL     1     172.731 161.849 168.107  1.00  0.00     0.042 C 
ATOM      7  O   UNL     1     171.942 162.134 167.168  1.00  0.00    -0.550 OA
ATOM      8  O   UNL     1     172.254 161.185 169.230  1.00  0.00    -0.550 OA
ENDBRANCH   5   6
ENDBRANCH   1   5
TORSDOF 3
ENDMDL
MODEL 4
REMARK VINA RESULT:    -3.020     11.837     12.985
REMARK INTER + INTRA:          -3.668
REMARK INTER:                  -3.636
REMARK INTRA:                  -0.032
REMARK UNBOUND:                -0.118
REMARK SMILES O=C([O-])CCC(=O)[O-]
REMARK SMILES IDX 4 1 2 2 1 3 3 4 5 5 6 6 7 7 8 8
REMARK H PARENT
REMARK Flexibility Score: inf
ROOT
ATOM      1  C   UNL     1     174.260 162.386 167.665  1.00  0.00     0.059 C 
ENDROOT
BRANCH   1   2
ATOM      2  C   UNL     1     172.789 162.517 167.412  1.00  0.00     0.042 C 
ATOM      3  O   UNL     1     171.999 161.610 167.782  1.00  0.00    -0.550 OA
ATOM      4  O   UNL     1     172.287 163.661 166.804  1.00  0.00    -0.550 OA
ENDBRANCH   1   2
BRANCH   1   5
ATOM      5  C   UNL     1     174.551 162.021 169.124  1.00  0.00     0.059 C 
BRANCH   5   6
ATOM      6  C   UNL     1     176.021 162.029 169.412  1.00  0.00     0.042 C 
ATOM      7  O   UNL     1     176.495 161.290 170.314  1.00  0.00    -0.550 OA
ATOM      8  O   UNL     1     176.862 162.884 168.709  1.00  0.00    -0.550 OA
ENDBRANCH   5   6
ENDBRANCH   1   5
TORSDOF 3
ENDMDL
MODEL 5
REMARK VINA RESULT:    -3.002     12.516     14.017
REMARK INTER + INTRA:          -3.647
REMARK INTER:                  -3.555
REMARK INTRA:                  -0.091
REMARK UNBOUND:                -0.118
REMARK SMILES O=C([O-])CCC(=O)[O-]
REMARK SMILES IDX 4 1 2 2 1 3 3 4 5 5 6 6 7 7 8 8
REMARK H PARENT
REMARK Flexibility Score: inf
ROOT
ATOM      1  C   UNL     1     163.546 178.585 168.122  1.00  0.00     0.059 C 
ENDROOT
BRANCH   1   2
ATOM      2  C   UNL     1     162.868 178.101 169.367  1.00  0.00     0.042 C 
ATOM      3  O   UNL     1     163.527 177.950 170.429  1.00  0.00    -0.550 OA
ATOM      4  O   UNL     1     161.501 177.856 169.365  1.00  0.00    -0.550 OA
ENDBRANCH   1   2
BRANCH   1   5
ATOM      5  C   UNL     1     164.862 177.842 167.870  1.00  0.00     0.059 C 
BRANCH   5   6
ATOM      6  C   UNL     1     164.687 176.728 166.884  1.00  0.00     0.042 C 
ATOM      7  O   UNL     1     165.590 175.863 166.737  1.00  0.00    -0.550 OA
ATOM      8  O   UNL     1     163.543 176.670 166.097  1.00  0.00    -0.550 OA
ENDBRANCH   5   6
ENDBRANCH   1   5
TORSDOF 3
ENDMDL
MODEL 6
REMARK VINA RESULT:    -2.955     12.468     14.091
REMARK INTER + INTRA:          -3.591
REMARK INTER:                  -3.491
REMARK INTRA:                  -0.099
REMARK UNBOUND:                -0.118
REMARK SMILES O=C([O-])CCC(=O)[O-]
REMARK SMILES IDX 4 1 2 2 1 3 3 4 5 5 6 6 7 7 8 8
REMARK H PARENT
REMARK Flexibility Score: inf
ROOT
ATOM      1  C   UNL     1     164.900 177.852 167.797  1.00  0.00     0.059 C 
ENDROOT
BRANCH   1   2
ATOM      2  C   UNL     1     164.744 176.692 166.860  1.00  0.00     0.042 C 
ATOM      3  O   UNL     1     165.630 175.800 166.805  1.00  0.00    -0.550 OA
ATOM      4  O   UNL     1     163.602 176.577 166.079  1.00  0.00    -0.550 OA
ENDBRANCH   1   2
BRANCH   1   5
ATOM      5  C   UNL     1     163.593 178.639 167.943  1.00  0.00     0.059 C 
BRANCH   5   6
ATOM      6  C   UNL     1     162.802 178.178 169.128  1.00  0.00     0.042 C 
ATOM      7  O   UNL     1     161.556 178.022 169.037  1.00  0.00    -0.550 OA
ATOM      8  O   UNL     1     163.436 177.960 170.345  1.00  0.00    -0.550 OA
ENDBRANCH   5   6
ENDBRANCH   1   5
TORSDOF 3
ENDMDL
MODEL 7
REMARK VINA RESULT:    -2.929     11.545     12.663
REMARK INTER + INTRA:          -3.561
REMARK INTER:                  -3.446
REMARK INTRA:                  -0.115
REMARK UNBOUND:                -0.118
REMARK SMILES O=C([O-])CCC(=O)[O-]
REMARK SMILES IDX 4 1 2 2 1 3 3 4 5 5 6 6 7 7 8 8
REMARK H PARENT
REMARK Flexibility Score: inf
ROOT
ATOM      1  C   UNL     1     174.607 162.410 169.367  1.00  0.00     0.059 C 
ENDROOT
BRANCH   1   2
ATOM      2  C   UNL     1     173.381 161.991 168.614  1.00  0.00     0.042 C 
ATOM      3  O   UNL     1     173.255 162.283 167.396  1.00  0.00    -0.550 OA
ATOM      4  O   UNL     1     172.397 161.243 169.248  1.00  0.00    -0.550 OA
ENDBRANCH   1   2
BRANCH   1   5
ATOM      5  C   UNL     1     175.856 161.678 168.865  1.00  0.00     0.059 C 
BRANCH   5   6
ATOM      6  C   UNL     1     176.709 162.564 168.012  1.00  0.00     0.042 C 
ATOM      7  O   UNL     1     177.550 163.337 168.542  1.00  0.00    -0.550 OA
ATOM      8  O   UNL     1     176.547 162.566 166.632  1.00  0.00    -0.550 OA
ENDBRANCH   5   6
ENDBRANCH   1   5
TORSDOF 3
ENDMDL
MODEL 8
REMARK VINA RESULT:    -2.897      2.215      3.558
REMARK INTER + INTRA:          -3.523
REMARK INTER:                  -3.361
REMARK INTRA:                  -0.163
REMARK UNBOUND:                -0.118
REMARK SMILES O=C([O-])CCC(=O)[O-]
REMARK SMILES IDX 4 1 2 2 1 3 3 4 5 5 6 6 7 7 8 8
REMARK H PARENT
REMARK Flexibility Score: inf
ROOT
ATOM      1  C   UNL     1     176.482 174.011 169.585  1.00  0.00     0.059 C 
ENDROOT
BRANCH   1   2
ATOM      2  C   UNL     1     176.008 173.931 168.166  1.00  0.00     0.042 C 
ATOM      3  O   UNL     1     174.782 173.789 167.915  1.00  0.00    -0.550 OA
ATOM      4  O   UNL     1     176.915 174.053 167.121  1.00  0.00    -0.550 OA
ENDBRANCH   1   2
BRANCH   1   5
ATOM      5  C   UNL     1     177.345 175.255 169.823  1.00  0.00     0.059 C 
BRANCH   5   6
ATOM      6  C   UNL     1     176.525 176.508 169.792  1.00  0.00     0.042 C 
ATOM      7  O   UNL     1     175.777 176.800 170.762  1.00  0.00    -0.550 OA
ATOM      8  O   UNL     1     176.558 177.333 168.675  1.00  0.00    -0.550 OA
ENDBRANCH   5   6
ENDBRANCH   1   5
TORSDOF 3
ENDMDL
MODEL 9
REMARK VINA RESULT:    -2.897      2.214      2.427
REMARK INTER + INTRA:          -3.523
REMARK INTER:                  -3.381
REMARK INTRA:                  -0.142
REMARK UNBOUND:                -0.118
REMARK SMILES O=C([O-])CCC(=O)[O-]
REMARK SMILES IDX 4 1 2 2 1 3 3 4 5 5 6 6 7 7 8 8
REMARK H PARENT
REMARK Flexibility Score: inf
ROOT
ATOM      1  C   UNL     1     177.326 175.252 169.784  1.00  0.00     0.059 C 
ENDROOT
BRANCH   1   2
ATOM      2  C   UNL     1     176.530 176.521 169.778  1.00  0.00     0.042 C 
ATOM      3  O   UNL     1     176.569 177.289 168.782  1.00  0.00    -0.550 OA
ATOM      4  O   UNL     1     175.712 176.834 170.857  1.00  0.00    -0.550 OA
ENDBRANCH   1   2
BRANCH   1   5
ATOM      5  C   UNL     1     176.438 174.027 169.538  1.00  0.00     0.059 C 
BRANCH   5   6
ATOM      6  C   UNL     1     176.016 173.931 168.105  1.00  0.00     0.042 C 
ATOM      7  O   UNL     1     176.867 174.043 167.184  1.00  0.00    -0.550 OA
ATOM      8  O   UNL     1     174.675 173.757 167.785  1.00  0.00    -0.550 OA
ENDBRANCH   5   6
ENDBRANCH   1   5
TORSDOF 3
ENDMDL
