MODEL 1
REMARK VINA RESULT:    -3.358      0.000      0.000
REMARK INTER + INTRA:          -6.960
REMARK INTER:                  -6.499
REMARK INTRA:                  -0.461
REMARK UNBOUND:                -0.461
REMARK SMILES CCCCCCCCCCCCCCCCCC(=O)[O-]
REMARK SMILES IDX 10 1 11 2 12 3 13 4 14 5 15 6 16 7 17 8 18 9 19 10 20 11
REMARK SMILES IDX 9 12 8 13 7 14 6 15 5 16 4 17 3 18 2 19 1 20
REMARK H PARENT
REMARK Flexibility Score: inf
ROOT
ATOM      1  C   UNL     1       7.675   7.719  34.076  1.00  0.00     0.000 C 
ENDROOT
BRANCH   1   2
ATOM      2  C   UNL     1       7.201   6.277  34.329  1.00  0.00     0.000 C 
BRANCH   2   3
ATOM      3  C   UNL     1       5.962   6.194  35.246  1.00  0.00     0.000 C 
BRANCH   3   4
ATOM      4  C   UNL     1       5.966   4.919  36.109  1.00  0.00     0.000 C 
BRANCH   4   5
ATOM      5  C   UNL     1       7.351   4.257  36.175  1.00  0.00     0.000 C 
BRANCH   5   6
ATOM      6  C   UNL     1       7.268   2.718  36.197  1.00  0.00     0.000 C 
BRANCH   6   7
ATOM      7  C   UNL     1       8.550   2.065  36.737  1.00  0.00     0.006 C 
BRANCH   7   8
ATOM      8  C   UNL     1       9.711   2.126  35.735  1.00  0.00     0.053 C 
BRANCH   8   9
ATOM      9  C   UNL     1      10.578   3.313  36.013  1.00  0.00     0.041 C 
ATOM     10  O   UNL     1      11.339   3.322  37.016  1.00  0.00    -0.550 OA
ATOM     11  O   UNL     1      10.588   4.388  35.133  1.00  0.00    -0.550 OA
ENDBRANCH   8   9
ENDBRANCH   7   8
ENDBRANCH   6   7
ENDBRANCH   5   6
ENDBRANCH   4   5
ENDBRANCH   3   4
ENDBRANCH   2   3
ENDBRANCH   1   2
BRANCH   1  12
ATOM     12  C   UNL     1       6.517   8.680  33.757  1.00  0.00     0.000 C 
BRANCH  12  13
ATOM     13  C   UNL     1       7.020  10.025  33.191  1.00  0.00    -0.000 C 
BRANCH  13  14
ATOM     14  C   UNL     1       5.902  11.062  32.988  1.00  0.00    -0.000 C 
BRANCH  14  15
ATOM     15  C   UNL     1       5.886  12.141  34.083  1.00  0.00    -0.000 C 
BRANCH  15  16
ATOM     16  C   UNL     1       5.960  13.566  33.513  1.00  0.00    -0.000 C 
BRANCH  16  17
ATOM     17  C   UNL     1       6.097  14.641  34.607  1.00  0.00    -0.000 C 
BRANCH  17  18
ATOM     18  C   UNL     1       6.492  16.015  34.026  1.00  0.00    -0.000 C 
BRANCH  18  19
ATOM     19  C   UNL     1       5.875  17.203  34.783  1.00  0.00    -0.003 C 
ATOM     20  C   UNL     1       6.392  18.555  34.297  1.00  0.00     0.004 C 
ENDBRANCH  18  19
ENDBRANCH  17  18
ENDBRANCH  16  17
ENDBRANCH  15  16
ENDBRANCH  14  15
ENDBRANCH  13  14
ENDBRANCH  12  13
ENDBRANCH   1  12
TORSDOF 16
ENDMDL
MODEL 2
REMARK VINA RESULT:    -3.014      1.489      3.309
REMARK INTER + INTRA:          -6.294
REMARK INTER:                  -5.817
REMARK INTRA:                  -0.477
REMARK UNBOUND:                -0.461
REMARK SMILES CCCCCCCCCCCCCCCCCC(=O)[O-]
REMARK SMILES IDX 10 1 11 2 12 3 13 4 14 5 15 6 16 7 17 8 18 9 19 10 20 11
REMARK SMILES IDX 9 12 8 13 7 14 6 15 5 16 4 17 3 18 2 19 1 20
REMARK H PARENT
REMARK Flexibility Score: inf
ROOT
ATOM      1  C   UNL     1       6.708  11.101  33.410  1.00  0.00     0.000 C 
ENDROOT
BRANCH   1   2
ATOM      2  C   UNL     1       6.094   9.706  33.616  1.00  0.00     0.000 C 
BRANCH   2   3
ATOM      3  C   UNL     1       6.898   8.825  34.596  1.00  0.00     0.000 C 
BRANCH   3   4
ATOM      4  C   UNL     1       6.001   8.205  35.685  1.00  0.00     0.000 C 
BRANCH   4   5
ATOM      5  C   UNL     1       5.974   6.670  35.623  1.00  0.00     0.000 C 
BRANCH   5   6
ATOM      6  C   UNL     1       6.841   6.020  36.717  1.00  0.00     0.000 C 
BRANCH   6   7
ATOM      7  C   UNL     1       7.617   4.796  36.207  1.00  0.00     0.006 C 
BRANCH   7   8
ATOM      8  C   UNL     1       9.122   5.063  36.072  1.00  0.00     0.053 C 
BRANCH   8   9
ATOM      9  C   UNL     1       9.869   3.775  35.926  1.00  0.00     0.041 C 
ATOM     10  O   UNL     1       9.348   2.694  36.308  1.00  0.00    -0.550 OA
ATOM     11  O   UNL     1      11.118   3.760  35.318  1.00  0.00    -0.550 OA
ENDBRANCH   8   9
ENDBRANCH   7   8
ENDBRANCH   6   7
ENDBRANCH   5   6
ENDBRANCH   4   5
ENDBRANCH   3   4
ENDBRANCH   2   3
ENDBRANCH   1   2
BRANCH   1  12
ATOM     12  C   UNL     1       6.176  12.141  34.411  1.00  0.00     0.000 C 
BRANCH  12  13
ATOM     13  C   UNL     1       5.875  13.495  33.735  1.00  0.00    -0.000 C 
BRANCH  13  14
ATOM     14  C   UNL     1       6.050  14.702  34.673  1.00  0.00    -0.000 C 
BRANCH  14  15
ATOM     15  C   UNL     1       5.909  16.048  33.945  1.00  0.00    -0.000 C 
BRANCH  15  16
ATOM     16  C   UNL     1       6.576  17.207  34.702  1.00  0.00    -0.000 C 
BRANCH  16  17
ATOM     17  C   UNL     1       5.941  18.573  34.384  1.00  0.00    -0.000 C 
BRANCH  17  18
ATOM     18  C   UNL     1       6.760  19.365  33.343  1.00  0.00    -0.000 C 
BRANCH  18  19
ATOM     19  C   UNL     1       6.057  20.641  32.850  1.00  0.00    -0.003 C 
ATOM     20  C   UNL     1       6.751  21.281  31.650  1.00  0.00     0.004 C 
ENDBRANCH  18  19
ENDBRANCH  17  18
ENDBRANCH  16  17
ENDBRANCH  15  16
ENDBRANCH  14  15
ENDBRANCH  13  14
ENDBRANCH  12  13
ENDBRANCH   1  12
TORSDOF 16
ENDMDL
MODEL 3
REMARK VINA RESULT:    -2.508     22.314     24.777
REMARK INTER + INTRA:          -5.316
REMARK INTER:                  -4.109
REMARK INTRA:                  -1.207
REMARK UNBOUND:                -0.461
REMARK SMILES CCCCCCCCCCCCCCCCCC(=O)[O-]
REMARK SMILES IDX 10 1 11 2 12 3 13 4 14 5 15 6 16 7 17 8 18 9 19 10 20 11
REMARK SMILES IDX 9 12 8 13 7 14 6 15 5 16 4 17 3 18 2 19 1 20
REMARK H PARENT
REMARK Flexibility Score: inf
ROOT
ATOM      1  C   UNL     1      19.113  20.755  19.994  1.00  0.00     0.000 C 
ENDROOT
BRANCH   1   2
ATOM      2  C   UNL     1      18.449  21.986  19.353  1.00  0.00     0.000 C 
BRANCH   2   3
ATOM      3  C   UNL     1      18.658  22.065  17.825  1.00  0.00     0.000 C 
BRANCH   3   4
ATOM      4  C   UNL     1      20.133  21.861  17.432  1.00  0.00     0.000 C 
BRANCH   4   5
ATOM      5  C   UNL     1      20.406  20.454  16.879  1.00  0.00     0.000 C 
BRANCH   5   6
ATOM      6  C   UNL     1      19.146  19.567  16.877  1.00  0.00     0.000 C 
BRANCH   6   7
ATOM      7  C   UNL     1      19.430  18.137  17.364  1.00  0.00     0.006 C 
BRANCH   7   8
ATOM      8  C   UNL     1      18.172  17.259  17.387  1.00  0.00     0.053 C 
BRANCH   8   9
ATOM      9  C   UNL     1      18.539  15.819  17.212  1.00  0.00     0.041 C 
ATOM     10  O   UNL     1      19.740  15.455  17.305  1.00  0.00    -0.550 OA
ATOM     11  O   UNL     1      17.546  14.869  17.002  1.00  0.00    -0.550 OA
ENDBRANCH   8   9
ENDBRANCH   7   8
ENDBRANCH   6   7
ENDBRANCH   5   6
ENDBRANCH   4   5
ENDBRANCH   3   4
ENDBRANCH   2   3
ENDBRANCH   1   2
BRANCH   1  12
ATOM     12  C   UNL     1      19.531  20.996  21.455  1.00  0.00     0.000 C 
BRANCH  12  13
ATOM     13  C   UNL     1      20.626  22.078  21.573  1.00  0.00    -0.000 C 
BRANCH  13  14
ATOM     14  C   UNL     1      21.598  22.099  20.381  1.00  0.00    -0.000 C 
BRANCH  14  15
ATOM     15  C   UNL     1      23.044  21.773  20.787  1.00  0.00    -0.000 C 
BRANCH  15  16
ATOM     16  C   UNL     1      24.027  21.867  19.609  1.00  0.00    -0.000 C 
BRANCH  16  17
ATOM     17  C   UNL     1      23.674  20.908  18.458  1.00  0.00    -0.000 C 
BRANCH  17  18
ATOM     18  C   UNL     1      24.166  19.470  18.727  1.00  0.00    -0.000 C 
BRANCH  18  19
ATOM     19  C   UNL     1      25.555  19.409  19.385  1.00  0.00    -0.003 C 
ATOM     20  C   UNL     1      25.583  18.545  20.644  1.00  0.00     0.004 C 
ENDBRANCH  18  19
ENDBRANCH  17  18
ENDBRANCH  16  17
ENDBRANCH  15  16
ENDBRANCH  14  15
ENDBRANCH  13  14
ENDBRANCH  12  13
ENDBRANCH   1  12
TORSDOF 16
ENDMDL
MODEL 4
REMARK VINA RESULT:    -2.474      1.401      2.494
REMARK INTER + INTRA:          -5.250
REMARK INTER:                  -5.137
REMARK INTRA:                  -0.113
REMARK UNBOUND:                -0.461
REMARK SMILES CCCCCCCCCCCCCCCCCC(=O)[O-]
REMARK SMILES IDX 10 1 11 2 12 3 13 4 14 5 15 6 16 7 17 8 18 9 19 10 20 11
REMARK SMILES IDX 9 12 8 13 7 14 6 15 5 16 4 17 3 18 2 19 1 20
REMARK H PARENT
REMARK Flexibility Score: inf
ROOT
ATOM      1  C   UNL     1       6.534  10.045  34.085  1.00  0.00     0.000 C 
ENDROOT
BRANCH   1   2
ATOM      2  C   UNL     1       5.999   8.615  34.270  1.00  0.00     0.000 C 
BRANCH   2   3
ATOM      3  C   UNL     1       6.878   7.751  35.200  1.00  0.00     0.000 C 
BRANCH   3   4
ATOM      4  C   UNL     1       6.167   7.422  36.526  1.00  0.00     0.000 C 
BRANCH   4   5
ATOM      5  C   UNL     1       6.176   5.919  36.843  1.00  0.00     0.000 C 
BRANCH   5   6
ATOM      6  C   UNL     1       6.684   5.070  35.661  1.00  0.00     0.000 C 
BRANCH   6   7
ATOM      7  C   UNL     1       8.200   5.201  35.450  1.00  0.00     0.006 C 
BRANCH   7   8
ATOM      8  C   UNL     1       9.013   4.513  36.556  1.00  0.00     0.053 C 
BRANCH   8   9
ATOM      9  C   UNL     1      10.112   3.692  35.960  1.00  0.00     0.041 C 
ATOM     10  O   UNL     1      10.901   4.201  35.122  1.00  0.00    -0.550 OA
ATOM     11  O   UNL     1      10.301   2.379  36.373  1.00  0.00    -0.550 OA
ENDBRANCH   8   9
ENDBRANCH   7   8
ENDBRANCH   6   7
ENDBRANCH   5   6
ENDBRANCH   4   5
ENDBRANCH   3   4
ENDBRANCH   2   3
ENDBRANCH   1   2
BRANCH   1  12
ATOM     12  C   UNL     1       6.661  10.811  35.413  1.00  0.00     0.000 C 
BRANCH  12  13
ATOM     13  C   UNL     1       5.879  12.142  35.391  1.00  0.00    -0.000 C 
BRANCH  13  14
ATOM     14  C   UNL     1       6.780  13.381  35.249  1.00  0.00    -0.000 C 
BRANCH  14  15
ATOM     15  C   UNL     1       5.994  14.700  35.319  1.00  0.00    -0.000 C 
BRANCH  15  16
ATOM     16  C   UNL     1       6.216  15.590  34.087  1.00  0.00    -0.000 C 
BRANCH  16  17
ATOM     17  C   UNL     1       6.132  17.093  34.412  1.00  0.00    -0.000 C 
BRANCH  17  18
ATOM     18  C   UNL     1       5.876  17.349  35.913  1.00  0.00    -0.000 C 
BRANCH  18  19
ATOM     19  C   UNL     1       6.155  18.798  36.344  1.00  0.00    -0.003 C 
ATOM     20  C   UNL     1       5.966  19.805  35.212  1.00  0.00     0.004 C 
ENDBRANCH  18  19
ENDBRANCH  17  18
ENDBRANCH  16  17
ENDBRANCH  15  16
ENDBRANCH  14  15
ENDBRANCH  13  14
ENDBRANCH  12  13
ENDBRANCH   1  12
TORSDOF 16
ENDMDL
MODEL 5
REMARK VINA RESULT:    -2.434     22.462     24.875
REMARK INTER + INTRA:          -5.171
REMARK INTER:                  -3.071
REMARK INTRA:                  -2.100
REMARK UNBOUND:                -0.461
REMARK SMILES CCCCCCCCCCCCCCCCCC(=O)[O-]
REMARK SMILES IDX 10 1 11 2 12 3 13 4 14 5 15 6 16 7 17 8 18 9 19 10 20 11
REMARK SMILES IDX 9 12 8 13 7 14 6 15 5 16 4 17 3 18 2 19 1 20
REMARK H PARENT
REMARK Flexibility Score: inf
ROOT
ATOM      1  C   UNL     1      18.965  17.441  17.172  1.00  0.00     0.000 C 
ENDROOT
BRANCH   1   2
ATOM      2  C   UNL     1      20.484  17.482  16.934  1.00  0.00     0.000 C 
BRANCH   2   3
ATOM      3  C   UNL     1      21.063  18.913  16.938  1.00  0.00     0.000 C 
BRANCH   3   4
ATOM      4  C   UNL     1      22.603  18.913  16.984  1.00  0.00     0.000 C 
BRANCH   4   5
ATOM      5  C   UNL     1      23.158  19.767  18.133  1.00  0.00     0.000 C 
BRANCH   5   6
ATOM      6  C   UNL     1      24.190  20.805  17.652  1.00  0.00     0.000 C 
BRANCH   6   7
ATOM      7  C   UNL     1      24.299  22.012  18.597  1.00  0.00     0.006 C 
BRANCH   7   8
ATOM      8  C   UNL     1      25.330  21.797  19.714  1.00  0.00     0.053 C 
BRANCH   8   9
ATOM      9  C   UNL     1      24.672  21.892  21.054  1.00  0.00     0.041 C 
ATOM     10  O   UNL     1      25.360  22.124  22.083  1.00  0.00    -0.550 OA
ATOM     11  O   UNL     1      23.291  21.781  21.161  1.00  0.00    -0.550 OA
ENDBRANCH   8   9
ENDBRANCH   7   8
ENDBRANCH   6   7
ENDBRANCH   5   6
ENDBRANCH   4   5
ENDBRANCH   3   4
ENDBRANCH   2   3
ENDBRANCH   1   2
BRANCH   1  12
ATOM     12  C   UNL     1      18.585  17.676  18.644  1.00  0.00     0.000 C 
BRANCH  12  13
ATOM     13  C   UNL     1      17.302  18.524  18.783  1.00  0.00    -0.000 C 
BRANCH  13  14
ATOM     14  C   UNL     1      16.455  18.569  17.500  1.00  0.00    -0.000 C 
BRANCH  14  15
ATOM     15  C   UNL     1      16.106  20.002  17.066  1.00  0.00    -0.000 C 
BRANCH  15  16
ATOM     16  C   UNL     1      17.347  20.897  16.921  1.00  0.00    -0.000 C 
BRANCH  16  17
ATOM     17  C   UNL     1      17.314  22.121  17.854  1.00  0.00    -0.000 C 
BRANCH  17  18
ATOM     18  C   UNL     1      18.055  21.858  19.183  1.00  0.00    -0.000 C 
BRANCH  18  19
ATOM     19  C   UNL     1      19.563  21.611  19.006  1.00  0.00    -0.003 C 
ATOM     20  C   UNL     1      20.168  20.778  20.134  1.00  0.00     0.004 C 
ENDBRANCH  18  19
ENDBRANCH  17  18
ENDBRANCH  16  17
ENDBRANCH  15  16
ENDBRANCH  14  15
ENDBRANCH  13  14
ENDBRANCH  12  13
ENDBRANCH   1  12
TORSDOF 16
ENDMDL
