MODEL 1
REMARK VINA RESULT:    -5.174      0.000      0.000
REMARK INTER + INTRA:          -5.174
REMARK INTER:                  -5.174
REMARK INTRA:                   0.000
REMARK UNBOUND:                 0.000
REMARK SMILES CC1=CC(=O)[C@@H]2C[C@H]1C2(C)C
REMARK SMILES IDX 1 1 2 2 3 3 4 4 5 5 6 6 7 7 8 8 9 9 10 10 11 11
REMARK H PARENT
REMARK Flexibility Score: inf
ROOT
ATOM      1  C   UNL     1     -27.052  10.701 -32.709  1.00  0.00     0.040 C 
ATOM      2  C   UNL     1     -26.949  11.561 -31.490  1.00  0.00    -0.066 C 
ATOM      3  C   UNL     1     -26.228  12.716 -31.496  1.00  0.00     0.047 C 
ATOM      4  C   UNL     1     -26.229  13.505 -30.221  1.00  0.00     0.159 C 
ATOM      5  O   UNL     1     -25.632  14.608 -30.112  1.00  0.00    -0.295 OA
ATOM      6  C   UNL     1     -27.004  12.875 -29.063  1.00  0.00     0.067 C 
ATOM      7  C   UNL     1     -26.563  11.395 -29.073  1.00  0.00     0.021 C 
ATOM      8  C   UNL     1     -27.636  11.174 -30.163  1.00  0.00     0.022 C 
ATOM      9  C   UNL     1     -28.391  12.409 -29.591  1.00  0.00    -0.019 C 
ATOM     10  C   UNL     1     -29.360  12.029 -28.444  1.00  0.00     0.012 C 
ATOM     11  C   UNL     1     -29.150  13.332 -30.586  1.00  0.00     0.012 C 
ENDROOT
TORSDOF 0
ENDMDL
MODEL 2
REMARK VINA RESULT:    -5.049      1.462      2.521
REMARK INTER + INTRA:          -5.049
REMARK INTER:                  -5.049
REMARK INTRA:                   0.000
REMARK UNBOUND:                 0.000
REMARK SMILES CC1=CC(=O)[C@@H]2C[C@H]1C2(C)C
REMARK SMILES IDX 1 1 2 2 3 3 4 4 5 5 6 6 7 7 8 8 9 9 10 10 11 11
REMARK H PARENT
REMARK Flexibility Score: inf
ROOT
ATOM      1  C   UNL     1     -24.901  12.136 -29.216  1.00  0.00     0.040 C 
ATOM      2  C   UNL     1     -26.280  12.444 -29.705  1.00  0.00    -0.066 C 
ATOM      3  C   UNL     1     -26.529  13.534 -30.483  1.00  0.00     0.047 C 
ATOM      4  C   UNL     1     -27.948  13.716 -30.935  1.00  0.00     0.159 C 
ATOM      5  O   UNL     1     -28.297  14.661 -31.688  1.00  0.00    -0.295 OA
ATOM      6  C   UNL     1     -28.938  12.674 -30.416  1.00  0.00     0.067 C 
ATOM      7  C   UNL     1     -28.600  12.545 -28.914  1.00  0.00     0.021 C 
ATOM      8  C   UNL     1     -27.490  11.558 -29.339  1.00  0.00     0.022 C 
ATOM      9  C   UNL     1     -28.322  11.260 -30.619  1.00  0.00    -0.019 C 
ATOM     10  C   UNL     1     -29.357  10.128 -30.401  1.00  0.00     0.012 C 
ATOM     11  C   UNL     1     -27.556  10.972 -31.942  1.00  0.00     0.012 C 
ENDROOT
TORSDOF 0
ENDMDL
MODEL 3
REMARK VINA RESULT:    -5.041      1.697      3.205
REMARK INTER + INTRA:          -5.041
REMARK INTER:                  -5.041
REMARK INTRA:                   0.000
REMARK UNBOUND:                 0.000
REMARK SMILES CC1=CC(=O)[C@@H]2C[C@H]1C2(C)C
REMARK SMILES IDX 1 1 2 2 3 3 4 4 5 5 6 6 7 7 8 8 9 9 10 10 11 11
REMARK H PARENT
REMARK Flexibility Score: inf
ROOT
ATOM      1  C   UNL     1     -29.377  12.018 -28.554  1.00  0.00     0.040 C 
ATOM      2  C   UNL     1     -28.248  12.018 -29.535  1.00  0.00    -0.066 C 
ATOM      3  C   UNL     1     -28.300  11.274 -30.675  1.00  0.00     0.047 C 
ATOM      4  C   UNL     1     -27.119  11.384 -31.592  1.00  0.00     0.159 C 
ATOM      5  O   UNL     1     -27.063  10.777 -32.692  1.00  0.00    -0.295 OA
ATOM      6  C   UNL     1     -25.987  12.285 -31.096  1.00  0.00     0.067 C 
ATOM      7  C   UNL     1     -25.801  11.879 -29.617  1.00  0.00     0.021 C 
ATOM      8  C   UNL     1     -26.966  12.843 -29.298  1.00  0.00     0.022 C 
ATOM      9  C   UNL     1     -26.603  13.622 -30.595  1.00  0.00    -0.019 C 
ATOM     10  C   UNL     1     -25.528  14.710 -30.348  1.00  0.00     0.012 C 
ATOM     11  C   UNL     1     -27.759  14.258 -31.418  1.00  0.00     0.012 C 
ENDROOT
TORSDOF 0
ENDMDL
MODEL 4
REMARK VINA RESULT:    -5.021      1.742      2.862
REMARK INTER + INTRA:          -5.021
REMARK INTER:                  -5.021
REMARK INTRA:                   0.000
REMARK UNBOUND:                 0.000
REMARK SMILES CC1=CC(=O)[C@@H]2C[C@H]1C2(C)C
REMARK SMILES IDX 1 1 2 2 3 3 4 4 5 5 6 6 7 7 8 8 9 9 10 10 11 11
REMARK H PARENT
REMARK Flexibility Score: inf
ROOT
ATOM      1  C   UNL     1     -25.504  14.915 -30.342  1.00  0.00     0.040 C 
ATOM      2  C   UNL     1     -25.954  13.490 -30.292  1.00  0.00    -0.066 C 
ATOM      3  C   UNL     1     -25.136  12.505 -29.827  1.00  0.00     0.047 C 
ATOM      4  C   UNL     1     -25.716  11.122 -29.797  1.00  0.00     0.159 C 
ATOM      5  O   UNL     1     -25.074  10.134 -29.354  1.00  0.00    -0.295 OA
ATOM      6  C   UNL     1     -27.139  10.997 -30.341  1.00  0.00     0.067 C 
ATOM      7  C   UNL     1     -27.115  11.812 -31.653  1.00  0.00     0.021 C 
ATOM      8  C   UNL     1     -27.356  13.063 -30.777  1.00  0.00     0.022 C 
ATOM      9  C   UNL     1     -28.008  12.126 -29.719  1.00  0.00    -0.019 C 
ATOM     10  C   UNL     1     -29.521  11.913 -29.973  1.00  0.00     0.012 C 
ATOM     11  C   UNL     1     -27.810  12.467 -28.215  1.00  0.00     0.012 C 
ENDROOT
TORSDOF 0
ENDMDL
MODEL 5
REMARK VINA RESULT:    -4.966      1.864      3.409
REMARK INTER + INTRA:          -4.966
REMARK INTER:                  -4.966
REMARK INTRA:                   0.000
REMARK UNBOUND:                 0.000
REMARK SMILES CC1=CC(=O)[C@@H]2C[C@H]1C2(C)C
REMARK SMILES IDX 1 1 2 2 3 3 4 4 5 5 6 6 7 7 8 8 9 9 10 10 11 11
REMARK H PARENT
REMARK Flexibility Score: inf
ROOT
ATOM      1  C   UNL     1     -29.746  14.012 -30.747  1.00  0.00     0.040 C 
ATOM      2  C   UNL     1     -28.783  12.960 -30.297  1.00  0.00    -0.066 C 
ATOM      3  C   UNL     1     -28.867  12.408 -29.054  1.00  0.00     0.047 C 
ATOM      4  C   UNL     1     -27.864  11.341 -28.734  1.00  0.00     0.159 C 
ATOM      5  O   UNL     1     -27.861  10.728 -27.635  1.00  0.00    -0.295 OA
ATOM      6  C   UNL     1     -26.845  11.049 -29.836  1.00  0.00     0.067 C 
ATOM      7  C   UNL     1     -26.385  12.447 -30.306  1.00  0.00     0.021 C 
ATOM      8  C   UNL     1     -27.641  12.461 -31.206  1.00  0.00     0.022 C 
ATOM      9  C   UNL     1     -27.603  10.905 -31.186  1.00  0.00    -0.019 C 
ATOM     10  C   UNL     1     -26.706  10.322 -32.307  1.00  0.00     0.012 C 
ATOM     11  C   UNL     1     -28.955  10.138 -31.196  1.00  0.00     0.012 C 
ENDROOT
TORSDOF 0
ENDMDL
MODEL 6
REMARK VINA RESULT:    -4.962      1.734      3.042
REMARK INTER + INTRA:          -4.962
REMARK INTER:                  -4.962
REMARK INTRA:                   0.000
REMARK UNBOUND:                 0.000
REMARK SMILES CC1=CC(=O)[C@@H]2C[C@H]1C2(C)C
REMARK SMILES IDX 1 1 2 2 3 3 4 4 5 5 6 6 7 7 8 8 9 9 10 10 11 11
REMARK H PARENT
REMARK Flexibility Score: inf
ROOT
ATOM      1  C   UNL     1     -27.114  10.250 -32.633  1.00  0.00     0.040 C 
ATOM      2  C   UNL     1     -27.228  11.043 -31.371  1.00  0.00    -0.066 C 
ATOM      3  C   UNL     1     -27.503  10.444 -30.179  1.00  0.00     0.047 C 
ATOM      4  C   UNL     1     -27.559  11.344 -28.981  1.00  0.00     0.159 C 
ATOM      5  O   UNL     1     -27.767  10.906 -27.820  1.00  0.00    -0.295 OA
ATOM      6  C   UNL     1     -27.348  12.831 -29.270  1.00  0.00     0.067 C 
ATOM      7  C   UNL     1     -28.234  13.106 -30.505  1.00  0.00     0.021 C 
ATOM      8  C   UNL     1     -27.058  12.577 -31.357  1.00  0.00     0.022 C 
ATOM      9  C   UNL     1     -26.107  12.984 -30.195  1.00  0.00    -0.019 C 
ATOM     10  C   UNL     1     -25.633  14.455 -30.307  1.00  0.00     0.012 C 
ATOM     11  C   UNL     1     -24.864  12.092 -29.916  1.00  0.00     0.012 C 
ENDROOT
TORSDOF 0
ENDMDL
MODEL 7
REMARK VINA RESULT:    -4.947      0.953      3.166
REMARK INTER + INTRA:          -4.947
REMARK INTER:                  -4.947
REMARK INTRA:                   0.000
REMARK UNBOUND:                 0.000
REMARK SMILES CC1=CC(=O)[C@@H]2C[C@H]1C2(C)C
REMARK SMILES IDX 1 1 2 2 3 3 4 4 5 5 6 6 7 7 8 8 9 9 10 10 11 11
REMARK H PARENT
REMARK Flexibility Score: inf
ROOT
ATOM      1  C   UNL     1     -29.175  12.047 -28.520  1.00  0.00     0.040 C 
ATOM      2  C   UNL     1     -28.032  12.380 -29.424  1.00  0.00    -0.066 C 
ATOM      3  C   UNL     1     -26.873  12.904 -28.938  1.00  0.00     0.047 C 
ATOM      4  C   UNL     1     -25.791  13.165 -29.942  1.00  0.00     0.159 C 
ATOM      5  O   UNL     1     -24.661  13.611 -29.613  1.00  0.00    -0.295 OA
ATOM      6  C   UNL     1     -26.155  12.851 -31.393  1.00  0.00     0.067 C 
ATOM      7  C   UNL     1     -27.561  13.467 -31.572  1.00  0.00     0.021 C 
ATOM      8  C   UNL     1     -28.114  12.165 -30.950  1.00  0.00     0.022 C 
ATOM      9  C   UNL     1     -26.824  11.448 -31.444  1.00  0.00    -0.019 C 
ATOM     10  C   UNL     1     -26.963  10.912 -32.891  1.00  0.00     0.012 C 
ATOM     11  C   UNL     1     -26.230  10.314 -30.560  1.00  0.00     0.012 C 
ENDROOT
TORSDOF 0
ENDMDL
MODEL 8
REMARK VINA RESULT:    -4.896      1.275      2.351
REMARK INTER + INTRA:          -4.896
REMARK INTER:                  -4.896
REMARK INTRA:                   0.000
REMARK UNBOUND:                 0.000
REMARK SMILES CC1=CC(=O)[C@@H]2C[C@H]1C2(C)C
REMARK SMILES IDX 1 1 2 2 3 3 4 4 5 5 6 6 7 7 8 8 9 9 10 10 11 11
REMARK H PARENT
REMARK Flexibility Score: inf
ROOT
ATOM      1  C   UNL     1     -28.749  14.530 -31.494  1.00  0.00     0.040 C 
ATOM      2  C   UNL     1     -27.700  13.555 -31.065  1.00  0.00    -0.066 C 
ATOM      3  C   UNL     1     -26.458  13.969 -30.691  1.00  0.00     0.047 C 
ATOM      4  C   UNL     1     -25.506  12.898 -30.252  1.00  0.00     0.159 C 
ATOM      5  O   UNL     1     -24.343  13.157 -29.847  1.00  0.00    -0.295 OA
ATOM      6  C   UNL     1     -26.045  11.470 -30.331  1.00  0.00     0.067 C 
ATOM      7  C   UNL     1     -26.727  11.399 -31.716  1.00  0.00     0.021 C 
ATOM      8  C   UNL     1     -27.964  12.034 -31.042  1.00  0.00     0.022 C 
ATOM      9  C   UNL     1     -27.464  11.440 -29.694  1.00  0.00    -0.019 C 
ATOM     10  C   UNL     1     -27.975   9.997 -29.458  1.00  0.00     0.012 C 
ATOM     11  C   UNL     1     -27.707  12.261 -28.395  1.00  0.00     0.012 C 
ENDROOT
TORSDOF 0
ENDMDL
MODEL 9
REMARK VINA RESULT:    -4.872      1.772      2.952
REMARK INTER + INTRA:          -4.872
REMARK INTER:                  -4.872
REMARK INTRA:                   0.000
REMARK UNBOUND:                 0.000
REMARK SMILES CC1=CC(=O)[C@@H]2C[C@H]1C2(C)C
REMARK SMILES IDX 1 1 2 2 3 3 4 4 5 5 6 6 7 7 8 8 9 9 10 10 11 11
REMARK H PARENT
REMARK Flexibility Score: inf
ROOT
ATOM      1  C   UNL     1     -26.187  10.666 -27.669  1.00  0.00     0.040 C 
ATOM      2  C   UNL     1     -26.550  11.158 -29.033  1.00  0.00    -0.066 C 
ATOM      3  C   UNL     1     -26.195  10.469 -30.153  1.00  0.00     0.047 C 
ATOM      4  C   UNL     1     -26.646  11.050 -31.460  1.00  0.00     0.159 C 
ATOM      5  O   UNL     1     -26.414  10.487 -32.562  1.00  0.00    -0.295 OA
ATOM      6  C   UNL     1     -27.406  12.373 -31.360  1.00  0.00     0.067 C 
ATOM      7  C   UNL     1     -26.572  13.215 -30.370  1.00  0.00     0.021 C 
ATOM      8  C   UNL     1     -27.327  12.476 -29.242  1.00  0.00     0.022 C 
ATOM      9  C   UNL     1     -28.488  12.240 -30.251  1.00  0.00    -0.019 C 
ATOM     10  C   UNL     1     -29.500  13.413 -30.270  1.00  0.00     0.012 C 
ATOM     11  C   UNL     1     -29.286  10.909 -30.153  1.00  0.00     0.012 C 
ENDROOT
TORSDOF 0
ENDMDL
