MODEL 1
REMARK VINA RESULT:    -5.550      0.000      0.000
REMARK INTER + INTRA:          -6.863
REMARK INTER:                  -6.686
REMARK INTRA:                  -0.178
REMARK UNBOUND:                -0.178
REMARK SMILES CCCCc1oc(O)c2ccccc12
REMARK SMILES IDX 4 1 5 2 7 3 6 4 9 5 14 6 10 7 13 8 11 9 12 10 8 11 3 13 2 14
REMARK SMILES IDX 1 15
REMARK H PARENT 8 12
REMARK Flexibility Score: inf
ROOT
ATOM      1  C   UNL     1      16.264  23.184  17.238  1.00  0.00     0.076 C 
ENDROOT
BRANCH   1   2
ATOM      2  C   UNL     1      16.671  24.136  16.155  1.00  0.00     0.116 A 
ATOM      3  C   UNL     1      17.508  24.851  14.315  1.00  0.00     0.290 A 
ATOM      4  O   UNL     1      17.265  23.770  15.032  1.00  0.00    -0.430 OA
ATOM      5  C   UNL     1      17.065  25.966  14.987  1.00  0.00     0.066 A 
ATOM      6  C   UNL     1      16.531  25.512  16.165  1.00  0.00     0.027 A 
ATOM      7  C   UNL     1      17.096  27.320  14.662  1.00  0.00     0.016 A 
ATOM      8  C   UNL     1      15.991  26.386  17.109  1.00  0.00     0.012 A 
ATOM      9  C   UNL     1      16.556  28.226  15.593  1.00  0.00     0.001 A 
ATOM     10  C   UNL     1      16.006  27.762  16.811  1.00  0.00     0.001 A 
BRANCH   3  11
ATOM     11  O   UNL     1      18.124  24.845  13.069  1.00  0.00    -0.480 OA
ATOM     12  H   UNL     1      18.788  25.569  12.822  1.00  0.00     0.297 HD
ENDBRANCH   3  11
ENDBRANCH   1   2
BRANCH   1  13
ATOM     13  C   UNL     1      14.792  22.793  17.083  1.00  0.00     0.008 C 
BRANCH  13  14
ATOM     14  C   UNL     1      14.395  22.720  15.605  1.00  0.00    -0.003 C 
ATOM     15  C   UNL     1      13.307  21.673  15.377  1.00  0.00     0.004 C 
ENDBRANCH  13  14
ENDBRANCH   1  13
TORSDOF 4
ENDMDL
MODEL 2
REMARK VINA RESULT:    -5.482      1.683      5.088
REMARK INTER + INTRA:          -6.781
REMARK INTER:                  -6.576
REMARK INTRA:                  -0.206
REMARK UNBOUND:                -0.178
REMARK SMILES CCCCc1oc(O)c2ccccc12
REMARK SMILES IDX 4 1 5 2 7 3 6 4 9 5 14 6 10 7 13 8 11 9 12 10 8 11 3 13 2 14
REMARK SMILES IDX 1 15
REMARK H PARENT 8 12
REMARK Flexibility Score: inf
ROOT
ATOM      1  C   UNL     1      16.313  28.625  15.839  1.00  0.00     0.076 C 
ENDROOT
BRANCH   1   2
ATOM      2  C   UNL     1      16.642  27.230  15.403  1.00  0.00     0.116 A 
ATOM      3  C   UNL     1      17.424  25.625  14.215  1.00  0.00     0.290 A 
ATOM      4  O   UNL     1      17.341  26.938  14.320  1.00  0.00    -0.430 OA
ATOM      5  C   UNL     1      16.753  25.031  15.259  1.00  0.00     0.066 A 
ATOM      6  C   UNL     1      16.251  26.054  16.019  1.00  0.00     0.027 A 
ATOM      7  C   UNL     1      16.545  23.694  15.588  1.00  0.00     0.016 A 
ATOM      8  C   UNL     1      15.496  25.811  17.167  1.00  0.00     0.012 A 
ATOM      9  C   UNL     1      15.789  23.417  16.743  1.00  0.00     0.001 A 
ATOM     10  C   UNL     1      15.267  24.470  17.528  1.00  0.00     0.001 A 
BRANCH   3  11
ATOM     11  O   UNL     1      18.090  24.959  13.194  1.00  0.00    -0.480 OA
ATOM     12  H   UNL     1      17.637  24.806  12.300  1.00  0.00     0.297 HD
ENDBRANCH   3  11
ENDBRANCH   1   2
BRANCH   1  13
ATOM     13  C   UNL     1      16.950  29.647  14.893  1.00  0.00     0.008 C 
BRANCH  13  14
ATOM     14  C   UNL     1      18.051  30.440  15.603  1.00  0.00    -0.003 C 
ATOM     15  C   UNL     1      17.962  31.927  15.270  1.00  0.00     0.004 C 
ENDBRANCH  13  14
ENDBRANCH   1  13
TORSDOF 4
ENDMDL
MODEL 3
REMARK VINA RESULT:    -5.362      1.674      4.628
REMARK INTER + INTRA:          -6.637
REMARK INTER:                  -6.201
REMARK INTRA:                  -0.437
REMARK UNBOUND:                -0.178
REMARK SMILES CCCCc1oc(O)c2ccccc12
REMARK SMILES IDX 4 1 5 2 7 3 6 4 9 5 14 6 10 7 13 8 11 9 12 10 8 11 3 13 2 14
REMARK SMILES IDX 1 15
REMARK H PARENT 8 12
REMARK Flexibility Score: inf
ROOT
ATOM      1  C   UNL     1      15.911  26.598  15.142  1.00  0.00     0.076 C 
ENDROOT
BRANCH   1   2
ATOM      2  C   UNL     1      15.704  25.203  15.648  1.00  0.00     0.116 A 
ATOM      3  C   UNL     1      15.034  23.167  15.717  1.00  0.00     0.290 A 
ATOM      4  O   UNL     1      15.059  24.262  14.980  1.00  0.00    -0.430 OA
ATOM      5  C   UNL     1      15.677  23.395  16.912  1.00  0.00     0.066 A 
ATOM      6  C   UNL     1      16.105  24.696  16.871  1.00  0.00     0.027 A 
ATOM      7  C   UNL     1      15.909  22.574  18.013  1.00  0.00     0.016 A 
ATOM      8  C   UNL     1      16.794  25.274  17.937  1.00  0.00     0.012 A 
ATOM      9  C   UNL     1      16.605  23.128  19.104  1.00  0.00     0.001 A 
ATOM     10  C   UNL     1      17.045  24.472  19.066  1.00  0.00     0.001 A 
BRANCH   3  11
ATOM     11  O   UNL     1      14.439  21.973  15.330  1.00  0.00    -0.480 OA
ATOM     12  H   UNL     1      14.544  21.631  14.382  1.00  0.00     0.297 HD
ENDBRANCH   3  11
ENDBRANCH   1   2
BRANCH   1  13
ATOM     13  C   UNL     1      17.396  26.853  14.865  1.00  0.00     0.008 C 
BRANCH  13  14
ATOM     14  C   UNL     1      17.929  27.994  15.738  1.00  0.00    -0.003 C 
ATOM     15  C   UNL     1      16.788  28.746  16.419  1.00  0.00     0.004 C 
ENDBRANCH  13  14
ENDBRANCH   1  13
TORSDOF 4
ENDMDL
MODEL 4
REMARK VINA RESULT:    -5.345      2.374      3.411
REMARK INTER + INTRA:          -6.616
REMARK INTER:                  -6.329
REMARK INTRA:                  -0.288
REMARK UNBOUND:                -0.178
REMARK SMILES CCCCc1oc(O)c2ccccc12
REMARK SMILES IDX 4 1 5 2 7 3 6 4 9 5 14 6 10 7 13 8 11 9 12 10 8 11 3 13 2 14
REMARK SMILES IDX 1 15
REMARK H PARENT 8 12
REMARK Flexibility Score: inf
ROOT
ATOM      1  C   UNL     1      17.483  25.600  14.425  1.00  0.00     0.076 C 
ENDROOT
BRANCH   1   2
ATOM      2  C   UNL     1      16.941  26.890  14.961  1.00  0.00     0.116 A 
ATOM      3  C   UNL     1      15.870  28.746  15.033  1.00  0.00     0.290 A 
ATOM      4  O   UNL     1      16.134  27.691  14.286  1.00  0.00    -0.430 OA
ATOM      5  C   UNL     1      16.527  28.641  16.237  1.00  0.00     0.066 A 
ATOM      6  C   UNL     1      17.214  27.457  16.193  1.00  0.00     0.027 A 
ATOM      7  C   UNL     1      16.576  29.485  17.344  1.00  0.00     0.016 A 
ATOM      8  C   UNL     1      18.008  27.031  17.258  1.00  0.00     0.012 A 
ATOM      9  C   UNL     1      17.368  29.082  18.435  1.00  0.00     0.001 A 
ATOM     10  C   UNL     1      18.080  27.861  18.393  1.00  0.00     0.001 A 
BRANCH   3  11
ATOM     11  O   UNL     1      15.050  29.799  14.643  1.00  0.00    -0.480 OA
ATOM     12  H   UNL     1      14.043  29.723  14.728  1.00  0.00     0.297 HD
ENDBRANCH   3  11
ENDBRANCH   1   2
BRANCH   1  13
ATOM     13  C   UNL     1      17.013  24.423  15.284  1.00  0.00     0.008 C 
BRANCH  13  14
ATOM     14  C   UNL     1      15.484  24.365  15.347  1.00  0.00    -0.003 C 
ATOM     15  C   UNL     1      15.009  23.128  16.105  1.00  0.00     0.004 C 
ENDBRANCH  13  14
ENDBRANCH   1  13
TORSDOF 4
ENDMDL
MODEL 5
REMARK VINA RESULT:    -5.337      2.059      2.971
REMARK INTER + INTRA:          -6.607
REMARK INTER:                  -6.443
REMARK INTRA:                  -0.165
REMARK UNBOUND:                -0.178
REMARK SMILES CCCCc1oc(O)c2ccccc12
REMARK SMILES IDX 4 1 5 2 7 3 6 4 9 5 14 6 10 7 13 8 11 9 12 10 8 11 3 13 2 14
REMARK SMILES IDX 1 15
REMARK H PARENT 8 12
REMARK Flexibility Score: inf
ROOT
ATOM      1  C   UNL     1      14.807  22.734  16.875  1.00  0.00     0.076 C 
ENDROOT
BRANCH   1   2
ATOM      2  C   UNL     1      15.434  24.093  16.952  1.00  0.00     0.116 A 
ATOM      3  C   UNL     1      15.857  26.076  17.648  1.00  0.00     0.290 A 
ATOM      4  O   UNL     1      15.156  24.984  17.888  1.00  0.00    -0.430 OA
ATOM      5  C   UNL     1      16.617  25.902  16.514  1.00  0.00     0.066 A 
ATOM      6  C   UNL     1      16.347  24.636  16.066  1.00  0.00     0.027 A 
ATOM      7  C   UNL     1      17.504  26.748  15.853  1.00  0.00     0.016 A 
ATOM      8  C   UNL     1      16.945  24.124  14.914  1.00  0.00     0.012 A 
ATOM      9  C   UNL     1      18.125  26.259  14.688  1.00  0.00     0.001 A 
ATOM     10  C   UNL     1      17.847  24.953  14.221  1.00  0.00     0.001 A 
BRANCH   3  11
ATOM     11  O   UNL     1      15.818  27.223  18.432  1.00  0.00    -0.480 OA
ATOM     12  H   UNL     1      16.039  28.127  18.030  1.00  0.00     0.297 HD
ENDBRANCH   3  11
ENDBRANCH   1   2
BRANCH   1  13
ATOM     13  C   UNL     1      13.923  22.621  15.630  1.00  0.00     0.008 C 
BRANCH  13  14
ATOM     14  C   UNL     1      13.337  21.211  15.499  1.00  0.00    -0.003 C 
ATOM     15  C   UNL     1      12.176  21.185  14.509  1.00  0.00     0.004 C 
ENDBRANCH  13  14
ENDBRANCH   1  13
TORSDOF 4
ENDMDL
MODEL 6
REMARK VINA RESULT:    -5.297      1.711      2.219
REMARK INTER + INTRA:          -6.559
REMARK INTER:                  -6.279
REMARK INTRA:                  -0.280
REMARK UNBOUND:                -0.178
REMARK SMILES CCCCc1oc(O)c2ccccc12
REMARK SMILES IDX 4 1 5 2 7 3 6 4 9 5 14 6 10 7 13 8 11 9 12 10 8 11 3 13 2 14
REMARK SMILES IDX 1 15
REMARK H PARENT 8 12
REMARK Flexibility Score: inf
ROOT
ATOM      1  C   UNL     1      16.206  23.579  15.821  1.00  0.00     0.076 C 
ENDROOT
BRANCH   1   2
ATOM      2  C   UNL     1      16.175  25.077  15.839  1.00  0.00     0.116 A 
ATOM      3  C   UNL     1      16.007  27.094  15.132  1.00  0.00     0.290 A 
ATOM      4  O   UNL     1      15.934  25.826  14.776  1.00  0.00    -0.430 OA
ATOM      5  C   UNL     1      16.311  27.186  16.470  1.00  0.00     0.066 A 
ATOM      6  C   UNL     1      16.421  25.899  16.925  1.00  0.00     0.027 A 
ATOM      7  C   UNL     1      16.502  28.285  17.305  1.00  0.00     0.016 A 
ATOM      8  C   UNL     1      16.736  25.616  18.254  1.00  0.00     0.012 A 
ATOM      9  C   UNL     1      16.819  28.031  18.653  1.00  0.00     0.001 A 
ATOM     10  C   UNL     1      16.936  26.703  19.125  1.00  0.00     0.001 A 
BRANCH   3  11
ATOM     11  O   UNL     1      15.807  28.165  14.268  1.00  0.00    -0.480 OA
ATOM     12  H   UNL     1      15.297  28.984  14.577  1.00  0.00     0.297 HD
ENDBRANCH   3  11
ENDBRANCH   1   2
BRANCH   1  13
ATOM     13  C   UNL     1      14.878  23.009  16.326  1.00  0.00     0.008 C 
BRANCH  13  14
ATOM     14  C   UNL     1      13.961  22.634  15.158  1.00  0.00    -0.003 C 
ATOM     15  C   UNL     1      13.219  21.329  15.435  1.00  0.00     0.004 C 
ENDBRANCH  13  14
ENDBRANCH   1  13
TORSDOF 4
ENDMDL
MODEL 7
REMARK VINA RESULT:    -5.175      2.038      3.045
REMARK INTER + INTRA:          -6.411
REMARK INTER:                  -6.204
REMARK INTRA:                  -0.208
REMARK UNBOUND:                -0.178
REMARK SMILES CCCCc1oc(O)c2ccccc12
REMARK SMILES IDX 4 1 5 2 7 3 6 4 9 5 14 6 10 7 13 8 11 9 12 10 8 11 3 13 2 14
REMARK SMILES IDX 1 15
REMARK H PARENT 8 12
REMARK Flexibility Score: inf
ROOT
ATOM      1  C   UNL     1      14.071  22.794  15.136  1.00  0.00     0.076 C 
ENDROOT
BRANCH   1   2
ATOM      2  C   UNL     1      15.066  23.323  16.124  1.00  0.00     0.116 A 
ATOM      3  C   UNL     1      16.264  23.457  17.896  1.00  0.00     0.290 A 
ATOM      4  O   UNL     1      15.385  22.713  17.252  1.00  0.00    -0.430 OA
ATOM      5  C   UNL     1      16.530  24.596  17.173  1.00  0.00     0.066 A 
ATOM      6  C   UNL     1      15.764  24.514  16.040  1.00  0.00     0.027 A 
ATOM      7  C   UNL     1      17.367  25.681  17.424  1.00  0.00     0.016 A 
ATOM      8  C   UNL     1      15.777  25.520  15.073  1.00  0.00     0.012 A 
ATOM      9  C   UNL     1      17.403  26.711  16.465  1.00  0.00     0.001 A 
ATOM     10  C   UNL     1      16.612  26.631  15.296  1.00  0.00     0.001 A 
BRANCH   3  11
ATOM     11  O   UNL     1      16.825  23.125  19.124  1.00  0.00    -0.480 OA
ATOM     12  H   UNL     1      17.219  23.844  19.719  1.00  0.00     0.297 HD
ENDBRANCH   3  11
ENDBRANCH   1   2
BRANCH   1  13
ATOM     13  C   UNL     1      13.471  21.476  15.633  1.00  0.00     0.008 C 
BRANCH  13  14
ATOM     14  C   UNL     1      12.403  20.959  14.664  1.00  0.00    -0.003 C 
ATOM     15  C   UNL     1      12.380  21.782  13.378  1.00  0.00     0.004 C 
ENDBRANCH  13  14
ENDBRANCH   1  13
TORSDOF 4
ENDMDL
MODEL 8
REMARK VINA RESULT:    -5.052      2.475      3.412
REMARK INTER + INTRA:          -6.264
REMARK INTER:                  -5.716
REMARK INTRA:                  -0.547
REMARK UNBOUND:                -0.178
REMARK SMILES CCCCc1oc(O)c2ccccc12
REMARK SMILES IDX 4 1 5 2 7 3 6 4 9 5 14 6 10 7 13 8 11 9 12 10 8 11 3 13 2 14
REMARK SMILES IDX 1 15
REMARK H PARENT 8 12
REMARK Flexibility Score: inf
ROOT
ATOM      1  C   UNL     1      17.138  24.646  18.725  1.00  0.00     0.076 C 
ENDROOT
BRANCH   1   2
ATOM      2  C   UNL     1      16.766  25.986  18.168  1.00  0.00     0.116 A 
ATOM      3  C   UNL     1      16.024  27.996  18.089  1.00  0.00     0.290 A 
ATOM      4  O   UNL     1      16.262  26.973  18.888  1.00  0.00    -0.430 OA
ATOM      5  C   UNL     1      16.379  27.673  16.800  1.00  0.00     0.066 A 
ATOM      6  C   UNL     1      16.851  26.388  16.847  1.00  0.00     0.027 A 
ATOM      7  C   UNL     1      16.316  28.396  15.611  1.00  0.00     0.016 A 
ATOM      8  C   UNL     1      17.293  25.728  15.699  1.00  0.00     0.012 A 
ATOM      9  C   UNL     1      16.757  27.757  14.436  1.00  0.00     0.001 A 
ATOM     10  C   UNL     1      17.244  26.430  14.480  1.00  0.00     0.001 A 
BRANCH   3  11
ATOM     11  O   UNL     1      15.492  29.211  18.505  1.00  0.00    -0.480 OA
ATOM     12  H   UNL     1      15.788  30.077  18.069  1.00  0.00     0.297 HD
ENDBRANCH   3  11
ENDBRANCH   1   2
BRANCH   1  13
ATOM     13  C   UNL     1      15.915  23.726  18.771  1.00  0.00     0.008 C 
BRANCH  13  14
ATOM     14  C   UNL     1      15.923  22.743  17.596  1.00  0.00    -0.003 C 
ATOM     15  C   UNL     1      14.889  23.133  16.543  1.00  0.00     0.004 C 
ENDBRANCH  13  14
ENDBRANCH   1  13
TORSDOF 4
ENDMDL
MODEL 9
REMARK VINA RESULT:    -4.784      2.185      3.393
REMARK INTER + INTRA:          -5.940
REMARK INTER:                  -5.662
REMARK INTRA:                  -0.278
REMARK UNBOUND:                -0.178
REMARK SMILES CCCCc1oc(O)c2ccccc12
REMARK SMILES IDX 4 1 5 2 7 3 6 4 9 5 14 6 10 7 13 8 11 9 12 10 8 11 3 13 2 14
REMARK SMILES IDX 1 15
REMARK H PARENT 8 12
REMARK Flexibility Score: inf
ROOT
ATOM      1  C   UNL     1      15.589  22.834  17.305  1.00  0.00     0.076 C 
ENDROOT
BRANCH   1   2
ATOM      2  C   UNL     1      15.874  24.283  17.056  1.00  0.00     0.116 A 
ATOM      3  C   UNL     1      15.813  26.414  17.289  1.00  0.00     0.290 A 
ATOM      4  O   UNL     1      15.392  25.269  17.793  1.00  0.00    -0.430 OA
ATOM      5  C   UNL     1      16.593  26.176  16.181  1.00  0.00     0.066 A 
ATOM      6  C   UNL     1      16.632  24.815  16.029  1.00  0.00     0.027 A 
ATOM      7  C   UNL     1      17.253  27.038  15.308  1.00  0.00     0.016 A 
ATOM      8  C   UNL     1      17.335  24.215  14.983  1.00  0.00     0.012 A 
ATOM      9  C   UNL     1      17.973  26.462  14.244  1.00  0.00     0.001 A 
ATOM     10  C   UNL     1      18.014  25.058  14.083  1.00  0.00     0.001 A 
BRANCH   3  11
ATOM     11  O   UNL     1      15.501  27.664  17.810  1.00  0.00    -0.480 OA
ATOM     12  H   UNL     1      16.000  28.489  17.497  1.00  0.00     0.297 HD
ENDBRANCH   3  11
ENDBRANCH   1   2
BRANCH   1  13
ATOM     13  C   UNL     1      15.893  22.469  18.761  1.00  0.00     0.008 C 
BRANCH  13  14
ATOM     14  C   UNL     1      17.279  21.829  18.889  1.00  0.00    -0.003 C 
ATOM     15  C   UNL     1      17.172  20.325  19.125  1.00  0.00     0.004 C 
ENDBRANCH  13  14
ENDBRANCH   1  13
TORSDOF 4
ENDMDL
