MODEL 1
REMARK VINA RESULT:    10.878      0.000      0.000
REMARK INTER + INTRA:          13.349
REMARK INTER:                  13.104
REMARK INTRA:                   0.245
REMARK UNBOUND:                 0.245
REMARK SMILES O=c1c(O)c(-c2ccc(O)c(O)c2)oc2cc(O)cc(O)c12
REMARK SMILES IDX 5 1 3 2 2 3 1 4 22 5 20 6 19 7 17 8 16 9 15 10 14 11 6 12
REMARK SMILES IDX 7 13 8 14 9 15 13 16 11 17 10 18 12 20 4 22 21 24 18 26
REMARK H PARENT 10 19 12 21 4 23 21 25 18 27
REMARK Flexibility Score: inf
ROOT
ATOM      1  C   UNL     1      42.219  10.556   8.054  1.00  0.00     0.180 A 
ATOM      2  C   UNL     1      40.895  10.610   7.588  1.00  0.00     0.208 A 
ATOM      3  C   UNL     1      40.662  10.700   6.206  1.00  0.00     0.238 A 
ATOM      4  O   UNL     1      39.475  10.671   5.791  1.00  0.00    -0.285 OA
ATOM      5  C   UNL     1      41.756  10.793   5.311  1.00  0.00     0.111 A 
ATOM      6  C   UNL     1      41.639  10.933   3.895  1.00  0.00     0.134 A 
ATOM      7  C   UNL     1      42.791  10.909   3.100  1.00  0.00     0.093 A 
ATOM      8  C   UNL     1      44.061  10.814   3.675  1.00  0.00     0.123 A 
ATOM      9  C   UNL     1      44.190  10.732   5.058  1.00  0.00     0.094 A 
ATOM     10  C   UNL     1      43.057  10.715   5.876  1.00  0.00     0.146 A 
ATOM     11  O   UNL     1      43.225  10.614   7.188  1.00  0.00    -0.452 OA
ENDROOT
BRANCH   1  12
ATOM     12  C   UNL     1      42.545  10.446   9.495  1.00  0.00     0.025 A 
ATOM     13  C   UNL     1      43.644  11.124  10.051  1.00  0.00     0.016 A 
ATOM     14  C   UNL     1      43.917  11.024  11.418  1.00  0.00     0.051 A 
ATOM     15  C   UNL     1      43.089  10.259  12.249  1.00  0.00     0.157 A 
ATOM     16  C   UNL     1      41.705   9.699  10.337  1.00  0.00     0.062 A 
ATOM     17  C   UNL     1      41.980   9.598  11.709  1.00  0.00     0.158 A 
BRANCH  15  18
ATOM     18  O   UNL     1      43.359  10.157  13.613  1.00  0.00    -0.504 OA
ATOM     19  H   UNL     1      44.307  10.198  13.970  1.00  0.00     0.293 HD
ENDBRANCH  15  18
BRANCH  17  20
ATOM     20  O   UNL     1      41.153   8.844  12.539  1.00  0.00    -0.504 OA
ATOM     21  H   UNL     1      41.519   8.091  13.111  1.00  0.00     0.293 HD
ENDBRANCH  17  20
ENDBRANCH   1  12
BRANCH   2  22
ATOM     22  O   UNL     1      39.830  10.593   8.491  1.00  0.00    -0.502 OA
ATOM     23  H   UNL     1      38.944  11.044   8.297  1.00  0.00     0.293 HD
ENDBRANCH   2  22
BRANCH   6  24
ATOM     24  O   UNL     1      40.426  11.124   3.225  1.00  0.00    -0.507 OA
ATOM     25  H   UNL     1      40.309  11.096   2.223  1.00  0.00     0.293 HD
ENDBRANCH   6  24
BRANCH   8  26
ATOM     26  O   UNL     1      45.203  10.807   2.877  1.00  0.00    -0.508 OA
ATOM     27  H   UNL     1      45.213  10.360   1.967  1.00  0.00     0.293 HD
ENDBRANCH   8  26
TORSDOF 6
ENDMDL
MODEL 2
REMARK VINA RESULT:    13.170      1.485      2.301
REMARK INTER + INTRA:          16.110
REMARK INTER:                  16.088
REMARK INTRA:                   0.022
REMARK UNBOUND:                 0.245
REMARK SMILES O=c1c(O)c(-c2ccc(O)c(O)c2)oc2cc(O)cc(O)c12
REMARK SMILES IDX 5 1 3 2 2 3 1 4 22 5 20 6 19 7 17 8 16 9 15 10 14 11 6 12
REMARK SMILES IDX 7 13 8 14 9 15 13 16 11 17 10 18 12 20 4 22 21 24 18 26
REMARK H PARENT 10 19 12 21 4 23 21 25 18 27
REMARK Flexibility Score: inf
ROOT
ATOM      1  C   UNL     1      42.343  10.340   9.780  1.00  0.00     0.180 A 
ATOM      2  C   UNL     1      41.073  10.744   9.336  1.00  0.00     0.208 A 
ATOM      3  C   UNL     1      40.827  10.818   7.955  1.00  0.00     0.238 A 
ATOM      4  O   UNL     1      39.667  11.108   7.564  1.00  0.00    -0.285 OA
ATOM      5  C   UNL     1      41.870  10.543   7.037  1.00  0.00     0.111 A 
ATOM      6  C   UNL     1      41.747  10.630   5.617  1.00  0.00     0.134 A 
ATOM      7  C   UNL     1      42.815  10.232   4.805  1.00  0.00     0.093 A 
ATOM      8  C   UNL     1      44.025   9.809   5.362  1.00  0.00     0.123 A 
ATOM      9  C   UNL     1      44.174   9.772   6.745  1.00  0.00     0.094 A 
ATOM     10  C   UNL     1      43.113  10.128   7.583  1.00  0.00     0.146 A 
ATOM     11  O   UNL     1      43.292  10.057   8.895  1.00  0.00    -0.452 OA
ENDROOT
BRANCH   1  12
ATOM     12  C   UNL     1      42.675  10.223  11.219  1.00  0.00     0.025 A 
ATOM     13  C   UNL     1      41.816   9.565  12.118  1.00  0.00     0.016 A 
ATOM     14  C   UNL     1      42.162   9.447  13.466  1.00  0.00     0.051 A 
ATOM     15  C   UNL     1      43.374   9.971  13.933  1.00  0.00     0.157 A 
ATOM     16  C   UNL     1      43.899  10.728  11.689  1.00  0.00     0.062 A 
ATOM     17  C   UNL     1      44.245  10.609  13.043  1.00  0.00     0.158 A 
BRANCH  15  18
ATOM     18  O   UNL     1      43.721   9.855  15.279  1.00  0.00    -0.504 OA
ATOM     19  H   UNL     1      43.233   9.220  15.899  1.00  0.00     0.293 HD
ENDBRANCH  15  18
BRANCH  17  20
ATOM     20  O   UNL     1      45.454  11.123  13.509  1.00  0.00    -0.504 OA
ATOM     21  H   UNL     1      45.526  11.574  14.413  1.00  0.00     0.293 HD
ENDBRANCH  17  20
ENDBRANCH   1  12
BRANCH   2  22
ATOM     22  O   UNL     1      40.080  11.085  10.257  1.00  0.00    -0.502 OA
ATOM     23  H   UNL     1      40.294  11.458  11.175  1.00  0.00     0.293 HD
ENDBRANCH   2  22
BRANCH   6  24
ATOM     24  O   UNL     1      40.616  11.122   4.957  1.00  0.00    -0.507 OA
ATOM     25  H   UNL     1      40.368  12.098   4.886  1.00  0.00     0.293 HD
ENDBRANCH   6  24
BRANCH   8  26
ATOM     26  O   UNL     1      45.089   9.430   4.545  1.00  0.00    -0.508 OA
ATOM     27  H   UNL     1      45.001   8.675   3.875  1.00  0.00     0.293 HD
ENDBRANCH   8  26
TORSDOF 6
ENDMDL
