MODEL 1
REMARK VINA RESULT:    -4.482      0.000      0.000
REMARK INTER + INTRA:         -15.278
REMARK INTER:                 -11.293
REMARK INTRA:                  -3.985
REMARK UNBOUND:                -3.985
REMARK SMILES CCCCCCCCCCCCCCCCCCCCCCCCCCCC(=O)[O-]
REMARK SMILES IDX 15 1 16 2 17 3 18 4 19 5 20 6 21 7 22 8 23 9 24 10 25 11
REMARK SMILES IDX 26 12 27 13 28 14 29 15 30 16 14 17 13 18 12 19 11 20 10 21
REMARK SMILES IDX 9 22 8 23 7 24 6 25 5 26 4 27 3 28 2 29 1 30
REMARK H PARENT
REMARK Flexibility Score: inf
ROOT
ATOM      1  C   UNL     1       3.837  34.483 -14.151  1.00  0.00     0.000 C 
ENDROOT
BRANCH   1   2
ATOM      2  C   UNL     1       3.186  34.863 -15.496  1.00  0.00     0.000 C 
BRANCH   2   3
ATOM      3  C   UNL     1       3.990  34.467 -16.746  1.00  0.00     0.000 C 
BRANCH   3   4
ATOM      4  C   UNL     1       5.431  35.013 -16.798  1.00  0.00     0.000 C 
BRANCH   4   5
ATOM      5  C   UNL     1       6.515  33.917 -16.733  1.00  0.00     0.000 C 
BRANCH   5   6
ATOM      6  C   UNL     1       5.921  32.499 -16.664  1.00  0.00     0.000 C 
BRANCH   6   7
ATOM      7  C   UNL     1       6.577  31.621 -15.582  1.00  0.00     0.000 C 
BRANCH   7   8
ATOM      8  C   UNL     1       5.730  30.429 -15.099  1.00  0.00     0.000 C 
BRANCH   8   9
ATOM      9  C   UNL     1       6.580  29.232 -14.642  1.00  0.00     0.000 C 
BRANCH   9  10
ATOM     10  C   UNL     1       7.659  29.622 -13.614  1.00  0.00     0.000 C 
BRANCH  10  11
ATOM     11  C   UNL     1       8.194  28.462 -12.757  1.00  0.00     0.000 C 
BRANCH  11  12
ATOM     12  C   UNL     1       7.269  27.235 -12.761  1.00  0.00     0.006 C 
BRANCH  12  13
ATOM     13  C   UNL     1       8.069  25.948 -12.981  1.00  0.00     0.053 C 
BRANCH  13  14
ATOM     14  C   UNL     1       7.353  24.776 -12.386  1.00  0.00     0.041 C 
ATOM     15  O   UNL     1       7.997  23.891 -11.763  1.00  0.00    -0.550 OA
ATOM     16  O   UNL     1       5.981  24.636 -12.560  1.00  0.00    -0.550 OA
ENDBRANCH  13  14
ENDBRANCH  12  13
ENDBRANCH  11  12
ENDBRANCH  10  11
ENDBRANCH   9  10
ENDBRANCH   8   9
ENDBRANCH   7   8
ENDBRANCH   6   7
ENDBRANCH   5   6
ENDBRANCH   4   5
ENDBRANCH   3   4
ENDBRANCH   2   3
ENDBRANCH   1   2
BRANCH   1  17
ATOM     17  C   UNL     1       4.369  35.691 -13.352  1.00  0.00     0.000 C 
BRANCH  17  18
ATOM     18  C   UNL     1       3.561  35.952 -12.067  1.00  0.00     0.000 C 
BRANCH  18  19
ATOM     19  C   UNL     1       2.131  35.381 -12.125  1.00  0.00     0.000 C 
BRANCH  19  20
ATOM     20  C   UNL     1       1.499  35.045 -10.761  1.00  0.00     0.000 C 
BRANCH  20  21
ATOM     21  C   UNL     1       1.943  35.998  -9.637  1.00  0.00     0.000 C 
BRANCH  21  22
ATOM     22  C   UNL     1       2.234  35.263  -8.316  1.00  0.00    -0.000 C 
BRANCH  22  23
ATOM     23  C   UNL     1       3.728  35.107  -7.982  1.00  0.00    -0.000 C 
BRANCH  23  24
ATOM     24  C   UNL     1       4.076  33.709  -7.450  1.00  0.00    -0.000 C 
BRANCH  24  25
ATOM     25  C   UNL     1       5.221  33.086  -8.264  1.00  0.00    -0.000 C 
BRANCH  25  26
ATOM     26  C   UNL     1       5.362  33.707  -9.665  1.00  0.00    -0.000 C 
BRANCH  26  27
ATOM     27  C   UNL     1       4.813  32.840 -10.815  1.00  0.00    -0.000 C 
BRANCH  27  28
ATOM     28  C   UNL     1       5.907  32.283 -11.751  1.00  0.00    -0.000 C 
BRANCH  28  29
ATOM     29  C   UNL     1       7.219  33.074 -11.648  1.00  0.00    -0.003 C 
ATOM     30  C   UNL     1       7.487  33.865 -12.924  1.00  0.00     0.004 C 
ENDBRANCH  28  29
ENDBRANCH  27  28
ENDBRANCH  26  27
ENDBRANCH  25  26
ENDBRANCH  24  25
ENDBRANCH  23  24
ENDBRANCH  22  23
ENDBRANCH  21  22
ENDBRANCH  20  21
ENDBRANCH  19  20
ENDBRANCH  18  19
ENDBRANCH  17  18
ENDBRANCH   1  17
TORSDOF 26
ENDMDL
MODEL 2
REMARK VINA RESULT:    -4.432      1.273      4.425
REMARK INTER + INTRA:         -15.154
REMARK INTER:                 -11.416
REMARK INTRA:                  -3.738
REMARK UNBOUND:                -3.985
REMARK SMILES CCCCCCCCCCCCCCCCCCCCCCCCCCCC(=O)[O-]
REMARK SMILES IDX 15 1 16 2 17 3 18 4 19 5 20 6 21 7 22 8 23 9 24 10 25 11
REMARK SMILES IDX 26 12 27 13 28 14 29 15 30 16 14 17 13 18 12 19 11 20 10 21
REMARK SMILES IDX 9 22 8 23 7 24 6 25 5 26 4 27 3 28 2 29 1 30
REMARK H PARENT
REMARK Flexibility Score: inf
ROOT
ATOM      1  C   UNL     1       6.336  33.743  -7.727  1.00  0.00     0.000 C 
ENDROOT
BRANCH   1   2
ATOM      2  C   UNL     1       5.128  32.958  -8.278  1.00  0.00     0.000 C 
BRANCH   2   3
ATOM      3  C   UNL     1       4.938  33.039  -9.803  1.00  0.00     0.000 C 
BRANCH   3   4
ATOM      4  C   UNL     1       6.140  33.609 -10.583  1.00  0.00     0.000 C 
BRANCH   4   5
ATOM      5  C   UNL     1       6.649  32.680 -11.706  1.00  0.00     0.000 C 
BRANCH   5   6
ATOM      6  C   UNL     1       8.147  32.872 -11.999  1.00  0.00     0.000 C 
BRANCH   6   7
ATOM      7  C   UNL     1       8.734  31.766 -12.897  1.00  0.00     0.000 C 
BRANCH   7   8
ATOM      8  C   UNL     1       8.291  30.332 -12.549  1.00  0.00     0.000 C 
BRANCH   8   9
ATOM      9  C   UNL     1       9.261  29.259 -13.070  1.00  0.00     0.000 C 
BRANCH   9  10
ATOM     10  C   UNL     1       8.781  27.825 -12.773  1.00  0.00     0.000 C 
BRANCH  10  11
ATOM     11  C   UNL     1       7.339  27.515 -13.214  1.00  0.00     0.000 C 
BRANCH  11  12
ATOM     12  C   UNL     1       6.891  26.093 -12.843  1.00  0.00     0.006 C 
BRANCH  12  13
ATOM     13  C   UNL     1       8.099  25.186 -12.595  1.00  0.00     0.053 C 
BRANCH  13  14
ATOM     14  C   UNL     1       7.862  24.309 -11.406  1.00  0.00     0.041 C 
ATOM     15  O   UNL     1       8.836  23.809 -10.784  1.00  0.00    -0.550 OA
ATOM     16  O   UNL     1       6.564  24.003 -11.013  1.00  0.00    -0.550 OA
ENDBRANCH  13  14
ENDBRANCH  12  13
ENDBRANCH  11  12
ENDBRANCH  10  11
ENDBRANCH   9  10
ENDBRANCH   8   9
ENDBRANCH   7   8
ENDBRANCH   6   7
ENDBRANCH   5   6
ENDBRANCH   4   5
ENDBRANCH   3   4
ENDBRANCH   2   3
ENDBRANCH   1   2
BRANCH   1  17
ATOM     17  C   UNL     1       5.946  34.948  -6.844  1.00  0.00     0.000 C 
BRANCH  17  18
ATOM     18  C   UNL     1       4.447  34.960  -6.490  1.00  0.00     0.000 C 
BRANCH  18  19
ATOM     19  C   UNL     1       3.730  36.247  -6.938  1.00  0.00     0.000 C 
BRANCH  19  20
ATOM     20  C   UNL     1       3.313  36.288  -8.421  1.00  0.00     0.000 C 
BRANCH  20  21
ATOM     21  C   UNL     1       2.145  35.340  -8.747  1.00  0.00     0.000 C 
BRANCH  21  22
ATOM     22  C   UNL     1       1.596  35.542 -10.171  1.00  0.00    -0.000 C 
BRANCH  22  23
ATOM     23  C   UNL     1       2.116  34.534 -11.211  1.00  0.00    -0.000 C 
BRANCH  23  24
ATOM     24  C   UNL     1       2.545  35.202 -12.525  1.00  0.00    -0.000 C 
BRANCH  24  25
ATOM     25  C   UNL     1       3.586  34.343 -13.258  1.00  0.00    -0.000 C 
BRANCH  25  26
ATOM     26  C   UNL     1       4.812  35.152 -13.717  1.00  0.00    -0.000 C 
BRANCH  26  27
ATOM     27  C   UNL     1       5.666  34.472 -14.804  1.00  0.00    -0.000 C 
BRANCH  27  28
ATOM     28  C   UNL     1       5.055  33.162 -15.348  1.00  0.00    -0.000 C 
BRANCH  28  29
ATOM     29  C   UNL     1       6.093  32.037 -15.454  1.00  0.00    -0.003 C 
ATOM     30  C   UNL     1       5.534  30.719 -14.928  1.00  0.00     0.004 C 
ENDBRANCH  28  29
ENDBRANCH  27  28
ENDBRANCH  26  27
ENDBRANCH  25  26
ENDBRANCH  24  25
ENDBRANCH  23  24
ENDBRANCH  22  23
ENDBRANCH  21  22
ENDBRANCH  20  21
ENDBRANCH  19  20
ENDBRANCH  18  19
ENDBRANCH  17  18
ENDBRANCH   1  17
TORSDOF 26
ENDMDL
MODEL 3
REMARK VINA RESULT:    -4.429      2.784      6.279
REMARK INTER + INTRA:         -15.145
REMARK INTER:                 -11.162
REMARK INTRA:                  -3.983
REMARK UNBOUND:                -3.985
REMARK SMILES CCCCCCCCCCCCCCCCCCCCCCCCCCCC(=O)[O-]
REMARK SMILES IDX 15 1 16 2 17 3 18 4 19 5 20 6 21 7 22 8 23 9 24 10 25 11
REMARK SMILES IDX 26 12 27 13 28 14 29 15 30 16 14 17 13 18 12 19 11 20 10 21
REMARK SMILES IDX 9 22 8 23 7 24 6 25 5 26 4 27 3 28 2 29 1 30
REMARK H PARENT
REMARK Flexibility Score: inf
ROOT
ATOM      1  C   UNL     1       5.248  31.136 -14.691  1.00  0.00     0.000 C 
ENDROOT
BRANCH   1   2
ATOM      2  C   UNL     1       4.587  32.412 -14.130  1.00  0.00     0.000 C 
BRANCH   2   3
ATOM      3  C   UNL     1       4.852  32.682 -12.638  1.00  0.00     0.000 C 
BRANCH   3   4
ATOM      4  C   UNL     1       6.259  33.219 -12.310  1.00  0.00     0.000 C 
BRANCH   4   5
ATOM      5  C   UNL     1       7.212  32.152 -11.729  1.00  0.00     0.000 C 
BRANCH   5   6
ATOM      6  C   UNL     1       8.432  31.894 -12.630  1.00  0.00     0.000 C 
BRANCH   6   7
ATOM      7  C   UNL     1       8.903  30.428 -12.604  1.00  0.00     0.000 C 
BRANCH   7   8
ATOM      8  C   UNL     1       7.791  29.377 -12.781  1.00  0.00     0.000 C 
BRANCH   8   9
ATOM      9  C   UNL     1       8.309  27.932 -12.691  1.00  0.00     0.000 C 
BRANCH   9  10
ATOM     10  C   UNL     1       9.847  27.849 -12.661  1.00  0.00     0.000 C 
BRANCH  10  11
ATOM     11  C   UNL     1      10.419  26.506 -12.171  1.00  0.00     0.000 C 
BRANCH  11  12
ATOM     12  C   UNL     1       9.453  25.330 -12.382  1.00  0.00     0.006 C 
BRANCH  12  13
ATOM     13  C   UNL     1       9.082  24.681 -11.045  1.00  0.00     0.053 C 
BRANCH  13  14
ATOM     14  C   UNL     1       7.699  24.112 -11.103  1.00  0.00     0.041 C 
ATOM     15  O   UNL     1       7.316  23.289 -10.230  1.00  0.00    -0.550 OA
ATOM     16  O   UNL     1       6.848  24.453 -12.148  1.00  0.00    -0.550 OA
ENDBRANCH  13  14
ENDBRANCH  12  13
ENDBRANCH  11  12
ENDBRANCH  10  11
ENDBRANCH   9  10
ENDBRANCH   8   9
ENDBRANCH   7   8
ENDBRANCH   6   7
ENDBRANCH   5   6
ENDBRANCH   4   5
ENDBRANCH   3   4
ENDBRANCH   2   3
ENDBRANCH   1   2
BRANCH   1  17
ATOM     17  C   UNL     1       6.242  31.403 -15.841  1.00  0.00     0.000 C 
BRANCH  17  18
ATOM     18  C   UNL     1       5.904  32.682 -16.629  1.00  0.00     0.000 C 
BRANCH  18  19
ATOM     19  C   UNL     1       7.152  33.476 -17.060  1.00  0.00     0.000 C 
BRANCH  19  20
ATOM     20  C   UNL     1       8.242  33.628 -15.982  1.00  0.00     0.000 C 
BRANCH  20  21
ATOM     21  C   UNL     1       7.916  34.714 -14.941  1.00  0.00     0.000 C 
BRANCH  21  22
ATOM     22  C   UNL     1       7.031  35.837 -15.512  1.00  0.00    -0.000 C 
BRANCH  22  23
ATOM     23  C   UNL     1       5.728  36.088 -14.733  1.00  0.00    -0.000 C 
BRANCH  23  24
ATOM     24  C   UNL     1       4.479  36.017 -15.622  1.00  0.00    -0.000 C 
BRANCH  24  25
ATOM     25  C   UNL     1       4.834  36.326 -17.085  1.00  0.00    -0.000 C 
BRANCH  25  26
ATOM     26  C   UNL     1       3.674  36.040 -18.054  1.00  0.00    -0.000 C 
BRANCH  26  27
ATOM     27  C   UNL     1       3.680  34.629 -18.672  1.00  0.00    -0.000 C 
BRANCH  27  28
ATOM     28  C   UNL     1       2.806  34.500 -19.939  1.00  0.00    -0.000 C 
BRANCH  28  29
ATOM     29  C   UNL     1       2.376  35.867 -20.489  1.00  0.00    -0.003 C 
ATOM     30  C   UNL     1       2.790  36.029 -21.947  1.00  0.00     0.004 C 
ENDBRANCH  28  29
ENDBRANCH  27  28
ENDBRANCH  26  27
ENDBRANCH  25  26
ENDBRANCH  24  25
ENDBRANCH  23  24
ENDBRANCH  22  23
ENDBRANCH  21  22
ENDBRANCH  20  21
ENDBRANCH  19  20
ENDBRANCH  18  19
ENDBRANCH  17  18
ENDBRANCH   1  17
TORSDOF 26
ENDMDL
MODEL 4
REMARK VINA RESULT:    -4.423     11.564     15.434
REMARK INTER + INTRA:         -15.131
REMARK INTER:                 -12.507
REMARK INTRA:                  -2.624
REMARK UNBOUND:                -3.985
REMARK SMILES CCCCCCCCCCCCCCCCCCCCCCCCCCCC(=O)[O-]
REMARK SMILES IDX 15 1 16 2 17 3 18 4 19 5 20 6 21 7 22 8 23 9 24 10 25 11
REMARK SMILES IDX 26 12 27 13 28 14 29 15 30 16 14 17 13 18 12 19 11 20 10 21
REMARK SMILES IDX 9 22 8 23 7 24 6 25 5 26 4 27 3 28 2 29 1 30
REMARK H PARENT
REMARK Flexibility Score: inf
ROOT
ATOM      1  C   UNL     1       2.660  21.290  -7.244  1.00  0.00     0.000 C 
ENDROOT
BRANCH   1   2
ATOM      2  C   UNL     1       1.153  21.514  -7.005  1.00  0.00     0.000 C 
BRANCH   2   3
ATOM      3  C   UNL     1       0.366  20.263  -6.579  1.00  0.00     0.000 C 
BRANCH   3   4
ATOM      4  C   UNL     1       1.186  19.199  -5.823  1.00  0.00     0.000 C 
BRANCH   4   5
ATOM      5  C   UNL     1       1.190  17.815  -6.505  1.00  0.00     0.000 C 
BRANCH   5   6
ATOM      6  C   UNL     1       2.114  17.762  -7.734  1.00  0.00     0.000 C 
BRANCH   6   7
ATOM      7  C   UNL     1       1.404  17.256  -9.003  1.00  0.00     0.000 C 
BRANCH   7   8
ATOM      8  C   UNL     1       0.277  18.163  -9.533  1.00  0.00     0.000 C 
BRANCH   8   9
ATOM      9  C   UNL     1      -0.541  17.511 -10.660  1.00  0.00     0.000 C 
BRANCH   9  10
ATOM     10  C   UNL     1      -0.214  18.092 -12.049  1.00  0.00     0.000 C 
BRANCH  10  11
ATOM     11  C   UNL     1      -1.390  18.787 -12.758  1.00  0.00     0.000 C 
BRANCH  11  12
ATOM     12  C   UNL     1      -2.340  17.800 -13.455  1.00  0.00     0.006 C 
BRANCH  12  13
ATOM     13  C   UNL     1      -3.605  18.511 -13.943  1.00  0.00     0.053 C 
BRANCH  13  14
ATOM     14  C   UNL     1      -4.827  17.759 -13.519  1.00  0.00     0.041 C 
ATOM     15  O   UNL     1      -5.766  17.565 -14.335  1.00  0.00    -0.550 OA
ATOM     16  O   UNL     1      -4.951  17.313 -12.208  1.00  0.00    -0.550 OA
ENDBRANCH  13  14
ENDBRANCH  12  13
ENDBRANCH  11  12
ENDBRANCH  10  11
ENDBRANCH   9  10
ENDBRANCH   8   9
ENDBRANCH   7   8
ENDBRANCH   6   7
ENDBRANCH   5   6
ENDBRANCH   4   5
ENDBRANCH   3   4
ENDBRANCH   2   3
ENDBRANCH   1   2
BRANCH   1  17
ATOM     17  C   UNL     1       3.029  21.064  -8.725  1.00  0.00     0.000 C 
BRANCH  17  18
ATOM     18  C   UNL     1       1.998  21.677  -9.691  1.00  0.00     0.000 C 
BRANCH  18  19
ATOM     19  C   UNL     1       1.941  20.957 -11.051  1.00  0.00     0.000 C 
BRANCH  19  20
ATOM     20  C   UNL     1       2.120  21.863 -12.285  1.00  0.00     0.000 C 
BRANCH  20  21
ATOM     21  C   UNL     1       2.466  21.081 -13.564  1.00  0.00     0.000 C 
BRANCH  21  22
ATOM     22  C   UNL     1       3.150  21.958 -14.629  1.00  0.00    -0.000 C 
BRANCH  22  23
ATOM     23  C   UNL     1       2.684  21.698 -16.073  1.00  0.00    -0.000 C 
BRANCH  23  24
ATOM     24  C   UNL     1       2.968  22.880 -17.012  1.00  0.00    -0.000 C 
BRANCH  24  25
ATOM     25  C   UNL     1       1.918  22.950 -18.131  1.00  0.00    -0.000 C 
BRANCH  25  26
ATOM     26  C   UNL     1       1.001  21.715 -18.167  1.00  0.00    -0.000 C 
BRANCH  26  27
ATOM     27  C   UNL     1       0.784  21.112 -19.569  1.00  0.00    -0.000 C 
BRANCH  27  28
ATOM     28  C   UNL     1       1.797  20.006 -19.935  1.00  0.00    -0.000 C 
BRANCH  28  29
ATOM     29  C   UNL     1       3.067  20.573 -20.583  1.00  0.00    -0.003 C 
ATOM     30  C   UNL     1       3.856  19.480 -21.298  1.00  0.00     0.004 C 
ENDBRANCH  28  29
ENDBRANCH  27  28
ENDBRANCH  26  27
ENDBRANCH  25  26
ENDBRANCH  24  25
ENDBRANCH  23  24
ENDBRANCH  22  23
ENDBRANCH  21  22
ENDBRANCH  20  21
ENDBRANCH  19  20
ENDBRANCH  18  19
ENDBRANCH  17  18
ENDBRANCH   1  17
TORSDOF 26
ENDMDL
MODEL 5
REMARK VINA RESULT:    -4.361      2.105      4.914
REMARK INTER + INTRA:         -14.975
REMARK INTER:                 -10.367
REMARK INTRA:                  -4.608
REMARK UNBOUND:                -3.985
REMARK SMILES CCCCCCCCCCCCCCCCCCCCCCCCCCCC(=O)[O-]
REMARK SMILES IDX 15 1 16 2 17 3 18 4 19 5 20 6 21 7 22 8 23 9 24 10 25 11
REMARK SMILES IDX 26 12 27 13 28 14 29 15 30 16 14 17 13 18 12 19 11 20 10 21
REMARK SMILES IDX 9 22 8 23 7 24 6 25 5 26 4 27 3 28 2 29 1 30
REMARK H PARENT
REMARK Flexibility Score: inf
ROOT
ATOM      1  C   UNL     1       5.417  31.046 -14.721  1.00  0.00     0.000 C 
ENDROOT
BRANCH   1   2
ATOM      2  C   UNL     1       6.881  30.665 -14.418  1.00  0.00     0.000 C 
BRANCH   2   3
ATOM      3  C   UNL     1       7.342  30.938 -12.976  1.00  0.00     0.000 C 
BRANCH   3   4
ATOM      4  C   UNL     1       8.859  31.148 -12.803  1.00  0.00     0.000 C 
BRANCH   4   5
ATOM      5  C   UNL     1       9.682  30.814 -14.065  1.00  0.00     0.000 C 
BRANCH   5   6
ATOM      6  C   UNL     1      10.584  29.582 -13.875  1.00  0.00     0.000 C 
BRANCH   6   7
ATOM      7  C   UNL     1      10.281  28.451 -14.876  1.00  0.00     0.000 C 
BRANCH   7   8
ATOM      8  C   UNL     1      10.023  27.069 -14.248  1.00  0.00     0.000 C 
BRANCH   8   9
ATOM      9  C   UNL     1       9.326  27.149 -12.880  1.00  0.00     0.000 C 
BRANCH   9  10
ATOM     10  C   UNL     1       7.800  27.328 -12.997  1.00  0.00     0.000 C 
BRANCH  10  11
ATOM     11  C   UNL     1       6.973  26.051 -12.763  1.00  0.00     0.000 C 
BRANCH  11  12
ATOM     12  C   UNL     1       7.838  24.832 -12.409  1.00  0.00     0.006 C 
BRANCH  12  13
ATOM     13  C   UNL     1       7.190  24.007 -11.294  1.00  0.00     0.053 C 
BRANCH  13  14
ATOM     14  C   UNL     1       8.127  23.857 -10.138  1.00  0.00     0.041 C 
ATOM     15  O   UNL     1       7.882  23.021  -9.229  1.00  0.00    -0.550 OA
ATOM     16  O   UNL     1       9.248  24.673 -10.039  1.00  0.00    -0.550 OA
ENDBRANCH  13  14
ENDBRANCH  12  13
ENDBRANCH  11  12
ENDBRANCH  10  11
ENDBRANCH   9  10
ENDBRANCH   8   9
ENDBRANCH   7   8
ENDBRANCH   6   7
ENDBRANCH   5   6
ENDBRANCH   4   5
ENDBRANCH   3   4
ENDBRANCH   2   3
ENDBRANCH   1   2
BRANCH   1  17
ATOM     17  C   UNL     1       5.266  32.375 -15.491  1.00  0.00     0.000 C 
BRANCH  17  18
ATOM     18  C   UNL     1       6.498  32.700 -16.356  1.00  0.00     0.000 C 
BRANCH  18  19
ATOM     19  C   UNL     1       7.094  34.090 -16.061  1.00  0.00     0.000 C 
BRANCH  19  20
ATOM     20  C   UNL     1       7.462  34.351 -14.589  1.00  0.00     0.000 C 
BRANCH  20  21
ATOM     21  C   UNL     1       8.972  34.547 -14.368  1.00  0.00     0.000 C 
BRANCH  21  22
ATOM     22  C   UNL     1       9.292  35.261 -13.042  1.00  0.00    -0.000 C 
BRANCH  22  23
ATOM     23  C   UNL     1       8.363  34.891 -11.872  1.00  0.00    -0.000 C 
BRANCH  23  24
ATOM     24  C   UNL     1       9.088  34.125 -10.755  1.00  0.00    -0.000 C 
BRANCH  24  25
ATOM     25  C   UNL     1       8.123  33.795  -9.607  1.00  0.00    -0.000 C 
BRANCH  25  26
ATOM     26  C   UNL     1       6.746  34.461  -9.774  1.00  0.00    -0.000 C 
BRANCH  26  27
ATOM     27  C   UNL     1       5.545  33.560  -9.424  1.00  0.00    -0.000 C 
BRANCH  27  28
ATOM     28  C   UNL     1       5.072  32.670 -10.594  1.00  0.00    -0.000 C 
BRANCH  28  29
ATOM     29  C   UNL     1       4.965  33.451 -11.911  1.00  0.00    -0.003 C 
ATOM     30  C   UNL     1       3.575  34.052 -12.085  1.00  0.00     0.004 C 
ENDBRANCH  28  29
ENDBRANCH  27  28
ENDBRANCH  26  27
ENDBRANCH  25  26
ENDBRANCH  24  25
ENDBRANCH  23  24
ENDBRANCH  22  23
ENDBRANCH  21  22
ENDBRANCH  20  21
ENDBRANCH  19  20
ENDBRANCH  18  19
ENDBRANCH  17  18
ENDBRANCH   1  17
TORSDOF 26
ENDMDL
MODEL 6
REMARK VINA RESULT:    -4.333      1.470      3.517
REMARK INTER + INTRA:         -14.903
REMARK INTER:                 -10.515
REMARK INTRA:                  -4.389
REMARK UNBOUND:                -3.985
REMARK SMILES CCCCCCCCCCCCCCCCCCCCCCCCCCCC(=O)[O-]
REMARK SMILES IDX 15 1 16 2 17 3 18 4 19 5 20 6 21 7 22 8 23 9 24 10 25 11
REMARK SMILES IDX 26 12 27 13 28 14 29 15 30 16 14 17 13 18 12 19 11 20 10 21
REMARK SMILES IDX 9 22 8 23 7 24 6 25 5 26 4 27 3 28 2 29 1 30
REMARK H PARENT
REMARK Flexibility Score: inf
ROOT
ATOM      1  C   UNL     1       4.755  32.319 -12.455  1.00  0.00     0.000 C 
ENDROOT
BRANCH   1   2
ATOM      2  C   UNL     1       5.311  32.944 -13.751  1.00  0.00     0.000 C 
BRANCH   2   3
ATOM      3  C   UNL     1       5.216  32.051 -15.000  1.00  0.00     0.000 C 
BRANCH   3   4
ATOM      4  C   UNL     1       6.096  32.490 -16.187  1.00  0.00     0.000 C 
BRANCH   4   5
ATOM      5  C   UNL     1       7.041  33.666 -15.861  1.00  0.00     0.000 C 
BRANCH   5   6
ATOM      6  C   UNL     1       8.472  33.203 -15.536  1.00  0.00     0.000 C 
BRANCH   6   7
ATOM      7  C   UNL     1       8.870  33.456 -14.070  1.00  0.00     0.000 C 
BRANCH   7   8
ATOM      8  C   UNL     1       9.148  32.191 -13.236  1.00  0.00     0.000 C 
BRANCH   8   9
ATOM      9  C   UNL     1       8.542  30.919 -13.851  1.00  0.00     0.000 C 
BRANCH   9  10
ATOM     10  C   UNL     1       7.891  29.999 -12.801  1.00  0.00     0.000 C 
BRANCH  10  11
ATOM     11  C   UNL     1       7.304  28.688 -13.355  1.00  0.00     0.000 C 
BRANCH  11  12
ATOM     12  C   UNL     1       7.973  27.435 -12.769  1.00  0.00     0.006 C 
BRANCH  12  13
ATOM     13  C   UNL     1       7.039  26.225 -12.858  1.00  0.00     0.053 C 
BRANCH  13  14
ATOM     14  C   UNL     1       7.809  24.953 -12.687  1.00  0.00     0.041 C 
ATOM     15  O   UNL     1       8.705  24.640 -13.514  1.00  0.00    -0.550 OA
ATOM     16  O   UNL     1       7.505  24.090 -11.640  1.00  0.00    -0.550 OA
ENDBRANCH  13  14
ENDBRANCH  12  13
ENDBRANCH  11  12
ENDBRANCH  10  11
ENDBRANCH   9  10
ENDBRANCH   8   9
ENDBRANCH   7   8
ENDBRANCH   6   7
ENDBRANCH   5   6
ENDBRANCH   4   5
ENDBRANCH   3   4
ENDBRANCH   2   3
ENDBRANCH   1   2
BRANCH   1  17
ATOM     17  C   UNL     1       5.616  32.604 -11.206  1.00  0.00     0.000 C 
BRANCH  17  18
ATOM     18  C   UNL     1       6.415  33.915 -11.327  1.00  0.00     0.000 C 
BRANCH  18  19
ATOM     19  C   UNL     1       7.650  33.957 -10.406  1.00  0.00     0.000 C 
BRANCH  19  20
ATOM     20  C   UNL     1       7.630  35.056  -9.327  1.00  0.00     0.000 C 
BRANCH  20  21
ATOM     21  C   UNL     1       7.858  34.513  -7.905  1.00  0.00     0.000 C 
BRANCH  21  22
ATOM     22  C   UNL     1       6.567  34.480  -7.068  1.00  0.00    -0.000 C 
BRANCH  22  23
ATOM     23  C   UNL     1       5.449  33.592  -7.642  1.00  0.00    -0.000 C 
BRANCH  23  24
ATOM     24  C   UNL     1       4.046  34.155  -7.375  1.00  0.00    -0.000 C 
BRANCH  24  25
ATOM     25  C   UNL     1       3.621  35.113  -8.499  1.00  0.00    -0.000 C 
BRANCH  25  26
ATOM     26  C   UNL     1       2.094  35.195  -8.667  1.00  0.00    -0.000 C 
BRANCH  26  27
ATOM     27  C   UNL     1       1.618  35.535 -10.093  1.00  0.00    -0.000 C 
BRANCH  27  28
ATOM     28  C   UNL     1       2.133  34.557 -11.171  1.00  0.00    -0.000 C 
BRANCH  28  29
ATOM     29  C   UNL     1       2.524  35.276 -12.470  1.00  0.00    -0.003 C 
ATOM     30  C   UNL     1       3.714  36.204 -12.249  1.00  0.00     0.004 C 
ENDBRANCH  28  29
ENDBRANCH  27  28
ENDBRANCH  26  27
ENDBRANCH  25  26
ENDBRANCH  24  25
ENDBRANCH  23  24
ENDBRANCH  22  23
ENDBRANCH  21  22
ENDBRANCH  20  21
ENDBRANCH  19  20
ENDBRANCH  18  19
ENDBRANCH  17  18
ENDBRANCH   1  17
TORSDOF 26
ENDMDL
MODEL 7
REMARK VINA RESULT:    -4.296      2.900      7.599
REMARK INTER + INTRA:         -14.812
REMARK INTER:                 -11.305
REMARK INTRA:                  -3.507
REMARK UNBOUND:                -3.985
REMARK SMILES CCCCCCCCCCCCCCCCCCCCCCCCCCCC(=O)[O-]
REMARK SMILES IDX 15 1 16 2 17 3 18 4 19 5 20 6 21 7 22 8 23 9 24 10 25 11
REMARK SMILES IDX 26 12 27 13 28 14 29 15 30 16 14 17 13 18 12 19 11 20 10 21
REMARK SMILES IDX 9 22 8 23 7 24 6 25 5 26 4 27 3 28 2 29 1 30
REMARK H PARENT
REMARK Flexibility Score: inf
ROOT
ATOM      1  C   UNL     1       5.114  31.451 -14.643  1.00  0.00     0.000 C 
ENDROOT
BRANCH   1   2
ATOM      2  C   UNL     1       6.310  31.793 -15.554  1.00  0.00     0.000 C 
BRANCH   2   3
ATOM      3  C   UNL     1       5.949  32.107 -17.016  1.00  0.00     0.000 C 
BRANCH   3   4
ATOM      4  C   UNL     1       5.165  33.418 -17.229  1.00  0.00     0.000 C 
BRANCH   4   5
ATOM      5  C   UNL     1       5.884  34.669 -16.683  1.00  0.00     0.000 C 
BRANCH   5   6
ATOM      6  C   UNL     1       4.914  35.681 -16.047  1.00  0.00     0.000 C 
BRANCH   6   7
ATOM      7  C   UNL     1       3.448  35.210 -16.073  1.00  0.00     0.000 C 
BRANCH   7   8
ATOM      8  C   UNL     1       2.694  35.334 -14.735  1.00  0.00     0.000 C 
BRANCH   8   9
ATOM      9  C   UNL     1       3.585  35.835 -13.586  1.00  0.00     0.000 C 
BRANCH   9  10
ATOM     10  C   UNL     1       2.888  35.761 -12.214  1.00  0.00     0.000 C 
BRANCH  10  11
ATOM     11  C   UNL     1       3.828  35.546 -11.015  1.00  0.00     0.000 C 
BRANCH  11  12
ATOM     12  C   UNL     1       3.099  35.033  -9.763  1.00  0.00     0.006 C 
BRANCH  12  13
ATOM     13  C   UNL     1       3.974  35.194  -8.517  1.00  0.00     0.053 C 
BRANCH  13  14
ATOM     14  C   UNL     1       4.293  33.858  -7.923  1.00  0.00     0.041 C 
ATOM     15  O   UNL     1       3.898  33.571  -6.762  1.00  0.00    -0.550 OA
ATOM     16  O   UNL     1       5.067  32.947  -8.632  1.00  0.00    -0.550 OA
ENDBRANCH  13  14
ENDBRANCH  12  13
ENDBRANCH  11  12
ENDBRANCH  10  11
ENDBRANCH   9  10
ENDBRANCH   8   9
ENDBRANCH   7   8
ENDBRANCH   6   7
ENDBRANCH   5   6
ENDBRANCH   4   5
ENDBRANCH   3   4
ENDBRANCH   2   3
ENDBRANCH   1   2
BRANCH   1  17
ATOM     17  C   UNL     1       4.736  32.581 -13.662  1.00  0.00     0.000 C 
BRANCH  17  18
ATOM     18  C   UNL     1       5.501  32.487 -12.329  1.00  0.00     0.000 C 
BRANCH  18  19
ATOM     19  C   UNL     1       6.781  33.344 -12.304  1.00  0.00     0.000 C 
BRANCH  19  20
ATOM     20  C   UNL     1       8.048  32.625 -11.803  1.00  0.00     0.000 C 
BRANCH  20  21
ATOM     21  C   UNL     1       8.897  32.032 -12.942  1.00  0.00     0.000 C 
BRANCH  21  22
ATOM     22  C   UNL     1       9.076  30.508 -12.817  1.00  0.00    -0.000 C 
BRANCH  22  23
ATOM     23  C   UNL     1       7.764  29.714 -12.687  1.00  0.00    -0.000 C 
BRANCH  23  24
ATOM     24  C   UNL     1       7.709  28.498 -13.624  1.00  0.00    -0.000 C 
BRANCH  24  25
ATOM     25  C   UNL     1       8.272  27.250 -12.928  1.00  0.00    -0.000 C 
BRANCH  25  26
ATOM     26  C   UNL     1       7.192  26.195 -12.630  1.00  0.00    -0.000 C 
BRANCH  26  27
ATOM     27  C   UNL     1       7.692  24.737 -12.641  1.00  0.00    -0.000 C 
BRANCH  27  28
ATOM     28  C   UNL     1       9.019  24.528 -11.879  1.00  0.00    -0.000 C 
BRANCH  28  29
ATOM     29  C   UNL     1       8.808  24.429 -10.362  1.00  0.00    -0.003 C 
ATOM     30  C   UNL     1       7.774  23.363 -10.017  1.00  0.00     0.004 C 
ENDBRANCH  28  29
ENDBRANCH  27  28
ENDBRANCH  26  27
ENDBRANCH  25  26
ENDBRANCH  24  25
ENDBRANCH  23  24
ENDBRANCH  22  23
ENDBRANCH  21  22
ENDBRANCH  20  21
ENDBRANCH  19  20
ENDBRANCH  18  19
ENDBRANCH  17  18
ENDBRANCH   1  17
TORSDOF 26
ENDMDL
MODEL 8
REMARK VINA RESULT:    -4.283      1.786      4.948
REMARK INTER + INTRA:         -14.778
REMARK INTER:                 -10.538
REMARK INTRA:                  -4.240
REMARK UNBOUND:                -3.985
REMARK SMILES CCCCCCCCCCCCCCCCCCCCCCCCCCCC(=O)[O-]
REMARK SMILES IDX 15 1 16 2 17 3 18 4 19 5 20 6 21 7 22 8 23 9 24 10 25 11
REMARK SMILES IDX 26 12 27 13 28 14 29 15 30 16 14 17 13 18 12 19 11 20 10 21
REMARK SMILES IDX 9 22 8 23 7 24 6 25 5 26 4 27 3 28 2 29 1 30
REMARK H PARENT
REMARK Flexibility Score: inf
ROOT
ATOM      1  C   UNL     1       4.605  33.309 -15.704  1.00  0.00     0.000 C 
ENDROOT
BRANCH   1   2
ATOM      2  C   UNL     1       5.528  32.261 -16.360  1.00  0.00     0.000 C 
BRANCH   2   3
ATOM      3  C   UNL     1       6.369  31.427 -15.379  1.00  0.00     0.000 C 
BRANCH   3   4
ATOM      4  C   UNL     1       5.757  30.068 -14.983  1.00  0.00     0.000 C 
BRANCH   4   5
ATOM      5  C   UNL     1       6.737  28.882 -15.115  1.00  0.00     0.000 C 
BRANCH   5   6
ATOM      6  C   UNL     1       7.016  28.192 -13.768  1.00  0.00     0.000 C 
BRANCH   6   7
ATOM      7  C   UNL     1       7.666  29.128 -12.732  1.00  0.00     0.000 C 
BRANCH   7   8
ATOM      8  C   UNL     1       9.076  29.632 -13.095  1.00  0.00     0.000 C 
BRANCH   8   9
ATOM      9  C   UNL     1      10.187  28.641 -12.712  1.00  0.00     0.000 C 
BRANCH   9  10
ATOM     10  C   UNL     1      10.624  27.748 -13.889  1.00  0.00     0.000 C 
BRANCH  10  11
ATOM     11  C   UNL     1      10.209  26.270 -13.777  1.00  0.00     0.000 C 
BRANCH  11  12
ATOM     12  C   UNL     1       9.945  25.829 -12.330  1.00  0.00     0.006 C 
BRANCH  12  13
ATOM     13  C   UNL     1       8.705  24.934 -12.249  1.00  0.00     0.053 C 
BRANCH  13  14
ATOM     14  C   UNL     1       8.711  24.139 -10.982  1.00  0.00     0.041 C 
ATOM     15  O   UNL     1       9.096  24.667  -9.905  1.00  0.00    -0.550 OA
ATOM     16  O   UNL     1       8.338  22.800 -10.997  1.00  0.00    -0.550 OA
ENDBRANCH  13  14
ENDBRANCH  12  13
ENDBRANCH  11  12
ENDBRANCH  10  11
ENDBRANCH   9  10
ENDBRANCH   8   9
ENDBRANCH   7   8
ENDBRANCH   6   7
ENDBRANCH   5   6
ENDBRANCH   4   5
ENDBRANCH   3   4
ENDBRANCH   2   3
ENDBRANCH   1   2
BRANCH   1  17
ATOM     17  C   UNL     1       5.277  34.682 -15.486  1.00  0.00     0.000 C 
BRANCH  17  18
ATOM     18  C   UNL     1       6.499  34.892 -16.399  1.00  0.00     0.000 C 
BRANCH  18  19
ATOM     19  C   UNL     1       7.785  35.229 -15.621  1.00  0.00     0.000 C 
BRANCH  19  20
ATOM     20  C   UNL     1       8.979  34.293 -15.883  1.00  0.00     0.000 C 
BRANCH  20  21
ATOM     21  C   UNL     1       9.184  33.247 -14.773  1.00  0.00     0.000 C 
BRANCH  21  22
ATOM     22  C   UNL     1       9.351  33.883 -13.381  1.00  0.00    -0.000 C 
BRANCH  22  23
ATOM     23  C   UNL     1       8.526  33.218 -12.265  1.00  0.00    -0.000 C 
BRANCH  23  24
ATOM     24  C   UNL     1       7.030  33.553 -12.351  1.00  0.00    -0.000 C 
BRANCH  24  25
ATOM     25  C   UNL     1       6.177  32.347 -11.928  1.00  0.00    -0.000 C 
BRANCH  25  26
ATOM     26  C   UNL     1       4.696  32.707 -11.721  1.00  0.00    -0.000 C 
BRANCH  26  27
ATOM     27  C   UNL     1       4.333  34.167 -12.054  1.00  0.00    -0.000 C 
BRANCH  27  28
ATOM     28  C   UNL     1       3.668  34.925 -10.884  1.00  0.00    -0.000 C 
BRANCH  28  29
ATOM     29  C   UNL     1       2.186  34.558 -10.721  1.00  0.00    -0.003 C 
ATOM     30  C   UNL     1       1.285  35.614 -11.353  1.00  0.00     0.004 C 
ENDBRANCH  28  29
ENDBRANCH  27  28
ENDBRANCH  26  27
ENDBRANCH  25  26
ENDBRANCH  24  25
ENDBRANCH  23  24
ENDBRANCH  22  23
ENDBRANCH  21  22
ENDBRANCH  20  21
ENDBRANCH  19  20
ENDBRANCH  18  19
ENDBRANCH  17  18
ENDBRANCH   1  17
TORSDOF 26
ENDMDL
MODEL 9
REMARK VINA RESULT:    -4.258      1.555      3.446
REMARK INTER + INTRA:         -14.716
REMARK INTER:                  -9.829
REMARK INTRA:                  -4.888
REMARK UNBOUND:                -3.985
REMARK SMILES CCCCCCCCCCCCCCCCCCCCCCCCCCCC(=O)[O-]
REMARK SMILES IDX 15 1 16 2 17 3 18 4 19 5 20 6 21 7 22 8 23 9 24 10 25 11
REMARK SMILES IDX 26 12 27 13 28 14 29 15 30 16 14 17 13 18 12 19 11 20 10 21
REMARK SMILES IDX 9 22 8 23 7 24 6 25 5 26 4 27 3 28 2 29 1 30
REMARK H PARENT
REMARK Flexibility Score: inf
ROOT
ATOM      1  C   UNL     1       7.352  32.999 -11.631  1.00  0.00     0.000 C 
ENDROOT
BRANCH   1   2
ATOM      2  C   UNL     1       8.456  32.371 -12.505  1.00  0.00     0.000 C 
BRANCH   2   3
ATOM      3  C   UNL     1       9.037  33.297 -13.588  1.00  0.00     0.000 C 
BRANCH   3   4
ATOM      4  C   UNL     1       8.727  32.882 -15.040  1.00  0.00     0.000 C 
BRANCH   4   5
ATOM      5  C   UNL     1       7.507  33.607 -15.647  1.00  0.00     0.000 C 
BRANCH   5   6
ATOM      6  C   UNL     1       6.504  32.637 -16.296  1.00  0.00     0.000 C 
BRANCH   6   7
ATOM      7  C   UNL     1       5.352  32.240 -15.354  1.00  0.00     0.000 C 
BRANCH   7   8
ATOM      8  C   UNL     1       5.395  30.789 -14.837  1.00  0.00     0.000 C 
BRANCH   8   9
ATOM      9  C   UNL     1       6.369  29.898 -15.625  1.00  0.00     0.000 C 
BRANCH   9  10
ATOM     10  C   UNL     1       7.583  29.453 -14.787  1.00  0.00     0.000 C 
BRANCH  10  11
ATOM     11  C   UNL     1       7.259  29.021 -13.346  1.00  0.00     0.000 C 
BRANCH  11  12
ATOM     12  C   UNL     1       8.434  28.317 -12.651  1.00  0.00     0.006 C 
BRANCH  12  13
ATOM     13  C   UNL     1       8.200  26.805 -12.579  1.00  0.00     0.053 C 
BRANCH  13  14
ATOM     14  C   UNL     1       9.492  26.083 -12.365  1.00  0.00     0.041 C 
ATOM     15  O   UNL     1      10.583  26.711 -12.404  1.00  0.00    -0.550 OA
ATOM     16  O   UNL     1       9.498  24.706 -12.170  1.00  0.00    -0.550 OA
ENDBRANCH  13  14
ENDBRANCH  12  13
ENDBRANCH  11  12
ENDBRANCH  10  11
ENDBRANCH   9  10
ENDBRANCH   8   9
ENDBRANCH   7   8
ENDBRANCH   6   7
ENDBRANCH   5   6
ENDBRANCH   4   5
ENDBRANCH   3   4
ENDBRANCH   2   3
ENDBRANCH   1   2
BRANCH   1  17
ATOM     17  C   UNL     1       6.015  32.228 -11.667  1.00  0.00     0.000 C 
BRANCH  17  18
ATOM     18  C   UNL     1       4.802  33.158 -11.852  1.00  0.00     0.000 C 
BRANCH  18  19
ATOM     19  C   UNL     1       5.189  34.569 -12.334  1.00  0.00     0.000 C 
BRANCH  19  20
ATOM     20  C   UNL     1       4.025  35.572 -12.442  1.00  0.00     0.000 C 
BRANCH  20  21
ATOM     21  C   UNL     1       2.643  34.896 -12.452  1.00  0.00     0.000 C 
BRANCH  21  22
ATOM     22  C   UNL     1       1.798  35.254 -11.216  1.00  0.00    -0.000 C 
BRANCH  22  23
ATOM     23  C   UNL     1       2.412  34.828  -9.870  1.00  0.00    -0.000 C 
BRANCH  23  24
ATOM     24  C   UNL     1       1.878  35.646  -8.686  1.00  0.00    -0.000 C 
BRANCH  24  25
ATOM     25  C   UNL     1       3.011  36.445  -8.022  1.00  0.00    -0.000 C 
BRANCH  25  26
ATOM     26  C   UNL     1       4.186  36.718  -8.976  1.00  0.00    -0.000 C 
BRANCH  26  27
ATOM     27  C   UNL     1       5.582  36.476  -8.369  1.00  0.00    -0.000 C 
BRANCH  27  28
ATOM     28  C   UNL     1       6.239  35.156  -8.826  1.00  0.00    -0.000 C 
BRANCH  28  29
ATOM     29  C   UNL     1       6.108  34.047  -7.772  1.00  0.00    -0.003 C 
ATOM     30  C   UNL     1       5.060  33.018  -8.182  1.00  0.00     0.004 C 
ENDBRANCH  28  29
ENDBRANCH  27  28
ENDBRANCH  26  27
ENDBRANCH  25  26
ENDBRANCH  24  25
ENDBRANCH  23  24
ENDBRANCH  22  23
ENDBRANCH  21  22
ENDBRANCH  20  21
ENDBRANCH  19  20
ENDBRANCH  18  19
ENDBRANCH  17  18
ENDBRANCH   1  17
TORSDOF 26
ENDMDL
