MODEL 1
REMARK VINA RESULT:    -3.869      0.000      0.000
REMARK INTER + INTRA:          -6.591
REMARK INTER:                  -5.905
REMARK INTRA:                  -0.686
REMARK UNBOUND:                -0.686
REMARK SMILES CCCCCCCCCC=CC(=O)[O-]
REMARK SMILES IDX 7 1 8 2 9 3 10 4 11 5 12 6 13 7 14 8 6 9 5 10 4 11 3 12 2 13
REMARK SMILES IDX 1 14
REMARK H PARENT
REMARK Flexibility Score: inf
ROOT
ATOM      1  C   UNL     1      -4.212  29.599  29.079  1.00  0.00     0.000 C 
ENDROOT
BRANCH   1   2
ATOM      2  C   UNL     1      -4.344  29.259  30.572  1.00  0.00     0.004 C 
BRANCH   2   3
ATOM      3  C   UNL     1      -3.548  27.994  30.919  1.00  0.00     0.027 C 
BRANCH   3   4
ATOM      4  C   UNL     1      -2.088  28.303  31.107  1.00  0.00    -0.025 C 
ATOM      5  C   UNL     1      -1.087  27.408  31.123  1.00  0.00     0.020 C 
BRANCH   5   6
ATOM      6  C   UNL     1      -1.214  25.940  31.001  1.00  0.00     0.064 C 
ATOM      7  O   UNL     1      -0.176  25.233  31.072  1.00  0.00    -0.545 OA
ATOM      8  O   UNL     1      -2.442  25.313  30.840  1.00  0.00    -0.545 OA
ENDBRANCH   5   6
ENDBRANCH   3   4
ENDBRANCH   2   3
ENDBRANCH   1   2
BRANCH   1   9
ATOM      9  C   UNL     1      -4.827  28.523  28.171  1.00  0.00     0.000 C 
BRANCH   9  10
ATOM     10  C   UNL     1      -4.572  28.793  26.678  1.00  0.00     0.000 C 
BRANCH  10  11
ATOM     11  C   UNL     1      -3.597  27.781  26.053  1.00  0.00    -0.000 C 
BRANCH  11  12
ATOM     12  C   UNL     1      -3.063  26.767  27.076  1.00  0.00    -0.000 C 
BRANCH  12  13
ATOM     13  C   UNL     1      -1.609  27.081  27.450  1.00  0.00    -0.003 C 
ATOM     14  C   UNL     1      -0.836  27.621  26.250  1.00  0.00     0.004 C 
ENDBRANCH  12  13
ENDBRANCH  11  12
ENDBRANCH  10  11
ENDBRANCH   9  10
ENDBRANCH   1   9
TORSDOF 9
ENDMDL
MODEL 2
REMARK VINA RESULT:    -3.833      2.288      4.342
REMARK INTER + INTRA:          -6.536
REMARK INTER:                  -6.232
REMARK INTRA:                  -0.304
REMARK UNBOUND:                -0.686
REMARK SMILES CCCCCCCCCC=CC(=O)[O-]
REMARK SMILES IDX 7 1 8 2 9 3 10 4 11 5 12 6 13 7 14 8 6 9 5 10 4 11 3 12 2 13
REMARK SMILES IDX 1 14
REMARK H PARENT
REMARK Flexibility Score: inf
ROOT
ATOM      1  C   UNL     1      -4.579  29.043  28.817  1.00  0.00     0.000 C 
ENDROOT
BRANCH   1   2
ATOM      2  C   UNL     1      -4.406  29.013  27.291  1.00  0.00     0.004 C 
BRANCH   2   3
ATOM      3  C   UNL     1      -4.414  27.570  26.767  1.00  0.00     0.027 C 
BRANCH   3   4
ATOM      4  C   UNL     1      -3.419  26.717  27.503  1.00  0.00    -0.025 C 
ATOM      5  C   UNL     1      -2.082  26.824  27.434  1.00  0.00     0.020 C 
BRANCH   5   6
ATOM      6  C   UNL     1      -1.316  27.768  26.593  1.00  0.00     0.064 C 
ATOM      7  O   UNL     1      -1.700  28.964  26.517  1.00  0.00    -0.545 OA
ATOM      8  O   UNL     1      -0.171  27.389  25.905  1.00  0.00    -0.545 OA
ENDBRANCH   5   6
ENDBRANCH   3   4
ENDBRANCH   2   3
ENDBRANCH   1   2
BRANCH   1   9
ATOM      9  C   UNL     1      -3.422  29.759  29.530  1.00  0.00     0.000 C 
BRANCH   9  10
ATOM     10  C   UNL     1      -3.233  29.280  30.980  1.00  0.00     0.000 C 
BRANCH  10  11
ATOM     11  C   UNL     1      -2.252  28.102  31.089  1.00  0.00    -0.000 C 
BRANCH  11  12
ATOM     12  C   UNL     1      -2.964  26.742  31.125  1.00  0.00    -0.000 C 
BRANCH  12  13
ATOM     13  C   UNL     1      -1.999  25.609  30.754  1.00  0.00    -0.003 C 
ATOM     14  C   UNL     1      -0.554  25.994  31.060  1.00  0.00     0.004 C 
ENDBRANCH  12  13
ENDBRANCH  11  12
ENDBRANCH  10  11
ENDBRANCH   9  10
ENDBRANCH   1   9
TORSDOF 9
ENDMDL
MODEL 3
REMARK VINA RESULT:    -3.418      0.877      1.539
REMARK INTER + INTRA:          -5.903
REMARK INTER:                  -5.173
REMARK INTRA:                  -0.730
REMARK UNBOUND:                -0.686
REMARK SMILES CCCCCCCCCC=CC(=O)[O-]
REMARK SMILES IDX 7 1 8 2 9 3 10 4 11 5 12 6 13 7 14 8 6 9 5 10 4 11 3 12 2 13
REMARK SMILES IDX 1 14
REMARK H PARENT
REMARK Flexibility Score: inf
ROOT
ATOM      1  C   UNL     1      -4.378  28.788  28.166  1.00  0.00     0.000 C 
ENDROOT
BRANCH   1   2
ATOM      2  C   UNL     1      -4.178  29.518  29.503  1.00  0.00     0.004 C 
BRANCH   2   3
ATOM      3  C   UNL     1      -3.820  28.529  30.620  1.00  0.00     0.027 C 
BRANCH   3   4
ATOM      4  C   UNL     1      -2.394  28.702  31.065  1.00  0.00    -0.025 C 
ATOM      5  C   UNL     1      -1.457  27.741  31.106  1.00  0.00     0.020 C 
BRANCH   5   6
ATOM      6  C   UNL     1      -1.641  26.315  30.764  1.00  0.00     0.064 C 
ATOM      7  O   UNL     1      -2.699  25.735  31.125  1.00  0.00    -0.545 OA
ATOM      8  O   UNL     1      -0.702  25.599  30.035  1.00  0.00    -0.545 OA
ENDBRANCH   5   6
ENDBRANCH   3   4
ENDBRANCH   2   3
ENDBRANCH   1   2
BRANCH   1   9
ATOM      9  C   UNL     1      -4.115  27.278  28.272  1.00  0.00     0.000 C 
BRANCH   9  10
ATOM     10  C   UNL     1      -3.328  26.728  27.069  1.00  0.00     0.000 C 
BRANCH  10  11
ATOM     11  C   UNL     1      -2.886  27.835  26.098  1.00  0.00    -0.000 C 
BRANCH  11  12
ATOM     12  C   UNL     1      -1.397  28.185  26.242  1.00  0.00    -0.000 C 
BRANCH  12  13
ATOM     13  C   UNL     1      -0.599  26.982  26.758  1.00  0.00    -0.003 C 
ATOM     14  C   UNL     1       0.831  26.999  26.224  1.00  0.00     0.004 C 
ENDBRANCH  12  13
ENDBRANCH  11  12
ENDBRANCH  10  11
ENDBRANCH   9  10
ENDBRANCH   1   9
TORSDOF 9
ENDMDL
MODEL 4
REMARK VINA RESULT:    -2.944      2.407      4.716
REMARK INTER + INTRA:          -5.180
REMARK INTER:                  -4.005
REMARK INTRA:                  -1.175
REMARK UNBOUND:                -0.686
REMARK SMILES CCCCCCCCCC=CC(=O)[O-]
REMARK SMILES IDX 7 1 8 2 9 3 10 4 11 5 12 6 13 7 14 8 6 9 5 10 4 11 3 12 2 13
REMARK SMILES IDX 1 14
REMARK H PARENT
REMARK Flexibility Score: inf
ROOT
ATOM      1  C   UNL     1      -3.650  26.000  28.435  1.00  0.00     0.000 C 
ENDROOT
BRANCH   1   2
ATOM      2  C   UNL     1      -4.726  27.063  28.165  1.00  0.00     0.004 C 
BRANCH   2   3
ATOM      3  C   UNL     1      -4.351  27.929  26.955  1.00  0.00     0.027 C 
BRANCH   3   4
ATOM      4  C   UNL     1      -3.241  28.886  27.293  1.00  0.00    -0.025 C 
ATOM      5  C   UNL     1      -1.951  28.756  26.944  1.00  0.00     0.020 C 
BRANCH   5   6
ATOM      6  C   UNL     1      -1.350  27.631  26.197  1.00  0.00     0.064 C 
ATOM      7  O   UNL     1      -2.088  26.926  25.462  1.00  0.00    -0.545 OA
ATOM      8  O   UNL     1       0.007  27.342  26.256  1.00  0.00    -0.545 OA
ENDBRANCH   5   6
ENDBRANCH   3   4
ENDBRANCH   2   3
ENDBRANCH   1   2
BRANCH   1   9
ATOM      9  C   UNL     1      -3.196  25.978  29.903  1.00  0.00     0.000 C 
BRANCH   9  10
ATOM     10  C   UNL     1      -1.728  26.406  30.075  1.00  0.00     0.000 C 
BRANCH  10  11
ATOM     11  C   UNL     1      -1.589  27.871  30.518  1.00  0.00    -0.000 C 
BRANCH  11  12
ATOM     12  C   UNL     1      -2.885  28.430  31.125  1.00  0.00    -0.000 C 
BRANCH  12  13
ATOM     13  C   UNL     1      -3.140  29.864  30.644  1.00  0.00    -0.003 C 
ATOM     14  C   UNL     1      -4.632  30.125  30.458  1.00  0.00     0.004 C 
ENDBRANCH  12  13
ENDBRANCH  11  12
ENDBRANCH  10  11
ENDBRANCH   9  10
ENDBRANCH   1   9
TORSDOF 9
ENDMDL
MODEL 5
REMARK VINA RESULT:    -2.443      2.252      2.914
REMARK INTER + INTRA:          -4.415
REMARK INTER:                  -4.070
REMARK INTRA:                  -0.344
REMARK UNBOUND:                -0.686
REMARK SMILES CCCCCCCCCC=CC(=O)[O-]
REMARK SMILES IDX 7 1 8 2 9 3 10 4 11 5 12 6 13 7 14 8 6 9 5 10 4 11 3 12 2 13
REMARK SMILES IDX 1 14
REMARK H PARENT
REMARK Flexibility Score: inf
ROOT
ATOM      1  C   UNL     1      -3.612  26.232  27.922  1.00  0.00     0.000 C 
ENDROOT
BRANCH   1   2
ATOM      2  C   UNL     1      -3.173  26.055  29.383  1.00  0.00     0.004 C 
BRANCH   2   3
ATOM      3  C   UNL     1      -1.811  26.718  29.630  1.00  0.00     0.027 C 
BRANCH   3   4
ATOM      4  C   UNL     1      -1.806  27.486  30.924  1.00  0.00    -0.025 C 
ATOM      5  C   UNL     1      -2.348  28.698  31.125  1.00  0.00     0.020 C 
BRANCH   5   6
ATOM      6  C   UNL     1      -3.020  29.543  30.114  1.00  0.00     0.064 C 
ATOM      7  O   UNL     1      -2.320  30.114  29.238  1.00  0.00    -0.545 OA
ATOM      8  O   UNL     1      -4.398  29.705  30.081  1.00  0.00    -0.545 OA
ENDBRANCH   5   6
ENDBRANCH   3   4
ENDBRANCH   2   3
ENDBRANCH   1   2
BRANCH   1   9
ATOM      9  C   UNL     1      -4.887  27.079  27.786  1.00  0.00     0.000 C 
BRANCH   9  10
ATOM     10  C   UNL     1      -4.661  28.362  26.967  1.00  0.00     0.000 C 
BRANCH  10  11
ATOM     11  C   UNL     1      -3.597  28.183  25.872  1.00  0.00    -0.000 C 
BRANCH  11  12
ATOM     12  C   UNL     1      -2.176  28.480  26.374  1.00  0.00    -0.000 C 
BRANCH  12  13
ATOM     13  C   UNL     1      -1.252  27.278  26.145  1.00  0.00    -0.003 C 
ATOM     14  C   UNL     1       0.187  27.726  25.909  1.00  0.00     0.004 C 
ENDBRANCH  12  13
ENDBRANCH  11  12
ENDBRANCH  10  11
ENDBRANCH   9  10
ENDBRANCH   1   9
TORSDOF 9
ENDMDL
MODEL 6
REMARK VINA RESULT:    -1.698     21.674     22.959
REMARK INTER + INTRA:          -3.278
REMARK INTER:                  -2.638
REMARK INTRA:                  -0.640
REMARK UNBOUND:                -0.686
REMARK SMILES CCCCCCCCCC=CC(=O)[O-]
REMARK SMILES IDX 7 1 8 2 9 3 10 4 11 5 12 6 13 7 14 8 6 9 5 10 4 11 3 12 2 13
REMARK SMILES IDX 1 14
REMARK H PARENT
REMARK Flexibility Score: inf
ROOT
ATOM      1  C   UNL     1      10.798  10.890  26.005  1.00  0.00     0.000 C 
ENDROOT
BRANCH   1   2
ATOM      2  C   UNL     1      11.326  10.075  27.196  1.00  0.00     0.004 C 
BRANCH   2   3
ATOM      3  C   UNL     1      12.496  10.797  27.878  1.00  0.00     0.027 C 
BRANCH   3   4
ATOM      4  C   UNL     1      13.002  10.017  29.061  1.00  0.00    -0.025 C 
ATOM      5  C   UNL     1      12.385   9.890  30.246  1.00  0.00     0.020 C 
BRANCH   5   6
ATOM      6  C   UNL     1      11.110  10.521  30.648  1.00  0.00     0.064 C 
ATOM      7  O   UNL     1      11.129  11.694  31.104  1.00  0.00    -0.545 OA
ATOM      8  O   UNL     1       9.888   9.875  30.515  1.00  0.00    -0.545 OA
ENDBRANCH   5   6
ENDBRANCH   3   4
ENDBRANCH   2   3
ENDBRANCH   1   2
BRANCH   1   9
ATOM      9  C   UNL     1      10.270  10.002  24.868  1.00  0.00     0.000 C 
BRANCH   9  10
ATOM     10  C   UNL     1      11.228   9.947  23.665  1.00  0.00     0.000 C 
BRANCH  10  11
ATOM     11  C   UNL     1      12.639  10.449  24.012  1.00  0.00    -0.000 C 
BRANCH  11  12
ATOM     12  C   UNL     1      13.690  10.017  22.978  1.00  0.00    -0.000 C 
BRANCH  12  13
ATOM     13  C   UNL     1      15.108  10.170  23.543  1.00  0.00    -0.003 C 
ATOM     14  C   UNL     1      15.083  10.809  24.929  1.00  0.00     0.004 C 
ENDBRANCH  12  13
ENDBRANCH  11  12
ENDBRANCH  10  11
ENDBRANCH   9  10
ENDBRANCH   1   9
TORSDOF 9
ENDMDL
