MODEL 1
REMARK VINA RESULT:    -3.123      0.000      0.000
REMARK INTER + INTRA:          -3.537
REMARK INTER:                  -3.488
REMARK INTRA:                  -0.048
REMARK UNBOUND:                -0.048
REMARK SMILES CCCC(=O)[O-]
REMARK SMILES IDX 3 1 4 2 5 3 6 4 2 5 1 6
REMARK H PARENT
REMARK Flexibility Score: inf
ROOT
ATOM      1  C   UNL     1      16.266 -38.125  27.300  1.00  0.00     0.052 C 
ENDROOT
BRANCH   1   2
ATOM      2  C   UNL     1      17.221 -37.413  26.392  1.00  0.00     0.041 C 
ATOM      3  O   UNL     1      18.335 -37.930  26.113  1.00  0.00    -0.550 OA
ATOM      4  O   UNL     1      16.897 -36.162  25.883  1.00  0.00    -0.550 OA
ENDBRANCH   1   2
BRANCH   1   5
ATOM      5  C   UNL     1      16.210 -37.478  28.689  1.00  0.00     0.003 C 
ATOM      6  C   UNL     1      17.355 -37.940  29.592  1.00  0.00     0.004 C 
ENDBRANCH   1   5
TORSDOF 2
ENDMDL
MODEL 2
REMARK VINA RESULT:    -2.968      9.602     10.401
REMARK INTER + INTRA:          -3.364
REMARK INTER:                  -3.352
REMARK INTRA:                  -0.012
REMARK UNBOUND:                -0.048
REMARK SMILES CCCC(=O)[O-]
REMARK SMILES IDX 3 1 4 2 5 3 6 4 2 5 1 6
REMARK H PARENT
REMARK Flexibility Score: inf
ROOT
ATOM      1  C   UNL     1      12.954 -29.544  23.522  1.00  0.00     0.052 C 
ENDROOT
BRANCH   1   2
ATOM      2  C   UNL     1      12.431 -30.337  22.364  1.00  0.00     0.041 C 
ATOM      3  O   UNL     1      11.344 -30.016  21.816  1.00  0.00    -0.550 OA
ATOM      4  O   UNL     1      13.125 -31.453  21.914  1.00  0.00    -0.550 OA
ENDBRANCH   1   2
BRANCH   1   5
ATOM      5  C   UNL     1      11.976 -28.441  23.946  1.00  0.00     0.003 C 
ATOM      6  C   UNL     1      12.645 -27.371  24.808  1.00  0.00     0.004 C 
ENDBRANCH   1   5
TORSDOF 2
ENDMDL
MODEL 3
REMARK VINA RESULT:    -2.945      9.772     10.674
REMARK INTER + INTRA:          -3.338
REMARK INTER:                  -3.311
REMARK INTRA:                  -0.027
REMARK UNBOUND:                -0.048
REMARK SMILES CCCC(=O)[O-]
REMARK SMILES IDX 3 1 4 2 5 3 6 4 2 5 1 6
REMARK H PARENT
REMARK Flexibility Score: inf
ROOT
ATOM      1  C   UNL     1      12.806 -29.075  23.952  1.00  0.00     0.052 C 
ENDROOT
BRANCH   1   2
ATOM      2  C   UNL     1      11.605 -28.329  23.457  1.00  0.00     0.041 C 
ATOM      3  O   UNL     1      10.913 -28.797  22.515  1.00  0.00    -0.550 OA
ATOM      4  O   UNL     1      11.270 -27.101  24.012  1.00  0.00    -0.550 OA
ENDBRANCH   1   2
BRANCH   1   5
ATOM      5  C   UNL     1      13.264 -30.144  22.953  1.00  0.00     0.003 C 
ATOM      6  C   UNL     1      13.535 -31.490  23.626  1.00  0.00     0.004 C 
ENDBRANCH   1   5
TORSDOF 2
ENDMDL
MODEL 4
REMARK VINA RESULT:    -2.945     10.492     11.001
REMARK INTER + INTRA:          -3.338
REMARK INTER:                  -3.324
REMARK INTRA:                  -0.014
REMARK UNBOUND:                -0.048
REMARK SMILES CCCC(=O)[O-]
REMARK SMILES IDX 3 1 4 2 5 3 6 4 2 5 1 6
REMARK H PARENT
REMARK Flexibility Score: inf
ROOT
ATOM      1  C   UNL     1      12.771 -29.518  23.241  1.00  0.00     0.052 C 
ENDROOT
BRANCH   1   2
ATOM      2  C   UNL     1      11.997 -28.344  23.755  1.00  0.00     0.041 C 
ATOM      3  O   UNL     1      10.875 -28.058  23.260  1.00  0.00    -0.550 OA
ATOM      4  O   UNL     1      12.530 -27.544  24.758  1.00  0.00    -0.550 OA
ENDBRANCH   1   2
BRANCH   1   5
ATOM      5  C   UNL     1      12.019 -30.249  22.121  1.00  0.00     0.003 C 
ATOM      6  C   UNL     1      12.962 -31.004  21.184  1.00  0.00     0.004 C 
ENDBRANCH   1   5
TORSDOF 2
ENDMDL
MODEL 5
REMARK VINA RESULT:    -2.939      9.904     10.550
REMARK INTER + INTRA:          -3.331
REMARK INTER:                  -3.322
REMARK INTRA:                  -0.009
REMARK UNBOUND:                -0.048
REMARK SMILES CCCC(=O)[O-]
REMARK SMILES IDX 3 1 4 2 5 3 6 4 2 5 1 6
REMARK H PARENT
REMARK Flexibility Score: inf
ROOT
ATOM      1  C   UNL     1      12.796 -29.518  23.237  1.00  0.00     0.052 C 
ENDROOT
BRANCH   1   2
ATOM      2  C   UNL     1      12.189 -30.307  22.118  1.00  0.00     0.041 C 
ATOM      3  O   UNL     1      12.876 -31.164  21.502  1.00  0.00    -0.550 OA
ATOM      4  O   UNL     1      10.876 -30.072  21.732  1.00  0.00    -0.550 OA
ENDBRANCH   1   2
BRANCH   1   5
ATOM      5  C   UNL     1      11.921 -28.321  23.630  1.00  0.00     0.003 C 
ATOM      6  C   UNL     1      12.544 -27.488  24.750  1.00  0.00     0.004 C 
ENDBRANCH   1   5
TORSDOF 2
ENDMDL
MODEL 6
REMARK VINA RESULT:    -2.925     14.611     15.561
REMARK INTER + INTRA:          -3.316
REMARK INTER:                  -3.297
REMARK INTRA:                  -0.019
REMARK UNBOUND:                -0.048
REMARK SMILES CCCC(=O)[O-]
REMARK SMILES IDX 3 1 4 2 5 3 6 4 2 5 1 6
REMARK H PARENT
REMARK Flexibility Score: inf
ROOT
ATOM      1  C   UNL     1      22.131 -25.015  20.506  1.00  0.00     0.052 C 
ENDROOT
BRANCH   1   2
ATOM      2  C   UNL     1      23.145 -24.632  19.472  1.00  0.00     0.041 C 
ATOM      3  O   UNL     1      23.250 -25.299  18.409  1.00  0.00    -0.550 OA
ATOM      4  O   UNL     1      23.999 -23.559  19.698  1.00  0.00    -0.550 OA
ENDBRANCH   1   2
BRANCH   1   5
ATOM      5  C   UNL     1      20.783 -25.380  19.873  1.00  0.00     0.003 C 
ATOM      6  C   UNL     1      20.074 -26.507  20.624  1.00  0.00     0.004 C 
ENDBRANCH   1   5
TORSDOF 2
ENDMDL
MODEL 7
REMARK VINA RESULT:    -2.891      8.421      9.420
REMARK INTER + INTRA:          -3.278
REMARK INTER:                  -3.269
REMARK INTRA:                  -0.009
REMARK UNBOUND:                -0.048
REMARK SMILES CCCC(=O)[O-]
REMARK SMILES IDX 3 1 4 2 5 3 6 4 2 5 1 6
REMARK H PARENT
REMARK Flexibility Score: inf
ROOT
ATOM      1  C   UNL     1      13.096 -31.316  20.810  1.00  0.00     0.052 C 
ENDROOT
BRANCH   1   2
ATOM      2  C   UNL     1      14.033 -32.387  21.277  1.00  0.00     0.041 C 
ATOM      3  O   UNL     1      14.484 -33.234  20.462  1.00  0.00    -0.550 OA
ATOM      4  O   UNL     1      14.381 -32.470  22.620  1.00  0.00    -0.550 OA
ENDBRANCH   1   2
BRANCH   1   5
ATOM      5  C   UNL     1      12.235 -30.772  21.957  1.00  0.00     0.003 C 
ATOM      6  C   UNL     1      10.876 -30.266  21.474  1.00  0.00     0.004 C 
ENDBRANCH   1   5
TORSDOF 2
ENDMDL
MODEL 8
REMARK VINA RESULT:    -2.880     15.530     16.174
REMARK INTER + INTRA:          -3.265
REMARK INTER:                  -3.258
REMARK INTRA:                  -0.007
REMARK UNBOUND:                -0.048
REMARK SMILES CCCC(=O)[O-]
REMARK SMILES IDX 3 1 4 2 5 3 6 4 2 5 1 6
REMARK H PARENT
REMARK Flexibility Score: inf
ROOT
ATOM      1  C   UNL     1      23.568 -24.080  19.966  1.00  0.00     0.052 C 
ENDROOT
BRANCH   1   2
ATOM      2  C   UNL     1      22.731 -25.248  19.544  1.00  0.00     0.041 C 
ATOM      3  O   UNL     1      21.475 -25.185  19.612  1.00  0.00    -0.550 OA
ATOM      4  O   UNL     1      23.338 -26.419  19.109  1.00  0.00    -0.550 OA
ENDBRANCH   1   2
BRANCH   1   5
ATOM      5  C   UNL     1      23.203 -23.596  21.375  1.00  0.00     0.003 C 
ATOM      6  C   UNL     1      23.986 -22.348  21.783  1.00  0.00     0.004 C 
ENDBRANCH   1   5
TORSDOF 2
ENDMDL
MODEL 9
REMARK VINA RESULT:    -2.793     14.312     15.352
REMARK INTER + INTRA:          -3.168
REMARK INTER:                  -3.141
REMARK INTRA:                  -0.027
REMARK UNBOUND:                -0.048
REMARK SMILES CCCC(=O)[O-]
REMARK SMILES IDX 3 1 4 2 5 3 6 4 2 5 1 6
REMARK H PARENT
REMARK Flexibility Score: inf
ROOT
ATOM      1  C   UNL     1      22.203 -25.291  19.761  1.00  0.00     0.052 C 
ENDROOT
BRANCH   1   2
ATOM      2  C   UNL     1      22.613 -26.642  20.258  1.00  0.00     0.041 C 
ATOM      3  O   UNL     1      21.743 -27.520  20.497  1.00  0.00    -0.550 OA
ATOM      4  O   UNL     1      23.954 -26.921  20.491  1.00  0.00    -0.550 OA
ENDBRANCH   1   2
BRANCH   1   5
ATOM      5  C   UNL     1      23.341 -24.593  19.004  1.00  0.00     0.003 C 
ATOM      6  C   UNL     1      24.002 -23.493  19.835  1.00  0.00     0.004 C 
ENDBRANCH   1   5
TORSDOF 2
ENDMDL
