MODEL 1
REMARK VINA RESULT:    -3.494      0.000      0.000
REMARK INTER + INTRA:          -4.286
REMARK INTER:                  -4.209
REMARK INTRA:                  -0.078
REMARK UNBOUND:                -0.078
REMARK SMILES NC(=O)C[C@H]([NH3+])C(=O)[O-]
REMARK SMILES IDX 4 1 5 2 6 3 7 7 8 8 9 9 2 10 3 11 1 12
REMARK H PARENT 6 4 6 5 6 6 1 13 1 14
REMARK Flexibility Score: inf
ROOT
ATOM      1  C   UNL     1       0.929  13.390  -8.950  1.00  0.00     0.171 C 
ENDROOT
BRANCH   1   2
ATOM      2  C   UNL     1       2.117  13.961  -8.150  1.00  0.00     0.237 C 
BRANCH   2   3
ATOM      3  N   UNL     1       2.029  15.423  -8.027  1.00  0.00    -0.350 N 
ATOM      4  H   UNL     1       2.676  15.773  -7.282  1.00  0.00     0.345 HD
ATOM      5  H   UNL     1       1.049  15.700  -7.788  1.00  0.00     0.345 HD
ATOM      6  H   UNL     1       2.277  15.875  -8.937  1.00  0.00     0.345 HD
ENDBRANCH   2   3
BRANCH   2   7
ATOM      7  C   UNL     1       3.412  13.571  -8.811  1.00  0.00     0.100 C 
ATOM      8  O   UNL     1       4.240  12.833  -8.212  1.00  0.00    -0.544 OA
ATOM      9  O   UNL     1       3.712  14.042 -10.083  1.00  0.00    -0.544 OA
ENDBRANCH   2   7
ENDBRANCH   1   2
BRANCH   1  10
ATOM     10  C   UNL     1       0.047  12.529  -8.094  1.00  0.00     0.223 C 
ATOM     11  O   UNL     1      -0.332  11.404  -8.516  1.00  0.00    -0.275 OA
ATOM     12  N   UNL     1      -0.391  12.990  -6.816  1.00  0.00    -0.369 N 
ATOM     13  H   UNL     1      -0.094  13.925  -6.458  1.00  0.00     0.159 HD
ATOM     14  H   UNL     1      -1.015  12.395  -6.226  1.00  0.00     0.159 HD
ENDBRANCH   1  10
TORSDOF 4
ENDMDL
MODEL 2
REMARK VINA RESULT:    -3.491      1.298      3.952
REMARK INTER + INTRA:          -4.283
REMARK INTER:                  -3.996
REMARK INTRA:                  -0.287
REMARK UNBOUND:                -0.078
REMARK SMILES NC(=O)C[C@H]([NH3+])C(=O)[O-]
REMARK SMILES IDX 4 1 5 2 6 3 7 7 8 8 9 9 2 10 3 11 1 12
REMARK H PARENT 6 4 6 5 6 6 1 13 1 14
REMARK Flexibility Score: inf
ROOT
ATOM      1  C   UNL     1       1.535  13.286  -9.049  1.00  0.00     0.171 C 
ENDROOT
BRANCH   1   2
ATOM      2  C   UNL     1       0.678  13.449  -7.777  1.00  0.00     0.237 C 
BRANCH   2   3
ATOM      3  N   UNL     1       1.516  13.626  -6.583  1.00  0.00    -0.350 N 
ATOM      4  H   UNL     1       2.250  14.354  -6.748  1.00  0.00     0.345 HD
ATOM      5  H   UNL     1       1.980  12.721  -6.338  1.00  0.00     0.345 HD
ATOM      6  H   UNL     1       0.926  13.913  -5.769  1.00  0.00     0.345 HD
ENDBRANCH   2   3
BRANCH   2   7
ATOM      7  C   UNL     1      -0.220  12.252  -7.609  1.00  0.00     0.100 C 
ATOM      8  O   UNL     1      -0.370  11.428  -8.551  1.00  0.00    -0.544 OA
ATOM      9  O   UNL     1      -0.905  12.060  -6.416  1.00  0.00    -0.544 OA
ENDBRANCH   2   7
ENDBRANCH   1   2
BRANCH   1  10
ATOM     10  C   UNL     1       2.949  13.733  -8.825  1.00  0.00     0.223 C 
ATOM     11  O   UNL     1       3.774  12.955  -8.275  1.00  0.00    -0.275 OA
ATOM     12  N   UNL     1       3.360  15.047  -9.203  1.00  0.00    -0.369 N 
ATOM     13  H   UNL     1       2.685  15.707  -9.649  1.00  0.00     0.159 HD
ATOM     14  H   UNL     1       4.342  15.362  -9.036  1.00  0.00     0.159 HD
ENDBRANCH   1  10
TORSDOF 4
ENDMDL
MODEL 3
REMARK VINA RESULT:    -3.477      1.337      1.706
REMARK INTER + INTRA:          -4.266
REMARK INTER:                  -4.159
REMARK INTRA:                  -0.107
REMARK UNBOUND:                -0.078
REMARK SMILES NC(=O)C[C@H]([NH3+])C(=O)[O-]
REMARK SMILES IDX 4 1 5 2 6 3 7 7 8 8 9 9 2 10 3 11 1 12
REMARK H PARENT 6 4 6 5 6 6 1 13 1 14
REMARK Flexibility Score: inf
ROOT
ATOM      1  C   UNL     1       0.471  13.808  -8.894  1.00  0.00     0.171 C 
ENDROOT
BRANCH   1   2
ATOM      2  C   UNL     1       1.657  13.534  -7.948  1.00  0.00     0.237 C 
BRANCH   2   3
ATOM      3  N   UNL     1       1.698  14.503  -6.844  1.00  0.00    -0.350 N 
ATOM      4  H   UNL     1       0.864  14.393  -6.221  1.00  0.00     0.345 HD
ATOM      5  H   UNL     1       1.713  15.477  -7.228  1.00  0.00     0.345 HD
ATOM      6  H   UNL     1       2.568  14.368  -6.280  1.00  0.00     0.345 HD
ENDBRANCH   2   3
BRANCH   2   7
ATOM      7  C   UNL     1       2.947  13.572  -8.722  1.00  0.00     0.100 C 
ATOM      8  O   UNL     1       3.020  14.197  -9.814  1.00  0.00    -0.544 OA
ATOM      9  O   UNL     1       4.064  12.898  -8.244  1.00  0.00    -0.544 OA
ENDBRANCH   2   7
ENDBRANCH   1   2
BRANCH   1  10
ATOM     10  C   UNL     1      -0.412  12.603  -9.040  1.00  0.00     0.223 C 
ATOM     11  O   UNL     1      -0.120  11.534  -8.441  1.00  0.00    -0.275 OA
ATOM     12  N   UNL     1      -1.565  12.651  -9.881  1.00  0.00    -0.369 N 
ATOM     13  H   UNL     1      -1.814  13.526 -10.393  1.00  0.00     0.159 HD
ATOM     14  H   UNL     1      -2.172  11.808  -9.992  1.00  0.00     0.159 HD
ENDBRANCH   1  10
TORSDOF 4
ENDMDL
MODEL 4
REMARK VINA RESULT:    -3.353      2.488      4.028
REMARK INTER + INTRA:          -4.117
REMARK INTER:                  -3.713
REMARK INTRA:                  -0.404
REMARK UNBOUND:                -0.078
REMARK SMILES NC(=O)C[C@H]([NH3+])C(=O)[O-]
REMARK SMILES IDX 4 1 5 2 6 3 7 7 8 8 9 9 2 10 3 11 1 12
REMARK H PARENT 6 4 6 5 6 6 1 13 1 14
REMARK Flexibility Score: inf
ROOT
ATOM      1  C   UNL     1       3.268  15.763  -8.843  1.00  0.00     0.171 C 
ENDROOT
BRANCH   1   2
ATOM      2  C   UNL     1       3.025  14.345  -8.288  1.00  0.00     0.237 C 
BRANCH   2   3
ATOM      3  N   UNL     1       4.079  13.413  -8.712  1.00  0.00    -0.350 N 
ATOM      4  H   UNL     1       4.577  13.013  -7.883  1.00  0.00     0.345 HD
ATOM      5  H   UNL     1       4.770  13.912  -9.318  1.00  0.00     0.345 HD
ATOM      6  H   UNL     1       3.665  12.634  -9.272  1.00  0.00     0.345 HD
ENDBRANCH   2   3
BRANCH   2   7
ATOM      7  C   UNL     1       1.677  13.845  -8.737  1.00  0.00     0.100 C 
ATOM      8  O   UNL     1       1.534  12.656  -9.129  1.00  0.00    -0.544 OA
ATOM      9  O   UNL     1       0.584  14.703  -8.739  1.00  0.00    -0.544 OA
ENDBRANCH   2   7
ENDBRANCH   1   2
BRANCH   1  10
ATOM     10  C   UNL     1       3.186  15.793 -10.341  1.00  0.00     0.223 C 
ATOM     11  O   UNL     1       4.076  15.228 -11.031  1.00  0.00    -0.275 OA
ATOM     12  N   UNL     1       2.120  16.487 -10.991  1.00  0.00    -0.369 N 
ATOM     13  H   UNL     1       1.382  16.969 -10.433  1.00  0.00     0.159 HD
ATOM     14  H   UNL     1       2.070  16.518 -12.034  1.00  0.00     0.159 HD
ENDBRANCH   1  10
TORSDOF 4
ENDMDL
MODEL 5
REMARK VINA RESULT:    -3.316      2.066      2.256
REMARK INTER + INTRA:          -4.072
REMARK INTER:                  -3.988
REMARK INTRA:                  -0.084
REMARK UNBOUND:                -0.078
REMARK SMILES NC(=O)C[C@H]([NH3+])C(=O)[O-]
REMARK SMILES IDX 4 1 5 2 6 3 7 7 8 8 9 9 2 10 3 11 1 12
REMARK H PARENT 6 4 6 5 6 6 1 13 1 14
REMARK Flexibility Score: inf
ROOT
ATOM      1  C   UNL     1       1.825  14.241  -8.426  1.00  0.00     0.171 C 
ENDROOT
BRANCH   1   2
ATOM      2  C   UNL     1       3.058  13.968  -9.310  1.00  0.00     0.237 C 
BRANCH   2   3
ATOM      3  N   UNL     1       4.125  13.298  -8.553  1.00  0.00    -0.350 N 
ATOM      4  H   UNL     1       4.379  13.850  -7.701  1.00  0.00     0.345 HD
ATOM      5  H   UNL     1       4.972  13.188  -9.157  1.00  0.00     0.345 HD
ATOM      6  H   UNL     1       3.813  12.343  -8.263  1.00  0.00     0.345 HD
ENDBRANCH   2   3
BRANCH   2   7
ATOM      7  C   UNL     1       3.566  15.261  -9.891  1.00  0.00     0.100 C 
ATOM      8  O   UNL     1       3.452  16.339  -9.248  1.00  0.00    -0.544 OA
ATOM      9  O   UNL     1       4.148  15.275 -11.152  1.00  0.00    -0.544 OA
ENDBRANCH   2   7
ENDBRANCH   1   2
BRANCH   1  10
ATOM     10  C   UNL     1       0.624  13.476  -8.898  1.00  0.00     0.223 C 
ATOM     11  O   UNL     1       0.633  12.216  -8.877  1.00  0.00    -0.275 OA
ATOM     12  N   UNL     1      -0.520  14.167  -9.402  1.00  0.00    -0.369 N 
ATOM     13  H   UNL     1      -0.538  15.210  -9.437  1.00  0.00     0.159 HD
ATOM     14  H   UNL     1      -1.351  13.633  -9.743  1.00  0.00     0.159 HD
ENDBRANCH   1  10
TORSDOF 4
ENDMDL
MODEL 6
REMARK VINA RESULT:    -3.278      2.079      2.687
REMARK INTER + INTRA:          -4.026
REMARK INTER:                  -3.689
REMARK INTRA:                  -0.338
REMARK UNBOUND:                -0.078
REMARK SMILES NC(=O)C[C@H]([NH3+])C(=O)[O-]
REMARK SMILES IDX 4 1 5 2 6 3 7 7 8 8 9 9 2 10 3 11 1 12
REMARK H PARENT 6 4 6 5 6 6 1 13 1 14
REMARK Flexibility Score: inf
ROOT
ATOM      1  C   UNL     1       3.118  14.855  -8.214  1.00  0.00     0.171 C 
ENDROOT
BRANCH   1   2
ATOM      2  C   UNL     1       2.748  15.914  -9.273  1.00  0.00     0.237 C 
BRANCH   2   3
ATOM      3  N   UNL     1       1.425  15.652  -9.856  1.00  0.00    -0.350 N 
ATOM      4  H   UNL     1       0.723  15.444  -9.108  1.00  0.00     0.345 HD
ATOM      5  H   UNL     1       1.481  14.836 -10.509  1.00  0.00     0.345 HD
ATOM      6  H   UNL     1       1.105  16.481 -10.406  1.00  0.00     0.345 HD
ENDBRANCH   2   3
BRANCH   2   7
ATOM      7  C   UNL     1       3.796  15.944 -10.353  1.00  0.00     0.100 C 
ATOM      8  O   UNL     1       4.079  14.900 -10.999  1.00  0.00    -0.544 OA
ATOM      9  O   UNL     1       4.474  17.125 -10.629  1.00  0.00    -0.544 OA
ENDBRANCH   2   7
ENDBRANCH   1   2
BRANCH   1  10
ATOM     10  C   UNL     1       2.153  13.706  -8.218  1.00  0.00     0.223 C 
ATOM     11  O   UNL     1       2.169  12.876  -9.166  1.00  0.00    -0.275 OA
ATOM     12  N   UNL     1       1.194  13.565  -7.169  1.00  0.00    -0.369 N 
ATOM     13  H   UNL     1       1.161  14.251  -6.384  1.00  0.00     0.159 HD
ATOM     14  H   UNL     1       0.514  12.772  -7.180  1.00  0.00     0.159 HD
ENDBRANCH   1  10
TORSDOF 4
ENDMDL
MODEL 7
REMARK VINA RESULT:    -3.266      8.908      9.576
REMARK INTER + INTRA:          -4.012
REMARK INTER:                  -3.747
REMARK INTRA:                  -0.265
REMARK UNBOUND:                -0.078
REMARK SMILES NC(=O)C[C@H]([NH3+])C(=O)[O-]
REMARK SMILES IDX 4 1 5 2 6 3 7 7 8 8 9 9 2 10 3 11 1 12
REMARK H PARENT 6 4 6 5 6 6 1 13 1 14
REMARK Flexibility Score: inf
ROOT
ATOM      1  C   UNL     1       7.781   7.313  -9.546  1.00  0.00     0.171 C 
ENDROOT
BRANCH   1   2
ATOM      2  C   UNL     1       8.657   6.518 -10.535  1.00  0.00     0.237 C 
BRANCH   2   3
ATOM      3  N   UNL     1      10.004   6.289  -9.994  1.00  0.00    -0.350 N 
ATOM      4  H   UNL     1      10.736   6.613 -10.669  1.00  0.00     0.345 HD
ATOM      5  H   UNL     1      10.141   5.269  -9.804  1.00  0.00     0.345 HD
ATOM      6  H   UNL     1      10.120   6.801  -9.091  1.00  0.00     0.345 HD
ENDBRANCH   2   3
BRANCH   2   7
ATOM      7  C   UNL     1       8.741   7.252 -11.847  1.00  0.00     0.100 C 
ATOM      8  O   UNL     1       9.837   7.340 -12.462  1.00  0.00    -0.544 OA
ATOM      9  O   UNL     1       7.607   7.855 -12.378  1.00  0.00    -0.544 OA
ENDBRANCH   2   7
ENDBRANCH   1   2
BRANCH   1  10
ATOM     10  C   UNL     1       7.179   6.423  -8.499  1.00  0.00     0.223 C 
ATOM     11  O   UNL     1       7.761   5.355  -8.172  1.00  0.00    -0.275 OA
ATOM     12  N   UNL     1       5.931   6.763  -7.892  1.00  0.00    -0.369 N 
ATOM     13  H   UNL     1       5.431   7.639  -8.161  1.00  0.00     0.159 HD
ATOM     14  H   UNL     1       5.506   6.137  -7.172  1.00  0.00     0.159 HD
ENDBRANCH   1  10
TORSDOF 4
ENDMDL
MODEL 8
REMARK VINA RESULT:    -3.248      2.450      3.975
REMARK INTER + INTRA:          -3.990
REMARK INTER:                  -3.812
REMARK INTRA:                  -0.179
REMARK UNBOUND:                -0.078
REMARK SMILES NC(=O)C[C@H]([NH3+])C(=O)[O-]
REMARK SMILES IDX 4 1 5 2 6 3 7 7 8 8 9 9 2 10 3 11 1 12
REMARK H PARENT 6 4 6 5 6 6 1 13 1 14
REMARK Flexibility Score: inf
ROOT
ATOM      1  C   UNL     1       2.307  15.339  -9.694  1.00  0.00     0.171 C 
ENDROOT
BRANCH   1   2
ATOM      2  C   UNL     1       2.474  13.854  -9.311  1.00  0.00     0.237 C 
BRANCH   2   3
ATOM      3  N   UNL     1       1.183  13.237  -8.977  1.00  0.00    -0.350 N 
ATOM      4  H   UNL     1       1.254  12.193  -8.997  1.00  0.00     0.345 HD
ATOM      5  H   UNL     1       0.455  13.545  -9.662  1.00  0.00     0.345 HD
ATOM      6  H   UNL     1       0.876  13.541  -8.025  1.00  0.00     0.345 HD
ENDBRANCH   2   3
BRANCH   2   7
ATOM      7  C   UNL     1       3.426  13.730  -8.151  1.00  0.00     0.100 C 
ATOM      8  O   UNL     1       4.459  13.014  -8.245  1.00  0.00    -0.544 OA
ATOM      9  O   UNL     1       3.159  14.393  -6.960  1.00  0.00    -0.544 OA
ENDBRANCH   2   7
ENDBRANCH   1   2
BRANCH   1  10
ATOM     10  C   UNL     1       3.552  15.892 -10.322  1.00  0.00     0.223 C 
ATOM     11  O   UNL     1       4.128  15.255 -11.243  1.00  0.00    -0.275 OA
ATOM     12  N   UNL     1       4.107  17.125  -9.861  1.00  0.00    -0.369 N 
ATOM     13  H   UNL     1       3.647  17.659  -9.091  1.00  0.00     0.159 HD
ATOM     14  H   UNL     1       4.980  17.504 -10.290  1.00  0.00     0.159 HD
ENDBRANCH   1  10
TORSDOF 4
ENDMDL
MODEL 9
REMARK VINA RESULT:    -3.130      2.792      3.258
REMARK INTER + INTRA:          -3.849
REMARK INTER:                  -3.561
REMARK INTRA:                  -0.288
REMARK UNBOUND:                -0.078
REMARK SMILES NC(=O)C[C@H]([NH3+])C(=O)[O-]
REMARK SMILES IDX 4 1 5 2 6 3 7 7 8 8 9 9 2 10 3 11 1 12
REMARK H PARENT 6 4 6 5 6 6 1 13 1 14
REMARK Flexibility Score: inf
ROOT
ATOM      1  C   UNL     1       3.079  15.234  -7.667  1.00  0.00     0.171 C 
ENDROOT
BRANCH   1   2
ATOM      2  C   UNL     1       2.856  14.798  -9.130  1.00  0.00     0.237 C 
BRANCH   2   3
ATOM      3  N   UNL     1       3.300  13.416  -9.353  1.00  0.00    -0.350 N 
ATOM      4  H   UNL     1       3.968  13.364 -10.157  1.00  0.00     0.345 HD
ATOM      5  H   UNL     1       2.474  12.806  -9.555  1.00  0.00     0.345 HD
ATOM      6  H   UNL     1       3.768  13.046  -8.494  1.00  0.00     0.345 HD
ENDBRANCH   2   3
BRANCH   2   7
ATOM      7  C   UNL     1       3.584  15.735 -10.058  1.00  0.00     0.100 C 
ATOM      8  O   UNL     1       3.679  16.961  -9.784  1.00  0.00    -0.544 OA
ATOM      9  O   UNL     1       4.140  15.251 -11.236  1.00  0.00    -0.544 OA
ENDBRANCH   2   7
ENDBRANCH   1   2
BRANCH   1  10
ATOM     10  C   UNL     1       3.061  14.062  -6.731  1.00  0.00     0.223 C 
ATOM     11  O   UNL     1       4.123  13.426  -6.499  1.00  0.00    -0.275 OA
ATOM     12  N   UNL     1       1.838  13.642  -6.124  1.00  0.00    -0.369 N 
ATOM     13  H   UNL     1       0.948  14.152  -6.315  1.00  0.00     0.159 HD
ATOM     14  H   UNL     1       1.824  12.818  -5.482  1.00  0.00     0.159 HD
ENDBRANCH   1  10
TORSDOF 4
ENDMDL
