MODEL 1
REMARK VINA RESULT:    -3.290      0.000      0.000
REMARK INTER + INTRA:          -6.233
REMARK INTER:                  -5.021
REMARK INTRA:                  -1.212
REMARK UNBOUND:                -1.212
REMARK SMILES CCCCCCCCCC=CC(=O)[O-]
REMARK SMILES IDX 7 1 8 2 9 3 10 4 11 5 12 6 13 7 14 8 6 9 5 10 4 11 3 12 2 13
REMARK SMILES IDX 1 14
REMARK H PARENT
REMARK Flexibility Score: inf
ROOT
ATOM      1  C   UNL     1    -102.029 -27.817 -13.989  1.00  0.00     0.000 C 
ENDROOT
BRANCH   1   2
ATOM      2  C   UNL     1    -100.638 -27.630 -13.365  1.00  0.00     0.004 C 
BRANCH   2   3
ATOM      3  C   UNL     1    -100.125 -28.945 -12.765  1.00  0.00     0.027 C 
BRANCH   3   4
ATOM      4  C   UNL     1     -98.654 -29.121 -13.015  1.00  0.00    -0.025 C 
ATOM      5  C   UNL     1     -97.959 -30.103 -12.429  1.00  0.00     0.020 C 
BRANCH   5   6
ATOM      6  C   UNL     1     -96.521 -30.302 -12.668  1.00  0.00     0.064 C 
ATOM      7  O   UNL     1     -96.112 -30.964 -13.659  1.00  0.00    -0.545 OA
ATOM      8  O   UNL     1     -95.600 -29.753 -11.787  1.00  0.00    -0.545 OA
ENDBRANCH   5   6
ENDBRANCH   3   4
ENDBRANCH   2   3
ENDBRANCH   1   2
BRANCH   1   9
ATOM      9  C   UNL     1    -102.141 -27.192 -15.389  1.00  0.00     0.000 C 
BRANCH   9  10
ATOM     10  C   UNL     1    -101.855 -28.203 -16.513  1.00  0.00     0.000 C 
BRANCH  10  11
ATOM     11  C   UNL     1    -102.577 -29.543 -16.298  1.00  0.00    -0.000 C 
BRANCH  11  12
ATOM     12  C   UNL     1    -101.634 -30.753 -16.423  1.00  0.00    -0.000 C 
BRANCH  12  13
ATOM     13  C   UNL     1    -100.172 -30.393 -16.114  1.00  0.00    -0.003 C 
ATOM     14  C   UNL     1     -99.344 -31.606 -15.689  1.00  0.00     0.004 C 
ENDBRANCH  12  13
ENDBRANCH  11  12
ENDBRANCH  10  11
ENDBRANCH   9  10
ENDBRANCH   1   9
TORSDOF 9
ENDMDL
MODEL 2
REMARK VINA RESULT:    -3.207      4.437      6.633
REMARK INTER + INTRA:          -6.107
REMARK INTER:                  -4.870
REMARK INTRA:                  -1.237
REMARK UNBOUND:                -1.212
REMARK SMILES CCCCCCCCCC=CC(=O)[O-]
REMARK SMILES IDX 7 1 8 2 9 3 10 4 11 5 12 6 13 7 14 8 6 9 5 10 4 11 3 12 2 13
REMARK SMILES IDX 1 14
REMARK H PARENT
REMARK Flexibility Score: inf
ROOT
ATOM      1  C   UNL     1    -101.692 -30.477 -15.911  1.00  0.00     0.000 C 
ENDROOT
BRANCH   1   2
ATOM      2  C   UNL     1    -102.604 -29.330 -16.372  1.00  0.00     0.004 C 
BRANCH   2   3
ATOM      3  C   UNL     1    -101.849 -27.996 -16.372  1.00  0.00     0.027 C 
BRANCH   3   4
ATOM      4  C   UNL     1    -102.746 -26.861 -15.968  1.00  0.00    -0.025 C 
ATOM      5  C   UNL     1    -103.777 -26.480 -16.730  1.00  0.00     0.020 C 
BRANCH   5   6
ATOM      6  C   UNL     1    -104.677 -25.380 -16.348  1.00  0.00     0.064 C 
ATOM      7  O   UNL     1    -105.870 -25.346 -16.750  1.00  0.00    -0.545 OA
ATOM      8  O   UNL     1    -104.203 -24.362 -15.533  1.00  0.00    -0.545 OA
ENDBRANCH   5   6
ENDBRANCH   3   4
ENDBRANCH   2   3
ENDBRANCH   1   2
BRANCH   1   9
ATOM      9  C   UNL     1    -100.282 -29.999 -15.529  1.00  0.00     0.000 C 
BRANCH   9  10
ATOM     10  C   UNL     1     -99.907 -30.362 -14.082  1.00  0.00     0.000 C 
BRANCH  10  11
ATOM     11  C   UNL     1     -99.324 -29.169 -13.307  1.00  0.00    -0.000 C 
BRANCH  11  12
ATOM     12  C   UNL     1    -100.275 -27.959 -13.277  1.00  0.00    -0.000 C 
BRANCH  12  13
ATOM     13  C   UNL     1    -101.299 -28.044 -12.134  1.00  0.00    -0.003 C 
ATOM     14  C   UNL     1    -102.705 -28.388 -12.626  1.00  0.00     0.004 C 
ENDBRANCH  12  13
ENDBRANCH  11  12
ENDBRANCH  10  11
ENDBRANCH   9  10
ENDBRANCH   1   9
TORSDOF 9
ENDMDL
MODEL 3
REMARK VINA RESULT:    -3.173      1.801      3.541
REMARK INTER + INTRA:          -6.054
REMARK INTER:                  -4.854
REMARK INTRA:                  -1.200
REMARK UNBOUND:                -1.212
REMARK SMILES CCCCCCCCCC=CC(=O)[O-]
REMARK SMILES IDX 7 1 8 2 9 3 10 4 11 5 12 6 13 7 14 8 6 9 5 10 4 11 3 12 2 13
REMARK SMILES IDX 1 14
REMARK H PARENT
REMARK Flexibility Score: inf
ROOT
ATOM      1  C   UNL     1    -102.288 -29.165 -15.724  1.00  0.00     0.000 C 
ENDROOT
BRANCH   1   2
ATOM      2  C   UNL     1    -101.757 -29.201 -14.284  1.00  0.00     0.004 C 
BRANCH   2   3
ATOM      3  C   UNL     1    -100.952 -27.936 -13.964  1.00  0.00     0.027 C 
BRANCH   3   4
ATOM      4  C   UNL     1     -99.785 -28.243 -13.069  1.00  0.00    -0.025 C 
ATOM      5  C   UNL     1     -99.010 -29.313 -13.275  1.00  0.00     0.020 C 
BRANCH   5   6
ATOM      6  C   UNL     1     -97.854 -29.627 -12.419  1.00  0.00     0.064 C 
ATOM      7  O   UNL     1     -96.696 -29.730 -12.902  1.00  0.00    -0.545 OA
ATOM      8  O   UNL     1     -98.045 -29.812 -11.056  1.00  0.00    -0.545 OA
ENDBRANCH   5   6
ENDBRANCH   3   4
ENDBRANCH   2   3
ENDBRANCH   1   2
BRANCH   1   9
ATOM      9  C   UNL     1    -102.071 -27.803 -16.404  1.00  0.00     0.000 C 
BRANCH   9  10
ATOM     10  C   UNL     1    -103.388 -27.163 -16.877  1.00  0.00     0.000 C 
BRANCH  10  11
ATOM     11  C   UNL     1    -103.576 -25.735 -16.338  1.00  0.00    -0.000 C 
BRANCH  11  12
ATOM     12  C   UNL     1    -103.892 -25.707 -14.832  1.00  0.00    -0.000 C 
BRANCH  12  13
ATOM     13  C   UNL     1    -104.984 -26.715 -14.441  1.00  0.00    -0.003 C 
ATOM     14  C   UNL     1    -104.742 -27.343 -13.068  1.00  0.00     0.004 C 
ENDBRANCH  12  13
ENDBRANCH  11  12
ENDBRANCH  10  11
ENDBRANCH   9  10
ENDBRANCH   1   9
TORSDOF 9
ENDMDL
MODEL 4
REMARK VINA RESULT:    -3.164      3.468      5.818
REMARK INTER + INTRA:          -6.040
REMARK INTER:                  -4.573
REMARK INTRA:                  -1.467
REMARK UNBOUND:                -1.212
REMARK SMILES CCCCCCCCCC=CC(=O)[O-]
REMARK SMILES IDX 7 1 8 2 9 3 10 4 11 5 12 6 13 7 14 8 6 9 5 10 4 11 3 12 2 13
REMARK SMILES IDX 1 14
REMARK H PARENT
REMARK Flexibility Score: inf
ROOT
ATOM      1  C   UNL     1    -100.611 -31.598 -14.730  1.00  0.00     0.000 C 
ENDROOT
BRANCH   1   2
ATOM      2  C   UNL     1    -100.462 -30.610 -15.896  1.00  0.00     0.004 C 
BRANCH   2   3
ATOM      3  C   UNL     1    -101.745 -30.552 -16.733  1.00  0.00     0.027 C 
BRANCH   3   4
ATOM      4  C   UNL     1    -102.552 -29.327 -16.411  1.00  0.00    -0.025 C 
ATOM      5  C   UNL     1    -101.983 -28.119 -16.323  1.00  0.00     0.020 C 
BRANCH   5   6
ATOM      6  C   UNL     1    -102.755 -26.903 -16.021  1.00  0.00     0.064 C 
ATOM      7  O   UNL     1    -103.312 -26.242 -16.938  1.00  0.00    -0.545 OA
ATOM      8  O   UNL     1    -102.871 -26.477 -14.706  1.00  0.00    -0.545 OA
ENDBRANCH   5   6
ENDBRANCH   3   4
ENDBRANCH   2   3
ENDBRANCH   1   2
BRANCH   1   9
ATOM      9  C   UNL     1     -99.489 -31.462 -13.688  1.00  0.00     0.000 C 
BRANCH   9  10
ATOM     10  C   UNL     1     -98.606 -30.225 -13.928  1.00  0.00     0.000 C 
BRANCH  10  11
ATOM     11  C   UNL     1     -98.839 -29.123 -12.881  1.00  0.00    -0.000 C 
BRANCH  11  12
ATOM     12  C   UNL     1    -100.015 -28.199 -13.243  1.00  0.00    -0.000 C 
BRANCH  12  13
ATOM     13  C   UNL     1    -101.128 -28.221 -12.183  1.00  0.00    -0.003 C 
ATOM     14  C   UNL     1    -102.267 -29.174 -12.544  1.00  0.00     0.004 C 
ENDBRANCH  12  13
ENDBRANCH  11  12
ENDBRANCH  10  11
ENDBRANCH   9  10
ENDBRANCH   1   9
TORSDOF 9
ENDMDL
MODEL 5
REMARK VINA RESULT:    -3.149      2.545      4.547
REMARK INTER + INTRA:          -6.018
REMARK INTER:                  -5.080
REMARK INTRA:                  -0.938
REMARK UNBOUND:                -1.212
REMARK SMILES CCCCCCCCCC=CC(=O)[O-]
REMARK SMILES IDX 7 1 8 2 9 3 10 4 11 5 12 6 13 7 14 8 6 9 5 10 4 11 3 12 2 13
REMARK SMILES IDX 1 14
REMARK H PARENT
REMARK Flexibility Score: inf
ROOT
ATOM      1  C   UNL     1    -103.404 -27.540 -16.748  1.00  0.00     0.000 C 
ENDROOT
BRANCH   1   2
ATOM      2  C   UNL     1    -101.990 -27.971 -16.330  1.00  0.00     0.004 C 
BRANCH   2   3
ATOM      3  C   UNL     1    -101.641 -27.430 -14.938  1.00  0.00     0.027 C 
BRANCH   3   4
ATOM      4  C   UNL     1    -100.891 -28.448 -14.129  1.00  0.00    -0.025 C 
ATOM      5  C   UNL     1     -99.837 -28.107 -13.381  1.00  0.00     0.020 C 
BRANCH   5   6
ATOM      6  C   UNL     1     -99.094 -29.085 -12.570  1.00  0.00     0.064 C 
ATOM      7  O   UNL     1     -99.596 -29.578 -11.524  1.00  0.00    -0.545 OA
ATOM      8  O   UNL     1     -97.820 -29.471 -12.962  1.00  0.00    -0.545 OA
ENDBRANCH   5   6
ENDBRANCH   3   4
ENDBRANCH   2   3
ENDBRANCH   1   2
BRANCH   1   9
ATOM      9  C   UNL     1    -103.565 -26.013 -16.815  1.00  0.00     0.000 C 
BRANCH   9  10
ATOM     10  C   UNL     1    -104.764 -25.508 -15.995  1.00  0.00     0.000 C 
BRANCH  10  11
ATOM     11  C   UNL     1    -104.387 -24.361 -15.044  1.00  0.00    -0.000 C 
BRANCH  11  12
ATOM     12  C   UNL     1    -104.671 -24.695 -13.568  1.00  0.00    -0.000 C 
BRANCH  12  13
ATOM     13  C   UNL     1    -104.517 -26.194 -13.265  1.00  0.00    -0.003 C 
ATOM     14  C   UNL     1    -103.752 -26.457 -11.968  1.00  0.00     0.004 C 
ENDBRANCH  12  13
ENDBRANCH  11  12
ENDBRANCH  10  11
ENDBRANCH   9  10
ENDBRANCH   1   9
TORSDOF 9
ENDMDL
MODEL 6
REMARK VINA RESULT:    -3.114      1.489      3.231
REMARK INTER + INTRA:          -5.964
REMARK INTER:                  -5.253
REMARK INTRA:                  -0.710
REMARK UNBOUND:                -1.212
REMARK SMILES CCCCCCCCCC=CC(=O)[O-]
REMARK SMILES IDX 7 1 8 2 9 3 10 4 11 5 12 6 13 7 14 8 6 9 5 10 4 11 3 12 2 13
REMARK SMILES IDX 1 14
REMARK H PARENT
REMARK Flexibility Score: inf
ROOT
ATOM      1  C   UNL     1    -101.167 -27.634 -14.137  1.00  0.00     0.000 C 
ENDROOT
BRANCH   1   2
ATOM      2  C   UNL     1    -100.319 -28.198 -12.988  1.00  0.00     0.004 C 
BRANCH   2   3
ATOM      3  C   UNL     1    -100.291 -29.730 -13.027  1.00  0.00     0.027 C 
BRANCH   3   4
ATOM      4  C   UNL     1     -98.884 -30.249 -13.095  1.00  0.00    -0.025 C 
ATOM      5  C   UNL     1     -97.866 -29.584 -12.537  1.00  0.00     0.020 C 
BRANCH   5   6
ATOM      6  C   UNL     1     -96.481 -30.080 -12.580  1.00  0.00     0.064 C 
ATOM      7  O   UNL     1     -96.090 -30.839 -13.506  1.00  0.00    -0.545 OA
ATOM      8  O   UNL     1     -95.591 -29.707 -11.582  1.00  0.00    -0.545 OA
ENDBRANCH   5   6
ENDBRANCH   3   4
ENDBRANCH   2   3
ENDBRANCH   1   2
BRANCH   1   9
ATOM      9  C   UNL     1    -101.449 -28.674 -15.233  1.00  0.00     0.000 C 
BRANCH   9  10
ATOM     10  C   UNL     1    -102.051 -28.046 -16.503  1.00  0.00     0.000 C 
BRANCH  10  11
ATOM     11  C   UNL     1    -103.426 -27.407 -16.249  1.00  0.00    -0.000 C 
BRANCH  11  12
ATOM     12  C   UNL     1    -103.520 -25.967 -16.784  1.00  0.00    -0.000 C 
BRANCH  12  13
ATOM     13  C   UNL     1    -104.229 -25.020 -15.803  1.00  0.00    -0.003 C 
ATOM     14  C   UNL     1    -104.233 -25.552 -14.370  1.00  0.00     0.004 C 
ENDBRANCH  12  13
ENDBRANCH  11  12
ENDBRANCH  10  11
ENDBRANCH   9  10
ENDBRANCH   1   9
TORSDOF 9
ENDMDL
MODEL 7
REMARK VINA RESULT:    -3.088      1.356      2.288
REMARK INTER + INTRA:          -5.924
REMARK INTER:                  -4.404
REMARK INTRA:                  -1.520
REMARK UNBOUND:                -1.212
REMARK SMILES CCCCCCCCCC=CC(=O)[O-]
REMARK SMILES IDX 7 1 8 2 9 3 10 4 11 5 12 6 13 7 14 8 6 9 5 10 4 11 3 12 2 13
REMARK SMILES IDX 1 14
REMARK H PARENT
REMARK Flexibility Score: inf
ROOT
ATOM      1  C   UNL     1    -103.305 -29.229 -12.931  1.00  0.00     0.000 C 
ENDROOT
BRANCH   1   2
ATOM      2  C   UNL     1    -101.986 -29.215 -12.143  1.00  0.00     0.004 C 
BRANCH   2   3
ATOM      3  C   UNL     1    -101.113 -28.025 -12.558  1.00  0.00     0.027 C 
BRANCH   3   4
ATOM      4  C   UNL     1     -99.823 -28.483 -13.176  1.00  0.00    -0.025 C 
ATOM      5  C   UNL     1     -99.123 -29.498 -12.659  1.00  0.00     0.020 C 
BRANCH   5   6
ATOM      6  C   UNL     1     -97.863 -29.972 -13.255  1.00  0.00     0.064 C 
ATOM      7  O   UNL     1     -96.748 -29.612 -12.793  1.00  0.00    -0.545 OA
ATOM      8  O   UNL     1     -97.904 -30.830 -14.346  1.00  0.00    -0.545 OA
ENDBRANCH   5   6
ENDBRANCH   3   4
ENDBRANCH   2   3
ENDBRANCH   1   2
BRANCH   1   9
ATOM      9  C   UNL     1    -103.713 -27.834 -13.432  1.00  0.00     0.000 C 
BRANCH   9  10
ATOM     10  C   UNL     1    -103.937 -27.795 -14.954  1.00  0.00     0.000 C 
BRANCH  10  11
ATOM     11  C   UNL     1    -102.844 -27.003 -15.690  1.00  0.00    -0.000 C 
BRANCH  11  12
ATOM     12  C   UNL     1    -101.775 -27.913 -16.321  1.00  0.00    -0.000 C 
BRANCH  12  13
ATOM     13  C   UNL     1    -102.245 -29.371 -16.450  1.00  0.00    -0.003 C 
ATOM     14  C   UNL     1    -101.145 -30.376 -16.110  1.00  0.00     0.004 C 
ENDBRANCH  12  13
ENDBRANCH  11  12
ENDBRANCH  10  11
ENDBRANCH   9  10
ENDBRANCH   1   9
TORSDOF 9
ENDMDL
MODEL 8
REMARK VINA RESULT:    -3.063      4.560      6.435
REMARK INTER + INTRA:          -5.886
REMARK INTER:                  -4.913
REMARK INTRA:                  -0.973
REMARK UNBOUND:                -1.212
REMARK SMILES CCCCCCCCCC=CC(=O)[O-]
REMARK SMILES IDX 7 1 8 2 9 3 10 4 11 5 12 6 13 7 14 8 6 9 5 10 4 11 3 12 2 13
REMARK SMILES IDX 1 14
REMARK H PARENT
REMARK Flexibility Score: inf
ROOT
ATOM      1  C   UNL     1    -101.953 -28.323 -13.869  1.00  0.00     0.000 C 
ENDROOT
BRANCH   1   2
ATOM      2  C   UNL     1    -101.457 -27.576 -15.117  1.00  0.00     0.004 C 
BRANCH   2   3
ATOM      3  C   UNL     1    -102.301 -27.939 -16.344  1.00  0.00     0.027 C 
BRANCH   3   4
ATOM      4  C   UNL     1    -103.531 -27.082 -16.433  1.00  0.00    -0.025 C 
ATOM      5  C   UNL     1    -103.517 -25.798 -16.060  1.00  0.00     0.020 C 
BRANCH   5   6
ATOM      6  C   UNL     1    -104.707 -24.936 -16.151  1.00  0.00     0.064 C 
ATOM      7  O   UNL     1    -105.760 -25.339 -16.712  1.00  0.00    -0.545 OA
ATOM      8  O   UNL     1    -104.667 -23.659 -15.610  1.00  0.00    -0.545 OA
ENDBRANCH   5   6
ENDBRANCH   3   4
ENDBRANCH   2   3
ENDBRANCH   1   2
BRANCH   1   9
ATOM      9  C   UNL     1    -101.078 -28.060 -12.632  1.00  0.00     0.000 C 
BRANCH   9  10
ATOM     10  C   UNL     1    -100.113 -29.221 -12.334  1.00  0.00     0.000 C 
BRANCH  10  11
ATOM     11  C   UNL     1     -98.752 -29.048 -13.029  1.00  0.00    -0.000 C 
BRANCH  11  12
ATOM     12  C   UNL     1     -98.341 -30.287 -13.844  1.00  0.00    -0.000 C 
BRANCH  12  13
ATOM     13  C   UNL     1     -99.552 -31.082 -14.358  1.00  0.00    -0.003 C 
ATOM     14  C   UNL     1     -99.815 -30.858 -15.847  1.00  0.00     0.004 C 
ENDBRANCH  12  13
ENDBRANCH  11  12
ENDBRANCH  10  11
ENDBRANCH   9  10
ENDBRANCH   1   9
TORSDOF 9
ENDMDL
MODEL 9
REMARK VINA RESULT:    -3.061      3.688      5.349
REMARK INTER + INTRA:          -5.884
REMARK INTER:                  -4.653
REMARK INTRA:                  -1.231
REMARK UNBOUND:                -1.212
REMARK SMILES CCCCCCCCCC=CC(=O)[O-]
REMARK SMILES IDX 7 1 8 2 9 3 10 4 11 5 12 6 13 7 14 8 6 9 5 10 4 11 3 12 2 13
REMARK SMILES IDX 1 14
REMARK H PARENT
REMARK Flexibility Score: inf
ROOT
ATOM      1  C   UNL     1     -99.695 -29.521 -12.057  1.00  0.00     0.000 C 
ENDROOT
BRANCH   1   2
ATOM      2  C   UNL     1    -100.915 -28.612 -12.269  1.00  0.00     0.004 C 
BRANCH   2   3
ATOM      3  C   UNL     1    -100.738 -27.739 -13.517  1.00  0.00     0.027 C 
BRANCH   3   4
ATOM      4  C   UNL     1    -102.019 -27.629 -14.293  1.00  0.00    -0.025 C 
ATOM      5  C   UNL     1    -102.025 -27.288 -15.586  1.00  0.00     0.020 C 
BRANCH   5   6
ATOM      6  C   UNL     1    -103.267 -27.187 -16.369  1.00  0.00     0.064 C 
ATOM      7  O   UNL     1    -103.499 -26.183 -17.094  1.00  0.00    -0.545 OA
ATOM      8  O   UNL     1    -104.199 -28.213 -16.308  1.00  0.00    -0.545 OA
ENDBRANCH   5   6
ENDBRANCH   3   4
ENDBRANCH   2   3
ENDBRANCH   1   2
BRANCH   1   9
ATOM      9  C   UNL     1     -98.562 -29.237 -13.057  1.00  0.00     0.000 C 
BRANCH   9  10
ATOM     10  C   UNL     1     -98.102 -30.502 -13.803  1.00  0.00     0.000 C 
BRANCH  10  11
ATOM     11  C   UNL     1     -99.278 -31.305 -14.382  1.00  0.00    -0.000 C 
BRANCH  11  12
ATOM     12  C   UNL     1     -99.817 -30.707 -15.693  1.00  0.00    -0.000 C 
BRANCH  12  13
ATOM     13  C   UNL     1    -101.338 -30.876 -15.836  1.00  0.00    -0.003 C 
ATOM     14  C   UNL     1    -101.718 -31.988 -16.813  1.00  0.00     0.004 C 
ENDBRANCH  12  13
ENDBRANCH  11  12
ENDBRANCH  10  11
ENDBRANCH   9  10
ENDBRANCH   1   9
TORSDOF 9
ENDMDL
