MODEL 1
REMARK VINA RESULT:    -2.746      0.000      0.000
REMARK INTER + INTRA:          -2.987
REMARK INTER:                  -2.987
REMARK INTRA:                   0.000
REMARK UNBOUND:                 0.000
REMARK SMILES Oc1cccc(O)c1O
REMARK SMILES IDX 4 1 5 2 6 3 8 4 2 5 3 6 7 7 1 9 9 11
REMARK H PARENT 7 8 1 10 9 12
REMARK Flexibility Score: inf
ROOT
ATOM      1  C   UNL     1       9.583  13.956  -0.500  1.00  0.00     0.008 A 
ATOM      2  C   UNL     1      10.782  13.238  -0.506  1.00  0.00     0.050 A 
ATOM      3  C   UNL     1      11.821  13.594   0.366  1.00  0.00     0.161 A 
ATOM      4  C   UNL     1      11.653  14.676   1.249  1.00  0.00     0.200 A 
ATOM      5  C   UNL     1      10.444  15.395   1.251  1.00  0.00     0.161 A 
ATOM      6  C   UNL     1       9.415  15.030   0.375  1.00  0.00     0.050 A 
ENDROOT
BRANCH   3   7
ATOM      7  O   UNL     1      13.015  12.876   0.358  1.00  0.00    -0.504 OA
ATOM      8  H   UNL     1      13.027  11.864   0.404  1.00  0.00     0.293 HD
ENDBRANCH   3   7
BRANCH   5   9
ATOM      9  O   UNL     1      10.246  16.472   2.114  1.00  0.00    -0.504 OA
ATOM     10  H   UNL     1      10.991  16.844   2.691  1.00  0.00     0.293 HD
ENDBRANCH   5   9
BRANCH   4  11
ATOM     11  O   UNL     1      12.675  15.045   2.125  1.00  0.00    -0.502 OA
ATOM     12  H   UNL     1      13.650  15.045   1.848  1.00  0.00     0.293 HD
ENDBRANCH   4  11
TORSDOF 3
ENDMDL
MODEL 2
REMARK VINA RESULT:    -2.720      0.147      2.809
REMARK INTER + INTRA:          -2.958
REMARK INTER:                  -2.958
REMARK INTRA:                   0.000
REMARK UNBOUND:                 0.000
REMARK SMILES Oc1cccc(O)c1O
REMARK SMILES IDX 4 1 5 2 6 3 8 4 2 5 3 6 7 7 1 9 9 11
REMARK H PARENT 7 8 1 10 9 12
REMARK Flexibility Score: inf
ROOT
ATOM      1  C   UNL     1       9.519  13.867  -0.503  1.00  0.00     0.008 A 
ATOM      2  C   UNL     1       9.274  14.931   0.369  1.00  0.00     0.050 A 
ATOM      3  C   UNL     1      10.274  15.366   1.251  1.00  0.00     0.161 A 
ATOM      4  C   UNL     1      11.527  14.727   1.255  1.00  0.00     0.200 A 
ATOM      5  C   UNL     1      11.770  13.657   0.375  1.00  0.00     0.161 A 
ATOM      6  C   UNL     1      10.763  13.233  -0.500  1.00  0.00     0.050 A 
ENDROOT
BRANCH   3   7
ATOM      7  O   UNL     1      10.026  16.427   2.119  1.00  0.00    -0.504 OA
ATOM      8  H   UNL     1       9.880  16.280   3.110  1.00  0.00     0.293 HD
ENDBRANCH   3   7
BRANCH   5   9
ATOM      9  O   UNL     1      13.001  13.003   0.354  1.00  0.00    -0.504 OA
ATOM     10  H   UNL     1      13.468  12.706   1.203  1.00  0.00     0.293 HD
ENDBRANCH   5   9
BRANCH   4  11
ATOM     11  O   UNL     1      12.536  15.145   2.125  1.00  0.00    -0.502 OA
ATOM     12  H   UNL     1      13.065  15.995   1.970  1.00  0.00     0.293 HD
ENDBRANCH   4  11
TORSDOF 3
ENDMDL
MODEL 3
REMARK VINA RESULT:    -2.175      1.373      2.539
REMARK INTER + INTRA:          -2.366
REMARK INTER:                  -2.366
REMARK INTRA:                   0.000
REMARK UNBOUND:                 0.000
REMARK SMILES Oc1cccc(O)c1O
REMARK SMILES IDX 4 1 5 2 6 3 8 4 2 5 3 6 7 7 1 9 9 11
REMARK H PARENT 7 8 1 10 9 12
REMARK Flexibility Score: inf
ROOT
ATOM      1  C   UNL     1       9.605  15.186   1.528  1.00  0.00     0.008 A 
ATOM      2  C   UNL     1       9.365  14.554   0.305  1.00  0.00     0.050 A 
ATOM      3  C   UNL     1      10.386  13.832  -0.328  1.00  0.00     0.161 A 
ATOM      4  C   UNL     1      11.655  13.742   0.272  1.00  0.00     0.200 A 
ATOM      5  C   UNL     1      11.892  14.380   1.504  1.00  0.00     0.161 A 
ATOM      6  C   UNL     1      10.864  15.098   2.125  1.00  0.00     0.050 A 
ENDROOT
BRANCH   3   7
ATOM      7  O   UNL     1      10.143  13.203  -1.548  1.00  0.00    -0.504 OA
ATOM      8  H   UNL     1       9.329  12.617  -1.690  1.00  0.00     0.293 HD
ENDBRANCH   3   7
BRANCH   5   9
ATOM      9  O   UNL     1      13.139  14.311   2.125  1.00  0.00    -0.504 OA
ATOM     10  H   UNL     1      13.486  15.054   2.720  1.00  0.00     0.293 HD
ENDBRANCH   5   9
BRANCH   4  11
ATOM     11  O   UNL     1      12.685  13.027  -0.342  1.00  0.00    -0.502 OA
ATOM     12  H   UNL     1      12.507  12.214  -0.920  1.00  0.00     0.293 HD
ENDBRANCH   4  11
TORSDOF 3
ENDMDL
MODEL 4
REMARK VINA RESULT:    -1.725      2.340      3.131
REMARK INTER + INTRA:          -1.877
REMARK INTER:                  -1.877
REMARK INTRA:                   0.000
REMARK UNBOUND:                 0.000
REMARK SMILES Oc1cccc(O)c1O
REMARK SMILES IDX 4 1 5 2 6 3 8 4 2 5 3 6 7 7 1 9 9 11
REMARK H PARENT 7 8 1 10 9 12
REMARK Flexibility Score: inf
ROOT
ATOM      1  C   UNL     1      11.216  13.497   2.027  1.00  0.00     0.008 A 
ATOM      2  C   UNL     1      11.877  14.711   1.820  1.00  0.00     0.050 A 
ATOM      3  C   UNL     1      11.145  15.902   1.710  1.00  0.00     0.161 A 
ATOM      4  C   UNL     1       9.742  15.872   1.810  1.00  0.00     0.200 A 
ATOM      5  C   UNL     1       9.082  14.647   2.018  1.00  0.00     0.161 A 
ATOM      6  C   UNL     1       9.824  13.466   2.125  1.00  0.00     0.050 A 
ENDROOT
BRANCH   3   7
ATOM      7  O   UNL     1      11.806  17.111   1.505  1.00  0.00    -0.504 OA
ATOM      8  H   UNL     1      12.148  17.381   0.590  1.00  0.00     0.293 HD
ENDBRANCH   3   7
BRANCH   5   9
ATOM      9  O   UNL     1       7.693  14.583   2.121  1.00  0.00    -0.504 OA
ATOM     10  H   UNL     1       7.130  14.029   1.486  1.00  0.00     0.293 HD
ENDBRANCH   5   9
BRANCH   4  11
ATOM     11  O   UNL     1       8.995  17.047   1.704  1.00  0.00    -0.502 OA
ATOM     12  H   UNL     1       8.719  17.586   2.515  1.00  0.00     0.293 HD
ENDBRANCH   4  11
TORSDOF 3
ENDMDL
MODEL 5
REMARK VINA RESULT:    -1.716      1.448      2.737
REMARK INTER + INTRA:          -1.866
REMARK INTER:                  -1.866
REMARK INTRA:                   0.000
REMARK UNBOUND:                 0.000
REMARK SMILES Oc1cccc(O)c1O
REMARK SMILES IDX 4 1 5 2 6 3 8 4 2 5 3 6 7 7 1 9 9 11
REMARK H PARENT 7 8 1 10 9 12
REMARK Flexibility Score: inf
ROOT
ATOM      1  C   UNL     1       9.291  15.989   1.626  1.00  0.00     0.008 A 
ATOM      2  C   UNL     1      10.590  16.115   2.125  1.00  0.00     0.050 A 
ATOM      3  C   UNL     1      11.619  15.304   1.626  1.00  0.00     0.161 A 
ATOM      4  C   UNL     1      11.340  14.361   0.619  1.00  0.00     0.200 A 
ATOM      5  C   UNL     1      10.030  14.237   0.120  1.00  0.00     0.161 A 
ATOM      6  C   UNL     1       9.013  15.053   0.628  1.00  0.00     0.050 A 
ENDROOT
BRANCH   3   7
ATOM      7  O   UNL     1      12.913  15.432   2.125  1.00  0.00    -0.504 OA
ATOM      8  H   UNL     1      13.503  14.625   2.288  1.00  0.00     0.293 HD
ENDBRANCH   3   7
BRANCH   5   9
ATOM      9  O   UNL     1       9.721  13.313  -0.876  1.00  0.00    -0.504 OA
ATOM     10  H   UNL     1      10.438  12.798  -1.375  1.00  0.00     0.293 HD
ENDBRANCH   5   9
BRANCH   4  11
ATOM     11  O   UNL     1      12.351  13.544   0.110  1.00  0.00    -0.502 OA
ATOM     12  H   UNL     1      12.164  12.808  -0.561  1.00  0.00     0.293 HD
ENDBRANCH   4  11
TORSDOF 3
ENDMDL
MODEL 6
REMARK VINA RESULT:    -1.127      1.867      2.655
REMARK INTER + INTRA:          -1.226
REMARK INTER:                  -1.226
REMARK INTRA:                   0.000
REMARK UNBOUND:                 0.000
REMARK SMILES Oc1cccc(O)c1O
REMARK SMILES IDX 4 1 5 2 6 3 8 4 2 5 3 6 7 7 1 9 9 11
REMARK H PARENT 7 8 1 10 9 12
REMARK Flexibility Score: inf
ROOT
ATOM      1  C   UNL     1      12.443  13.223   1.471  1.00  0.00     0.008 A 
ATOM      2  C   UNL     1      12.411  13.057   0.084  1.00  0.00     0.050 A 
ATOM      3  C   UNL     1      11.313  13.517  -0.656  1.00  0.00     0.161 A 
ATOM      4  C   UNL     1      10.242  14.149   0.001  1.00  0.00     0.200 A 
ATOM      5  C   UNL     1      10.279  14.314   1.398  1.00  0.00     0.161 A 
ATOM      6  C   UNL     1      11.380  13.849   2.125  1.00  0.00     0.050 A 
ENDROOT
BRANCH   3   7
ATOM      7  O   UNL     1      11.285  13.350  -2.040  1.00  0.00    -0.504 OA
ATOM      8  H   UNL     1      11.890  12.685  -2.507  1.00  0.00     0.293 HD
ENDBRANCH   3   7
BRANCH   5   9
ATOM      9  O   UNL     1       9.233  14.936   2.079  1.00  0.00    -0.504 OA
ATOM     10  H   UNL     1       8.424  14.422   2.408  1.00  0.00     0.293 HD
ENDBRANCH   5   9
BRANCH   4  11
ATOM     11  O   UNL     1       9.140  14.615  -0.719  1.00  0.00    -0.502 OA
ATOM     12  H   UNL     1       8.472  15.264  -0.322  1.00  0.00     0.293 HD
ENDBRANCH   4  11
TORSDOF 3
ENDMDL
