MODEL 1
REMARK VINA RESULT:    -6.778      0.000      0.000
REMARK INTER + INTRA:         -10.314
REMARK INTER:                  -9.155
REMARK INTRA:                  -1.159
REMARK UNBOUND:                -1.159
REMARK SMILES O=c1c(-c2ccc(O)cc2)coc2c([C@H]3O[C@@H](CO)[C@H](O)[C@H](O)[C@H]3O)c(O)ccc12
REMARK SMILES IDX 3 1 11 2 12 3 13 4 30 5 2 6 1 7 29 8 28 9 26 10 14 11 4 12
REMARK SMILES IDX 5 13 6 14 7 15 10 16 9 17 8 18 15 20 24 21 16 22 22 23 17 24
REMARK SMILES IDX 20 25 25 26 23 28 18 30 19 31 21 33 27 35
REMARK H PARENT 8 19 25 27 23 29 19 32 21 34 27 36
REMARK Flexibility Score: inf
ROOT
ATOM      1  C   UNL     1      13.054 -11.864 -44.443  1.00  0.00     0.065 A 
ATOM      2  C   UNL     1      12.407 -13.054 -44.803  1.00  0.00     0.208 A 
ATOM      3  O   UNL     1      11.111 -13.064 -45.093  1.00  0.00    -0.463 OA
ATOM      4  C   UNL     1      10.350 -11.973 -45.066  1.00  0.00     0.147 A 
ATOM      5  C   UNL     1      10.925 -10.726 -44.724  1.00  0.00     0.066 A 
ATOM      6  C   UNL     1      12.296 -10.679 -44.413  1.00  0.00     0.200 A 
ATOM      7  O   UNL     1      12.848  -9.580 -44.131  1.00  0.00    -0.288 OA
ATOM      8  C   UNL     1      10.126  -9.573 -44.715  1.00  0.00     0.020 A 
ATOM      9  C   UNL     1       8.777  -9.653 -45.052  1.00  0.00     0.047 A 
ATOM     10  C   UNL     1       8.196 -10.880 -45.394  1.00  0.00     0.125 A 
ATOM     11  C   UNL     1       8.974 -12.063 -45.383  1.00  0.00     0.069 A 
ENDROOT
BRANCH   1  12
ATOM     12  C   UNL     1      14.503 -11.880 -44.115  1.00  0.00    -0.011 A 
ATOM     13  C   UNL     1      15.462 -11.938 -45.141  1.00  0.00     0.013 A 
ATOM     14  C   UNL     1      16.825 -11.962 -44.834  1.00  0.00     0.047 A 
ATOM     15  C   UNL     1      17.248 -11.934 -43.501  1.00  0.00     0.115 A 
ATOM     16  C   UNL     1      14.935 -11.858 -42.776  1.00  0.00     0.013 A 
ATOM     17  C   UNL     1      16.299 -11.882 -42.473  1.00  0.00     0.047 A 
BRANCH  15  18
ATOM     18  O   UNL     1      18.610 -11.957 -43.211  1.00  0.00    -0.508 OA
ATOM     19  H   UNL     1      18.964 -11.660 -42.309  1.00  0.00     0.293 HD
ENDBRANCH  15  18
ENDBRANCH   1  12
BRANCH  11  20
ATOM     20  C   UNL     1       8.384 -13.412 -45.777  1.00  0.00     0.188 C 
ATOM     21  C   UNL     1       8.424 -13.598 -47.314  1.00  0.00     0.179 C 
ATOM     22  O   UNL     1       7.061 -13.547 -45.283  1.00  0.00    -0.362 OA
ATOM     23  C   UNL     1       7.800 -14.955 -47.709  1.00  0.00     0.177 C 
ATOM     24  C   UNL     1       6.571 -14.862 -45.493  1.00  0.00     0.176 C 
ATOM     25  C   UNL     1       6.444 -15.165 -47.008  1.00  0.00     0.177 C 
BRANCH  21  26
ATOM     26  O   UNL     1       7.793 -12.536 -47.991  1.00  0.00    -0.387 OA
ATOM     27  H   UNL     1       6.828 -12.558 -47.771  1.00  0.00     0.211 HD
ENDBRANCH  21  26
BRANCH  23  28
ATOM     28  O   UNL     1       8.674 -15.998 -47.361  1.00  0.00    -0.387 OA
ATOM     29  H   UNL     1       9.434 -15.965 -48.001  1.00  0.00     0.211 HD
ENDBRANCH  23  28
BRANCH  24  30
ATOM     30  C   UNL     1       5.220 -14.997 -44.771  1.00  0.00     0.191 C 
BRANCH  30  31
ATOM     31  O   UNL     1       4.151 -14.713 -45.634  1.00  0.00    -0.394 OA
ATOM     32  H   UNL     1       4.213 -15.358 -46.386  1.00  0.00     0.210 HD
ENDBRANCH  30  31
ENDBRANCH  24  30
BRANCH  25  33
ATOM     33  O   UNL     1       6.026 -16.493 -47.208  1.00  0.00    -0.388 OA
ATOM     34  H   UNL     1       5.909 -16.620 -48.186  1.00  0.00     0.211 HD
ENDBRANCH  25  33
ENDBRANCH  11  20
BRANCH  10  35
ATOM     35  O   UNL     1       6.847 -10.916 -45.749  1.00  0.00    -0.507 OA
ATOM     36  H   UNL     1       6.544 -11.223 -46.666  1.00  0.00     0.293 HD
ENDBRANCH  10  35
TORSDOF 9
ENDMDL
MODEL 2
REMARK VINA RESULT:    -6.462     10.840     13.444
REMARK INTER + INTRA:          -9.887
REMARK INTER:                  -9.010
REMARK INTRA:                  -0.878
REMARK UNBOUND:                -1.159
REMARK SMILES O=c1c(-c2ccc(O)cc2)coc2c([C@H]3O[C@@H](CO)[C@H](O)[C@H](O)[C@H]3O)c(O)ccc12
REMARK SMILES IDX 3 1 11 2 12 3 13 4 30 5 2 6 1 7 29 8 28 9 26 10 14 11 4 12
REMARK SMILES IDX 5 13 6 14 7 15 10 16 9 17 8 18 15 20 24 21 16 22 22 23 17 24
REMARK SMILES IDX 20 25 25 26 23 28 18 30 19 31 21 33 27 35
REMARK H PARENT 8 19 25 27 23 29 19 32 21 34 27 36
REMARK Flexibility Score: inf
ROOT
ATOM      1  C   UNL     1       5.449 -16.545 -35.157  1.00  0.00     0.065 A 
ATOM      2  C   UNL     1       5.661 -17.867 -34.739  1.00  0.00     0.208 A 
ATOM      3  O   UNL     1       6.413 -18.695 -35.454  1.00  0.00    -0.463 OA
ATOM      4  C   UNL     1       7.008 -18.341 -36.591  1.00  0.00     0.147 A 
ATOM      5  C   UNL     1       6.858 -17.022 -37.079  1.00  0.00     0.066 A 
ATOM      6  C   UNL     1       6.068 -16.118 -36.345  1.00  0.00     0.200 A 
ATOM      7  O   UNL     1       5.934 -14.926 -36.737  1.00  0.00    -0.288 OA
ATOM      8  C   UNL     1       7.502 -16.645 -38.267  1.00  0.00     0.020 A 
ATOM      9  C   UNL     1       8.294 -17.560 -38.955  1.00  0.00     0.047 A 
ATOM     10  C   UNL     1       8.454 -18.867 -38.481  1.00  0.00     0.125 A 
ATOM     11  C   UNL     1       7.792 -19.282 -37.301  1.00  0.00     0.069 A 
ENDROOT
BRANCH   1  12
ATOM     12  C   UNL     1       4.596 -15.640 -34.344  1.00  0.00    -0.011 A 
ATOM     13  C   UNL     1       4.838 -15.483 -32.968  1.00  0.00     0.013 A 
ATOM     14  C   UNL     1       4.032 -14.639 -32.200  1.00  0.00     0.047 A 
ATOM     15  C   UNL     1       2.972 -13.946 -32.793  1.00  0.00     0.115 A 
ATOM     16  C   UNL     1       3.524 -14.946 -34.933  1.00  0.00     0.013 A 
ATOM     17  C   UNL     1       2.719 -14.103 -34.162  1.00  0.00     0.047 A 
BRANCH  15  18
ATOM     18  O   UNL     1       2.177 -13.108 -32.014  1.00  0.00    -0.508 OA
ATOM     19  H   UNL     1       2.526 -12.223 -31.664  1.00  0.00     0.293 HD
ENDBRANCH  15  18
ENDBRANCH   1  12
BRANCH  11  20
ATOM     20  C   UNL     1       7.964 -20.689 -36.738  1.00  0.00     0.188 C 
ATOM     21  C   UNL     1       9.180 -20.748 -35.780  1.00  0.00     0.179 C 
ATOM     22  O   UNL     1       8.093 -21.637 -37.785  1.00  0.00    -0.362 OA
ATOM     23  C   UNL     1       9.366 -22.182 -35.236  1.00  0.00     0.177 C 
ATOM     24  C   UNL     1       8.077 -22.961 -37.276  1.00  0.00     0.176 C 
ATOM     25  C   UNL     1       9.312 -23.218 -36.375  1.00  0.00     0.177 C 
BRANCH  21  26
ATOM     26  O   UNL     1      10.360 -20.285 -36.396  1.00  0.00    -0.387 OA
ATOM     27  H   UNL     1      10.265 -20.402 -37.375  1.00  0.00     0.211 HD
ENDBRANCH  21  26
BRANCH  23  28
ATOM     28  O   UNL     1       8.360 -22.466 -34.296  1.00  0.00    -0.387 OA
ATOM     29  H   UNL     1       8.594 -21.975 -33.465  1.00  0.00     0.211 HD
ENDBRANCH  23  28
BRANCH  24  30
ATOM     30  C   UNL     1       8.027 -23.936 -38.464  1.00  0.00     0.191 C 
BRANCH  30  31
ATOM     31  O   UNL     1       9.285 -24.508 -38.707  1.00  0.00    -0.394 OA
ATOM     32  H   UNL     1       9.945 -23.975 -38.191  1.00  0.00     0.210 HD
ENDBRANCH  30  31
ENDBRANCH  24  30
BRANCH  25  33
ATOM     33  O   UNL     1       9.252 -24.509 -35.818  1.00  0.00    -0.388 OA
ATOM     34  H   UNL     1       8.430 -24.552 -35.263  1.00  0.00     0.211 HD
ENDBRANCH  25  33
ENDBRANCH  11  20
BRANCH  10  35
ATOM     35  O   UNL     1       9.276 -19.748 -39.185  1.00  0.00    -0.507 OA
ATOM     36  H   UNL     1       9.140 -19.933 -40.173  1.00  0.00     0.293 HD
ENDBRANCH  10  35
TORSDOF 9
ENDMDL
MODEL 3
REMARK VINA RESULT:    -6.208     10.608     13.309
REMARK INTER + INTRA:          -9.544
REMARK INTER:                  -8.431
REMARK INTRA:                  -1.113
REMARK UNBOUND:                -1.159
REMARK SMILES O=c1c(-c2ccc(O)cc2)coc2c([C@H]3O[C@@H](CO)[C@H](O)[C@H](O)[C@H]3O)c(O)ccc12
REMARK SMILES IDX 3 1 11 2 12 3 13 4 30 5 2 6 1 7 29 8 28 9 26 10 14 11 4 12
REMARK SMILES IDX 5 13 6 14 7 15 10 16 9 17 8 18 15 20 24 21 16 22 22 23 17 24
REMARK SMILES IDX 20 25 25 26 23 28 18 30 19 31 21 33 27 35
REMARK H PARENT 8 19 25 27 23 29 19 32 21 34 27 36
REMARK Flexibility Score: inf
ROOT
ATOM      1  C   UNL     1       5.598 -16.852 -36.018  1.00  0.00     0.065 A 
ATOM      2  C   UNL     1       5.765 -18.145 -35.502  1.00  0.00     0.208 A 
ATOM      3  O   UNL     1       6.673 -18.970 -36.012  1.00  0.00    -0.463 OA
ATOM      4  C   UNL     1       7.472 -18.638 -37.023  1.00  0.00     0.147 A 
ATOM      5  C   UNL     1       7.379 -17.348 -37.595  1.00  0.00     0.066 A 
ATOM      6  C   UNL     1       6.428 -16.449 -37.078  1.00  0.00     0.200 A 
ATOM      7  O   UNL     1       6.337 -15.280 -37.547  1.00  0.00    -0.288 OA
ATOM      8  C   UNL     1       8.236 -16.993 -38.648  1.00  0.00     0.020 A 
ATOM      9  C   UNL     1       9.181 -17.901 -39.119  1.00  0.00     0.047 A 
ATOM     10  C   UNL     1       9.285 -19.180 -38.559  1.00  0.00     0.125 A 
ATOM     11  C   UNL     1       8.413 -19.573 -37.516  1.00  0.00     0.069 A 
ENDROOT
BRANCH   1  12
ATOM     12  C   UNL     1       4.570 -15.952 -35.437  1.00  0.00    -0.011 A 
ATOM     13  C   UNL     1       3.391 -15.667 -36.149  1.00  0.00     0.013 A 
ATOM     14  C   UNL     1       2.426 -14.813 -35.608  1.00  0.00     0.047 A 
ATOM     15  C   UNL     1       2.627 -14.228 -34.354  1.00  0.00     0.115 A 
ATOM     16  C   UNL     1       4.768 -15.355 -34.178  1.00  0.00     0.013 A 
ATOM     17  C   UNL     1       3.802 -14.500 -33.640  1.00  0.00     0.047 A 
BRANCH  15  18
ATOM     18  O   UNL     1       1.656 -13.379 -33.827  1.00  0.00    -0.508 OA
ATOM     19  H   UNL     1       1.556 -12.425 -34.151  1.00  0.00     0.293 HD
ENDBRANCH  15  18
ENDBRANCH   1  12
BRANCH  11  20
ATOM     20  C   UNL     1       8.515 -20.947 -36.862  1.00  0.00     0.188 C 
ATOM     21  C   UNL     1       9.568 -20.934 -35.725  1.00  0.00     0.179 C 
ATOM     22  O   UNL     1       8.820 -21.942 -37.827  1.00  0.00    -0.362 OA
ATOM     23  C   UNL     1       9.686 -22.336 -35.086  1.00  0.00     0.177 C 
ATOM     24  C   UNL     1       8.743 -23.240 -37.259  1.00  0.00     0.176 C 
ATOM     25  C   UNL     1       9.825 -23.426 -36.165  1.00  0.00     0.177 C 
BRANCH  21  26
ATOM     26  O   UNL     1      10.822 -20.475 -36.173  1.00  0.00    -0.387 OA
ATOM     27  H   UNL     1      11.348 -20.192 -35.382  1.00  0.00     0.211 HD
ENDBRANCH  21  26
BRANCH  23  28
ATOM     28  O   UNL     1       8.550 -22.596 -34.301  1.00  0.00    -0.387 OA
ATOM     29  H   UNL     1       7.990 -21.776 -34.322  1.00  0.00     0.211 HD
ENDBRANCH  23  28
BRANCH  24  30
ATOM     30  C   UNL     1       8.893 -24.272 -38.389  1.00  0.00     0.191 C 
BRANCH  30  31
ATOM     31  O   UNL     1       8.374 -25.520 -38.012  1.00  0.00    -0.394 OA
ATOM     32  H   UNL     1       8.214 -25.478 -37.033  1.00  0.00     0.210 HD
ENDBRANCH  30  31
ENDBRANCH  24  30
BRANCH  25  33
ATOM     33  O   UNL     1       9.698 -24.689 -35.559  1.00  0.00    -0.388 OA
ATOM     34  H   UNL     1       9.876 -25.371 -36.259  1.00  0.00     0.211 HD
ENDBRANCH  25  33
ENDBRANCH  11  20
BRANCH  10  35
ATOM     35  O   UNL     1      10.261 -20.054 -39.042  1.00  0.00    -0.507 OA
ATOM     36  H   UNL     1      10.193 -21.056 -38.908  1.00  0.00     0.293 HD
ENDBRANCH  10  35
TORSDOF 9
ENDMDL
MODEL 4
REMARK VINA RESULT:    -5.886     10.944     13.662
REMARK INTER + INTRA:          -9.109
REMARK INTER:                  -7.927
REMARK INTRA:                  -1.183
REMARK UNBOUND:                -1.159
REMARK SMILES O=c1c(-c2ccc(O)cc2)coc2c([C@H]3O[C@@H](CO)[C@H](O)[C@H](O)[C@H]3O)c(O)ccc12
REMARK SMILES IDX 3 1 11 2 12 3 13 4 30 5 2 6 1 7 29 8 28 9 26 10 14 11 4 12
REMARK SMILES IDX 5 13 6 14 7 15 10 16 9 17 8 18 15 20 24 21 16 22 22 23 17 24
REMARK SMILES IDX 20 25 25 26 23 28 18 30 19 31 21 33 27 35
REMARK H PARENT 8 19 25 27 23 29 19 32 21 34 27 36
REMARK Flexibility Score: inf
ROOT
ATOM      1  C   UNL     1       7.695 -19.538 -37.696  1.00  0.00     0.065 A 
ATOM      2  C   UNL     1       8.619 -19.880 -38.694  1.00  0.00     0.208 A 
ATOM      3  O   UNL     1       9.438 -20.914 -38.539  1.00  0.00    -0.463 OA
ATOM      4  C   UNL     1       9.442 -21.684 -37.454  1.00  0.00     0.147 A 
ATOM      5  C   UNL     1       8.533 -21.418 -36.403  1.00  0.00     0.066 A 
ATOM      6  C   UNL     1       7.650 -20.331 -36.535  1.00  0.00     0.200 A 
ATOM      7  O   UNL     1       6.808 -20.081 -35.629  1.00  0.00    -0.288 OA
ATOM      8  C   UNL     1       8.526 -22.242 -35.269  1.00  0.00     0.020 A 
ATOM      9  C   UNL     1       9.399 -23.324 -35.182  1.00  0.00     0.047 A 
ATOM     10  C   UNL     1      10.301 -23.599 -36.216  1.00  0.00     0.125 A 
ATOM     11  C   UNL     1      10.349 -22.766 -37.359  1.00  0.00     0.069 A 
ENDROOT
BRANCH   1  12
ATOM     12  C   UNL     1       6.795 -18.373 -37.889  1.00  0.00    -0.011 A 
ATOM     13  C   UNL     1       5.530 -18.543 -38.480  1.00  0.00     0.013 A 
ATOM     14  C   UNL     1       4.685 -17.446 -38.670  1.00  0.00     0.047 A 
ATOM     15  C   UNL     1       5.093 -16.167 -38.279  1.00  0.00     0.115 A 
ATOM     16  C   UNL     1       7.201 -17.082 -37.504  1.00  0.00     0.013 A 
ATOM     17  C   UNL     1       6.354 -15.987 -37.697  1.00  0.00     0.047 A 
BRANCH  15  18
ATOM     18  O   UNL     1       4.239 -15.083 -38.474  1.00  0.00    -0.508 OA
ATOM     19  H   UNL     1       3.243 -15.212 -38.605  1.00  0.00     0.293 HD
ENDBRANCH  15  18
ENDBRANCH   1  12
BRANCH  11  20
ATOM     20  C   UNL     1      11.298 -23.051 -38.518  1.00  0.00     0.188 C 
ATOM     21  C   UNL     1      10.695 -24.114 -39.469  1.00  0.00     0.179 C 
ATOM     22  O   UNL     1      12.569 -23.458 -38.039  1.00  0.00    -0.362 OA
ATOM     23  C   UNL     1      11.673 -24.419 -40.626  1.00  0.00     0.177 C 
ATOM     24  C   UNL     1      13.506 -23.555 -39.101  1.00  0.00     0.176 C 
ATOM     25  C   UNL     1      13.096 -24.672 -40.094  1.00  0.00     0.177 C 
BRANCH  21  26
ATOM     26  O   UNL     1      10.339 -25.293 -38.785  1.00  0.00    -0.387 OA
ATOM     27  H   UNL     1      10.860 -26.043 -39.169  1.00  0.00     0.211 HD
ENDBRANCH  21  26
BRANCH  23  28
ATOM     28  O   UNL     1      11.694 -23.339 -41.525  1.00  0.00    -0.387 OA
ATOM     29  H   UNL     1      11.178 -23.620 -42.327  1.00  0.00     0.211 HD
ENDBRANCH  23  28
BRANCH  24  30
ATOM     30  C   UNL     1      14.897 -23.811 -38.499  1.00  0.00     0.191 C 
BRANCH  30  31
ATOM     31  O   UNL     1      15.256 -25.163 -38.602  1.00  0.00    -0.394 OA
ATOM     32  H   UNL     1      16.227 -25.186 -38.805  1.00  0.00     0.210 HD
ENDBRANCH  30  31
ENDBRANCH  24  30
BRANCH  25  33
ATOM     33  O   UNL     1      13.990 -24.714 -41.180  1.00  0.00    -0.388 OA
ATOM     34  H   UNL     1      13.735 -23.982 -41.799  1.00  0.00     0.211 HD
ENDBRANCH  25  33
ENDBRANCH  11  20
BRANCH  10  35
ATOM     35  O   UNL     1      11.143 -24.707 -36.104  1.00  0.00    -0.507 OA
ATOM     36  H   UNL     1      11.978 -24.802 -36.671  1.00  0.00     0.293 HD
ENDBRANCH  10  35
TORSDOF 9
ENDMDL
MODEL 5
REMARK VINA RESULT:    -5.864     10.537     13.833
REMARK INTER + INTRA:          -9.080
REMARK INTER:                  -8.113
REMARK INTRA:                  -0.967
REMARK UNBOUND:                -1.159
REMARK SMILES O=c1c(-c2ccc(O)cc2)coc2c([C@H]3O[C@@H](CO)[C@H](O)[C@H](O)[C@H]3O)c(O)ccc12
REMARK SMILES IDX 3 1 11 2 12 3 13 4 30 5 2 6 1 7 29 8 28 9 26 10 14 11 4 12
REMARK SMILES IDX 5 13 6 14 7 15 10 16 9 17 8 18 15 20 24 21 16 22 22 23 17 24
REMARK SMILES IDX 20 25 25 26 23 28 18 30 19 31 21 33 27 35
REMARK H PARENT 8 19 25 27 23 29 19 32 21 34 27 36
REMARK Flexibility Score: inf
ROOT
ATOM      1  C   UNL     1       7.226 -19.774 -36.999  1.00  0.00     0.065 A 
ATOM      2  C   UNL     1       8.457 -19.273 -37.445  1.00  0.00     0.208 A 
ATOM      3  O   UNL     1       9.498 -20.079 -37.621  1.00  0.00    -0.463 OA
ATOM      4  C   UNL     1       9.451 -21.390 -37.394  1.00  0.00     0.147 A 
ATOM      5  C   UNL     1       8.243 -21.981 -36.953  1.00  0.00     0.066 A 
ATOM      6  C   UNL     1       7.121 -21.156 -36.758  1.00  0.00     0.200 A 
ATOM      7  O   UNL     1       6.020 -21.654 -36.392  1.00  0.00    -0.288 OA
ATOM      8  C   UNL     1       8.190 -23.365 -36.733  1.00  0.00     0.020 A 
ATOM      9  C   UNL     1       9.315 -24.155 -36.959  1.00  0.00     0.047 A 
ATOM     10  C   UNL     1      10.515 -23.582 -37.397  1.00  0.00     0.125 A 
ATOM     11  C   UNL     1      10.604 -22.184 -37.599  1.00  0.00     0.069 A 
ENDROOT
BRANCH   1  12
ATOM     12  C   UNL     1       6.079 -18.851 -36.802  1.00  0.00    -0.011 A 
ATOM     13  C   UNL     1       5.066 -18.761 -37.773  1.00  0.00     0.013 A 
ATOM     14  C   UNL     1       3.990 -17.887 -37.593  1.00  0.00     0.047 A 
ATOM     15  C   UNL     1       3.915 -17.089 -36.448  1.00  0.00     0.115 A 
ATOM     16  C   UNL     1       6.000 -18.041 -35.655  1.00  0.00     0.013 A 
ATOM     17  C   UNL     1       4.924 -17.167 -35.479  1.00  0.00     0.047 A 
BRANCH  15  18
ATOM     18  O   UNL     1       2.836 -16.223 -36.282  1.00  0.00    -0.508 OA
ATOM     19  H   UNL     1       2.572 -15.877 -35.368  1.00  0.00     0.293 HD
ENDBRANCH  15  18
ENDBRANCH   1  12
BRANCH  11  20
ATOM     20  C   UNL     1      11.884 -21.528 -38.104  1.00  0.00     0.188 C 
ATOM     21  C   UNL     1      11.920 -21.520 -39.652  1.00  0.00     0.179 C 
ATOM     22  O   UNL     1      13.026 -22.179 -37.571  1.00  0.00    -0.362 OA
ATOM     23  C   UNL     1      13.232 -20.879 -40.157  1.00  0.00     0.177 C 
ATOM     24  C   UNL     1      14.212 -21.469 -37.893  1.00  0.00     0.176 C 
ATOM     25  C   UNL     1      14.453 -21.469 -39.424  1.00  0.00     0.177 C 
BRANCH  21  26
ATOM     26  O   UNL     1      11.748 -22.810 -40.191  1.00  0.00    -0.387 OA
ATOM     27  H   UNL     1      11.657 -22.726 -41.174  1.00  0.00     0.211 HD
ENDBRANCH  21  26
BRANCH  23  28
ATOM     28  O   UNL     1      13.190 -19.489 -39.953  1.00  0.00    -0.387 OA
ATOM     29  H   UNL     1      13.425 -19.063 -40.819  1.00  0.00     0.211 HD
ENDBRANCH  23  28
BRANCH  24  30
ATOM     30  C   UNL     1      15.383 -22.113 -37.133  1.00  0.00     0.191 C 
BRANCH  30  31
ATOM     31  O   UNL     1      15.225 -23.504 -37.037  1.00  0.00    -0.394 OA
ATOM     32  H   UNL     1      15.643 -23.780 -36.180  1.00  0.00     0.210 HD
ENDBRANCH  30  31
ENDBRANCH  24  30
BRANCH  25  33
ATOM     33  O   UNL     1      15.591 -20.704 -39.741  1.00  0.00    -0.388 OA
ATOM     34  H   UNL     1      16.384 -21.284 -39.598  1.00  0.00     0.211 HD
ENDBRANCH  25  33
ENDBRANCH  11  20
BRANCH  10  35
ATOM     35  O   UNL     1      11.613 -24.410 -37.636  1.00  0.00    -0.507 OA
ATOM     36  H   UNL     1      12.403 -24.445 -37.001  1.00  0.00     0.293 HD
ENDBRANCH  10  35
TORSDOF 9
ENDMDL
MODEL 6
REMARK VINA RESULT:    -5.790     10.509     13.346
REMARK INTER + INTRA:          -8.979
REMARK INTER:                  -7.996
REMARK INTRA:                  -0.983
REMARK UNBOUND:                -1.159
REMARK SMILES O=c1c(-c2ccc(O)cc2)coc2c([C@H]3O[C@@H](CO)[C@H](O)[C@H](O)[C@H]3O)c(O)ccc12
REMARK SMILES IDX 3 1 11 2 12 3 13 4 30 5 2 6 1 7 29 8 28 9 26 10 14 11 4 12
REMARK SMILES IDX 5 13 6 14 7 15 10 16 9 17 8 18 15 20 24 21 16 22 22 23 17 24
REMARK SMILES IDX 20 25 25 26 23 28 18 30 19 31 21 33 27 35
REMARK H PARENT 8 19 25 27 23 29 19 32 21 34 27 36
REMARK Flexibility Score: inf
ROOT
ATOM      1  C   UNL     1       4.475 -16.485 -36.509  1.00  0.00     0.065 A 
ATOM      2  C   UNL     1       5.846 -16.622 -36.248  1.00  0.00     0.208 A 
ATOM      3  O   UNL     1       6.477 -17.763 -36.501  1.00  0.00    -0.463 OA
ATOM      4  C   UNL     1       5.872 -18.833 -37.008  1.00  0.00     0.147 A 
ATOM      5  C   UNL     1       4.492 -18.779 -37.314  1.00  0.00     0.066 A 
ATOM      6  C   UNL     1       3.792 -17.585 -37.060  1.00  0.00     0.200 A 
ATOM      7  O   UNL     1       2.566 -17.492 -37.346  1.00  0.00    -0.288 OA
ATOM      8  C   UNL     1       3.860 -19.902 -37.867  1.00  0.00     0.020 A 
ATOM      9  C   UNL     1       4.588 -21.060 -38.126  1.00  0.00     0.047 A 
ATOM     10  C   UNL     1       5.955 -21.126 -37.831  1.00  0.00     0.125 A 
ATOM     11  C   UNL     1       6.611 -20.017 -37.245  1.00  0.00     0.069 A 
ENDROOT
BRANCH   1  12
ATOM     12  C   UNL     1       3.789 -15.202 -36.211  1.00  0.00    -0.011 A 
ATOM     13  C   UNL     1       3.271 -14.957 -34.927  1.00  0.00     0.013 A 
ATOM     14  C   UNL     1       2.618 -13.753 -34.646  1.00  0.00     0.047 A 
ATOM     15  C   UNL     1       2.468 -12.784 -35.643  1.00  0.00     0.115 A 
ATOM     16  C   UNL     1       3.630 -14.225 -37.210  1.00  0.00     0.013 A 
ATOM     17  C   UNL     1       2.975 -13.023 -36.927  1.00  0.00     0.047 A 
BRANCH  15  18
ATOM     18  O   UNL     1       1.815 -11.589 -35.348  1.00  0.00    -0.508 OA
ATOM     19  H   UNL     1       1.489 -10.970 -36.081  1.00  0.00     0.293 HD
ENDBRANCH  15  18
ENDBRANCH   1  12
BRANCH  11  20
ATOM     20  C   UNL     1       8.104 -20.041 -36.936  1.00  0.00     0.188 C 
ATOM     21  C   UNL     1       8.928 -19.663 -38.193  1.00  0.00     0.179 C 
ATOM     22  O   UNL     1       8.493 -21.309 -36.435  1.00  0.00    -0.362 OA
ATOM     23  C   UNL     1      10.440 -19.716 -37.880  1.00  0.00     0.177 C 
ATOM     24  C   UNL     1       9.838 -21.286 -35.981  1.00  0.00     0.176 C 
ATOM     25  C   UNL     1      10.810 -21.027 -37.161  1.00  0.00     0.177 C 
BRANCH  21  26
ATOM     26  O   UNL     1       8.611 -20.478 -39.297  1.00  0.00    -0.387 OA
ATOM     27  H   UNL     1       8.164 -21.296 -38.960  1.00  0.00     0.211 HD
ENDBRANCH  21  26
BRANCH  23  28
ATOM     28  O   UNL     1      10.796 -18.622 -37.073  1.00  0.00    -0.387 OA
ATOM     29  H   UNL     1      10.721 -18.922 -36.129  1.00  0.00     0.211 HD
ENDBRANCH  23  28
BRANCH  24  30
ATOM     30  C   UNL     1      10.136 -22.621 -35.280  1.00  0.00     0.191 C 
BRANCH  30  31
ATOM     31  O   UNL     1       9.244 -22.852 -34.223  1.00  0.00    -0.394 OA
ATOM     32  H   UNL     1       9.793 -23.122 -33.440  1.00  0.00     0.210 HD
ENDBRANCH  30  31
ENDBRANCH  24  30
BRANCH  25  33
ATOM     33  O   UNL     1      12.134 -20.935 -36.693  1.00  0.00    -0.388 OA
ATOM     34  H   UNL     1      12.562 -21.817 -36.846  1.00  0.00     0.211 HD
ENDBRANCH  25  33
ENDBRANCH  11  20
BRANCH  10  35
ATOM     35  O   UNL     1       6.657 -22.296 -38.128  1.00  0.00    -0.507 OA
ATOM     36  H   UNL     1       6.395 -23.191 -37.732  1.00  0.00     0.293 HD
ENDBRANCH  10  35
TORSDOF 9
ENDMDL
MODEL 7
REMARK VINA RESULT:    -5.622      4.177      8.003
REMARK INTER + INTRA:          -8.752
REMARK INTER:                  -7.630
REMARK INTRA:                  -1.122
REMARK UNBOUND:                -1.159
REMARK SMILES O=c1c(-c2ccc(O)cc2)coc2c([C@H]3O[C@@H](CO)[C@H](O)[C@H](O)[C@H]3O)c(O)ccc12
REMARK SMILES IDX 3 1 11 2 12 3 13 4 30 5 2 6 1 7 29 8 28 9 26 10 14 11 4 12
REMARK SMILES IDX 5 13 6 14 7 15 10 16 9 17 8 18 15 20 24 21 16 22 22 23 17 24
REMARK SMILES IDX 20 25 25 26 23 28 18 30 19 31 21 33 27 35
REMARK H PARENT 8 19 25 27 23 29 19 32 21 34 27 36
REMARK Flexibility Score: inf
ROOT
ATOM      1  C   UNL     1       7.243 -14.768 -47.447  1.00  0.00     0.065 A 
ATOM      2  C   UNL     1       6.332 -15.536 -46.708  1.00  0.00     0.208 A 
ATOM      3  O   UNL     1       5.708 -16.571 -47.259  1.00  0.00    -0.463 OA
ATOM      4  C   UNL     1       5.897 -16.947 -48.521  1.00  0.00     0.147 A 
ATOM      5  C   UNL     1       6.809 -16.235 -49.335  1.00  0.00     0.066 A 
ATOM      6  C   UNL     1       7.488 -15.134 -48.782  1.00  0.00     0.200 A 
ATOM      7  O   UNL     1       8.329 -14.493 -49.472  1.00  0.00    -0.288 OA
ATOM      8  C   UNL     1       7.022 -16.646 -50.660  1.00  0.00     0.020 A 
ATOM      9  C   UNL     1       6.349 -17.755 -51.167  1.00  0.00     0.047 A 
ATOM     10  C   UNL     1       5.446 -18.470 -50.371  1.00  0.00     0.125 A 
ATOM     11  C   UNL     1       5.192 -18.059 -49.040  1.00  0.00     0.069 A 
ENDROOT
BRANCH   1  12
ATOM     12  C   UNL     1       7.921 -13.610 -46.811  1.00  0.00    -0.011 A 
ATOM     13  C   UNL     1       7.368 -12.321 -46.910  1.00  0.00     0.013 A 
ATOM     14  C   UNL     1       8.009 -11.229 -46.320  1.00  0.00     0.047 A 
ATOM     15  C   UNL     1       9.212 -11.407 -45.629  1.00  0.00     0.115 A 
ATOM     16  C   UNL     1       9.134 -13.781 -46.120  1.00  0.00     0.013 A 
ATOM     17  C   UNL     1       9.774 -12.686 -45.531  1.00  0.00     0.047 A 
BRANCH  15  18
ATOM     18  O   UNL     1       9.839 -10.309 -45.045  1.00  0.00    -0.508 OA
ATOM     19  H   UNL     1      10.247  -9.571 -45.608  1.00  0.00     0.293 HD
ENDBRANCH  15  18
ENDBRANCH   1  12
BRANCH  11  20
ATOM     20  C   UNL     1       4.237 -18.829 -48.134  1.00  0.00     0.188 C 
ATOM     21  C   UNL     1       4.991 -19.948 -47.373  1.00  0.00     0.179 C 
ATOM     22  O   UNL     1       3.154 -19.360 -48.879  1.00  0.00    -0.362 OA
ATOM     23  C   UNL     1       4.013 -20.742 -46.477  1.00  0.00     0.177 C 
ATOM     24  C   UNL     1       2.175 -19.925 -48.021  1.00  0.00     0.176 C 
ATOM     25  C   UNL     1       2.750 -21.147 -47.261  1.00  0.00     0.177 C 
BRANCH  21  26
ATOM     26  O   UNL     1       5.685 -20.807 -48.248  1.00  0.00    -0.387 OA
ATOM     27  H   UNL     1       5.129 -20.939 -49.057  1.00  0.00     0.211 HD
ENDBRANCH  21  26
BRANCH  23  28
ATOM     28  O   UNL     1       3.646 -19.961 -45.368  1.00  0.00    -0.387 OA
ATOM     29  H   UNL     1       2.852 -20.396 -44.958  1.00  0.00     0.211 HD
ENDBRANCH  23  28
BRANCH  24  30
ATOM     30  C   UNL     1       0.951 -20.307 -48.869  1.00  0.00     0.191 C 
BRANCH  30  31
ATOM     31  O   UNL     1      -0.244 -20.079 -48.170  1.00  0.00    -0.394 OA
ATOM     32  H   UNL     1      -0.476 -19.123 -48.305  1.00  0.00     0.210 HD
ENDBRANCH  30  31
ENDBRANCH  24  30
BRANCH  25  33
ATOM     33  O   UNL     1       1.797 -21.657 -46.361  1.00  0.00    -0.388 OA
ATOM     34  H   UNL     1       0.906 -21.553 -46.786  1.00  0.00     0.211 HD
ENDBRANCH  25  33
ENDBRANCH  11  20
BRANCH  10  35
ATOM     35  O   UNL     1       4.810 -19.590 -50.906  1.00  0.00    -0.507 OA
ATOM     36  H   UNL     1       4.188 -19.521 -51.704  1.00  0.00     0.293 HD
ENDBRANCH  10  35
TORSDOF 9
ENDMDL
MODEL 8
REMARK VINA RESULT:    -5.560      9.400     10.790
REMARK INTER + INTRA:          -8.669
REMARK INTER:                  -7.487
REMARK INTRA:                  -1.182
REMARK UNBOUND:                -1.159
REMARK SMILES O=c1c(-c2ccc(O)cc2)coc2c([C@H]3O[C@@H](CO)[C@H](O)[C@H](O)[C@H]3O)c(O)ccc12
REMARK SMILES IDX 3 1 11 2 12 3 13 4 30 5 2 6 1 7 29 8 28 9 26 10 14 11 4 12
REMARK SMILES IDX 5 13 6 14 7 15 10 16 9 17 8 18 15 20 24 21 16 22 22 23 17 24
REMARK SMILES IDX 20 25 25 26 23 28 18 30 19 31 21 33 27 35
REMARK H PARENT 8 19 25 27 23 29 19 32 21 34 27 36
REMARK Flexibility Score: inf
ROOT
ATOM      1  C   UNL     1      11.384 -21.665 -38.722  1.00  0.00     0.065 A 
ATOM      2  C   UNL     1      10.904 -20.736 -39.656  1.00  0.00     0.208 A 
ATOM      3  O   UNL     1       9.810 -20.024 -39.408  1.00  0.00    -0.463 OA
ATOM      4  C   UNL     1       9.108 -20.134 -38.284  1.00  0.00     0.147 A 
ATOM      5  C   UNL     1       9.529 -21.039 -37.281  1.00  0.00     0.066 A 
ATOM      6  C   UNL     1      10.685 -21.809 -37.510  1.00  0.00     0.200 A 
ATOM      7  O   UNL     1      11.104 -22.606 -36.626  1.00  0.00    -0.288 OA
ATOM      8  C   UNL     1       8.799 -21.141 -36.088  1.00  0.00     0.020 A 
ATOM      9  C   UNL     1       7.672 -20.347 -35.886  1.00  0.00     0.047 A 
ATOM     10  C   UNL     1       7.246 -19.445 -36.869  1.00  0.00     0.125 A 
ATOM     11  C   UNL     1       7.949 -19.345 -38.094  1.00  0.00     0.069 A 
ENDROOT
BRANCH   1  12
ATOM     12  C   UNL     1      12.604 -22.455 -39.025  1.00  0.00    -0.011 A 
ATOM     13  C   UNL     1      13.879 -21.924 -38.756  1.00  0.00     0.013 A 
ATOM     14  C   UNL     1      15.028 -22.664 -39.048  1.00  0.00     0.047 A 
ATOM     15  C   UNL     1      14.922 -23.936 -39.617  1.00  0.00     0.115 A 
ATOM     16  C   UNL     1      12.505 -23.733 -39.603  1.00  0.00     0.013 A 
ATOM     17  C   UNL     1      13.657 -24.469 -39.895  1.00  0.00     0.047 A 
BRANCH  15  18
ATOM     18  O   UNL     1      16.077 -24.661 -39.902  1.00  0.00    -0.508 OA
ATOM     19  H   UNL     1      16.379 -25.428 -39.313  1.00  0.00     0.293 HD
ENDBRANCH  15  18
ENDBRANCH   1  12
BRANCH  11  20
ATOM     20  C   UNL     1       7.533 -18.355 -39.176  1.00  0.00     0.188 C 
ATOM     21  C   UNL     1       8.180 -16.970 -38.927  1.00  0.00     0.179 C 
ATOM     22  O   UNL     1       6.120 -18.251 -39.246  1.00  0.00    -0.362 OA
ATOM     23  C   UNL     1       7.732 -15.964 -40.011  1.00  0.00     0.177 C 
ATOM     24  C   UNL     1       5.722 -17.470 -40.363  1.00  0.00     0.176 C 
ATOM     25  C   UNL     1       6.205 -16.005 -40.207  1.00  0.00     0.177 C 
BRANCH  21  26
ATOM     26  O   UNL     1       7.899 -16.479 -37.637  1.00  0.00    -0.387 OA
ATOM     27  H   UNL     1       6.972 -16.131 -37.633  1.00  0.00     0.211 HD
ENDBRANCH  21  26
BRANCH  23  28
ATOM     28  O   UNL     1       8.369 -16.264 -41.228  1.00  0.00    -0.387 OA
ATOM     29  H   UNL     1       7.704 -16.103 -41.949  1.00  0.00     0.211 HD
ENDBRANCH  23  28
BRANCH  24  30
ATOM     30  C   UNL     1       4.193 -17.554 -40.493  1.00  0.00     0.191 C 
BRANCH  30  31
ATOM     31  O   UNL     1       3.766 -17.136 -41.762  1.00  0.00    -0.394 OA
ATOM     32  H   UNL     1       3.044 -17.759 -42.040  1.00  0.00     0.210 HD
ENDBRANCH  30  31
ENDBRANCH  24  30
BRANCH  25  33
ATOM     33  O   UNL     1       5.869 -15.255 -41.348  1.00  0.00    -0.388 OA
ATOM     34  H   UNL     1       6.038 -15.830 -42.139  1.00  0.00     0.211 HD
ENDBRANCH  25  33
ENDBRANCH  11  20
BRANCH  10  35
ATOM     35  O   UNL     1       6.128 -18.649 -36.620  1.00  0.00    -0.507 OA
ATOM     36  H   UNL     1       5.373 -18.564 -37.290  1.00  0.00     0.293 HD
ENDBRANCH  10  35
TORSDOF 9
ENDMDL
