MODEL 1
REMARK VINA RESULT:    -1.819      0.000      0.000
REMARK INTER + INTRA:          -1.819
REMARK INTER:                  -1.819
REMARK INTRA:                   0.000
REMARK UNBOUND:                 0.000
REMARK SMILES C=C1c2ccccc2-c2ccccc21
REMARK SMILES IDX 1 1 2 2 3 3 4 4 5 5 6 6 7 7 8 8 9 9 10 10 11 11 12 12 13 13
REMARK SMILES IDX 14 14
REMARK H PARENT
REMARK Flexibility Score: inf
ROOT
ATOM      1  C   UNL     1     -16.691 -23.576  81.801  1.00  0.00     0.018 C 
ATOM      2  C   UNL     1     -15.653 -23.074  82.469  1.00  0.00    -0.017 C 
ATOM      3  C   UNL     1     -15.116 -23.536  83.756  1.00  0.00    -0.010 A 
ATOM      4  C   UNL     1     -15.534 -24.581  84.584  1.00  0.00     0.009 A 
ATOM      5  C   UNL     1     -14.829 -24.808  85.778  1.00  0.00     0.001 A 
ATOM      6  C   UNL     1     -13.729 -23.997  86.125  1.00  0.00     0.001 A 
ATOM      7  C   UNL     1     -13.322 -22.950  85.281  1.00  0.00     0.009 A 
ATOM      8  C   UNL     1     -14.034 -22.741  84.100  1.00  0.00    -0.010 A 
ATOM      9  C   UNL     1     -13.839 -21.745  83.052  1.00  0.00    -0.010 A 
ATOM     10  C   UNL     1     -12.889 -20.730  82.943  1.00  0.00     0.009 A 
ATOM     11  C   UNL     1     -12.929 -19.901  81.811  1.00  0.00     0.001 A 
ATOM     12  C   UNL     1     -13.909 -20.097  80.817  1.00  0.00     0.001 A 
ATOM     13  C   UNL     1     -14.860 -21.125  80.944  1.00  0.00     0.009 A 
ATOM     14  C   UNL     1     -14.804 -21.941  82.076  1.00  0.00    -0.010 A 
ENDROOT
TORSDOF 0
ENDMDL
MODEL 2
REMARK VINA RESULT:    -1.810      0.763      4.334
REMARK INTER + INTRA:          -1.810
REMARK INTER:                  -1.810
REMARK INTRA:                   0.000
REMARK UNBOUND:                 0.000
REMARK SMILES C=C1c2ccccc2-c2ccccc21
REMARK SMILES IDX 1 1 2 2 3 3 4 4 5 5 6 6 7 7 8 8 9 9 10 10 11 11 12 12 13 13
REMARK SMILES IDX 14 14
REMARK H PARENT
REMARK Flexibility Score: inf
ROOT
ATOM      1  C   UNL     1     -16.997 -22.832  81.583  1.00  0.00     0.018 C 
ATOM      2  C   UNL     1     -15.869 -22.401  82.145  1.00  0.00    -0.017 C 
ATOM      3  C   UNL     1     -14.956 -21.370  81.631  1.00  0.00    -0.010 A 
ATOM      4  C   UNL     1     -15.030 -20.602  80.466  1.00  0.00     0.009 A 
ATOM      5  C   UNL     1     -14.005 -19.673  80.215  1.00  0.00     0.001 A 
ATOM      6  C   UNL     1     -12.933 -19.527  81.120  1.00  0.00     0.001 A 
ATOM      7  C   UNL     1     -12.875 -20.308  82.286  1.00  0.00     0.009 A 
ATOM      8  C   UNL     1     -13.902 -21.223  82.519  1.00  0.00    -0.010 A 
ATOM      9  C   UNL     1     -14.098 -22.151  83.628  1.00  0.00    -0.010 A 
ATOM     10  C   UNL     1     -13.314 -22.375  84.759  1.00  0.00     0.009 A 
ATOM     11  C   UNL     1     -13.744 -23.341  85.683  1.00  0.00     0.001 A 
ATOM     12  C   UNL     1     -14.936 -24.060  85.463  1.00  0.00     0.001 A 
ATOM     13  C   UNL     1     -15.713 -23.820  84.316  1.00  0.00     0.009 A 
ATOM     14  C   UNL     1     -15.271 -22.855  83.408  1.00  0.00    -0.010 A 
ENDROOT
TORSDOF 0
ENDMDL
MODEL 3
REMARK VINA RESULT:    -1.656      1.095      4.339
REMARK INTER + INTRA:          -1.656
REMARK INTER:                  -1.656
REMARK INTRA:                   0.000
REMARK UNBOUND:                 0.000
REMARK SMILES C=C1c2ccccc2-c2ccccc21
REMARK SMILES IDX 1 1 2 2 3 3 4 4 5 5 6 6 7 7 8 8 9 9 10 10 11 11 12 12 13 13
REMARK SMILES IDX 14 14
REMARK H PARENT
REMARK Flexibility Score: inf
ROOT
ATOM      1  C   UNL     1     -16.506 -23.703  81.094  1.00  0.00     0.018 C 
ATOM      2  C   UNL     1     -15.900 -23.509  82.264  1.00  0.00    -0.017 C 
ATOM      3  C   UNL     1     -14.850 -22.527  82.571  1.00  0.00    -0.010 A 
ATOM      4  C   UNL     1     -14.239 -21.576  81.749  1.00  0.00     0.009 A 
ATOM      5  C   UNL     1     -13.249 -20.751  82.309  1.00  0.00     0.001 A 
ATOM      6  C   UNL     1     -12.887 -20.885  83.666  1.00  0.00     0.001 A 
ATOM      7  C   UNL     1     -13.512 -21.846  84.477  1.00  0.00     0.009 A 
ATOM      8  C   UNL     1     -14.493 -22.656  83.903  1.00  0.00    -0.010 A 
ATOM      9  C   UNL     1     -15.295 -23.720  84.497  1.00  0.00    -0.010 A 
ATOM     10  C   UNL     1     -15.301 -24.219  85.799  1.00  0.00     0.009 A 
ATOM     11  C   UNL     1     -16.189 -25.264  86.105  1.00  0.00     0.001 A 
ATOM     12  C   UNL     1     -17.045 -25.787  85.115  1.00  0.00     0.001 A 
ATOM     13  C   UNL     1     -17.024 -25.271  83.808  1.00  0.00     0.009 A 
ATOM     14  C   UNL     1     -16.136 -24.232  83.521  1.00  0.00    -0.010 A 
ENDROOT
TORSDOF 0
ENDMDL
MODEL 4
REMARK VINA RESULT:    -1.630      1.362      4.764
REMARK INTER + INTRA:          -1.630
REMARK INTER:                  -1.630
REMARK INTRA:                   0.000
REMARK UNBOUND:                 0.000
REMARK SMILES C=C1c2ccccc2-c2ccccc21
REMARK SMILES IDX 1 1 2 2 3 3 4 4 5 5 6 6 7 7 8 8 9 9 10 10 11 11 12 12 13 13
REMARK SMILES IDX 14 14
REMARK H PARENT
REMARK Flexibility Score: inf
ROOT
ATOM      1  C   UNL     1     -13.427 -24.101  86.111  1.00  0.00     0.018 C 
ATOM      2  C   UNL     1     -13.915 -23.895  84.889  1.00  0.00    -0.017 C 
ATOM      3  C   UNL     1     -13.684 -22.730  84.024  1.00  0.00    -0.010 A 
ATOM      4  C   UNL     1     -12.924 -21.579  84.246  1.00  0.00     0.009 A 
ATOM      5  C   UNL     1     -12.875 -20.607  83.233  1.00  0.00     0.001 A 
ATOM      6  C   UNL     1     -13.579 -20.795  82.026  1.00  0.00     0.001 A 
ATOM      7  C   UNL     1     -14.340 -21.958  81.819  1.00  0.00     0.009 A 
ATOM      8  C   UNL     1     -14.375 -22.912  82.836  1.00  0.00    -0.010 A 
ATOM      9  C   UNL     1     -15.070 -24.193  82.896  1.00  0.00    -0.010 A 
ATOM     10  C   UNL     1     -15.889 -24.815  81.954  1.00  0.00     0.009 A 
ATOM     11  C   UNL     1     -16.437 -26.067  82.274  1.00  0.00     0.001 A 
ATOM     12  C   UNL     1     -16.163 -26.670  83.518  1.00  0.00     0.001 A 
ATOM     13  C   UNL     1     -15.335 -26.027  84.456  1.00  0.00     0.009 A 
ATOM     14  C   UNL     1     -14.797 -24.783  84.120  1.00  0.00    -0.010 A 
ENDROOT
TORSDOF 0
ENDMDL
MODEL 5
REMARK VINA RESULT:    -1.594      8.236      8.309
REMARK INTER + INTRA:          -1.594
REMARK INTER:                  -1.594
REMARK INTRA:                   0.000
REMARK UNBOUND:                 0.000
REMARK SMILES C=C1c2ccccc2-c2ccccc21
REMARK SMILES IDX 1 1 2 2 3 3 4 4 5 5 6 6 7 7 8 8 9 9 10 10 11 11 12 12 13 13
REMARK SMILES IDX 14 14
REMARK H PARENT
REMARK Flexibility Score: inf
ROOT
ATOM      1  C   UNL     1     -17.706 -14.360  82.282  1.00  0.00     0.018 C 
ATOM      2  C   UNL     1     -16.390 -14.398  82.485  1.00  0.00    -0.017 C 
ATOM      3  C   UNL     1     -15.683 -14.275  83.768  1.00  0.00    -0.010 A 
ATOM      4  C   UNL     1     -16.186 -14.096  85.059  1.00  0.00     0.009 A 
ATOM      5  C   UNL     1     -15.273 -14.010  86.123  1.00  0.00     0.001 A 
ATOM      6  C   UNL     1     -13.886 -14.103  85.886  1.00  0.00     0.001 A 
ATOM      7  C   UNL     1     -13.397 -14.283  84.581  1.00  0.00     0.009 A 
ATOM      8  C   UNL     1     -14.320 -14.367  83.538  1.00  0.00    -0.010 A 
ATOM      9  C   UNL     1     -14.103 -14.549  82.107  1.00  0.00    -0.010 A 
ATOM     10  C   UNL     1     -12.915 -14.691  81.391  1.00  0.00     0.009 A 
ATOM     11  C   UNL     1     -12.995 -14.856  79.998  1.00  0.00     0.001 A 
ATOM     12  C   UNL     1     -14.248 -14.876  79.352  1.00  0.00     0.001 A 
ATOM     13  C   UNL     1     -15.434 -14.731  80.092  1.00  0.00     0.009 A 
ATOM     14  C   UNL     1     -15.336 -14.569  81.475  1.00  0.00    -0.010 A 
ENDROOT
TORSDOF 0
ENDMDL
MODEL 6
REMARK VINA RESULT:    -1.542      8.347      8.624
REMARK INTER + INTRA:          -1.542
REMARK INTER:                  -1.542
REMARK INTRA:                   0.000
REMARK UNBOUND:                 0.000
REMARK SMILES C=C1c2ccccc2-c2ccccc21
REMARK SMILES IDX 1 1 2 2 3 3 4 4 5 5 6 6 7 7 8 8 9 9 10 10 11 11 12 12 13 13
REMARK SMILES IDX 14 14
REMARK H PARENT
REMARK Flexibility Score: inf
ROOT
ATOM      1  C   UNL     1     -16.700 -14.619  81.233  1.00  0.00     0.018 C 
ATOM      2  C   UNL     1     -16.453 -14.540  82.540  1.00  0.00    -0.017 C 
ATOM      3  C   UNL     1     -17.384 -14.827  83.640  1.00  0.00    -0.010 A 
ATOM      4  C   UNL     1     -18.718 -15.243  83.606  1.00  0.00     0.009 A 
ATOM      5  C   UNL     1     -19.383 -15.448  84.826  1.00  0.00     0.001 A 
ATOM      6  C   UNL     1     -18.715 -15.237  86.050  1.00  0.00     0.001 A 
ATOM      7  C   UNL     1     -17.374 -14.818  86.066  1.00  0.00     0.009 A 
ATOM      8  C   UNL     1     -16.730 -14.621  84.844  1.00  0.00    -0.010 A 
ATOM      9  C   UNL     1     -15.364 -14.195  84.562  1.00  0.00    -0.010 A 
ATOM     10  C   UNL     1     -14.327 -13.869  85.436  1.00  0.00     0.009 A 
ATOM     11  C   UNL     1     -13.092 -13.486  84.887  1.00  0.00     0.001 A 
ATOM     12  C   UNL     1     -12.917 -13.434  83.489  1.00  0.00     0.001 A 
ATOM     13  C   UNL     1     -13.974 -13.766  82.625  1.00  0.00     0.009 A 
ATOM     14  C   UNL     1     -15.195 -14.146  83.187  1.00  0.00    -0.010 A 
ENDROOT
TORSDOF 0
ENDMDL
MODEL 7
REMARK VINA RESULT:    -1.541      1.173      1.847
REMARK INTER + INTRA:          -1.541
REMARK INTER:                  -1.541
REMARK INTRA:                   0.000
REMARK UNBOUND:                 0.000
REMARK SMILES C=C1c2ccccc2-c2ccccc21
REMARK SMILES IDX 1 1 2 2 3 3 4 4 5 5 6 6 7 7 8 8 9 9 10 10 11 11 12 12 13 13
REMARK SMILES IDX 14 14
REMARK H PARENT
REMARK Flexibility Score: inf
ROOT
ATOM      1  C   UNL     1     -15.787 -24.180  80.861  1.00  0.00     0.018 C 
ATOM      2  C   UNL     1     -15.308 -23.938  82.080  1.00  0.00    -0.017 C 
ATOM      3  C   UNL     1     -15.521 -24.739  83.295  1.00  0.00    -0.010 A 
ATOM      4  C   UNL     1     -16.250 -25.916  83.481  1.00  0.00     0.009 A 
ATOM      5  C   UNL     1     -16.286 -26.480  84.767  1.00  0.00     0.001 A 
ATOM      6  C   UNL     1     -15.603 -25.867  85.838  1.00  0.00     0.001 A 
ATOM      7  C   UNL     1     -14.875 -24.683  85.633  1.00  0.00     0.009 A 
ATOM      8  C   UNL     1     -14.850 -24.139  84.348  1.00  0.00    -0.010 A 
ATOM      9  C   UNL     1     -14.187 -22.938  83.852  1.00  0.00    -0.010 A 
ATOM     10  C   UNL     1     -13.397 -22.005  84.524  1.00  0.00     0.009 A 
ATOM     11  C   UNL     1     -12.875 -20.927  83.792  1.00  0.00     0.001 A 
ATOM     12  C   UNL     1     -13.149 -20.798  82.415  1.00  0.00     0.001 A 
ATOM     13  C   UNL     1     -13.948 -21.748  81.755  1.00  0.00     0.009 A 
ATOM     14  C   UNL     1     -14.458 -22.815  82.498  1.00  0.00    -0.010 A 
ENDROOT
TORSDOF 0
ENDMDL
