MODEL 1
REMARK VINA RESULT:    -2.764      0.000      0.000
REMARK INTER + INTRA:          -3.281
REMARK INTER:                  -3.249
REMARK INTRA:                  -0.032
REMARK UNBOUND:                -0.032
REMARK SMILES O=C([O-])CCC(=O)[O-]
REMARK SMILES IDX 4 1 2 2 1 3 3 4 5 5 6 6 7 7 8 8
REMARK H PARENT
REMARK Flexibility Score: inf
ROOT
ATOM      1  C   UNL     1      39.529  19.258  80.075  1.00  0.00     0.059 C 
ENDROOT
BRANCH   1   2
ATOM      2  C   UNL     1      38.074  18.911  80.081  1.00  0.00     0.042 C 
ATOM      3  O   UNL     1      37.699  17.745  79.790  1.00  0.00    -0.550 OA
ATOM      4  O   UNL     1      37.128  19.889  80.359  1.00  0.00    -0.550 OA
ENDBRANCH   1   2
BRANCH   1   5
ATOM      5  C   UNL     1      39.761  20.582  79.347  1.00  0.00     0.059 C 
BRANCH   5   6
ATOM      6  C   UNL     1      40.932  20.474  78.421  1.00  0.00     0.042 C 
ATOM      7  O   UNL     1      40.845  20.894  77.237  1.00  0.00    -0.550 OA
ATOM      8  O   UNL     1      42.135  19.954  78.881  1.00  0.00    -0.550 OA
ENDBRANCH   5   6
ENDBRANCH   1   5
TORSDOF 3
ENDMDL
MODEL 2
REMARK VINA RESULT:    -2.750      0.118      4.127
REMARK INTER + INTRA:          -3.265
REMARK INTER:                  -3.233
REMARK INTRA:                  -0.032
REMARK UNBOUND:                -0.032
REMARK SMILES O=C([O-])CCC(=O)[O-]
REMARK SMILES IDX 4 1 2 2 1 3 3 4 5 5 6 6 7 7 8 8
REMARK H PARENT
REMARK Flexibility Score: inf
ROOT
ATOM      1  C   UNL     1      39.727  20.564  79.263  1.00  0.00     0.059 C 
ENDROOT
BRANCH   1   2
ATOM      2  C   UNL     1      40.965  20.432  78.434  1.00  0.00     0.042 C 
ATOM      3  O   UNL     1      41.998  19.900  78.917  1.00  0.00    -0.550 OA
ATOM      4  O   UNL     1      40.993  20.941  77.142  1.00  0.00    -0.550 OA
ENDBRANCH   1   2
BRANCH   1   5
ATOM      5  C   UNL     1      39.484  19.289  80.070  1.00  0.00     0.059 C 
BRANCH   5   6
ATOM      6  C   UNL     1      38.025  18.956  80.097  1.00  0.00     0.042 C 
ATOM      7  O   UNL     1      37.632  17.804  79.779  1.00  0.00    -0.550 OA
ATOM      8  O   UNL     1      37.104  19.905  80.523  1.00  0.00    -0.550 OA
ENDBRANCH   5   6
ENDBRANCH   1   5
TORSDOF 3
ENDMDL
MODEL 3
REMARK VINA RESULT:    -2.727      7.482      8.600
REMARK INTER + INTRA:          -3.237
REMARK INTER:                  -3.123
REMARK INTRA:                  -0.114
REMARK UNBOUND:                -0.032
REMARK SMILES O=C([O-])CCC(=O)[O-]
REMARK SMILES IDX 4 1 2 2 1 3 3 4 5 5 6 6 7 7 8 8
REMARK H PARENT
REMARK Flexibility Score: inf
ROOT
ATOM      1  C   UNL     1      46.618  20.278  77.153  1.00  0.00     0.059 C 
ENDROOT
BRANCH   1   2
ATOM      2  C   UNL     1      48.033  20.196  77.634  1.00  0.00     0.042 C 
ATOM      3  O   UNL     1      48.954  20.767  76.993  1.00  0.00    -0.550 OA
ATOM      4  O   UNL     1      48.341  19.448  78.763  1.00  0.00    -0.550 OA
ENDBRANCH   1   2
BRANCH   1   5
ATOM      5  C   UNL     1      45.886  18.962  77.419  1.00  0.00     0.059 C 
BRANCH   5   6
ATOM      6  C   UNL     1      46.073  18.018  76.273  1.00  0.00     0.042 C 
ATOM      7  O   UNL     1      46.252  18.461  75.109  1.00  0.00    -0.550 OA
ATOM      8  O   UNL     1      46.098  16.648  76.500  1.00  0.00    -0.550 OA
ENDBRANCH   5   6
ENDBRANCH   1   5
TORSDOF 3
ENDMDL
MODEL 4
REMARK VINA RESULT:    -2.708      7.463      8.233
REMARK INTER + INTRA:          -3.215
REMARK INTER:                  -3.108
REMARK INTRA:                  -0.106
REMARK UNBOUND:                -0.032
REMARK SMILES O=C([O-])CCC(=O)[O-]
REMARK SMILES IDX 4 1 2 2 1 3 3 4 5 5 6 6 7 7 8 8
REMARK H PARENT
REMARK Flexibility Score: inf
ROOT
ATOM      1  C   UNL     1      45.953  18.885  77.541  1.00  0.00     0.059 C 
ENDROOT
BRANCH   1   2
ATOM      2  C   UNL     1      46.090  18.009  76.336  1.00  0.00     0.042 C 
ATOM      3  O   UNL     1      46.250  18.518  75.196  1.00  0.00    -0.550 OA
ATOM      4  O   UNL     1      45.991  16.629  76.465  1.00  0.00    -0.550 OA
ENDBRANCH   1   2
BRANCH   1   5
ATOM      5  C   UNL     1      46.640  20.230  77.306  1.00  0.00     0.059 C 
BRANCH   5   6
ATOM      6  C   UNL     1      48.065  20.178  77.759  1.00  0.00     0.042 C 
ATOM      7  O   UNL     1      48.372  19.570  78.817  1.00  0.00    -0.550 OA
ATOM      8  O   UNL     1      49.062  20.758  76.985  1.00  0.00    -0.550 OA
ENDBRANCH   5   6
ENDBRANCH   1   5
TORSDOF 3
ENDMDL
MODEL 5
REMARK VINA RESULT:    -2.679     13.004     14.402
REMARK INTER + INTRA:          -3.181
REMARK INTER:                  -3.094
REMARK INTRA:                  -0.087
REMARK UNBOUND:                -0.032
REMARK SMILES O=C([O-])CCC(=O)[O-]
REMARK SMILES IDX 4 1 2 2 1 3 3 4 5 5 6 6 7 7 8 8
REMARK H PARENT
REMARK Flexibility Score: inf
ROOT
ATOM      1  C   UNL     1      51.829  18.122  84.690  1.00  0.00     0.059 C 
ENDROOT
BRANCH   1   2
ATOM      2  C   UNL     1      50.703  18.887  85.311  1.00  0.00     0.042 C 
ATOM      3  O   UNL     1      50.922  19.675  86.267  1.00  0.00    -0.550 OA
ATOM      4  O   UNL     1      49.402  18.691  84.864  1.00  0.00    -0.550 OA
ENDBRANCH   1   2
BRANCH   1   5
ATOM      5  C   UNL     1      53.039  19.031  84.474  1.00  0.00     0.059 C 
BRANCH   5   6
ATOM      6  C   UNL     1      54.292  18.355  84.935  1.00  0.00     0.042 C 
ATOM      7  O   UNL     1      54.321  17.760  86.044  1.00  0.00    -0.550 OA
ATOM      8  O   UNL     1      55.414  18.339  84.116  1.00  0.00    -0.550 OA
ENDBRANCH   5   6
ENDBRANCH   1   5
TORSDOF 3
ENDMDL
MODEL 6
REMARK VINA RESULT:    -2.675      7.244      8.401
REMARK INTER + INTRA:          -3.176
REMARK INTER:                  -3.056
REMARK INTRA:                  -0.120
REMARK UNBOUND:                -0.032
REMARK SMILES O=C([O-])CCC(=O)[O-]
REMARK SMILES IDX 4 1 2 2 1 3 3 4 5 5 6 6 7 7 8 8
REMARK H PARENT
REMARK Flexibility Score: inf
ROOT
ATOM      1  C   UNL     1      46.319  18.718  75.082  1.00  0.00     0.059 C 
ENDROOT
BRANCH   1   2
ATOM      2  C   UNL     1      45.978  18.024  76.363  1.00  0.00     0.042 C 
ATOM      3  O   UNL     1      45.627  18.690  77.372  1.00  0.00    -0.550 OA
ATOM      4  O   UNL     1      46.096  16.643  76.458  1.00  0.00    -0.550 OA
ENDBRANCH   1   2
BRANCH   1   5
ATOM      5  C   UNL     1      46.422  20.227  75.302  1.00  0.00     0.059 C 
BRANCH   5   6
ATOM      6  C   UNL     1      47.855  20.649  75.376  1.00  0.00     0.042 C 
ATOM      7  O   UNL     1      48.449  20.686  76.486  1.00  0.00    -0.550 OA
ATOM      8  O   UNL     1      48.551  20.955  74.213  1.00  0.00    -0.550 OA
ENDBRANCH   5   6
ENDBRANCH   1   5
TORSDOF 3
ENDMDL
MODEL 7
REMARK VINA RESULT:    -2.651     13.243     15.030
REMARK INTER + INTRA:          -3.148
REMARK INTER:                  -3.052
REMARK INTRA:                  -0.096
REMARK UNBOUND:                -0.032
REMARK SMILES O=C([O-])CCC(=O)[O-]
REMARK SMILES IDX 4 1 2 2 1 3 3 4 5 5 6 6 7 7 8 8
REMARK H PARENT
REMARK Flexibility Score: inf
ROOT
ATOM      1  C   UNL     1      53.313  19.018  84.516  1.00  0.00     0.059 C 
ENDROOT
BRANCH   1   2
ATOM      2  C   UNL     1      54.513  18.250  84.974  1.00  0.00     0.042 C 
ATOM      3  O   UNL     1      54.550  17.764  86.134  1.00  0.00    -0.550 OA
ATOM      4  O   UNL     1      55.613  18.115  84.135  1.00  0.00    -0.550 OA
ENDBRANCH   1   2
BRANCH   1   5
ATOM      5  C   UNL     1      52.073  18.125  84.519  1.00  0.00     0.059 C 
BRANCH   5   6
ATOM      6  C   UNL     1      50.962  18.774  85.283  1.00  0.00     0.042 C 
ATOM      7  O   UNL     1      49.764  18.471  85.041  1.00  0.00    -0.550 OA
ATOM      8  O   UNL     1      51.251  19.677  86.298  1.00  0.00    -0.550 OA
ENDBRANCH   5   6
ENDBRANCH   1   5
TORSDOF 3
ENDMDL
MODEL 8
REMARK VINA RESULT:    -2.620     14.991     16.522
REMARK INTER + INTRA:          -3.111
REMARK INTER:                  -2.990
REMARK INTRA:                  -0.121
REMARK UNBOUND:                -0.032
REMARK SMILES O=C([O-])CCC(=O)[O-]
REMARK SMILES IDX 4 1 2 2 1 3 3 4 5 5 6 6 7 7 8 8
REMARK H PARENT
REMARK Flexibility Score: inf
ROOT
ATOM      1  C   UNL     1      54.712  19.059  84.756  1.00  0.00     0.059 C 
ENDROOT
BRANCH   1   2
ATOM      2  C   UNL     1      53.261  18.821  85.033  1.00  0.00     0.042 C 
ATOM      3  O   UNL     1      52.562  18.154  84.226  1.00  0.00    -0.550 OA
ATOM      4  O   UNL     1      52.669  19.378  86.160  1.00  0.00    -0.550 OA
ENDBRANCH   1   2
BRANCH   1   5
ATOM      5  C   UNL     1      55.443  17.732  84.552  1.00  0.00     0.059 C 
BRANCH   5   6
ATOM      6  C   UNL     1      55.791  17.117  85.871  1.00  0.00     0.042 C 
ATOM      7  O   UNL     1      55.979  15.875  85.962  1.00  0.00    -0.550 OA
ATOM      8  O   UNL     1      55.955  17.921  86.991  1.00  0.00    -0.550 OA
ENDBRANCH   5   6
ENDBRANCH   1   5
TORSDOF 3
ENDMDL
MODEL 9
REMARK VINA RESULT:    -2.608     14.787     16.457
REMARK INTER + INTRA:          -3.097
REMARK INTER:                  -3.011
REMARK INTRA:                  -0.086
REMARK UNBOUND:                -0.032
REMARK SMILES O=C([O-])CCC(=O)[O-]
REMARK SMILES IDX 4 1 2 2 1 3 3 4 5 5 6 6 7 7 8 8
REMARK H PARENT
REMARK Flexibility Score: inf
ROOT
ATOM      1  C   UNL     1      55.293  17.740  84.534  1.00  0.00     0.059 C 
ENDROOT
BRANCH   1   2
ATOM      2  C   UNL     1      55.698  17.203  85.870  1.00  0.00     0.042 C 
ATOM      3  O   UNL     1      56.124  16.023  85.977  1.00  0.00    -0.550 OA
ATOM      4  O   UNL     1      55.557  17.990  87.007  1.00  0.00    -0.550 OA
ENDBRANCH   1   2
BRANCH   1   5
ATOM      5  C   UNL     1      54.706  19.145  84.676  1.00  0.00     0.059 C 
BRANCH   5   6
ATOM      6  C   UNL     1      53.224  19.116  84.479  1.00  0.00     0.042 C 
ATOM      7  O   UNL     1      52.551  18.127  84.870  1.00  0.00    -0.550 OA
ATOM      8  O   UNL     1      52.578  20.205  83.908  1.00  0.00    -0.550 OA
ENDBRANCH   5   6
ENDBRANCH   1   5
TORSDOF 3
ENDMDL
