MODEL 1
REMARK VINA RESULT:    -4.242      0.000      0.000
REMARK INTER + INTRA:          -5.941
REMARK INTER:                  -5.482
REMARK INTRA:                  -0.460
REMARK UNBOUND:                -0.460
REMARK SMILES CCO[C@@H]1O[C@@H](CO)[C@@H](O)[C@H](O)[C@@H]1O
REMARK SMILES IDX 4 1 13 2 11 3 9 4 6 5 5 6 3 7 2 8 1 9 14 10 12 12 7 14 8 15
REMARK SMILES IDX 10 17
REMARK H PARENT 14 11 12 13 8 16 10 18
REMARK Flexibility Score: inf
ROOT
ATOM      1  C   UNL     1      39.768 -16.804  12.661  1.00  0.00     0.281 C 
ATOM      2  C   UNL     1      39.872 -15.489  11.863  1.00  0.00     0.202 C 
ATOM      3  C   UNL     1      39.253 -14.311  12.643  1.00  0.00     0.179 C 
ATOM      4  C   UNL     1      39.805 -14.280  14.079  1.00  0.00     0.177 C 
ATOM      5  C   UNL     1      39.651 -15.679  14.721  1.00  0.00     0.178 C 
ATOM      6  O   UNL     1      40.338 -16.659  13.957  1.00  0.00    -0.341 OA
ENDROOT
BRANCH   1   7
ATOM      7  O   UNL     1      38.418 -17.235  12.730  1.00  0.00    -0.350 OA
BRANCH   7   8
ATOM      8  C   UNL     1      38.354 -18.646  12.725  1.00  0.00     0.160 C 
ATOM      9  C   UNL     1      39.316 -19.182  11.677  1.00  0.00     0.035 C 
ENDBRANCH   7   8
ENDBRANCH   1   7
BRANCH   2  10
ATOM     10  O   UNL     1      39.243 -15.641  10.618  1.00  0.00    -0.385 OA
ATOM     11  H   UNL     1      39.887 -16.110  10.026  1.00  0.00     0.211 HD
ENDBRANCH   2  10
BRANCH   3  12
ATOM     12  O   UNL     1      37.852 -14.435  12.662  1.00  0.00    -0.387 OA
ATOM     13  H   UNL     1      37.630 -15.262  12.160  1.00  0.00     0.211 HD
ENDBRANCH   3  12
BRANCH   5  14
ATOM     14  C   UNL     1      40.194 -15.696  16.156  1.00  0.00     0.191 C 
BRANCH  14  15
ATOM     15  O   UNL     1      41.595 -15.642  16.150  1.00  0.00    -0.394 OA
ATOM     16  H   UNL     1      41.861 -15.240  15.283  1.00  0.00     0.210 HD
ENDBRANCH  14  15
ENDBRANCH   5  14
BRANCH   4  17
ATOM     17  O   UNL     1      41.160 -13.903  14.040  1.00  0.00    -0.387 OA
ATOM     18  H   UNL     1      41.694 -14.708  14.272  1.00  0.00     0.211 HD
ENDBRANCH   4  17
TORSDOF 7
ENDMDL
MODEL 2
REMARK VINA RESULT:    -4.222      2.318      4.659
REMARK INTER + INTRA:          -5.916
REMARK INTER:                  -5.471
REMARK INTRA:                  -0.445
REMARK UNBOUND:                -0.460
REMARK SMILES CCO[C@@H]1O[C@@H](CO)[C@@H](O)[C@H](O)[C@@H]1O
REMARK SMILES IDX 4 1 13 2 11 3 9 4 6 5 5 6 3 7 2 8 1 9 14 10 12 12 7 14 8 15
REMARK SMILES IDX 10 17
REMARK H PARENT 14 11 12 13 8 16 10 18
REMARK Flexibility Score: inf
ROOT
ATOM      1  C   UNL     1      38.486 -12.980  12.107  1.00  0.00     0.281 C 
ATOM      2  C   UNL     1      39.818 -12.493  11.501  1.00  0.00     0.202 C 
ATOM      3  C   UNL     1      40.958 -13.492  11.786  1.00  0.00     0.179 C 
ATOM      4  C   UNL     1      40.520 -14.916  11.407  1.00  0.00     0.177 C 
ATOM      5  C   UNL     1      39.159 -15.230  12.069  1.00  0.00     0.178 C 
ATOM      6  O   UNL     1      38.173 -14.294  11.659  1.00  0.00    -0.341 OA
ENDROOT
BRANCH   1   7
ATOM      7  O   UNL     1      38.531 -12.907  13.523  1.00  0.00    -0.350 OA
BRANCH   7   8
ATOM      8  C   UNL     1      37.286 -12.475  14.031  1.00  0.00     0.160 C 
ATOM      9  C   UNL     1      37.362 -10.987  14.330  1.00  0.00     0.035 C 
ENDBRANCH   7   8
ENDBRANCH   1   7
BRANCH   2  10
ATOM     10  O   UNL     1      40.134 -11.224  12.012  1.00  0.00    -0.385 OA
ATOM     11  H   UNL     1      39.917 -11.243  12.981  1.00  0.00     0.211 HD
ENDBRANCH   2  10
BRANCH   3  12
ATOM     12  O   UNL     1      41.314 -13.436  13.146  1.00  0.00    -0.387 OA
ATOM     13  H   UNL     1      42.305 -13.444  13.184  1.00  0.00     0.211 HD
ENDBRANCH   3  12
BRANCH   5  14
ATOM     14  C   UNL     1      38.679 -16.645  11.714  1.00  0.00     0.191 C 
BRANCH  14  15
ATOM     15  O   UNL     1      39.774 -17.503  11.540  1.00  0.00    -0.394 OA
ATOM     16  H   UNL     1      40.122 -17.709  12.446  1.00  0.00     0.210 HD
ENDBRANCH  14  15
ENDBRANCH   5  14
BRANCH   4  17
ATOM     17  O   UNL     1      40.417 -15.006  10.006  1.00  0.00    -0.387 OA
ATOM     18  H   UNL     1      40.905 -15.826   9.728  1.00  0.00     0.211 HD
ENDBRANCH   4  17
TORSDOF 7
ENDMDL
MODEL 3
REMARK VINA RESULT:    -4.194      2.525      3.158
REMARK INTER + INTRA:          -5.880
REMARK INTER:                  -5.402
REMARK INTRA:                  -0.478
REMARK UNBOUND:                -0.460
REMARK SMILES CCO[C@@H]1O[C@@H](CO)[C@@H](O)[C@H](O)[C@@H]1O
REMARK SMILES IDX 4 1 13 2 11 3 9 4 6 5 5 6 3 7 2 8 1 9 14 10 12 12 7 14 8 15
REMARK SMILES IDX 10 17
REMARK H PARENT 14 11 12 13 8 16 10 18
REMARK Flexibility Score: inf
ROOT
ATOM      1  C   UNL     1      39.229 -14.958  11.842  1.00  0.00     0.281 C 
ATOM      2  C   UNL     1      40.117 -14.078  10.938  1.00  0.00     0.202 C 
ATOM      3  C   UNL     1      39.354 -12.828  10.454  1.00  0.00     0.179 C 
ATOM      4  C   UNL     1      38.686 -12.121  11.646  1.00  0.00     0.177 C 
ATOM      5  C   UNL     1      37.864 -13.148  12.460  1.00  0.00     0.178 C 
ATOM      6  O   UNL     1      38.695 -14.202  12.923  1.00  0.00    -0.341 OA
ENDROOT
BRANCH   1   7
ATOM      7  O   UNL     1      38.203 -15.573  11.079  1.00  0.00    -0.350 OA
BRANCH   7   8
ATOM      8  C   UNL     1      37.896 -16.846  11.608  1.00  0.00     0.160 C 
ATOM      9  C   UNL     1      39.183 -17.641  11.766  1.00  0.00     0.035 C 
ENDBRANCH   7   8
ENDBRANCH   1   7
BRANCH   2  10
ATOM     10  O   UNL     1      40.573 -14.831   9.846  1.00  0.00    -0.385 OA
ATOM     11  H   UNL     1      41.484 -15.151  10.078  1.00  0.00     0.211 HD
ENDBRANCH   2  10
BRANCH   3  12
ATOM     12  O   UNL     1      38.387 -13.197   9.502  1.00  0.00    -0.387 OA
ATOM     13  H   UNL     1      37.925 -12.364   9.223  1.00  0.00     0.211 HD
ENDBRANCH   3  12
BRANCH   5  14
ATOM     14  C   UNL     1      37.181 -12.486  13.665  1.00  0.00     0.191 C 
BRANCH  14  15
ATOM     15  O   UNL     1      38.110 -12.268  14.693  1.00  0.00    -0.394 OA
ATOM     16  H   UNL     1      37.684 -12.580  15.533  1.00  0.00     0.210 HD
ENDBRANCH  14  15
ENDBRANCH   5  14
BRANCH   4  17
ATOM     17  O   UNL     1      39.684 -11.541  12.452  1.00  0.00    -0.387 OA
ATOM     18  H   UNL     1      39.397 -10.611  12.649  1.00  0.00     0.211 HD
ENDBRANCH   4  17
TORSDOF 7
ENDMDL
MODEL 4
REMARK VINA RESULT:    -4.193      2.205      4.137
REMARK INTER + INTRA:          -5.878
REMARK INTER:                  -5.399
REMARK INTRA:                  -0.479
REMARK UNBOUND:                -0.460
REMARK SMILES CCO[C@@H]1O[C@@H](CO)[C@@H](O)[C@H](O)[C@@H]1O
REMARK SMILES IDX 4 1 13 2 11 3 9 4 6 5 5 6 3 7 2 8 1 9 14 10 12 12 7 14 8 15
REMARK SMILES IDX 10 17
REMARK H PARENT 14 11 12 13 8 16 10 18
REMARK Flexibility Score: inf
ROOT
ATOM      1  C   UNL     1      40.071 -13.090  12.005  1.00  0.00     0.281 C 
ATOM      2  C   UNL     1      38.958 -13.590  11.062  1.00  0.00     0.202 C 
ATOM      3  C   UNL     1      38.946 -15.130  10.979  1.00  0.00     0.179 C 
ATOM      4  C   UNL     1      38.961 -15.736  12.393  1.00  0.00     0.177 C 
ATOM      5  C   UNL     1      40.112 -15.106  13.211  1.00  0.00     0.178 C 
ATOM      6  O   UNL     1      39.961 -13.696  13.288  1.00  0.00    -0.341 OA
ENDROOT
BRANCH   1   7
ATOM      7  O   UNL     1      41.347 -13.317  11.428  1.00  0.00    -0.350 OA
BRANCH   7   8
ATOM      8  C   UNL     1      42.230 -12.267  11.764  1.00  0.00     0.160 C 
ATOM      9  C   UNL     1      41.670 -10.958  11.232  1.00  0.00     0.035 C 
ENDBRANCH   7   8
ENDBRANCH   1   7
BRANCH   2  10
ATOM     10  O   UNL     1      39.131 -13.028   9.787  1.00  0.00    -0.385 OA
ATOM     11  H   UNL     1      38.546 -13.538   9.168  1.00  0.00     0.211 HD
ENDBRANCH   2  10
BRANCH   3  12
ATOM     12  O   UNL     1      40.059 -15.577  10.245  1.00  0.00    -0.387 OA
ATOM     13  H   UNL     1      39.775 -15.630   9.296  1.00  0.00     0.211 HD
ENDBRANCH   3  12
BRANCH   5  14
ATOM     14  C   UNL     1      40.164 -15.679  14.634  1.00  0.00     0.191 C 
BRANCH  14  15
ATOM     15  O   UNL     1      39.358 -14.920  15.495  1.00  0.00    -0.394 OA
ATOM     16  H   UNL     1      38.425 -15.227  15.357  1.00  0.00     0.210 HD
ENDBRANCH  14  15
ENDBRANCH   5  14
BRANCH   4  17
ATOM     17  O   UNL     1      37.723 -15.483  13.013  1.00  0.00    -0.387 OA
ATOM     18  H   UNL     1      37.412 -16.339  13.407  1.00  0.00     0.211 HD
ENDBRANCH   4  17
TORSDOF 7
ENDMDL
MODEL 5
REMARK VINA RESULT:    -4.174      2.387      4.221
REMARK INTER + INTRA:          -5.853
REMARK INTER:                  -5.391
REMARK INTRA:                  -0.462
REMARK UNBOUND:                -0.460
REMARK SMILES CCO[C@@H]1O[C@@H](CO)[C@@H](O)[C@H](O)[C@@H]1O
REMARK SMILES IDX 4 1 13 2 11 3 9 4 6 5 5 6 3 7 2 8 1 9 14 10 12 12 7 14 8 15
REMARK SMILES IDX 10 17
REMARK H PARENT 14 11 12 13 8 16 10 18
REMARK Flexibility Score: inf
ROOT
ATOM      1  C   UNL     1      39.194 -14.858  13.663  1.00  0.00     0.281 C 
ATOM      2  C   UNL     1      37.825 -14.174  13.468  1.00  0.00     0.202 C 
ATOM      3  C   UNL     1      37.973 -12.836  12.714  1.00  0.00     0.179 C 
ATOM      4  C   UNL     1      38.821 -13.034  11.446  1.00  0.00     0.177 C 
ATOM      5  C   UNL     1      40.137 -13.757  11.814  1.00  0.00     0.178 C 
ATOM      6  O   UNL     1      39.867 -15.013  12.419  1.00  0.00    -0.341 OA
ENDROOT
BRANCH   1   7
ATOM      7  O   UNL     1      39.980 -14.134  14.596  1.00  0.00    -0.350 OA
BRANCH   7   8
ATOM      8  C   UNL     1      40.722 -15.022  15.405  1.00  0.00     0.160 C 
ATOM      9  C   UNL     1      39.772 -15.751  16.342  1.00  0.00     0.035 C 
ENDBRANCH   7   8
ENDBRANCH   1   7
BRANCH   2  10
ATOM     10  O   UNL     1      37.215 -13.973  14.715  1.00  0.00    -0.385 OA
ATOM     11  H   UNL     1      37.850 -13.440  15.263  1.00  0.00     0.211 HD
ENDBRANCH   2  10
BRANCH   3  12
ATOM     12  O   UNL     1      38.568 -11.878  13.555  1.00  0.00    -0.387 OA
ATOM     13  H   UNL     1      37.855 -11.541  14.157  1.00  0.00     0.211 HD
ENDBRANCH   3  12
BRANCH   5  14
ATOM     14  C   UNL     1      41.016 -13.980  10.575  1.00  0.00     0.191 C 
BRANCH  14  15
ATOM     15  O   UNL     1      40.538 -15.065   9.827  1.00  0.00    -0.394 OA
ATOM     16  H   UNL     1      41.004 -15.036   8.952  1.00  0.00     0.210 HD
ENDBRANCH  14  15
ENDBRANCH   5  14
BRANCH   4  17
ATOM     17  O   UNL     1      38.085 -13.794  10.518  1.00  0.00    -0.387 OA
ATOM     18  H   UNL     1      37.127 -13.710  10.764  1.00  0.00     0.211 HD
ENDBRANCH   4  17
TORSDOF 7
ENDMDL
MODEL 6
REMARK VINA RESULT:    -4.163      1.598      3.927
REMARK INTER + INTRA:          -5.839
REMARK INTER:                  -5.359
REMARK INTRA:                  -0.480
REMARK UNBOUND:                -0.460
REMARK SMILES CCO[C@@H]1O[C@@H](CO)[C@@H](O)[C@H](O)[C@@H]1O
REMARK SMILES IDX 4 1 13 2 11 3 9 4 6 5 5 6 3 7 2 8 1 9 14 10 12 12 7 14 8 15
REMARK SMILES IDX 10 17
REMARK H PARENT 14 11 12 13 8 16 10 18
REMARK Flexibility Score: inf
ROOT
ATOM      1  C   UNL     1      39.769 -15.139  12.226  1.00  0.00     0.281 C 
ATOM      2  C   UNL     1      40.279 -15.096  13.681  1.00  0.00     0.202 C 
ATOM      3  C   UNL     1      39.519 -16.102  14.569  1.00  0.00     0.179 C 
ATOM      4  C   UNL     1      39.496 -17.486  13.898  1.00  0.00     0.177 C 
ATOM      5  C   UNL     1      38.991 -17.345  12.443  1.00  0.00     0.178 C 
ATOM      6  O   UNL     1      39.825 -16.462  11.707  1.00  0.00    -0.341 OA
ENDROOT
BRANCH   1   7
ATOM      7  O   UNL     1      38.459 -14.601  12.145  1.00  0.00    -0.350 OA
BRANCH   7   8
ATOM      8  C   UNL     1      38.257 -13.991  10.888  1.00  0.00     0.160 C 
ATOM      9  C   UNL     1      39.441 -13.090  10.577  1.00  0.00     0.035 C 
ENDBRANCH   7   8
ENDBRANCH   1   7
BRANCH   2  10
ATOM     10  O   UNL     1      40.149 -13.794  14.189  1.00  0.00    -0.385 OA
ATOM     11  H   UNL     1      39.994 -13.881  15.166  1.00  0.00     0.211 HD
ENDBRANCH   2  10
BRANCH   3  12
ATOM     12  O   UNL     1      38.207 -15.647  14.793  1.00  0.00    -0.387 OA
ATOM     13  H   UNL     1      38.259 -14.660  14.893  1.00  0.00     0.211 HD
ENDBRANCH   3  12
BRANCH   5  14
ATOM     14  C   UNL     1      38.955 -18.705  11.731  1.00  0.00     0.191 C 
BRANCH  14  15
ATOM     15  O   UNL     1      40.240 -19.066  11.302  1.00  0.00    -0.394 OA
ATOM     16  H   UNL     1      40.164 -19.970  10.902  1.00  0.00     0.210 HD
ENDBRANCH  14  15
ENDBRANCH   5  14
BRANCH   4  17
ATOM     17  O   UNL     1      40.795 -18.027  13.918  1.00  0.00    -0.387 OA
ATOM     18  H   UNL     1      40.973 -18.328  14.847  1.00  0.00     0.211 HD
ENDBRANCH   4  17
TORSDOF 7
ENDMDL
MODEL 7
REMARK VINA RESULT:    -4.074      3.017      4.781
REMARK INTER + INTRA:          -5.724
REMARK INTER:                  -5.394
REMARK INTRA:                  -0.330
REMARK UNBOUND:                -0.460
REMARK SMILES CCO[C@@H]1O[C@@H](CO)[C@@H](O)[C@H](O)[C@@H]1O
REMARK SMILES IDX 4 1 13 2 11 3 9 4 6 5 5 6 3 7 2 8 1 9 14 10 12 12 7 14 8 15
REMARK SMILES IDX 10 17
REMARK H PARENT 14 11 12 13 8 16 10 18
REMARK Flexibility Score: inf
ROOT
ATOM      1  C   UNL     1      38.255 -13.164  11.289  1.00  0.00     0.281 C 
ATOM      2  C   UNL     1      38.842 -14.517  11.740  1.00  0.00     0.202 C 
ATOM      3  C   UNL     1      40.308 -14.668  11.287  1.00  0.00     0.179 C 
ATOM      4  C   UNL     1      41.113 -13.416  11.675  1.00  0.00     0.177 C 
ATOM      5  C   UNL     1      40.373 -12.153  11.177  1.00  0.00     0.178 C 
ATOM      6  O   UNL     1      39.068 -12.084  11.732  1.00  0.00    -0.341 OA
ENDROOT
BRANCH   1   7
ATOM      7  O   UNL     1      38.083 -13.145   9.881  1.00  0.00    -0.350 OA
BRANCH   7   8
ATOM      8  C   UNL     1      36.746 -12.829   9.555  1.00  0.00     0.160 C 
ATOM      9  C   UNL     1      36.660 -12.503   8.072  1.00  0.00     0.035 C 
ENDBRANCH   7   8
ENDBRANCH   1   7
BRANCH   2  10
ATOM     10  O   UNL     1      38.058 -15.565  11.231  1.00  0.00    -0.385 OA
ATOM     11  H   UNL     1      37.695 -15.255  10.361  1.00  0.00     0.211 HD
ENDBRANCH   2  10
BRANCH   3  12
ATOM     12  O   UNL     1      40.361 -14.870   9.896  1.00  0.00    -0.387 OA
ATOM     13  H   UNL     1      39.422 -14.924   9.578  1.00  0.00     0.211 HD
ENDBRANCH   3  12
BRANCH   5  14
ATOM     14  C   UNL     1      41.139 -10.875  11.546  1.00  0.00     0.191 C 
BRANCH  14  15
ATOM     15  O   UNL     1      42.424 -11.193  12.008  1.00  0.00    -0.394 OA
ATOM     16  H   UNL     1      42.811 -11.834  11.358  1.00  0.00     0.210 HD
ENDBRANCH  14  15
ENDBRANCH   5  14
BRANCH   4  17
ATOM     17  O   UNL     1      41.258 -13.380  13.075  1.00  0.00    -0.387 OA
ATOM     18  H   UNL     1      42.222 -13.512  13.273  1.00  0.00     0.211 HD
ENDBRANCH   4  17
TORSDOF 7
ENDMDL
MODEL 8
REMARK VINA RESULT:    -4.035      2.347      4.217
REMARK INTER + INTRA:          -5.675
REMARK INTER:                  -5.294
REMARK INTRA:                  -0.380
REMARK UNBOUND:                -0.460
REMARK SMILES CCO[C@@H]1O[C@@H](CO)[C@@H](O)[C@H](O)[C@@H]1O
REMARK SMILES IDX 4 1 13 2 11 3 9 4 6 5 5 6 3 7 2 8 1 9 14 10 12 12 7 14 8 15
REMARK SMILES IDX 10 17
REMARK H PARENT 14 11 12 13 8 16 10 18
REMARK Flexibility Score: inf
ROOT
ATOM      1  C   UNL     1      37.474 -18.656  12.528  1.00  0.00     0.281 C 
ATOM      2  C   UNL     1      38.804 -18.910  13.267  1.00  0.00     0.202 C 
ATOM      3  C   UNL     1      39.998 -18.328  12.482  1.00  0.00     0.179 C 
ATOM      4  C   UNL     1      39.710 -16.871  12.084  1.00  0.00     0.177 C 
ATOM      5  C   UNL     1      38.333 -16.790  11.386  1.00  0.00     0.178 C 
ATOM      6  O   UNL     1      37.307 -17.271  12.242  1.00  0.00    -0.341 OA
ENDROOT
BRANCH   1   7
ATOM      7  O   UNL     1      37.404 -19.444  11.350  1.00  0.00    -0.350 OA
BRANCH   7   8
ATOM      8  C   UNL     1      36.058 -19.705  11.015  1.00  0.00     0.160 C 
ATOM      9  C   UNL     1      35.859 -19.459   9.528  1.00  0.00     0.035 C 
ENDBRANCH   7   8
ENDBRANCH   1   7
BRANCH   2  10
ATOM     10  O   UNL     1      38.974 -20.288  13.474  1.00  0.00    -0.385 OA
ATOM     11  H   UNL     1      39.630 -20.388  14.213  1.00  0.00     0.211 HD
ENDBRANCH   2  10
BRANCH   3  12
ATOM     12  O   UNL     1      40.242 -19.108  11.337  1.00  0.00    -0.387 OA
ATOM     13  H   UNL     1      39.359 -19.412  11.003  1.00  0.00     0.211 HD
ENDBRANCH   3  12
BRANCH   5  14
ATOM     14  C   UNL     1      38.000 -15.349  10.974  1.00  0.00     0.191 C 
BRANCH  14  15
ATOM     15  O   UNL     1      39.137 -14.716  10.452  1.00  0.00    -0.394 OA
ATOM     16  H   UNL     1      39.241 -15.038   9.520  1.00  0.00     0.210 HD
ENDBRANCH  14  15
ENDBRANCH   5  14
BRANCH   4  17
ATOM     17  O   UNL     1      39.723 -16.069  13.241  1.00  0.00    -0.387 OA
ATOM     18  H   UNL     1      38.845 -16.188  13.689  1.00  0.00     0.211 HD
ENDBRANCH   4  17
TORSDOF 7
ENDMDL
MODEL 9
REMARK VINA RESULT:    -4.019      2.607      4.734
REMARK INTER + INTRA:          -5.654
REMARK INTER:                  -5.194
REMARK INTRA:                  -0.460
REMARK UNBOUND:                -0.460
REMARK SMILES CCO[C@@H]1O[C@@H](CO)[C@@H](O)[C@H](O)[C@@H]1O
REMARK SMILES IDX 4 1 13 2 11 3 9 4 6 5 5 6 3 7 2 8 1 9 14 10 12 12 7 14 8 15
REMARK SMILES IDX 10 17
REMARK H PARENT 14 11 12 13 8 16 10 18
REMARK Flexibility Score: inf
ROOT
ATOM      1  C   UNL     1      39.488 -13.087  10.697  1.00  0.00     0.281 C 
ATOM      2  C   UNL     1      39.214 -14.591  10.897  1.00  0.00     0.202 C 
ATOM      3  C   UNL     1      39.126 -14.948  12.395  1.00  0.00     0.179 C 
ATOM      4  C   UNL     1      38.169 -13.981  13.113  1.00  0.00     0.177 C 
ATOM      5  C   UNL     1      38.565 -12.524  12.782  1.00  0.00     0.178 C 
ATOM      6  O   UNL     1      38.522 -12.298  11.381  1.00  0.00    -0.341 OA
ENDROOT
BRANCH   1   7
ATOM      7  O   UNL     1      40.809 -12.767  11.106  1.00  0.00    -0.350 OA
BRANCH   7   8
ATOM      8  C   UNL     1      41.345 -11.754  10.280  1.00  0.00     0.160 C 
ATOM      9  C   UNL     1      41.046 -12.089   8.827  1.00  0.00     0.035 C 
ENDBRANCH   7   8
ENDBRANCH   1   7
BRANCH   2  10
ATOM     10  O   UNL     1      40.219 -15.343  10.269  1.00  0.00    -0.385 OA
ATOM     11  H   UNL     1      39.794 -15.805   9.500  1.00  0.00     0.211 HD
ENDBRANCH   2  10
BRANCH   3  12
ATOM     12  O   UNL     1      40.405 -14.889  12.976  1.00  0.00    -0.387 OA
ATOM     13  H   UNL     1      40.387 -14.150  13.638  1.00  0.00     0.211 HD
ENDBRANCH   3  12
BRANCH   5  14
ATOM     14  C   UNL     1      37.632 -11.521  13.476  1.00  0.00     0.191 C 
BRANCH  14  15
ATOM     15  O   UNL     1      37.269 -11.990  14.747  1.00  0.00    -0.394 OA
ATOM     16  H   UNL     1      36.462 -11.482  15.019  1.00  0.00     0.210 HD
ENDBRANCH  14  15
ENDBRANCH   5  14
BRANCH   4  17
ATOM     17  O   UNL     1      36.852 -14.241  12.689  1.00  0.00    -0.387 OA
ATOM     18  H   UNL     1      36.845 -15.153  12.296  1.00  0.00     0.211 HD
ENDBRANCH   4  17
TORSDOF 7
ENDMDL
