MODEL 1
REMARK VINA RESULT:    -3.527      0.000      0.000
REMARK INTER + INTRA:          -9.258
REMARK INTER:                  -8.062
REMARK INTRA:                  -1.196
REMARK UNBOUND:                -1.196
REMARK SMILES CCCCCCCCCCCCCCCCCCCCCCCC(=O)[O-]
REMARK SMILES IDX 13 1 14 2 15 3 16 4 17 5 18 6 19 7 20 8 21 9 22 10 23 11
REMARK SMILES IDX 24 12 25 13 26 14 12 15 11 16 10 17 9 18 8 19 7 20 6 21 5 22
REMARK SMILES IDX 4 23 3 24 2 25 1 26
REMARK H PARENT
REMARK Flexibility Score: inf
ROOT
ATOM      1  C   UNL     1       3.330  23.448  25.800  1.00  0.00     0.000 C 
ENDROOT
BRANCH   1   2
ATOM      2  C   UNL     1       4.443  24.202  25.051  1.00  0.00     0.000 C 
BRANCH   2   3
ATOM      3  C   UNL     1       5.748  24.293  25.869  1.00  0.00     0.000 C 
BRANCH   3   4
ATOM      4  C   UNL     1       5.975  23.096  26.808  1.00  0.00     0.000 C 
BRANCH   4   5
ATOM      5  C   UNL     1       6.782  21.962  26.153  1.00  0.00     0.000 C 
BRANCH   5   6
ATOM      6  C   UNL     1       6.817  20.691  27.027  1.00  0.00     0.000 C 
BRANCH   6   7
ATOM      7  C   UNL     1       5.618  19.753  26.799  1.00  0.00     0.000 C 
BRANCH   7   8
ATOM      8  C   UNL     1       6.019  18.415  26.157  1.00  0.00     0.000 C 
BRANCH   8   9
ATOM      9  C   UNL     1       4.805  17.569  25.740  1.00  0.00     0.000 C 
BRANCH   9  10
ATOM     10  C   UNL     1       5.153  16.080  25.563  1.00  0.00     0.006 C 
BRANCH  10  11
ATOM     11  C   UNL     1       4.725  15.548  24.189  1.00  0.00     0.053 C 
BRANCH  11  12
ATOM     12  C   UNL     1       3.272  15.797  23.925  1.00  0.00     0.041 C 
ATOM     13  O   UNL     1       2.402  15.427  24.757  1.00  0.00    -0.550 OA
ATOM     14  O   UNL     1       2.879  16.465  22.771  1.00  0.00    -0.550 OA
ENDBRANCH  11  12
ENDBRANCH  10  11
ENDBRANCH   9  10
ENDBRANCH   8   9
ENDBRANCH   7   8
ENDBRANCH   6   7
ENDBRANCH   5   6
ENDBRANCH   4   5
ENDBRANCH   3   4
ENDBRANCH   2   3
ENDBRANCH   1   2
BRANCH   1  15
ATOM     15  C   UNL     1       1.917  23.810  25.305  1.00  0.00     0.000 C 
BRANCH  15  16
ATOM     16  C   UNL     1       1.188  22.700  24.523  1.00  0.00     0.000 C 
BRANCH  16  17
ATOM     17  C   UNL     1       1.902  22.315  23.216  1.00  0.00     0.000 C 
BRANCH  17  18
ATOM     18  C   UNL     1       1.479  23.188  22.019  1.00  0.00    -0.000 C 
BRANCH  18  19
ATOM     19  C   UNL     1       2.285  24.485  21.826  1.00  0.00    -0.000 C 
BRANCH  19  20
ATOM     20  C   UNL     1       1.729  25.667  22.636  1.00  0.00    -0.000 C 
BRANCH  20  21
ATOM     21  C   UNL     1       1.944  27.022  21.939  1.00  0.00    -0.000 C 
BRANCH  21  22
ATOM     22  C   UNL     1       0.753  27.993  22.085  1.00  0.00    -0.000 C 
BRANCH  22  23
ATOM     23  C   UNL     1      -0.092  28.067  20.800  1.00  0.00    -0.000 C 
BRANCH  23  24
ATOM     24  C   UNL     1      -0.970  29.328  20.741  1.00  0.00    -0.000 C 
BRANCH  24  25
ATOM     25  C   UNL     1      -0.335  30.449  19.906  1.00  0.00    -0.003 C 
ATOM     26  C   UNL     1      -1.364  31.521  19.559  1.00  0.00     0.004 C 
ENDBRANCH  24  25
ENDBRANCH  23  24
ENDBRANCH  22  23
ENDBRANCH  21  22
ENDBRANCH  20  21
ENDBRANCH  19  20
ENDBRANCH  18  19
ENDBRANCH  17  18
ENDBRANCH  16  17
ENDBRANCH  15  16
ENDBRANCH   1  15
TORSDOF 22
ENDMDL
MODEL 2
REMARK VINA RESULT:    -3.375      3.958      9.501
REMARK INTER + INTRA:          -8.911
REMARK INTER:                  -7.042
REMARK INTRA:                  -1.869
REMARK UNBOUND:                -1.196
REMARK SMILES CCCCCCCCCCCCCCCCCCCCCCCC(=O)[O-]
REMARK SMILES IDX 13 1 14 2 15 3 16 4 17 5 18 6 19 7 20 8 21 9 22 10 23 11
REMARK SMILES IDX 24 12 25 13 26 14 12 15 11 16 10 17 9 18 8 19 7 20 6 21 5 22
REMARK SMILES IDX 4 23 3 24 2 25 1 26
REMARK H PARENT
REMARK Flexibility Score: inf
ROOT
ATOM      1  C   UNL     1       3.507  21.729  26.230  1.00  0.00     0.000 C 
ENDROOT
BRANCH   1   2
ATOM      2  C   UNL     1       4.254  22.916  26.864  1.00  0.00     0.000 C 
BRANCH   2   3
ATOM      3  C   UNL     1       5.657  23.123  26.257  1.00  0.00     0.000 C 
BRANCH   3   4
ATOM      4  C   UNL     1       5.895  24.542  25.714  1.00  0.00     0.000 C 
BRANCH   4   5
ATOM      5  C   UNL     1       6.386  24.555  24.256  1.00  0.00     0.000 C 
BRANCH   5   6
ATOM      6  C   UNL     1       5.308  24.055  23.272  1.00  0.00     0.000 C 
BRANCH   6   7
ATOM      7  C   UNL     1       3.892  24.562  23.600  1.00  0.00     0.000 C 
BRANCH   7   8
ATOM      8  C   UNL     1       2.790  23.585  23.159  1.00  0.00     0.000 C 
BRANCH   8   9
ATOM      9  C   UNL     1       1.463  23.815  23.900  1.00  0.00     0.000 C 
BRANCH   9  10
ATOM     10  C   UNL     1       1.572  24.897  24.989  1.00  0.00     0.006 C 
BRANCH  10  11
ATOM     11  C   UNL     1       0.252  25.086  25.748  1.00  0.00     0.053 C 
BRANCH  11  12
ATOM     12  C   UNL     1      -0.223  23.805  26.363  1.00  0.00     0.041 C 
ATOM     13  O   UNL     1       0.568  22.833  26.499  1.00  0.00    -0.550 OA
ATOM     14  O   UNL     1      -1.533  23.693  26.813  1.00  0.00    -0.550 OA
ENDBRANCH  11  12
ENDBRANCH  10  11
ENDBRANCH   9  10
ENDBRANCH   8   9
ENDBRANCH   7   8
ENDBRANCH   6   7
ENDBRANCH   5   6
ENDBRANCH   4   5
ENDBRANCH   3   4
ENDBRANCH   2   3
ENDBRANCH   1   2
BRANCH   1  15
ATOM     15  C   UNL     1       3.495  20.475  27.125  1.00  0.00     0.000 C 
BRANCH  15  16
ATOM     16  C   UNL     1       4.767  19.610  27.064  1.00  0.00     0.000 C 
BRANCH  16  17
ATOM     17  C   UNL     1       4.477  18.132  26.749  1.00  0.00     0.000 C 
BRANCH  17  18
ATOM     18  C   UNL     1       5.343  17.579  25.602  1.00  0.00    -0.000 C 
BRANCH  18  19
ATOM     19  C   UNL     1       6.636  16.864  26.031  1.00  0.00    -0.000 C 
BRANCH  19  20
ATOM     20  C   UNL     1       6.392  15.445  26.568  1.00  0.00    -0.000 C 
BRANCH  20  21
ATOM     21  C   UNL     1       5.570  14.574  25.602  1.00  0.00    -0.000 C 
BRANCH  21  22
ATOM     22  C   UNL     1       6.224  14.397  24.215  1.00  0.00    -0.000 C 
BRANCH  22  23
ATOM     23  C   UNL     1       5.400  15.064  23.098  1.00  0.00    -0.000 C 
BRANCH  23  24
ATOM     24  C   UNL     1       3.981  14.485  22.982  1.00  0.00    -0.000 C 
BRANCH  24  25
ATOM     25  C   UNL     1       3.007  15.446  22.288  1.00  0.00    -0.003 C 
ATOM     26  C   UNL     1       2.867  16.746  23.076  1.00  0.00     0.004 C 
ENDBRANCH  24  25
ENDBRANCH  23  24
ENDBRANCH  22  23
ENDBRANCH  21  22
ENDBRANCH  20  21
ENDBRANCH  19  20
ENDBRANCH  18  19
ENDBRANCH  17  18
ENDBRANCH  16  17
ENDBRANCH  15  16
ENDBRANCH   1  15
TORSDOF 22
ENDMDL
MODEL 3
REMARK VINA RESULT:    -2.948      4.310     10.467
REMARK INTER + INTRA:          -7.935
REMARK INTER:                  -5.961
REMARK INTRA:                  -1.974
REMARK UNBOUND:                -1.196
REMARK SMILES CCCCCCCCCCCCCCCCCCCCCCCC(=O)[O-]
REMARK SMILES IDX 13 1 14 2 15 3 16 4 17 5 18 6 19 7 20 8 21 9 22 10 23 11
REMARK SMILES IDX 24 12 25 13 26 14 12 15 11 16 10 17 9 18 8 19 7 20 6 21 5 22
REMARK SMILES IDX 4 23 3 24 2 25 1 26
REMARK H PARENT
REMARK Flexibility Score: inf
ROOT
ATOM      1  C   UNL     1       2.553  21.962  26.417  1.00  0.00     0.000 C 
ENDROOT
BRANCH   1   2
ATOM      2  C   UNL     1       1.219  22.692  26.175  1.00  0.00     0.000 C 
BRANCH   2   3
ATOM      3  C   UNL     1       0.747  22.589  24.710  1.00  0.00     0.000 C 
BRANCH   3   4
ATOM      4  C   UNL     1       1.885  22.321  23.710  1.00  0.00     0.000 C 
BRANCH   4   5
ATOM      5  C   UNL     1       1.501  22.649  22.257  1.00  0.00     0.000 C 
BRANCH   5   6
ATOM      6  C   UNL     1       1.976  24.054  21.831  1.00  0.00     0.000 C 
BRANCH   6   7
ATOM      7  C   UNL     1       2.503  24.907  22.998  1.00  0.00     0.000 C 
BRANCH   7   8
ATOM      8  C   UNL     1       1.743  26.234  23.160  1.00  0.00     0.000 C 
BRANCH   8   9
ATOM      9  C   UNL     1       1.514  26.954  21.821  1.00  0.00     0.000 C 
BRANCH   9  10
ATOM     10  C   UNL     1       0.625  28.202  21.964  1.00  0.00     0.006 C 
BRANCH  10  11
ATOM     11  C   UNL     1      -0.495  28.235  20.916  1.00  0.00     0.053 C 
BRANCH  11  12
ATOM     12  C   UNL     1      -0.689  29.610  20.353  1.00  0.00     0.041 C 
ATOM     13  O   UNL     1      -1.848  30.086  20.224  1.00  0.00    -0.550 OA
ATOM     14  O   UNL     1       0.414  30.378  19.997  1.00  0.00    -0.550 OA
ENDBRANCH  11  12
ENDBRANCH  10  11
ENDBRANCH   9  10
ENDBRANCH   8   9
ENDBRANCH   7   8
ENDBRANCH   6   7
ENDBRANCH   5   6
ENDBRANCH   4   5
ENDBRANCH   3   4
ENDBRANCH   2   3
ENDBRANCH   1   2
BRANCH   1  15
ATOM     15  C   UNL     1       3.605  22.841  27.118  1.00  0.00     0.000 C 
BRANCH  15  16
ATOM     16  C   UNL     1       4.207  23.965  26.253  1.00  0.00     0.000 C 
BRANCH  16  17
ATOM     17  C   UNL     1       5.242  23.454  25.236  1.00  0.00     0.000 C 
BRANCH  17  18
ATOM     18  C   UNL     1       6.638  23.241  25.853  1.00  0.00    -0.000 C 
BRANCH  18  19
ATOM     19  C   UNL     1       7.125  21.782  25.904  1.00  0.00    -0.000 C 
BRANCH  19  20
ATOM     20  C   UNL     1       6.494  20.975  27.050  1.00  0.00    -0.000 C 
BRANCH  20  21
ATOM     21  C   UNL     1       6.974  19.513  27.085  1.00  0.00    -0.000 C 
BRANCH  21  22
ATOM     22  C   UNL     1       7.120  18.872  25.689  1.00  0.00    -0.000 C 
BRANCH  22  23
ATOM     23  C   UNL     1       6.823  17.361  25.712  1.00  0.00    -0.000 C 
BRANCH  23  24
ATOM     24  C   UNL     1       6.023  16.896  24.485  1.00  0.00    -0.000 C 
BRANCH  24  25
ATOM     25  C   UNL     1       4.516  17.147  24.635  1.00  0.00    -0.003 C 
ATOM     26  C   UNL     1       3.725  15.856  24.446  1.00  0.00     0.004 C 
ENDBRANCH  24  25
ENDBRANCH  23  24
ENDBRANCH  22  23
ENDBRANCH  21  22
ENDBRANCH  20  21
ENDBRANCH  19  20
ENDBRANCH  18  19
ENDBRANCH  17  18
ENDBRANCH  16  17
ENDBRANCH  15  16
ENDBRANCH   1  15
TORSDOF 22
ENDMDL
MODEL 4
REMARK VINA RESULT:    -2.539      4.168     10.027
REMARK INTER + INTRA:          -7.000
REMARK INTER:                  -5.188
REMARK INTRA:                  -1.812
REMARK UNBOUND:                -1.196
REMARK SMILES CCCCCCCCCCCCCCCCCCCCCCCC(=O)[O-]
REMARK SMILES IDX 13 1 14 2 15 3 16 4 17 5 18 6 19 7 20 8 21 9 22 10 23 11
REMARK SMILES IDX 24 12 25 13 26 14 12 15 11 16 10 17 9 18 8 19 7 20 6 21 5 22
REMARK SMILES IDX 4 23 3 24 2 25 1 26
REMARK H PARENT
REMARK Flexibility Score: inf
ROOT
ATOM      1  C   UNL     1       2.726  22.593  27.035  1.00  0.00     0.000 C 
ENDROOT
BRANCH   1   2
ATOM      2  C   UNL     1       1.388  21.835  27.108  1.00  0.00     0.000 C 
BRANCH   2   3
ATOM      3  C   UNL     1       0.170  22.772  26.975  1.00  0.00     0.000 C 
BRANCH   3   4
ATOM      4  C   UNL     1       0.030  23.411  25.583  1.00  0.00     0.000 C 
BRANCH   4   5
ATOM      5  C   UNL     1       0.406  24.903  25.564  1.00  0.00     0.000 C 
BRANCH   5   6
ATOM      6  C   UNL     1       1.776  25.151  24.899  1.00  0.00     0.000 C 
BRANCH   6   7
ATOM      7  C   UNL     1       1.875  24.595  23.467  1.00  0.00     0.000 C 
BRANCH   7   8
ATOM      8  C   UNL     1       3.046  23.615  23.286  1.00  0.00     0.000 C 
BRANCH   8   9
ATOM      9  C   UNL     1       4.411  24.321  23.252  1.00  0.00     0.000 C 
BRANCH   9  10
ATOM     10  C   UNL     1       5.291  23.968  24.464  1.00  0.00     0.006 C 
BRANCH  10  11
ATOM     11  C   UNL     1       6.305  25.075  24.783  1.00  0.00     0.053 C 
BRANCH  11  12
ATOM     12  C   UNL     1       6.470  25.269  26.259  1.00  0.00     0.041 C 
ATOM     13  O   UNL     1       6.435  24.280  27.038  1.00  0.00    -0.550 OA
ATOM     14  O   UNL     1       6.692  26.541  26.773  1.00  0.00    -0.550 OA
ENDBRANCH  11  12
ENDBRANCH  10  11
ENDBRANCH   9  10
ENDBRANCH   8   9
ENDBRANCH   7   8
ENDBRANCH   6   7
ENDBRANCH   5   6
ENDBRANCH   4   5
ENDBRANCH   3   4
ENDBRANCH   2   3
ENDBRANCH   1   2
BRANCH   1  15
ATOM     15  C   UNL     1       3.952  21.666  27.122  1.00  0.00     0.000 C 
BRANCH  15  16
ATOM     16  C   UNL     1       3.729  20.229  26.613  1.00  0.00     0.000 C 
BRANCH  16  17
ATOM     17  C   UNL     1       4.787  19.237  27.125  1.00  0.00     0.000 C 
BRANCH  17  18
ATOM     18  C   UNL     1       5.885  18.937  26.086  1.00  0.00    -0.000 C 
BRANCH  18  19
ATOM     19  C   UNL     1       7.113  18.178  26.618  1.00  0.00    -0.000 C 
BRANCH  19  20
ATOM     20  C   UNL     1       6.854  16.675  26.818  1.00  0.00    -0.000 C 
BRANCH  20  21
ATOM     21  C   UNL     1       5.919  16.083  25.749  1.00  0.00    -0.000 C 
BRANCH  21  22
ATOM     22  C   UNL     1       5.386  14.677  26.099  1.00  0.00    -0.000 C 
BRANCH  22  23
ATOM     23  C   UNL     1       4.666  14.019  24.907  1.00  0.00    -0.000 C 
BRANCH  23  24
ATOM     24  C   UNL     1       3.389  14.771  24.499  1.00  0.00    -0.000 C 
BRANCH  24  25
ATOM     25  C   UNL     1       2.737  15.509  25.677  1.00  0.00    -0.003 C 
ATOM     26  C   UNL     1       1.749  14.605  26.409  1.00  0.00     0.004 C 
ENDBRANCH  24  25
ENDBRANCH  23  24
ENDBRANCH  22  23
ENDBRANCH  21  22
ENDBRANCH  20  21
ENDBRANCH  19  20
ENDBRANCH  18  19
ENDBRANCH  17  18
ENDBRANCH  16  17
ENDBRANCH  15  16
ENDBRANCH   1  15
TORSDOF 22
ENDMDL
MODEL 5
REMARK VINA RESULT:    -2.445      3.919     10.076
REMARK INTER + INTRA:          -6.784
REMARK INTER:                  -4.865
REMARK INTRA:                  -1.919
REMARK UNBOUND:                -1.196
REMARK SMILES CCCCCCCCCCCCCCCCCCCCCCCC(=O)[O-]
REMARK SMILES IDX 13 1 14 2 15 3 16 4 17 5 18 6 19 7 20 8 21 9 22 10 23 11
REMARK SMILES IDX 24 12 25 13 26 14 12 15 11 16 10 17 9 18 8 19 7 20 6 21 5 22
REMARK SMILES IDX 4 23 3 24 2 25 1 26
REMARK H PARENT
REMARK Flexibility Score: inf
ROOT
ATOM      1  C   UNL     1       3.405  22.018  26.122  1.00  0.00     0.000 C 
ENDROOT
BRANCH   1   2
ATOM      2  C   UNL     1       3.905  23.347  26.716  1.00  0.00     0.000 C 
BRANCH   2   3
ATOM      3  C   UNL     1       5.410  23.578  26.461  1.00  0.00     0.000 C 
BRANCH   3   4
ATOM      4  C   UNL     1       5.747  25.006  26.001  1.00  0.00     0.000 C 
BRANCH   4   5
ATOM      5  C   UNL     1       6.387  25.054  24.603  1.00  0.00     0.000 C 
BRANCH   5   6
ATOM      6  C   UNL     1       5.630  24.175  23.585  1.00  0.00     0.000 C 
BRANCH   6   7
ATOM      7  C   UNL     1       4.263  24.749  23.173  1.00  0.00     0.000 C 
BRANCH   7   8
ATOM      8  C   UNL     1       3.245  23.658  22.800  1.00  0.00     0.000 C 
BRANCH   8   9
ATOM      9  C   UNL     1       2.030  24.216  22.040  1.00  0.00     0.000 C 
BRANCH   9  10
ATOM     10  C   UNL     1       1.943  25.751  22.108  1.00  0.00     0.006 C 
BRANCH  10  11
ATOM     11  C   UNL     1       0.925  26.315  21.108  1.00  0.00     0.053 C 
BRANCH  11  12
ATOM     12  C   UNL     1       0.513  27.711  21.462  1.00  0.00     0.041 C 
ATOM     13  O   UNL     1       1.023  28.291  22.457  1.00  0.00    -0.550 OA
ATOM     14  O   UNL     1      -0.415  28.383  20.675  1.00  0.00    -0.550 OA
ENDBRANCH  11  12
ENDBRANCH  10  11
ENDBRANCH   9  10
ENDBRANCH   8   9
ENDBRANCH   7   8
ENDBRANCH   6   7
ENDBRANCH   5   6
ENDBRANCH   4   5
ENDBRANCH   3   4
ENDBRANCH   2   3
ENDBRANCH   1   2
BRANCH   1  15
ATOM     15  C   UNL     1       3.455  20.850  27.125  1.00  0.00     0.000 C 
BRANCH  15  16
ATOM     16  C   UNL     1       4.735  19.994  27.076  1.00  0.00     0.000 C 
BRANCH  16  17
ATOM     17  C   UNL     1       4.458  18.514  26.763  1.00  0.00     0.000 C 
BRANCH  17  18
ATOM     18  C   UNL     1       5.421  17.931  25.710  1.00  0.00    -0.000 C 
BRANCH  18  19
ATOM     19  C   UNL     1       6.644  17.183  26.271  1.00  0.00    -0.000 C 
BRANCH  19  20
ATOM     20  C   UNL     1       6.311  15.765  26.761  1.00  0.00    -0.000 C 
BRANCH  20  21
ATOM     21  C   UNL     1       5.649  14.898  25.676  1.00  0.00    -0.000 C 
BRANCH  21  22
ATOM     22  C   UNL     1       6.475  14.791  24.376  1.00  0.00    -0.000 C 
BRANCH  22  23
ATOM     23  C   UNL     1       5.646  15.163  23.133  1.00  0.00    -0.000 C 
BRANCH  23  24
ATOM     24  C   UNL     1       4.212  14.615  23.192  1.00  0.00    -0.000 C 
BRANCH  24  25
ATOM     25  C   UNL     1       3.252  15.373  22.264  1.00  0.00    -0.003 C 
ATOM     26  C   UNL     1       2.618  16.560  22.984  1.00  0.00     0.004 C 
ENDBRANCH  24  25
ENDBRANCH  23  24
ENDBRANCH  22  23
ENDBRANCH  21  22
ENDBRANCH  20  21
ENDBRANCH  19  20
ENDBRANCH  18  19
ENDBRANCH  17  18
ENDBRANCH  16  17
ENDBRANCH  15  16
ENDBRANCH   1  15
TORSDOF 22
ENDMDL
MODEL 6
REMARK VINA RESULT:    -2.382      3.857      9.854
REMARK INTER + INTRA:          -6.641
REMARK INTER:                  -5.746
REMARK INTRA:                  -0.895
REMARK UNBOUND:                -1.196
REMARK SMILES CCCCCCCCCCCCCCCCCCCCCCCC(=O)[O-]
REMARK SMILES IDX 13 1 14 2 15 3 16 4 17 5 18 6 19 7 20 8 21 9 22 10 23 11
REMARK SMILES IDX 24 12 25 13 26 14 12 15 11 16 10 17 9 18 8 19 7 20 6 21 5 22
REMARK SMILES IDX 4 23 3 24 2 25 1 26
REMARK H PARENT
REMARK Flexibility Score: inf
ROOT
ATOM      1  C   UNL     1       1.083  22.888  25.886  1.00  0.00     0.000 C 
ENDROOT
BRANCH   1   2
ATOM      2  C   UNL     1       0.076  23.769  26.646  1.00  0.00     0.000 C 
BRANCH   2   3
ATOM      3  C   UNL     1       0.688  25.113  27.093  1.00  0.00     0.000 C 
BRANCH   3   4
ATOM      4  C   UNL     1       0.157  26.326  26.310  1.00  0.00     0.000 C 
BRANCH   4   5
ATOM      5  C   UNL     1       0.445  26.241  24.801  1.00  0.00     0.000 C 
BRANCH   5   6
ATOM      6  C   UNL     1       1.733  25.448  24.497  1.00  0.00     0.000 C 
BRANCH   6   7
ATOM      7  C   UNL     1       1.709  24.733  23.134  1.00  0.00     0.000 C 
BRANCH   7   8
ATOM      8  C   UNL     1       2.953  23.862  22.893  1.00  0.00     0.000 C 
BRANCH   8   9
ATOM      9  C   UNL     1       4.265  24.655  23.017  1.00  0.00     0.000 C 
BRANCH   9  10
ATOM     10  C   UNL     1       5.313  23.933  23.882  1.00  0.00     0.006 C 
BRANCH  10  11
ATOM     11  C   UNL     1       6.283  24.916  24.551  1.00  0.00     0.053 C 
BRANCH  11  12
ATOM     12  C   UNL     1       6.061  24.994  26.031  1.00  0.00     0.041 C 
ATOM     13  O   UNL     1       5.458  24.067  26.633  1.00  0.00    -0.550 OA
ATOM     14  O   UNL     1       6.545  26.081  26.750  1.00  0.00    -0.550 OA
ENDBRANCH  11  12
ENDBRANCH  10  11
ENDBRANCH   9  10
ENDBRANCH   8   9
ENDBRANCH   7   8
ENDBRANCH   6   7
ENDBRANCH   5   6
ENDBRANCH   4   5
ENDBRANCH   3   4
ENDBRANCH   2   3
ENDBRANCH   1   2
BRANCH   1  15
ATOM     15  C   UNL     1       1.987  22.060  26.818  1.00  0.00     0.000 C 
BRANCH  15  16
ATOM     16  C   UNL     1       3.081  21.235  26.115  1.00  0.00     0.000 C 
BRANCH  16  17
ATOM     17  C   UNL     1       3.814  20.272  27.064  1.00  0.00     0.000 C 
BRANCH  17  18
ATOM     18  C   UNL     1       4.498  19.105  26.328  1.00  0.00    -0.000 C 
BRANCH  18  19
ATOM     19  C   UNL     1       4.615  17.794  27.125  1.00  0.00    -0.000 C 
BRANCH  19  20
ATOM     20  C   UNL     1       3.440  16.833  26.882  1.00  0.00    -0.000 C 
BRANCH  20  21
ATOM     21  C   UNL     1       3.781  15.713  25.883  1.00  0.00    -0.000 C 
BRANCH  21  22
ATOM     22  C   UNL     1       2.696  15.487  24.809  1.00  0.00    -0.000 C 
BRANCH  22  23
ATOM     23  C   UNL     1       3.299  15.048  23.462  1.00  0.00    -0.000 C 
BRANCH  23  24
ATOM     24  C   UNL     1       4.804  15.343  23.362  1.00  0.00    -0.000 C 
BRANCH  24  25
ATOM     25  C   UNL     1       5.630  14.093  23.030  1.00  0.00    -0.003 C 
ATOM     26  C   UNL     1       7.124  14.378  23.146  1.00  0.00     0.004 C 
ENDBRANCH  24  25
ENDBRANCH  23  24
ENDBRANCH  22  23
ENDBRANCH  21  22
ENDBRANCH  20  21
ENDBRANCH  19  20
ENDBRANCH  18  19
ENDBRANCH  17  18
ENDBRANCH  16  17
ENDBRANCH  15  16
ENDBRANCH   1  15
TORSDOF 22
ENDMDL
MODEL 7
REMARK VINA RESULT:    -2.352      1.241      2.328
REMARK INTER + INTRA:          -6.573
REMARK INTER:                  -5.820
REMARK INTRA:                  -0.753
REMARK UNBOUND:                -1.196
REMARK SMILES CCCCCCCCCCCCCCCCCCCCCCCC(=O)[O-]
REMARK SMILES IDX 13 1 14 2 15 3 16 4 17 5 18 6 19 7 20 8 21 9 22 10 23 11
REMARK SMILES IDX 24 12 25 13 26 14 12 15 11 16 10 17 9 18 8 19 7 20 6 21 5 22
REMARK SMILES IDX 4 23 3 24 2 25 1 26
REMARK H PARENT
REMARK Flexibility Score: inf
ROOT
ATOM      1  C   UNL     1       1.321  23.034  24.638  1.00  0.00     0.000 C 
ENDROOT
BRANCH   1   2
ATOM      2  C   UNL     1       1.392  22.699  26.139  1.00  0.00     0.000 C 
BRANCH   2   3
ATOM      3  C   UNL     1       2.571  23.401  26.845  1.00  0.00     0.000 C 
BRANCH   3   4
ATOM      4  C   UNL     1       3.754  23.712  25.913  1.00  0.00     0.000 C 
BRANCH   4   5
ATOM      5  C   UNL     1       5.062  23.992  26.672  1.00  0.00     0.000 C 
BRANCH   5   6
ATOM      6  C   UNL     1       6.221  23.095  26.189  1.00  0.00     0.000 C 
BRANCH   6   7
ATOM      7  C   UNL     1       6.512  21.907  27.124  1.00  0.00     0.000 C 
BRANCH   7   8
ATOM      8  C   UNL     1       6.882  20.624  26.363  1.00  0.00     0.000 C 
BRANCH   8   9
ATOM      9  C   UNL     1       6.322  19.357  27.029  1.00  0.00     0.000 C 
BRANCH   9  10
ATOM     10  C   UNL     1       4.826  19.144  26.734  1.00  0.00     0.006 C 
BRANCH  10  11
ATOM     11  C   UNL     1       4.451  17.657  26.700  1.00  0.00     0.053 C 
BRANCH  11  12
ATOM     12  C   UNL     1       5.110  16.944  25.560  1.00  0.00     0.041 C 
ATOM     13  O   UNL     1       5.996  16.076  25.779  1.00  0.00    -0.550 OA
ATOM     14  O   UNL     1       4.724  17.217  24.253  1.00  0.00    -0.550 OA
ENDBRANCH  11  12
ENDBRANCH  10  11
ENDBRANCH   9  10
ENDBRANCH   8   9
ENDBRANCH   7   8
ENDBRANCH   6   7
ENDBRANCH   5   6
ENDBRANCH   4   5
ENDBRANCH   3   4
ENDBRANCH   2   3
ENDBRANCH   1   2
BRANCH   1  15
ATOM     15  C   UNL     1       1.855  21.902  23.740  1.00  0.00     0.000 C 
BRANCH  15  16
ATOM     16  C   UNL     1       1.265  21.855  22.318  1.00  0.00     0.000 C 
BRANCH  16  17
ATOM     17  C   UNL     1       1.671  23.062  21.456  1.00  0.00     0.000 C 
BRANCH  17  18
ATOM     18  C   UNL     1       2.692  23.983  22.152  1.00  0.00    -0.000 C 
BRANCH  18  19
ATOM     19  C   UNL     1       2.139  25.330  22.651  1.00  0.00    -0.000 C 
BRANCH  19  20
ATOM     20  C   UNL     1       1.647  26.239  21.513  1.00  0.00    -0.000 C 
BRANCH  20  21
ATOM     21  C   UNL     1       2.103  27.700  21.677  1.00  0.00    -0.000 C 
BRANCH  21  22
ATOM     22  C   UNL     1       0.950  28.723  21.595  1.00  0.00    -0.000 C 
BRANCH  22  23
ATOM     23  C   UNL     1      -0.260  28.170  20.819  1.00  0.00    -0.000 C 
BRANCH  23  24
ATOM     24  C   UNL     1      -1.303  29.252  20.499  1.00  0.00    -0.000 C 
BRANCH  24  25
ATOM     25  C   UNL     1      -0.676  30.643  20.328  1.00  0.00    -0.003 C 
ATOM     26  C   UNL     1      -1.603  31.568  19.545  1.00  0.00     0.004 C 
ENDBRANCH  24  25
ENDBRANCH  23  24
ENDBRANCH  22  23
ENDBRANCH  21  22
ENDBRANCH  20  21
ENDBRANCH  19  20
ENDBRANCH  18  19
ENDBRANCH  17  18
ENDBRANCH  16  17
ENDBRANCH  15  16
ENDBRANCH   1  15
TORSDOF 22
ENDMDL
MODEL 8
REMARK VINA RESULT:    -2.337      3.464      9.427
REMARK INTER + INTRA:          -6.539
REMARK INTER:                  -5.891
REMARK INTRA:                  -0.648
REMARK UNBOUND:                -1.196
REMARK SMILES CCCCCCCCCCCCCCCCCCCCCCCC(=O)[O-]
REMARK SMILES IDX 13 1 14 2 15 3 16 4 17 5 18 6 19 7 20 8 21 9 22 10 23 11
REMARK SMILES IDX 24 12 25 13 26 14 12 15 11 16 10 17 9 18 8 19 7 20 6 21 5 22
REMARK SMILES IDX 4 23 3 24 2 25 1 26
REMARK H PARENT
REMARK Flexibility Score: inf
ROOT
ATOM      1  C   UNL     1       0.962  22.440  25.102  1.00  0.00     0.000 C 
ENDROOT
BRANCH   1   2
ATOM      2  C   UNL     1      -0.026  23.596  25.340  1.00  0.00     0.000 C 
BRANCH   2   3
ATOM      3  C   UNL     1       0.402  24.507  26.509  1.00  0.00     0.000 C 
BRANCH   3   4
ATOM      4  C   UNL     1       0.109  25.998  26.273  1.00  0.00     0.000 C 
BRANCH   4   5
ATOM      5  C   UNL     1       0.495  26.471  24.860  1.00  0.00     0.000 C 
BRANCH   5   6
ATOM      6  C   UNL     1       1.466  25.495  24.163  1.00  0.00     0.000 C 
BRANCH   6   7
ATOM      7  C   UNL     1       1.656  25.781  22.663  1.00  0.00     0.000 C 
BRANCH   7   8
ATOM      8  C   UNL     1       2.165  24.560  21.881  1.00  0.00     0.000 C 
BRANCH   8   9
ATOM      9  C   UNL     1       3.013  23.612  22.745  1.00  0.00     0.000 C 
BRANCH   9  10
ATOM     10  C   UNL     1       4.438  24.144  22.984  1.00  0.00     0.006 C 
BRANCH  10  11
ATOM     11  C   UNL     1       4.777  24.234  24.477  1.00  0.00     0.053 C 
BRANCH  11  12
ATOM     12  C   UNL     1       6.254  24.332  24.707  1.00  0.00     0.041 C 
ATOM     13  O   UNL     1       6.712  25.132  25.565  1.00  0.00    -0.550 OA
ATOM     14  O   UNL     1       7.125  23.519  23.991  1.00  0.00    -0.550 OA
ENDBRANCH  11  12
ENDBRANCH  10  11
ENDBRANCH   9  10
ENDBRANCH   8   9
ENDBRANCH   7   8
ENDBRANCH   6   7
ENDBRANCH   5   6
ENDBRANCH   4   5
ENDBRANCH   3   4
ENDBRANCH   2   3
ENDBRANCH   1   2
BRANCH   1  15
ATOM     15  C   UNL     1       1.865  22.158  26.317  1.00  0.00     0.000 C 
BRANCH  15  16
ATOM     16  C   UNL     1       3.353  21.925  25.993  1.00  0.00     0.000 C 
BRANCH  16  17
ATOM     17  C   UNL     1       4.112  21.212  27.125  1.00  0.00     0.000 C 
BRANCH  17  18
ATOM     18  C   UNL     1       5.618  21.058  26.836  1.00  0.00    -0.000 C 
BRANCH  18  19
ATOM     19  C   UNL     1       6.152  19.615  26.849  1.00  0.00    -0.000 C 
BRANCH  19  20
ATOM     20  C   UNL     1       5.057  18.563  26.610  1.00  0.00    -0.000 C 
BRANCH  20  21
ATOM     21  C   UNL     1       5.617  17.221  26.109  1.00  0.00    -0.000 C 
BRANCH  21  22
ATOM     22  C   UNL     1       5.436  16.999  24.592  1.00  0.00    -0.000 C 
BRANCH  22  23
ATOM     23  C   UNL     1       4.791  15.636  24.279  1.00  0.00    -0.000 C 
BRANCH  23  24
ATOM     24  C   UNL     1       3.256  15.696  24.267  1.00  0.00    -0.000 C 
BRANCH  24  25
ATOM     25  C   UNL     1       2.648  15.562  25.670  1.00  0.00    -0.003 C 
ATOM     26  C   UNL     1       1.319  14.815  25.621  1.00  0.00     0.004 C 
ENDBRANCH  24  25
ENDBRANCH  23  24
ENDBRANCH  22  23
ENDBRANCH  21  22
ENDBRANCH  20  21
ENDBRANCH  19  20
ENDBRANCH  18  19
ENDBRANCH  17  18
ENDBRANCH  16  17
ENDBRANCH  15  16
ENDBRANCH   1  15
TORSDOF 22
ENDMDL
MODEL 9
REMARK VINA RESULT:    -2.253      3.906      9.743
REMARK INTER + INTRA:          -6.346
REMARK INTER:                  -4.997
REMARK INTRA:                  -1.349
REMARK UNBOUND:                -1.196
REMARK SMILES CCCCCCCCCCCCCCCCCCCCCCCC(=O)[O-]
REMARK SMILES IDX 13 1 14 2 15 3 16 4 17 5 18 6 19 7 20 8 21 9 22 10 23 11
REMARK SMILES IDX 24 12 25 13 26 14 12 15 11 16 10 17 9 18 8 19 7 20 6 21 5 22
REMARK SMILES IDX 4 23 3 24 2 25 1 26
REMARK H PARENT
REMARK Flexibility Score: inf
ROOT
ATOM      1  C   UNL     1       6.242  17.558  24.368  1.00  0.00     0.000 C 
ENDROOT
BRANCH   1   2
ATOM      2  C   UNL     1       7.027  18.653  25.112  1.00  0.00     0.000 C 
BRANCH   2   3
ATOM      3  C   UNL     1       6.123  19.517  26.016  1.00  0.00     0.000 C 
BRANCH   3   4
ATOM      4  C   UNL     1       6.882  20.609  26.788  1.00  0.00     0.000 C 
BRANCH   4   5
ATOM      5  C   UNL     1       6.551  22.031  26.301  1.00  0.00     0.000 C 
BRANCH   5   6
ATOM      6  C   UNL     1       5.419  22.681  27.125  1.00  0.00     0.000 C 
BRANCH   6   7
ATOM      7  C   UNL     1       4.013  22.197  26.728  1.00  0.00     0.000 C 
BRANCH   7   8
ATOM      8  C   UNL     1       3.008  23.349  26.563  1.00  0.00     0.000 C 
BRANCH   8   9
ATOM      9  C   UNL     1       1.555  22.859  26.461  1.00  0.00     0.000 C 
BRANCH   9  10
ATOM     10  C   UNL     1       0.986  22.986  25.036  1.00  0.00     0.006 C 
BRANCH  10  11
ATOM     11  C   UNL     1       2.079  22.870  23.966  1.00  0.00     0.053 C 
BRANCH  11  12
ATOM     12  C   UNL     1       1.976  23.962  22.946  1.00  0.00     0.041 C 
ATOM     13  O   UNL     1       2.047  25.169  23.297  1.00  0.00    -0.550 OA
ATOM     14  O   UNL     1       1.829  23.645  21.601  1.00  0.00    -0.550 OA
ENDBRANCH  11  12
ENDBRANCH  10  11
ENDBRANCH   9  10
ENDBRANCH   8   9
ENDBRANCH   7   8
ENDBRANCH   6   7
ENDBRANCH   5   6
ENDBRANCH   4   5
ENDBRANCH   3   4
ENDBRANCH   2   3
ENDBRANCH   1   2
BRANCH   1  15
ATOM     15  C   UNL     1       7.067  16.280  24.128  1.00  0.00     0.000 C 
BRANCH  15  16
ATOM     16  C   UNL     1       6.339  15.159  23.362  1.00  0.00     0.000 C 
BRANCH  16  17
ATOM     17  C   UNL     1       5.388  14.340  24.251  1.00  0.00     0.000 C 
BRANCH  17  18
ATOM     18  C   UNL     1       5.809  14.329  25.733  1.00  0.00    -0.000 C 
BRANCH  18  19
ATOM     19  C   UNL     1       4.793  14.939  26.716  1.00  0.00    -0.000 C 
BRANCH  19  20
ATOM     20  C   UNL     1       3.615  14.001  27.025  1.00  0.00    -0.000 C 
BRANCH  20  21
ATOM     21  C   UNL     1       2.262  14.733  27.057  1.00  0.00    -0.000 C 
BRANCH  21  22
ATOM     22  C   UNL     1       2.132  15.845  25.994  1.00  0.00    -0.000 C 
BRANCH  22  23
ATOM     23  C   UNL     1       1.930  15.271  24.579  1.00  0.00    -0.000 C 
BRANCH  23  24
ATOM     24  C   UNL     1       2.634  16.104  23.497  1.00  0.00    -0.000 C 
BRANCH  24  25
ATOM     25  C   UNL     1       2.503  15.484  22.098  1.00  0.00    -0.003 C 
ATOM     26  C   UNL     1       3.336  14.211  21.984  1.00  0.00     0.004 C 
ENDBRANCH  24  25
ENDBRANCH  23  24
ENDBRANCH  22  23
ENDBRANCH  21  22
ENDBRANCH  20  21
ENDBRANCH  19  20
ENDBRANCH  18  19
ENDBRANCH  17  18
ENDBRANCH  16  17
ENDBRANCH  15  16
ENDBRANCH   1  15
TORSDOF 22
ENDMDL
