MODEL 1
REMARK VINA RESULT:    -5.046      0.000      0.000
REMARK INTER + INTRA:          -8.163
REMARK INTER:                  -7.701
REMARK INTRA:                  -0.462
REMARK UNBOUND:                -0.462
REMARK SMILES O=C([O-])CCCCCCCCC(=O)[O-]
REMARK SMILES IDX 7 1 6 2 5 3 4 4 2 5 1 6 3 7 8 8 9 9 10 10 11 11 12 12 13 13
REMARK SMILES IDX 14 14
REMARK H PARENT
REMARK Flexibility Score: inf
ROOT
ATOM      1  C   UNL     1       3.501  44.110  12.027  1.00  0.00     0.000 C 
ENDROOT
BRANCH   1   2
ATOM      2  C   UNL     1       2.601  43.130  11.256  1.00  0.00     0.000 C 
BRANCH   2   3
ATOM      3  C   UNL     1       2.718  41.683  11.769  1.00  0.00     0.006 C 
BRANCH   3   4
ATOM      4  C   UNL     1       4.072  41.349  12.417  1.00  0.00     0.053 C 
BRANCH   4   5
ATOM      5  C   UNL     1       4.106  39.950  12.952  1.00  0.00     0.041 C 
ATOM      6  O   UNL     1       5.111  39.540  13.590  1.00  0.00    -0.550 OA
ATOM      7  O   UNL     1       3.042  39.089  12.716  1.00  0.00    -0.550 OA
ENDBRANCH   4   5
ENDBRANCH   3   4
ENDBRANCH   2   3
ENDBRANCH   1   2
BRANCH   1   8
ATOM      8  C   UNL     1       4.488  44.807  11.079  1.00  0.00     0.000 C 
BRANCH   8   9
ATOM      9  C   UNL     1       3.918  44.998   9.664  1.00  0.00     0.000 C 
BRANCH   9  10
ATOM     10  C   UNL     1       4.400  46.296   9.002  1.00  0.00     0.006 C 
BRANCH  10  11
ATOM     11  C   UNL     1       5.204  47.149   9.989  1.00  0.00     0.053 C 
BRANCH  11  12
ATOM     12  C   UNL     1       6.374  47.781   9.303  1.00  0.00     0.041 C 
ATOM     13  O   UNL     1       7.547  47.433   9.601  1.00  0.00    -0.550 OA
ATOM     14  O   UNL     1       6.167  48.721   8.301  1.00  0.00    -0.550 OA
ENDBRANCH  11  12
ENDBRANCH  10  11
ENDBRANCH   9  10
ENDBRANCH   8   9
ENDBRANCH   1   8
TORSDOF 9
ENDMDL
MODEL 2
REMARK VINA RESULT:    -5.043      1.167      1.499
REMARK INTER + INTRA:          -8.159
REMARK INTER:                  -7.689
REMARK INTRA:                  -0.470
REMARK UNBOUND:                -0.462
REMARK SMILES O=C([O-])CCCCCCCCC(=O)[O-]
REMARK SMILES IDX 7 1 6 2 5 3 4 4 2 5 1 6 3 7 8 8 9 9 10 10 11 11 12 12 13 13
REMARK SMILES IDX 14 14
REMARK H PARENT
REMARK Flexibility Score: inf
ROOT
ATOM      1  C   UNL     1       1.867  43.589  10.688  1.00  0.00     0.000 C 
ENDROOT
BRANCH   1   2
ATOM      2  C   UNL     1       2.310  42.964  12.020  1.00  0.00     0.000 C 
BRANCH   2   3
ATOM      3  C   UNL     1       3.003  41.602  11.840  1.00  0.00     0.006 C 
BRANCH   3   4
ATOM      4  C   UNL     1       2.480  40.497  12.772  1.00  0.00     0.053 C 
BRANCH   4   5
ATOM      5  C   UNL     1       3.406  39.320  12.820  1.00  0.00     0.041 C 
ATOM      6  O   UNL     1       4.576  39.452  13.266  1.00  0.00    -0.550 OA
ATOM      7  O   UNL     1       2.987  38.087  12.341  1.00  0.00    -0.550 OA
ENDBRANCH   4   5
ENDBRANCH   3   4
ENDBRANCH   2   3
ENDBRANCH   1   2
BRANCH   1   8
ATOM      8  C   UNL     1       2.730  43.071   9.527  1.00  0.00     0.000 C 
BRANCH   8   9
ATOM      9  C   UNL     1       3.924  43.990   9.220  1.00  0.00     0.000 C 
BRANCH   9  10
ATOM     10  C   UNL     1       3.627  45.466   9.521  1.00  0.00     0.006 C 
BRANCH  10  11
ATOM     11  C   UNL     1       4.879  46.181  10.040  1.00  0.00     0.053 C 
BRANCH  11  12
ATOM     12  C   UNL     1       5.209  47.356   9.172  1.00  0.00     0.041 C 
ATOM     13  O   UNL     1       6.317  47.941   9.293  1.00  0.00    -0.550 OA
ATOM     14  O   UNL     1       4.312  47.772   8.197  1.00  0.00    -0.550 OA
ENDBRANCH  11  12
ENDBRANCH  10  11
ENDBRANCH   9  10
ENDBRANCH   8   9
ENDBRANCH   1   8
TORSDOF 9
ENDMDL
MODEL 3
REMARK VINA RESULT:    -4.986      1.593      7.103
REMARK INTER + INTRA:          -8.071
REMARK INTER:                  -7.416
REMARK INTRA:                  -0.655
REMARK UNBOUND:                -0.462
REMARK SMILES O=C([O-])CCCCCCCCC(=O)[O-]
REMARK SMILES IDX 7 1 6 2 5 3 4 4 2 5 1 6 3 7 8 8 9 9 10 10 11 11 12 12 13 13
REMARK SMILES IDX 14 14
REMARK H PARENT
REMARK Flexibility Score: inf
ROOT
ATOM      1  C   UNL     1       2.481  43.631   9.617  1.00  0.00     0.000 C 
ENDROOT
BRANCH   1   2
ATOM      2  C   UNL     1       3.838  44.235   9.219  1.00  0.00     0.000 C 
BRANCH   2   3
ATOM      3  C   UNL     1       4.324  45.312  10.206  1.00  0.00     0.006 C 
BRANCH   3   4
ATOM      4  C   UNL     1       4.791  46.617   9.540  1.00  0.00     0.053 C 
BRANCH   4   5
ATOM      5  C   UNL     1       3.650  47.374   8.932  1.00  0.00     0.041 C 
ATOM      6  O   UNL     1       2.552  47.463   9.542  1.00  0.00    -0.550 OA
ATOM      7  O   UNL     1       3.789  47.951   7.677  1.00  0.00    -0.550 OA
ENDBRANCH   4   5
ENDBRANCH   3   4
ENDBRANCH   2   3
ENDBRANCH   1   2
BRANCH   1   8
ATOM      8  C   UNL     1       2.078  44.076  11.032  1.00  0.00     0.000 C 
BRANCH   8   9
ATOM      9  C   UNL     1       2.118  42.924  12.048  1.00  0.00     0.000 C 
BRANCH   9  10
ATOM     10  C   UNL     1       2.891  41.703  11.529  1.00  0.00     0.006 C 
BRANCH  10  11
ATOM     11  C   UNL     1       4.083  41.383  12.437  1.00  0.00     0.053 C 
BRANCH  11  12
ATOM     12  C   UNL     1       4.007  39.968  12.921  1.00  0.00     0.041 C 
ATOM     13  O   UNL     1       4.959  39.473  13.581  1.00  0.00    -0.550 OA
ATOM     14  O   UNL     1       2.865  39.213  12.686  1.00  0.00    -0.550 OA
ENDBRANCH  11  12
ENDBRANCH  10  11
ENDBRANCH   9  10
ENDBRANCH   8   9
ENDBRANCH   1   8
TORSDOF 9
ENDMDL
MODEL 4
REMARK VINA RESULT:    -4.979      1.117      1.741
REMARK INTER + INTRA:          -8.061
REMARK INTER:                  -7.479
REMARK INTRA:                  -0.582
REMARK UNBOUND:                -0.462
REMARK SMILES O=C([O-])CCCCCCCCC(=O)[O-]
REMARK SMILES IDX 7 1 6 2 5 3 4 4 2 5 1 6 3 7 8 8 9 9 10 10 11 11 12 12 13 13
REMARK SMILES IDX 14 14
REMARK H PARENT
REMARK Flexibility Score: inf
ROOT
ATOM      1  C   UNL     1       2.795  42.855   9.934  1.00  0.00     0.000 C 
ENDROOT
BRANCH   1   2
ATOM      2  C   UNL     1       2.487  42.857  11.440  1.00  0.00     0.000 C 
BRANCH   2   3
ATOM      3  C   UNL     1       2.665  41.472  12.087  1.00  0.00     0.006 C 
BRANCH   3   4
ATOM      4  C   UNL     1       4.121  41.116  12.432  1.00  0.00     0.053 C 
BRANCH   4   5
ATOM      5  C   UNL     1       4.231  39.766  13.071  1.00  0.00     0.041 C 
ATOM      6  O   UNL     1       5.191  39.508  13.844  1.00  0.00    -0.550 OA
ATOM      7  O   UNL     1       3.293  38.783  12.786  1.00  0.00    -0.550 OA
ENDBRANCH   4   5
ENDBRANCH   3   4
ENDBRANCH   2   3
ENDBRANCH   1   2
BRANCH   1   8
ATOM      8  C   UNL     1       3.900  43.869   9.601  1.00  0.00     0.000 C 
BRANCH   8   9
ATOM      9  C   UNL     1       4.311  44.718  10.814  1.00  0.00     0.000 C 
BRANCH   9  10
ATOM     10  C   UNL     1       4.188  46.226  10.551  1.00  0.00     0.006 C 
BRANCH  10  11
ATOM     11  C   UNL     1       3.602  46.492   9.160  1.00  0.00     0.053 C 
BRANCH  11  12
ATOM     12  C   UNL     1       4.424  47.509   8.432  1.00  0.00     0.041 C 
ATOM     13  O   UNL     1       3.889  48.258   7.572  1.00  0.00    -0.550 OA
ATOM     14  O   UNL     1       5.770  47.663   8.738  1.00  0.00    -0.550 OA
ENDBRANCH  11  12
ENDBRANCH  10  11
ENDBRANCH   9  10
ENDBRANCH   8   9
ENDBRANCH   1   8
TORSDOF 9
ENDMDL
MODEL 5
REMARK VINA RESULT:    -4.959      1.006      6.997
REMARK INTER + INTRA:          -8.030
REMARK INTER:                  -7.412
REMARK INTRA:                  -0.618
REMARK UNBOUND:                -0.462
REMARK SMILES O=C([O-])CCCCCCCCC(=O)[O-]
REMARK SMILES IDX 7 1 6 2 5 3 4 4 2 5 1 6 3 7 8 8 9 9 10 10 11 11 12 12 13 13
REMARK SMILES IDX 14 14
REMARK H PARENT
REMARK Flexibility Score: inf
ROOT
ATOM      1  C   UNL     1       1.904  43.899   9.698  1.00  0.00     0.000 C 
ENDROOT
BRANCH   1   2
ATOM      2  C   UNL     1       2.681  45.172   9.325  1.00  0.00     0.000 C 
BRANCH   2   3
ATOM      3  C   UNL     1       4.115  45.181   9.884  1.00  0.00     0.006 C 
BRANCH   3   4
ATOM      4  C   UNL     1       4.582  46.549  10.407  1.00  0.00     0.053 C 
BRANCH   4   5
ATOM      5  C   UNL     1       5.402  47.286   9.393  1.00  0.00     0.041 C 
ATOM      6  O   UNL     1       4.854  47.777   8.371  1.00  0.00    -0.550 OA
ATOM      7  O   UNL     1       6.776  47.400   9.560  1.00  0.00    -0.550 OA
ENDBRANCH   4   5
ENDBRANCH   3   4
ENDBRANCH   2   3
ENDBRANCH   1   2
BRANCH   1   8
ATOM      8  C   UNL     1       1.341  44.000  11.123  1.00  0.00     0.000 C 
BRANCH   8   9
ATOM      9  C   UNL     1       2.098  43.112  12.124  1.00  0.00     0.000 C 
BRANCH   9  10
ATOM     10  C   UNL     1       2.872  41.977  11.439  1.00  0.00     0.006 C 
BRANCH  10  11
ATOM     11  C   UNL     1       4.079  41.551  12.282  1.00  0.00     0.053 C 
BRANCH  11  12
ATOM     12  C   UNL     1       3.891  40.159  12.800  1.00  0.00     0.041 C 
ATOM     13  O   UNL     1       4.862  39.535  13.303  1.00  0.00    -0.550 OA
ATOM     14  O   UNL     1       2.633  39.571  12.772  1.00  0.00    -0.550 OA
ENDBRANCH  11  12
ENDBRANCH  10  11
ENDBRANCH   9  10
ENDBRANCH   8   9
ENDBRANCH   1   8
TORSDOF 9
ENDMDL
MODEL 6
REMARK VINA RESULT:    -4.878      1.794      7.264
REMARK INTER + INTRA:          -7.907
REMARK INTER:                  -7.268
REMARK INTRA:                  -0.639
REMARK UNBOUND:                -0.462
REMARK SMILES O=C([O-])CCCCCCCCC(=O)[O-]
REMARK SMILES IDX 7 1 6 2 5 3 4 4 2 5 1 6 3 7 8 8 9 9 10 10 11 11 12 12 13 13
REMARK SMILES IDX 14 14
REMARK H PARENT
REMARK Flexibility Score: inf
ROOT
ATOM      1  C   UNL     1       3.848  44.084   9.134  1.00  0.00     0.000 C 
ENDROOT
BRANCH   1   2
ATOM      2  C   UNL     1       4.273  44.995  10.297  1.00  0.00     0.000 C 
BRANCH   2   3
ATOM      3  C   UNL     1       4.181  46.491   9.947  1.00  0.00     0.006 C 
BRANCH   3   4
ATOM      4  C   UNL     1       2.767  46.971   9.583  1.00  0.00     0.053 C 
BRANCH   4   5
ATOM      5  C   UNL     1       2.711  47.553   8.204  1.00  0.00     0.041 C 
ATOM      6  O   UNL     1       1.640  47.518   7.544  1.00  0.00    -0.550 OA
ATOM      7  O   UNL     1       3.852  48.106   7.636  1.00  0.00    -0.550 OA
ENDBRANCH   4   5
ENDBRANCH   3   4
ENDBRANCH   2   3
ENDBRANCH   1   2
BRANCH   1   8
ATOM      8  C   UNL     1       2.909  42.972   9.625  1.00  0.00     0.000 C 
BRANCH   8   9
ATOM      9  C   UNL     1       2.175  43.345  10.923  1.00  0.00     0.000 C 
BRANCH   9  10
ATOM     10  C   UNL     1       2.305  42.266  12.007  1.00  0.00     0.006 C 
BRANCH  10  11
ATOM     11  C   UNL     1       3.744  41.747  12.094  1.00  0.00     0.053 C 
BRANCH  11  12
ATOM     12  C   UNL     1       3.776  40.397  12.738  1.00  0.00     0.041 C 
ATOM     13  O   UNL     1       2.723  39.712  12.826  1.00  0.00    -0.550 OA
ATOM     14  O   UNL     1       4.979  39.874  13.197  1.00  0.00    -0.550 OA
ENDBRANCH  11  12
ENDBRANCH  10  11
ENDBRANCH   9  10
ENDBRANCH   8   9
ENDBRANCH   1   8
TORSDOF 9
ENDMDL
MODEL 7
REMARK VINA RESULT:    -4.742      1.521      2.061
REMARK INTER + INTRA:          -7.698
REMARK INTER:                  -6.901
REMARK INTRA:                  -0.797
REMARK UNBOUND:                -0.462
REMARK SMILES O=C([O-])CCCCCCCCC(=O)[O-]
REMARK SMILES IDX 7 1 6 2 5 3 4 4 2 5 1 6 3 7 8 8 9 9 10 10 11 11 12 12 13 13
REMARK SMILES IDX 14 14
REMARK H PARENT
REMARK Flexibility Score: inf
ROOT
ATOM      1  C   UNL     1       1.469  44.433  10.195  1.00  0.00     0.000 C 
ENDROOT
BRANCH   1   2
ATOM      2  C   UNL     1       1.488  44.006  11.671  1.00  0.00     0.000 C 
BRANCH   2   3
ATOM      3  C   UNL     1       2.913  43.786  12.210  1.00  0.00     0.006 C 
BRANCH   3   4
ATOM      4  C   UNL     1       3.702  42.685  11.483  1.00  0.00     0.053 C 
BRANCH   4   5
ATOM      5  C   UNL     1       3.663  41.385  12.226  1.00  0.00     0.041 C 
ATOM      6  O   UNL     1       2.574  40.769  12.367  1.00  0.00    -0.550 OA
ATOM      7  O   UNL     1       4.823  40.871  12.790  1.00  0.00    -0.550 OA
ENDBRANCH   4   5
ENDBRANCH   3   4
ENDBRANCH   2   3
ENDBRANCH   1   2
BRANCH   1   8
ATOM      8  C   UNL     1       1.108  45.921  10.060  1.00  0.00     0.000 C 
BRANCH   8   9
ATOM      9  C   UNL     1       2.345  46.817   9.889  1.00  0.00     0.000 C 
BRANCH   9  10
ATOM     10  C   UNL     1       3.542  46.066   9.290  1.00  0.00     0.006 C 
BRANCH  10  11
ATOM     11  C   UNL     1       4.825  46.369  10.071  1.00  0.00     0.053 C 
BRANCH  11  12
ATOM     12  C   UNL     1       5.691  47.321   9.306  1.00  0.00     0.041 C 
ATOM     13  O   UNL     1       6.929  47.369   9.530  1.00  0.00    -0.550 OA
ATOM     14  O   UNL     1       5.138  48.119   8.312  1.00  0.00    -0.550 OA
ENDBRANCH  11  12
ENDBRANCH  10  11
ENDBRANCH   9  10
ENDBRANCH   8   9
ENDBRANCH   1   8
TORSDOF 9
ENDMDL
MODEL 8
REMARK VINA RESULT:    -4.711      3.883      5.853
REMARK INTER + INTRA:          -7.652
REMARK INTER:                  -6.776
REMARK INTRA:                  -0.876
REMARK UNBOUND:                -0.462
REMARK SMILES O=C([O-])CCCCCCCCC(=O)[O-]
REMARK SMILES IDX 7 1 6 2 5 3 4 4 2 5 1 6 3 7 8 8 9 9 10 10 11 11 12 12 13 13
REMARK SMILES IDX 14 14
REMARK H PARENT
REMARK Flexibility Score: inf
ROOT
ATOM      1  C   UNL     1       3.814  44.215  11.885  1.00  0.00     0.000 C 
ENDROOT
BRANCH   1   2
ATOM      2  C   UNL     1       4.112  43.839  10.425  1.00  0.00     0.000 C 
BRANCH   2   3
ATOM      3  C   UNL     1       4.216  45.066   9.501  1.00  0.00     0.006 C 
BRANCH   3   4
ATOM      4  C   UNL     1       4.798  46.319  10.176  1.00  0.00     0.053 C 
BRANCH   4   5
ATOM      5  C   UNL     1       5.215  47.352   9.174  1.00  0.00     0.041 C 
ATOM      6  O   UNL     1       4.403  47.746   8.295  1.00  0.00    -0.550 OA
ATOM      7  O   UNL     1       6.509  47.853   9.190  1.00  0.00    -0.550 OA
ENDBRANCH   4   5
ENDBRANCH   3   4
ENDBRANCH   2   3
ENDBRANCH   1   2
BRANCH   1   8
ATOM      8  C   UNL     1       2.398  43.774  12.285  1.00  0.00     0.000 C 
BRANCH   8   9
ATOM      9  C   UNL     1       1.439  43.699  11.086  1.00  0.00     0.000 C 
BRANCH   9  10
ATOM     10  C   UNL     1       0.678  45.012  10.854  1.00  0.00     0.006 C 
BRANCH  10  11
ATOM     11  C   UNL     1       0.475  45.269   9.357  1.00  0.00     0.053 C 
BRANCH  11  12
ATOM     12  C   UNL     1       0.994  46.623   8.984  1.00  0.00     0.041 C 
ATOM     13  O   UNL     1       1.398  47.414   9.876  1.00  0.00    -0.550 OA
ATOM     14  O   UNL     1       1.078  46.990   7.647  1.00  0.00    -0.550 OA
ENDBRANCH  11  12
ENDBRANCH  10  11
ENDBRANCH   9  10
ENDBRANCH   8   9
ENDBRANCH   1   8
TORSDOF 9
ENDMDL
MODEL 9
REMARK VINA RESULT:    -4.709      3.318      4.121
REMARK INTER + INTRA:          -7.649
REMARK INTER:                  -6.607
REMARK INTRA:                  -1.042
REMARK UNBOUND:                -0.462
REMARK SMILES O=C([O-])CCCCCCCCC(=O)[O-]
REMARK SMILES IDX 7 1 6 2 5 3 4 4 2 5 1 6 3 7 8 8 9 9 10 10 11 11 12 12 13 13
REMARK SMILES IDX 14 14
REMARK H PARENT
REMARK Flexibility Score: inf
ROOT
ATOM      1  C   UNL     1       4.112  46.141  10.767  1.00  0.00     0.000 C 
ENDROOT
BRANCH   1   2
ATOM      2  C   UNL     1       4.095  44.668  11.206  1.00  0.00     0.000 C 
BRANCH   2   3
ATOM      3  C   UNL     1       4.030  43.692  10.018  1.00  0.00     0.006 C 
BRANCH   3   4
ATOM      4  C   UNL     1       3.003  42.560  10.184  1.00  0.00     0.053 C 
BRANCH   4   5
ATOM      5  C   UNL     1       2.890  42.111  11.609  1.00  0.00     0.041 C 
ATOM      6  O   UNL     1       3.803  41.415  12.127  1.00  0.00    -0.550 OA
ATOM      7  O   UNL     1       1.763  42.432  12.352  1.00  0.00    -0.550 OA
ENDBRANCH   4   5
ENDBRANCH   3   4
ENDBRANCH   2   3
ENDBRANCH   1   2
BRANCH   1   8
ATOM      8  C   UNL     1       4.317  46.257   9.249  1.00  0.00     0.000 C 
BRANCH   8   9
ATOM      9  C   UNL     1       3.217  47.084   8.565  1.00  0.00     0.000 C 
BRANCH   9  10
ATOM     10  C   UNL     1       2.066  47.441   9.516  1.00  0.00     0.006 C 
BRANCH  10  11
ATOM     11  C   UNL     1       0.743  46.846   9.022  1.00  0.00     0.053 C 
BRANCH  11  12
ATOM     12  C   UNL     1       0.656  45.394   9.377  1.00  0.00     0.041 C 
ATOM     13  O   UNL     1       0.535  45.043  10.580  1.00  0.00    -0.550 OA
ATOM     14  O   UNL     1       0.659  44.432   8.375  1.00  0.00    -0.550 OA
ENDBRANCH  11  12
ENDBRANCH  10  11
ENDBRANCH   9  10
ENDBRANCH   8   9
ENDBRANCH   1   8
TORSDOF 9
ENDMDL
