MODEL 1
REMARK VINA RESULT:    -5.766      0.000      0.000
REMARK INTER + INTRA:          -6.201
REMARK INTER:                  -6.103
REMARK INTRA:                  -0.098
REMARK UNBOUND:                -0.098
REMARK SMILES C=C(C)[C@@H]1CC=C(C)C(=O)C1
REMARK SMILES IDX 8 1 7 2 6 3 5 4 4 5 11 6 9 7 10 8 2 9 1 10 3 11
REMARK H PARENT
REMARK Flexibility Score: inf
ROOT
ATOM      1  C   UNL     1      -7.995  19.469  71.888  1.00  0.00     0.048 C 
ATOM      2  C   UNL     1      -7.806  20.449  70.763  1.00  0.00    -0.012 C 
ATOM      3  C   UNL     1      -7.952  21.765  70.991  1.00  0.00    -0.019 C 
ATOM      4  C   UNL     1      -7.756  22.790  69.907  1.00  0.00     0.036 C 
ATOM      5  C   UNL     1      -8.178  22.232  68.534  1.00  0.00     0.025 C 
ATOM      6  C   UNL     1      -7.429  20.919  68.238  1.00  0.00     0.089 C 
ATOM      7  C   UNL     1      -7.582  19.954  69.382  1.00  0.00     0.158 C 
ATOM      8  O   UNL     1      -7.480  18.718  69.161  1.00  0.00    -0.295 OA
ENDROOT
BRANCH   5   9
ATOM      9  C   UNL     1      -7.964  23.255  67.426  1.00  0.00    -0.077 C 
ATOM     10  C   UNL     1      -7.499  24.479  67.722  1.00  0.00     0.008 C 
ATOM     11  C   UNL     1      -8.266  22.928  65.985  1.00  0.00     0.039 C 
ENDBRANCH   5   9
TORSDOF 1
ENDMDL
MODEL 2
REMARK VINA RESULT:    -5.633      1.561      2.145
REMARK INTER + INTRA:          -6.061
REMARK INTER:                  -5.967
REMARK INTRA:                  -0.093
REMARK UNBOUND:                -0.098
REMARK SMILES C=C(C)[C@@H]1CC=C(C)C(=O)C1
REMARK SMILES IDX 8 1 7 2 6 3 5 4 4 5 11 6 9 7 10 8 2 9 1 10 3 11
REMARK H PARENT
REMARK Flexibility Score: inf
ROOT
ATOM      1  C   UNL     1      -8.020  19.434  72.156  1.00  0.00     0.048 C 
ATOM      2  C   UNL     1      -8.123  20.365  70.980  1.00  0.00    -0.012 C 
ATOM      3  C   UNL     1      -7.638  19.989  69.784  1.00  0.00    -0.019 C 
ATOM      4  C   UNL     1      -7.732  20.873  68.570  1.00  0.00     0.036 C 
ATOM      5  C   UNL     1      -7.649  22.362  68.960  1.00  0.00     0.025 C 
ATOM      6  C   UNL     1      -8.723  22.698  70.012  1.00  0.00     0.089 C 
ATOM      7  C   UNL     1      -8.648  21.740  71.169  1.00  0.00     0.158 C 
ATOM      8  O   UNL     1      -9.072  22.107  72.298  1.00  0.00    -0.295 OA
ENDROOT
BRANCH   5   9
ATOM      9  C   UNL     1      -7.764  23.265  67.741  1.00  0.00    -0.077 C 
ATOM     10  C   UNL     1      -7.486  24.575  67.846  1.00  0.00     0.008 C 
ATOM     11  C   UNL     1      -8.188  22.725  66.398  1.00  0.00     0.039 C 
ENDBRANCH   5   9
TORSDOF 1
ENDMDL
MODEL 3
REMARK VINA RESULT:    -5.612      2.086      4.590
REMARK INTER + INTRA:          -6.038
REMARK INTER:                  -5.944
REMARK INTRA:                  -0.094
REMARK UNBOUND:                -0.098
REMARK SMILES C=C(C)[C@@H]1CC=C(C)C(=O)C1
REMARK SMILES IDX 8 1 7 2 6 3 5 4 4 5 11 6 9 7 10 8 2 9 1 10 3 11
REMARK H PARENT
REMARK Flexibility Score: inf
ROOT
ATOM      1  C   UNL     1      -7.931  25.560  66.573  1.00  0.00     0.048 C 
ATOM      2  C   UNL     1      -7.914  24.195  67.204  1.00  0.00    -0.012 C 
ATOM      3  C   UNL     1      -7.546  24.057  68.489  1.00  0.00    -0.019 C 
ATOM      4  C   UNL     1      -7.531  22.718  69.176  1.00  0.00     0.036 C 
ATOM      5  C   UNL     1      -7.177  21.591  68.186  1.00  0.00     0.025 C 
ATOM      6  C   UNL     1      -8.136  21.618  66.982  1.00  0.00     0.089 C 
ATOM      7  C   UNL     1      -8.185  22.994  66.376  1.00  0.00     0.158 C 
ATOM      8  O   UNL     1      -8.497  23.119  65.161  1.00  0.00    -0.295 OA
ENDROOT
BRANCH   5   9
ATOM      9  C   UNL     1      -7.178  20.229  68.867  1.00  0.00    -0.077 C 
ATOM     10  C   UNL     1      -6.755  19.143  68.200  1.00  0.00     0.008 C 
ATOM     11  C   UNL     1      -7.649  20.062  70.291  1.00  0.00     0.039 C 
ENDBRANCH   5   9
TORSDOF 1
ENDMDL
MODEL 4
REMARK VINA RESULT:    -5.547      2.053      4.653
REMARK INTER + INTRA:          -5.970
REMARK INTER:                  -5.871
REMARK INTRA:                  -0.099
REMARK UNBOUND:                -0.098
REMARK SMILES C=C(C)[C@@H]1CC=C(C)C(=O)C1
REMARK SMILES IDX 8 1 7 2 6 3 5 4 4 5 11 6 9 7 10 8 2 9 1 10 3 11
REMARK H PARENT
REMARK Flexibility Score: inf
ROOT
ATOM      1  C   UNL     1      -7.310  20.152  64.858  1.00  0.00     0.048 C 
ATOM      2  C   UNL     1      -7.256  20.181  66.361  1.00  0.00    -0.012 C 
ATOM      3  C   UNL     1      -6.962  19.060  67.041  1.00  0.00    -0.019 C 
ATOM      4  C   UNL     1      -6.876  19.036  68.543  1.00  0.00     0.036 C 
ATOM      5  C   UNL     1      -7.864  20.037  69.171  1.00  0.00     0.025 C 
ATOM      6  C   UNL     1      -7.635  21.447  68.595  1.00  0.00     0.089 C 
ATOM      7  C   UNL     1      -7.646  21.412  67.091  1.00  0.00     0.158 C 
ATOM      8  O   UNL     1      -7.956  22.455  66.455  1.00  0.00    -0.295 OA
ENDROOT
BRANCH   5   9
ATOM      9  C   UNL     1      -7.771  20.036  70.690  1.00  0.00    -0.077 C 
ATOM     10  C   UNL     1      -7.482  21.171  71.348  1.00  0.00     0.008 C 
ATOM     11  C   UNL     1      -7.995  18.777  71.491  1.00  0.00     0.039 C 
ENDBRANCH   5   9
TORSDOF 1
ENDMDL
MODEL 5
REMARK VINA RESULT:    -5.542      1.535      2.297
REMARK INTER + INTRA:          -5.964
REMARK INTER:                  -5.865
REMARK INTRA:                  -0.099
REMARK UNBOUND:                -0.098
REMARK SMILES C=C(C)[C@@H]1CC=C(C)C(=O)C1
REMARK SMILES IDX 8 1 7 2 6 3 5 4 4 5 11 6 9 7 10 8 2 9 1 10 3 11
REMARK H PARENT
REMARK Flexibility Score: inf
ROOT
ATOM      1  C   UNL     1      -9.001  21.072  73.187  1.00  0.00     0.048 C 
ATOM      2  C   UNL     1      -8.476  21.017  71.778  1.00  0.00    -0.012 C 
ATOM      3  C   UNL     1      -8.554  22.103  70.992  1.00  0.00    -0.019 C 
ATOM      4  C   UNL     1      -8.027  22.108  69.582  1.00  0.00     0.036 C 
ATOM      5  C   UNL     1      -8.172  20.719  68.931  1.00  0.00     0.025 C 
ATOM      6  C   UNL     1      -7.494  19.647  69.804  1.00  0.00     0.089 C 
ATOM      7  C   UNL     1      -7.987  19.730  71.223  1.00  0.00     0.158 C 
ATOM      8  O   UNL     1      -7.946  18.701  71.948  1.00  0.00    -0.295 OA
ENDROOT
BRANCH   5   9
ATOM      9  C   UNL     1      -7.624  20.709  67.511  1.00  0.00    -0.077 C 
ATOM     10  C   UNL     1      -6.804  19.722  67.114  1.00  0.00     0.008 C 
ATOM     11  C   UNL     1      -7.978  21.791  66.522  1.00  0.00     0.039 C 
ENDBRANCH   5   9
TORSDOF 1
ENDMDL
MODEL 6
REMARK VINA RESULT:    -5.496      1.934      2.612
REMARK INTER + INTRA:          -5.916
REMARK INTER:                  -5.818
REMARK INTRA:                  -0.098
REMARK UNBOUND:                -0.098
REMARK SMILES C=C(C)[C@@H]1CC=C(C)C(=O)C1
REMARK SMILES IDX 8 1 7 2 6 3 5 4 4 5 11 6 9 7 10 8 2 9 1 10 3 11
REMARK H PARENT
REMARK Flexibility Score: inf
ROOT
ATOM      1  C   UNL     1      -6.892  19.145  68.369  1.00  0.00     0.048 C 
ATOM      2  C   UNL     1      -7.126  20.621  68.194  1.00  0.00    -0.012 C 
ATOM      3  C   UNL     1      -6.865  21.464  69.208  1.00  0.00    -0.019 C 
ATOM      4  C   UNL     1      -7.062  22.950  69.081  1.00  0.00     0.036 C 
ATOM      5  C   UNL     1      -8.239  23.275  68.140  1.00  0.00     0.025 C 
ATOM      6  C   UNL     1      -8.033  22.595  66.774  1.00  0.00     0.089 C 
ATOM      7  C   UNL     1      -7.757  21.127  66.950  1.00  0.00     0.158 C 
ATOM      8  O   UNL     1      -8.035  20.333  66.012  1.00  0.00    -0.295 OA
ENDROOT
BRANCH   5   9
ATOM      9  C   UNL     1      -8.434  24.777  67.989  1.00  0.00    -0.077 C 
ATOM     10  C   UNL     1      -7.986  25.407  66.891  1.00  0.00     0.008 C 
ATOM     11  C   UNL     1      -9.125  25.592  69.054  1.00  0.00     0.039 C 
ENDBRANCH   5   9
TORSDOF 1
ENDMDL
MODEL 7
REMARK VINA RESULT:    -5.422      1.933      2.900
REMARK INTER + INTRA:          -5.837
REMARK INTER:                  -5.743
REMARK INTRA:                  -0.094
REMARK UNBOUND:                -0.098
REMARK SMILES C=C(C)[C@@H]1CC=C(C)C(=O)C1
REMARK SMILES IDX 8 1 7 2 6 3 5 4 4 5 11 6 9 7 10 8 2 9 1 10 3 11
REMARK H PARENT
REMARK Flexibility Score: inf
ROOT
ATOM      1  C   UNL     1      -7.590  20.625  72.006  1.00  0.00     0.048 C 
ATOM      2  C   UNL     1      -7.718  20.615  70.507  1.00  0.00    -0.012 C 
ATOM      3  C   UNL     1      -7.661  19.451  69.839  1.00  0.00    -0.019 C 
ATOM      4  C   UNL     1      -7.803  19.382  68.342  1.00  0.00     0.036 C 
ATOM      5  C   UNL     1      -7.223  20.642  67.671  1.00  0.00     0.025 C 
ATOM      6  C   UNL     1      -7.873  21.907  68.261  1.00  0.00     0.089 C 
ATOM      7  C   UNL     1      -7.783  21.897  69.763  1.00  0.00     0.158 C 
ATOM      8  O   UNL     1      -7.801  22.992  70.387  1.00  0.00    -0.295 OA
ENDROOT
BRANCH   5   9
ATOM      9  C   UNL     1      -7.380  20.591  66.158  1.00  0.00    -0.077 C 
ATOM     10  C   UNL     1      -6.938  19.524  65.472  1.00  0.00     0.008 C 
ATOM     11  C   UNL     1      -8.025  21.721  65.395  1.00  0.00     0.039 C 
ENDBRANCH   5   9
TORSDOF 1
ENDMDL
MODEL 8
REMARK VINA RESULT:    -5.407      1.716      2.765
REMARK INTER + INTRA:          -5.822
REMARK INTER:                  -5.723
REMARK INTRA:                  -0.099
REMARK UNBOUND:                -0.098
REMARK SMILES C=C(C)[C@@H]1CC=C(C)C(=O)C1
REMARK SMILES IDX 8 1 7 2 6 3 5 4 4 5 11 6 9 7 10 8 2 9 1 10 3 11
REMARK H PARENT
REMARK Flexibility Score: inf
ROOT
ATOM      1  C   UNL     1      -6.818  19.427  68.326  1.00  0.00     0.048 C 
ATOM      2  C   UNL     1      -7.323  20.838  68.208  1.00  0.00    -0.012 C 
ATOM      3  C   UNL     1      -7.620  21.344  67.000  1.00  0.00    -0.019 C 
ATOM      4  C   UNL     1      -8.147  22.743  66.827  1.00  0.00     0.036 C 
ATOM      5  C   UNL     1      -7.569  23.690  67.896  1.00  0.00     0.025 C 
ATOM      6  C   UNL     1      -7.842  23.133  69.306  1.00  0.00     0.089 C 
ATOM      7  C   UNL     1      -7.376  21.707  69.411  1.00  0.00     0.158 C 
ATOM      8  O   UNL     1      -7.064  21.244  70.541  1.00  0.00    -0.295 OA
ENDROOT
BRANCH   5   9
ATOM      9  C   UNL     1      -8.111  25.104  67.742  1.00  0.00    -0.077 C 
ATOM     10  C   UNL     1      -8.736  25.700  68.770  1.00  0.00     0.008 C 
ATOM     11  C   UNL     1      -7.967  25.865  66.448  1.00  0.00     0.039 C 
ENDBRANCH   5   9
TORSDOF 1
ENDMDL
