MODEL 1
REMARK VINA RESULT:    -7.056      0.000      0.000
REMARK INTER + INTRA:         -13.784
REMARK INTER:                 -12.830
REMARK INTRA:                  -0.954
REMARK UNBOUND:                -0.954
REMARK SMILES CCCCCCCCCCCCCCCC(=O)[O-]
REMARK SMILES IDX 9 1 10 2 11 3 12 4 13 5 14 6 15 7 16 8 17 9 18 10 8 11 7 12
REMARK SMILES IDX 6 13 5 14 4 15 3 16 2 17 1 18
REMARK H PARENT
REMARK Flexibility Score: inf
ROOT
ATOM      1  C   UNL     1       8.960  -6.046   3.328  1.00  0.00     0.000 C 
ENDROOT
BRANCH   1   2
ATOM      2  C   UNL     1       9.812  -7.107   4.046  1.00  0.00     0.000 C 
BRANCH   2   3
ATOM      3  C   UNL     1      11.050  -6.506   4.731  1.00  0.00     0.000 C 
BRANCH   3   4
ATOM      4  C   UNL     1      11.150  -6.892   6.218  1.00  0.00     0.000 C 
BRANCH   4   5
ATOM      5  C   UNL     1       9.794  -7.304   6.813  1.00  0.00     0.000 C 
BRANCH   5   6
ATOM      6  C   UNL     1       9.215  -6.243   7.761  1.00  0.00     0.006 C 
BRANCH   6   7
ATOM      7  C   UNL     1       7.800  -5.840   7.333  1.00  0.00     0.053 C 
BRANCH   7   8
ATOM      8  C   UNL     1       7.022  -5.333   8.507  1.00  0.00     0.041 C 
ATOM      9  O   UNL     1       7.237  -5.795   9.657  1.00  0.00    -0.550 OA
ATOM     10  O   UNL     1       6.024  -4.384   8.321  1.00  0.00    -0.550 OA
ENDBRANCH   7   8
ENDBRANCH   6   7
ENDBRANCH   5   6
ENDBRANCH   4   5
ENDBRANCH   3   4
ENDBRANCH   2   3
ENDBRANCH   1   2
BRANCH   1  11
ATOM     11  C   UNL     1       9.294  -5.936   1.831  1.00  0.00     0.000 C 
BRANCH  11  12
ATOM     12  C   UNL     1       8.600  -4.737   1.157  1.00  0.00    -0.000 C 
BRANCH  12  13
ATOM     13  C   UNL     1       9.249  -3.394   1.531  1.00  0.00    -0.000 C 
BRANCH  13  14
ATOM     14  C   UNL     1       9.637  -2.560   0.301  1.00  0.00    -0.000 C 
BRANCH  14  15
ATOM     15  C   UNL     1       9.529  -3.392  -0.984  1.00  0.00    -0.000 C 
BRANCH  15  16
ATOM     16  C   UNL     1      10.692  -3.085  -1.938  1.00  0.00    -0.000 C 
BRANCH  16  17
ATOM     17  C   UNL     1      10.464  -3.651  -3.348  1.00  0.00    -0.003 C 
ATOM     18  C   UNL     1       9.481  -4.821  -3.364  1.00  0.00     0.004 C 
ENDBRANCH  16  17
ENDBRANCH  15  16
ENDBRANCH  14  15
ENDBRANCH  13  14
ENDBRANCH  12  13
ENDBRANCH  11  12
ENDBRANCH   1  11
TORSDOF 14
ENDMDL
MODEL 2
REMARK VINA RESULT:    -6.873      6.846      9.640
REMARK INTER + INTRA:         -13.453
REMARK INTER:                 -12.123
REMARK INTRA:                  -1.330
REMARK UNBOUND:                -0.954
REMARK SMILES CCCCCCCCCCCCCCCC(=O)[O-]
REMARK SMILES IDX 9 1 10 2 11 3 12 4 13 5 14 6 15 7 16 8 17 9 18 10 8 11 7 12
REMARK SMILES IDX 6 13 5 14 4 15 3 16 2 17 1 18
REMARK H PARENT
REMARK Flexibility Score: inf
ROOT
ATOM      1  C   UNL     1       7.896   1.924   1.447  1.00  0.00     0.000 C 
ENDROOT
BRANCH   1   2
ATOM      2  C   UNL     1       9.265   1.239   1.598  1.00  0.00     0.000 C 
BRANCH   2   3
ATOM      3  C   UNL     1       9.232   0.067   2.593  1.00  0.00     0.000 C 
BRANCH   3   4
ATOM      4  C   UNL     1       8.941  -1.282   1.910  1.00  0.00     0.000 C 
BRANCH   4   5
ATOM      5  C   UNL     1      10.096  -1.750   1.011  1.00  0.00     0.000 C 
BRANCH   5   6
ATOM      6  C   UNL     1       9.617  -2.254  -0.359  1.00  0.00     0.006 C 
BRANCH   6   7
ATOM      7  C   UNL     1      10.646  -3.203  -0.983  1.00  0.00     0.053 C 
BRANCH   7   8
ATOM      8  C   UNL     1      10.230  -3.590  -2.367  1.00  0.00     0.041 C 
ATOM      9  O   UNL     1       9.330  -4.453  -2.541  1.00  0.00    -0.550 OA
ATOM     10  O   UNL     1      10.871  -3.032  -3.466  1.00  0.00    -0.550 OA
ENDBRANCH   7   8
ENDBRANCH   6   7
ENDBRANCH   5   6
ENDBRANCH   4   5
ENDBRANCH   3   4
ENDBRANCH   2   3
ENDBRANCH   1   2
BRANCH   1  11
ATOM     11  C   UNL     1       7.942   3.420   1.799  1.00  0.00     0.000 C 
BRANCH  11  12
ATOM     12  C   UNL     1       9.286   3.839   2.422  1.00  0.00    -0.000 C 
BRANCH  12  13
ATOM     13  C   UNL     1       9.152   4.243   3.899  1.00  0.00    -0.000 C 
BRANCH  13  14
ATOM     14  C   UNL     1      10.157   3.519   4.806  1.00  0.00    -0.000 C 
BRANCH  14  15
ATOM     15  C   UNL     1      11.447   3.187   4.044  1.00  0.00    -0.000 C 
BRANCH  15  16
ATOM     16  C   UNL     1      12.500   4.288   4.238  1.00  0.00    -0.000 C 
BRANCH  16  17
ATOM     17  C   UNL     1      12.978   4.889   2.907  1.00  0.00    -0.003 C 
ATOM     18  C   UNL     1      12.417   6.287   2.654  1.00  0.00     0.004 C 
ENDBRANCH  16  17
ENDBRANCH  15  16
ENDBRANCH  14  15
ENDBRANCH  13  14
ENDBRANCH  12  13
ENDBRANCH  11  12
ENDBRANCH   1  11
TORSDOF 14
ENDMDL
MODEL 3
REMARK VINA RESULT:    -6.813      1.223      2.221
REMARK INTER + INTRA:         -13.344
REMARK INTER:                 -12.472
REMARK INTRA:                  -0.872
REMARK UNBOUND:                -0.954
REMARK SMILES CCCCCCCCCCCCCCCC(=O)[O-]
REMARK SMILES IDX 9 1 10 2 11 3 12 4 13 5 14 6 15 7 16 8 17 9 18 10 8 11 7 12
REMARK SMILES IDX 6 13 5 14 4 15 3 16 2 17 1 18
REMARK H PARENT
REMARK Flexibility Score: inf
ROOT
ATOM      1  C   UNL     1       8.763  -6.330   4.638  1.00  0.00     0.000 C 
ENDROOT
BRANCH   1   2
ATOM      2  C   UNL     1       9.984  -7.251   4.808  1.00  0.00     0.000 C 
BRANCH   2   3
ATOM      3  C   UNL     1      10.585  -7.181   6.222  1.00  0.00     0.000 C 
BRANCH   3   4
ATOM      4  C   UNL     1       9.507  -7.082   7.317  1.00  0.00     0.000 C 
BRANCH   4   5
ATOM      5  C   UNL     1       9.609  -5.781   8.129  1.00  0.00     0.000 C 
BRANCH   5   6
ATOM      6  C   UNL     1       8.390  -5.548   9.035  1.00  0.00     0.006 C 
BRANCH   6   7
ATOM      7  C   UNL     1       7.100  -5.481   8.210  1.00  0.00     0.053 C 
BRANCH   7   8
ATOM      8  C   UNL     1       5.903  -5.492   9.108  1.00  0.00     0.041 C 
ATOM      9  O   UNL     1       5.116  -4.510   9.126  1.00  0.00    -0.550 OA
ATOM     10  O   UNL     1       5.684  -6.566   9.961  1.00  0.00    -0.550 OA
ENDBRANCH   7   8
ENDBRANCH   6   7
ENDBRANCH   5   6
ENDBRANCH   4   5
ENDBRANCH   3   4
ENDBRANCH   2   3
ENDBRANCH   1   2
BRANCH   1  11
ATOM     11  C   UNL     1       8.894  -5.395   3.425  1.00  0.00     0.000 C 
BRANCH  11  12
ATOM     12  C   UNL     1       9.713  -6.020   2.281  1.00  0.00    -0.000 C 
BRANCH  12  13
ATOM     13  C   UNL     1       8.883  -6.227   1.005  1.00  0.00    -0.000 C 
BRANCH  13  14
ATOM     14  C   UNL     1       7.777  -5.174   0.839  1.00  0.00    -0.000 C 
BRANCH  14  15
ATOM     15  C   UNL     1       7.402  -4.999  -0.638  1.00  0.00    -0.000 C 
BRANCH  15  16
ATOM     16  C   UNL     1       8.616  -4.552  -1.465  1.00  0.00    -0.000 C 
BRANCH  16  17
ATOM     17  C   UNL     1       9.416  -3.433  -0.782  1.00  0.00    -0.003 C 
ATOM     18  C   UNL     1      10.548  -2.895  -1.657  1.00  0.00     0.004 C 
ENDBRANCH  16  17
ENDBRANCH  15  16
ENDBRANCH  14  15
ENDBRANCH  13  14
ENDBRANCH  12  13
ENDBRANCH  11  12
ENDBRANCH   1  11
TORSDOF 14
ENDMDL
MODEL 4
REMARK VINA RESULT:    -6.764      3.713      5.309
REMARK INTER + INTRA:         -13.254
REMARK INTER:                 -11.319
REMARK INTRA:                  -1.936
REMARK UNBOUND:                -0.954
REMARK SMILES CCCCCCCCCCCCCCCC(=O)[O-]
REMARK SMILES IDX 9 1 10 2 11 3 12 4 13 5 14 6 15 7 16 8 17 9 18 10 8 11 7 12
REMARK SMILES IDX 6 13 5 14 4 15 3 16 2 17 1 18
REMARK H PARENT
REMARK Flexibility Score: inf
ROOT
ATOM      1  C   UNL     1       7.833  -1.221   2.615  1.00  0.00     0.000 C 
ENDROOT
BRANCH   1   2
ATOM      2  C   UNL     1       6.350  -1.059   2.236  1.00  0.00     0.000 C 
BRANCH   2   3
ATOM      3  C   UNL     1       5.529  -2.330   2.510  1.00  0.00     0.000 C 
BRANCH   3   4
ATOM      4  C   UNL     1       6.407  -3.590   2.621  1.00  0.00     0.000 C 
BRANCH   4   5
ATOM      5  C   UNL     1       6.603  -4.295   1.270  1.00  0.00     0.000 C 
BRANCH   5   6
ATOM      6  C   UNL     1       7.749  -5.317   1.293  1.00  0.00     0.006 C 
BRANCH   6   7
ATOM      7  C   UNL     1       8.425  -5.351   2.668  1.00  0.00     0.053 C 
BRANCH   7   8
ATOM      8  C   UNL     1       9.707  -6.120   2.603  1.00  0.00     0.041 C 
ATOM      9  O   UNL     1      10.793  -5.568   2.919  1.00  0.00    -0.550 OA
ATOM     10  O   UNL     1       9.709  -7.432   2.147  1.00  0.00    -0.550 OA
ENDBRANCH   7   8
ENDBRANCH   6   7
ENDBRANCH   5   6
ENDBRANCH   4   5
ENDBRANCH   3   4
ENDBRANCH   2   3
ENDBRANCH   1   2
BRANCH   1  11
ATOM     11  C   UNL     1       8.747  -0.248   1.852  1.00  0.00     0.000 C 
BRANCH  11  12
ATOM     12  C   UNL     1       9.701  -0.970   0.883  1.00  0.00    -0.000 C 
BRANCH  12  13
ATOM     13  C   UNL     1      10.131  -2.353   1.399  1.00  0.00    -0.000 C 
BRANCH  13  14
ATOM     14  C   UNL     1      10.681  -3.257   0.286  1.00  0.00    -0.000 C 
BRANCH  14  15
ATOM     15  C   UNL     1       9.764  -3.236  -0.944  1.00  0.00    -0.000 C 
BRANCH  15  16
ATOM     16  C   UNL     1      10.571  -2.989  -2.227  1.00  0.00    -0.000 C 
BRANCH  16  17
ATOM     17  C   UNL     1      10.319  -4.062  -3.297  1.00  0.00    -0.003 C 
ATOM     18  C   UNL     1       9.095  -4.925  -2.994  1.00  0.00     0.004 C 
ENDBRANCH  16  17
ENDBRANCH  15  16
ENDBRANCH  14  15
ENDBRANCH  13  14
ENDBRANCH  12  13
ENDBRANCH  11  12
ENDBRANCH   1  11
TORSDOF 14
ENDMDL
MODEL 5
REMARK VINA RESULT:    -6.760      6.249      9.054
REMARK INTER + INTRA:         -13.248
REMARK INTER:                 -12.132
REMARK INTRA:                  -1.116
REMARK UNBOUND:                -0.954
REMARK SMILES CCCCCCCCCCCCCCCC(=O)[O-]
REMARK SMILES IDX 9 1 10 2 11 3 12 4 13 5 14 6 15 7 16 8 17 9 18 10 8 11 7 12
REMARK SMILES IDX 6 13 5 14 4 15 3 16 2 17 1 18
REMARK H PARENT
REMARK Flexibility Score: inf
ROOT
ATOM      1  C   UNL     1      12.485   0.130   3.440  1.00  0.00     0.000 C 
ENDROOT
BRANCH   1   2
ATOM      2  C   UNL     1      11.729  -0.937   2.630  1.00  0.00     0.000 C 
BRANCH   2   3
ATOM      3  C   UNL     1      10.491  -0.370   1.916  1.00  0.00     0.000 C 
BRANCH   3   4
ATOM      4  C   UNL     1       9.674  -1.458   1.196  1.00  0.00     0.000 C 
BRANCH   4   5
ATOM      5  C   UNL     1      10.087  -1.630  -0.274  1.00  0.00     0.000 C 
BRANCH   5   6
ATOM      6  C   UNL     1      10.288  -3.102  -0.667  1.00  0.00     0.006 C 
BRANCH   6   7
ATOM      7  C   UNL     1      10.530  -3.239  -2.173  1.00  0.00     0.053 C 
BRANCH   7   8
ATOM      8  C   UNL     1       9.710  -4.356  -2.737  1.00  0.00     0.041 C 
ATOM      9  O   UNL     1       8.811  -4.896  -2.041  1.00  0.00    -0.550 OA
ATOM     10  O   UNL     1       9.972  -4.835  -4.015  1.00  0.00    -0.550 OA
ENDBRANCH   7   8
ENDBRANCH   6   7
ENDBRANCH   5   6
ENDBRANCH   4   5
ENDBRANCH   3   4
ENDBRANCH   2   3
ENDBRANCH   1   2
BRANCH   1  11
ATOM     11  C   UNL     1      11.595   1.326   3.817  1.00  0.00     0.000 C 
BRANCH  11  12
ATOM     12  C   UNL     1      12.401   2.620   4.030  1.00  0.00    -0.000 C 
BRANCH  12  13
ATOM     13  C   UNL     1      11.511   3.873   4.052  1.00  0.00    -0.000 C 
BRANCH  13  14
ATOM     14  C   UNL     1      10.140   3.616   4.695  1.00  0.00    -0.000 C 
BRANCH  14  15
ATOM     15  C   UNL     1       9.012   4.209   3.841  1.00  0.00    -0.000 C 
BRANCH  15  16
ATOM     16  C   UNL     1       9.207   3.867   2.357  1.00  0.00    -0.000 C 
BRANCH  16  17
ATOM     17  C   UNL     1       8.383   2.647   1.919  1.00  0.00    -0.003 C 
ATOM     18  C   UNL     1       7.315   2.994   0.883  1.00  0.00     0.004 C 
ENDBRANCH  16  17
ENDBRANCH  15  16
ENDBRANCH  14  15
ENDBRANCH  13  14
ENDBRANCH  12  13
ENDBRANCH  11  12
ENDBRANCH   1  11
TORSDOF 14
ENDMDL
MODEL 6
REMARK VINA RESULT:    -6.689      4.766      7.564
REMARK INTER + INTRA:         -13.117
REMARK INTER:                 -12.144
REMARK INTRA:                  -0.973
REMARK UNBOUND:                -0.954
REMARK SMILES CCCCCCCCCCCCCCCC(=O)[O-]
REMARK SMILES IDX 9 1 10 2 11 3 12 4 13 5 14 6 15 7 16 8 17 9 18 10 8 11 7 12
REMARK SMILES IDX 6 13 5 14 4 15 3 16 2 17 1 18
REMARK H PARENT
REMARK Flexibility Score: inf
ROOT
ATOM      1  C   UNL     1      10.311  -1.100   1.228  1.00  0.00     0.000 C 
ENDROOT
BRANCH   1   2
ATOM      2  C   UNL     1       9.408  -1.996   0.362  1.00  0.00     0.000 C 
BRANCH   2   3
ATOM      3  C   UNL     1      10.175  -2.675  -0.785  1.00  0.00     0.000 C 
BRANCH   3   4
ATOM      4  C   UNL     1       9.450  -3.922  -1.325  1.00  0.00     0.000 C 
BRANCH   4   5
ATOM      5  C   UNL     1       8.422  -4.483  -0.330  1.00  0.00     0.000 C 
BRANCH   5   6
ATOM      6  C   UNL     1       8.810  -5.870   0.206  1.00  0.00     0.006 C 
BRANCH   6   7
ATOM      7  C   UNL     1       9.231  -5.789   1.678  1.00  0.00     0.053 C 
BRANCH   7   8
ATOM      8  C   UNL     1       8.448  -6.763   2.501  1.00  0.00     0.041 C 
ATOM      9  O   UNL     1       7.933  -7.778   1.962  1.00  0.00    -0.550 OA
ATOM     10  O   UNL     1       8.245  -6.524   3.854  1.00  0.00    -0.550 OA
ENDBRANCH   7   8
ENDBRANCH   6   7
ENDBRANCH   5   6
ENDBRANCH   4   5
ENDBRANCH   3   4
ENDBRANCH   2   3
ENDBRANCH   1   2
BRANCH   1  11
ATOM     11  C   UNL     1      10.211   0.386   0.845  1.00  0.00     0.000 C 
BRANCH  11  12
ATOM     12  C   UNL     1       9.570   1.240   1.953  1.00  0.00    -0.000 C 
BRANCH  12  13
ATOM     13  C   UNL     1       8.239   1.873   1.516  1.00  0.00    -0.000 C 
BRANCH  13  14
ATOM     14  C   UNL     1       8.130   3.355   1.903  1.00  0.00    -0.000 C 
BRANCH  14  15
ATOM     15  C   UNL     1       9.436   3.856   2.533  1.00  0.00    -0.000 C 
BRANCH  15  16
ATOM     16  C   UNL     1       9.225   4.242   4.005  1.00  0.00    -0.000 C 
BRANCH  16  17
ATOM     17  C   UNL     1      10.160   3.478   4.955  1.00  0.00    -0.003 C 
ATOM     18  C   UNL     1      11.618   3.507   4.500  1.00  0.00     0.004 C 
ENDBRANCH  16  17
ENDBRANCH  15  16
ENDBRANCH  14  15
ENDBRANCH  13  14
ENDBRANCH  12  13
ENDBRANCH  11  12
ENDBRANCH   1  11
TORSDOF 14
ENDMDL
MODEL 7
REMARK VINA RESULT:    -6.636      3.036      6.440
REMARK INTER + INTRA:         -13.020
REMARK INTER:                 -11.043
REMARK INTRA:                  -1.978
REMARK UNBOUND:                -0.954
REMARK SMILES CCCCCCCCCCCCCCCC(=O)[O-]
REMARK SMILES IDX 9 1 10 2 11 3 12 4 13 5 14 6 15 7 16 8 17 9 18 10 8 11 7 12
REMARK SMILES IDX 6 13 5 14 4 15 3 16 2 17 1 18
REMARK H PARENT
REMARK Flexibility Score: inf
ROOT
ATOM      1  C   UNL     1       9.500  -3.406  -1.202  1.00  0.00     0.000 C 
ENDROOT
BRANCH   1   2
ATOM      2  C   UNL     1      10.230  -2.898   0.054  1.00  0.00     0.000 C 
BRANCH   2   3
ATOM      3  C   UNL     1       9.845  -1.454   0.417  1.00  0.00     0.000 C 
BRANCH   3   4
ATOM      4  C   UNL     1       9.578  -1.274   1.923  1.00  0.00     0.000 C 
BRANCH   4   5
ATOM      5  C   UNL     1       8.109  -0.942   2.226  1.00  0.00     0.000 C 
BRANCH   5   6
ATOM      6  C   UNL     1       7.174  -2.145   2.025  1.00  0.00     0.006 C 
BRANCH   6   7
ATOM      7  C   UNL     1       6.157  -2.245   3.167  1.00  0.00     0.053 C 
BRANCH   7   8
ATOM      8  C   UNL     1       4.928  -1.455   2.845  1.00  0.00     0.041 C 
ATOM      9  O   UNL     1       4.212  -0.992   3.771  1.00  0.00    -0.550 OA
ATOM     10  O   UNL     1       4.546  -1.271   1.522  1.00  0.00    -0.550 OA
ENDBRANCH   7   8
ENDBRANCH   6   7
ENDBRANCH   5   6
ENDBRANCH   4   5
ENDBRANCH   3   4
ENDBRANCH   2   3
ENDBRANCH   1   2
BRANCH   1  11
ATOM     11  C   UNL     1       8.964  -4.837  -1.034  1.00  0.00     0.000 C 
BRANCH  11  12
ATOM     12  C   UNL     1       7.596  -4.877  -0.328  1.00  0.00    -0.000 C 
BRANCH  12  13
ATOM     13  C   UNL     1       7.630  -5.684   0.980  1.00  0.00    -0.000 C 
BRANCH  13  14
ATOM     14  C   UNL     1       9.055  -6.078   1.398  1.00  0.00    -0.000 C 
BRANCH  14  15
ATOM     15  C   UNL     1       9.481  -5.333   2.669  1.00  0.00    -0.000 C 
BRANCH  15  16
ATOM     16  C   UNL     1       8.341  -5.303   3.698  1.00  0.00    -0.000 C 
BRANCH  16  17
ATOM     17  C   UNL     1       8.341  -6.536   4.614  1.00  0.00    -0.003 C 
ATOM     18  C   UNL     1       9.071  -6.292   5.935  1.00  0.00     0.004 C 
ENDBRANCH  16  17
ENDBRANCH  15  16
ENDBRANCH  14  15
ENDBRANCH  13  14
ENDBRANCH  12  13
ENDBRANCH  11  12
ENDBRANCH   1  11
TORSDOF 14
ENDMDL
MODEL 8
REMARK VINA RESULT:    -6.613      3.182      5.507
REMARK INTER + INTRA:         -12.980
REMARK INTER:                 -11.267
REMARK INTRA:                  -1.713
REMARK UNBOUND:                -0.954
REMARK SMILES CCCCCCCCCCCCCCCC(=O)[O-]
REMARK SMILES IDX 9 1 10 2 11 3 12 4 13 5 14 6 15 7 16 8 17 9 18 10 8 11 7 12
REMARK SMILES IDX 6 13 5 14 4 15 3 16 2 17 1 18
REMARK H PARENT
REMARK Flexibility Score: inf
ROOT
ATOM      1  C   UNL     1       9.384  -4.203  -1.689  1.00  0.00     0.000 C 
ENDROOT
BRANCH   1   2
ATOM      2  C   UNL     1       8.748  -5.182  -0.686  1.00  0.00     0.000 C 
BRANCH   2   3
ATOM      3  C   UNL     1       7.302  -4.802  -0.325  1.00  0.00     0.000 C 
BRANCH   3   4
ATOM      4  C   UNL     1       7.031  -4.879   1.189  1.00  0.00     0.000 C 
BRANCH   4   5
ATOM      5  C   UNL     1       7.991  -5.836   1.912  1.00  0.00     0.000 C 
BRANCH   5   6
ATOM      6  C   UNL     1       8.628  -5.207   3.161  1.00  0.00     0.006 C 
BRANCH   6   7
ATOM      7  C   UNL     1       8.661  -6.208   4.321  1.00  0.00     0.053 C 
BRANCH   7   8
ATOM      8  C   UNL     1      10.042  -6.755   4.502  1.00  0.00     0.041 C 
ATOM      9  O   UNL     1      10.282  -7.578   5.424  1.00  0.00    -0.550 OA
ATOM     10  O   UNL     1      11.075  -6.319   3.682  1.00  0.00    -0.550 OA
ENDBRANCH   7   8
ENDBRANCH   6   7
ENDBRANCH   5   6
ENDBRANCH   4   5
ENDBRANCH   3   4
ENDBRANCH   2   3
ENDBRANCH   1   2
BRANCH   1  11
ATOM     11  C   UNL     1      10.034  -2.992  -0.999  1.00  0.00     0.000 C 
BRANCH  11  12
ATOM     12  C   UNL     1      10.552  -3.324   0.412  1.00  0.00    -0.000 C 
BRANCH  12  13
ATOM     13  C   UNL     1      10.216  -2.228   1.436  1.00  0.00    -0.000 C 
BRANCH  13  14
ATOM     14  C   UNL     1       8.831  -1.604   1.205  1.00  0.00    -0.000 C 
BRANCH  14  15
ATOM     15  C   UNL     1       8.416  -0.729   2.395  1.00  0.00    -0.000 C 
BRANCH  15  16
ATOM     16  C   UNL     1       9.130   0.630   2.355  1.00  0.00    -0.000 C 
BRANCH  16  17
ATOM     17  C   UNL     1       8.403   1.652   1.468  1.00  0.00    -0.003 C 
ATOM     18  C   UNL     1       8.445   3.068   2.041  1.00  0.00     0.004 C 
ENDBRANCH  16  17
ENDBRANCH  15  16
ENDBRANCH  14  15
ENDBRANCH  13  14
ENDBRANCH  12  13
ENDBRANCH  11  12
ENDBRANCH   1  11
TORSDOF 14
ENDMDL
MODEL 9
REMARK VINA RESULT:    -6.613      2.100      3.746
REMARK INTER + INTRA:         -12.980
REMARK INTER:                 -11.137
REMARK INTRA:                  -1.843
REMARK UNBOUND:                -0.954
REMARK SMILES CCCCCCCCCCCCCCCC(=O)[O-]
REMARK SMILES IDX 9 1 10 2 11 3 12 4 13 5 14 6 15 7 16 8 17 9 18 10 8 11 7 12
REMARK SMILES IDX 6 13 5 14 4 15 3 16 2 17 1 18
REMARK H PARENT
REMARK Flexibility Score: inf
ROOT
ATOM      1  C   UNL     1       6.418  -3.819   2.137  1.00  0.00     0.000 C 
ENDROOT
BRANCH   1   2
ATOM      2  C   UNL     1       6.647  -4.305   0.696  1.00  0.00     0.000 C 
BRANCH   2   3
ATOM      3  C   UNL     1       6.954  -5.810   0.621  1.00  0.00     0.000 C 
BRANCH   3   4
ATOM      4  C   UNL     1       8.368  -6.151   1.128  1.00  0.00     0.000 C 
BRANCH   4   5
ATOM      5  C   UNL     1       8.352  -6.844   2.499  1.00  0.00     0.000 C 
BRANCH   5   6
ATOM      6  C   UNL     1       9.187  -6.099   3.552  1.00  0.00     0.006 C 
BRANCH   6   7
ATOM      7  C   UNL     1       8.660  -6.374   4.964  1.00  0.00     0.053 C 
BRANCH   7   8
ATOM      8  C   UNL     1       9.744  -6.939   5.827  1.00  0.00     0.041 C 
ATOM      9  O   UNL     1      10.903  -7.102   5.364  1.00  0.00    -0.550 OA
ATOM     10  O   UNL     1       9.462  -7.331   7.130  1.00  0.00    -0.550 OA
ENDBRANCH   7   8
ENDBRANCH   6   7
ENDBRANCH   5   6
ENDBRANCH   4   5
ENDBRANCH   3   4
ENDBRANCH   2   3
ENDBRANCH   1   2
BRANCH   1  11
ATOM     11  C   UNL     1       7.299  -2.612   2.500  1.00  0.00     0.000 C 
BRANCH  11  12
ATOM     12  C   UNL     1       8.262  -2.221   1.365  1.00  0.00    -0.000 C 
BRANCH  12  13
ATOM     13  C   UNL     1       9.673  -2.799   1.563  1.00  0.00    -0.000 C 
BRANCH  13  14
ATOM     14  C   UNL     1      10.525  -2.736   0.286  1.00  0.00    -0.000 C 
BRANCH  14  15
ATOM     15  C   UNL     1       9.745  -3.274  -0.921  1.00  0.00    -0.000 C 
BRANCH  15  16
ATOM     16  C   UNL     1      10.578  -3.166  -2.206  1.00  0.00    -0.000 C 
BRANCH  16  17
ATOM     17  C   UNL     1      10.047  -4.067  -3.331  1.00  0.00    -0.003 C 
ATOM     18  C   UNL     1       9.068  -5.127  -2.828  1.00  0.00     0.004 C 
ENDBRANCH  16  17
ENDBRANCH  15  16
ENDBRANCH  14  15
ENDBRANCH  13  14
ENDBRANCH  12  13
ENDBRANCH  11  12
ENDBRANCH   1  11
TORSDOF 14
ENDMDL
