MODEL 1
REMARK VINA RESULT:    -6.704      0.000      0.000
REMARK INTER + INTRA:         -12.313
REMARK INTER:                 -10.428
REMARK INTRA:                  -1.886
REMARK UNBOUND:                -1.886
REMARK SMILES COc1cc(CNC(=O)CCCCC=CC(C)C)ccc1O
REMARK SMILES IDX 11 1 12 2 13 3 14 4 15 5 16 6 17 7 18 8 10 9 8 10 9 11 7 12
REMARK SMILES IDX 6 14 5 15 4 16 19 17 3 18 20 19 21 20 2 21 1 22 22 23
REMARK H PARENT 7 13 22 24
REMARK Flexibility Score: inf
ROOT
ATOM      1  C   UNL     1     164.016 151.754 146.462  1.00  0.00     0.010 C 
ENDROOT
BRANCH   1   2
ATOM      2  C   UNL     1     163.177 151.364 147.697  1.00  0.00     0.005 C 
BRANCH   2   3
ATOM      3  C   UNL     1     163.816 150.271 148.570  1.00  0.00     0.027 C 
BRANCH   3   4
ATOM      4  C   UNL     1     164.056 150.731 149.983  1.00  0.00    -0.031 C 
ATOM      5  C   UNL     1     163.932 152.028 150.310  1.00  0.00    -0.028 C 
BRANCH   5   6
ATOM      6  C   UNL     1     164.159 152.543 151.714  1.00  0.00     0.005 C 
ATOM      7  C   UNL     1     164.258 151.393 152.723  1.00  0.00     0.012 C 
ATOM      8  C   UNL     1     163.075 153.548 152.121  1.00  0.00     0.012 C 
ENDBRANCH   5   6
ENDBRANCH   3   4
ENDBRANCH   2   3
ENDBRANCH   1   2
BRANCH   1   9
ATOM      9  C   UNL     1     165.442 151.181 146.454  1.00  0.00     0.100 C 
BRANCH   9  10
ATOM     10  C   UNL     1     166.455 152.188 146.912  1.00  0.00     0.220 C 
ATOM     11  O   UNL     1     167.681 151.958 146.733  1.00  0.00    -0.275 OA
ATOM     12  N   UNL     1     166.033 153.382 147.587  1.00  0.00    -0.352 N 
ATOM     13  H   UNL     1     165.015 153.534 147.765  1.00  0.00     0.163 HD
BRANCH  12  14
ATOM     14  C   UNL     1     166.978 154.392 148.059  1.00  0.00     0.151 C 
BRANCH  14  15
ATOM     15  C   UNL     1     166.985 154.435 149.563  1.00  0.00    -0.025 A 
ATOM     16  C   UNL     1     166.236 155.400 150.255  1.00  0.00     0.056 A 
ATOM     17  C   UNL     1     167.719 153.482 150.286  1.00  0.00     0.009 A 
ATOM     18  C   UNL     1     166.224 155.421 151.665  1.00  0.00     0.160 A 
ATOM     19  C   UNL     1     167.712 153.500 151.682  1.00  0.00     0.050 A 
ATOM     20  C   UNL     1     166.968 154.466 152.372  1.00  0.00     0.157 A 
BRANCH  18  21
ATOM     21  O   UNL     1     165.487 156.369 152.392  1.00  0.00    -0.493 OA
ATOM     22  C   UNL     1     165.972 157.655 152.764  1.00  0.00     0.278 C 
ENDBRANCH  18  21
BRANCH  20  23
ATOM     23  O   UNL     1     166.961 154.483 153.766  1.00  0.00    -0.504 OA
ATOM     24  H   UNL     1     166.679 153.672 154.304  1.00  0.00     0.293 HD
ENDBRANCH  20  23
ENDBRANCH  14  15
ENDBRANCH  12  14
ENDBRANCH   9  10
ENDBRANCH   1   9
TORSDOF 10
ENDMDL
MODEL 2
REMARK VINA RESULT:    -6.665      1.938      3.009
REMARK INTER + INTRA:         -12.251
REMARK INTER:                 -10.726
REMARK INTRA:                  -1.526
REMARK UNBOUND:                -1.886
REMARK SMILES COc1cc(CNC(=O)CCCCC=CC(C)C)ccc1O
REMARK SMILES IDX 11 1 12 2 13 3 14 4 15 5 16 6 17 7 18 8 10 9 8 10 9 11 7 12
REMARK SMILES IDX 6 14 5 15 4 16 19 17 3 18 20 19 21 20 2 21 1 22 22 23
REMARK H PARENT 7 13 22 24
REMARK Flexibility Score: inf
ROOT
ATOM      1  C   UNL     1     165.426 151.061 146.587  1.00  0.00     0.010 C 
ENDROOT
BRANCH   1   2
ATOM      2  C   UNL     1     164.082 151.681 147.025  1.00  0.00     0.005 C 
BRANCH   2   3
ATOM      3  C   UNL     1     163.618 151.250 148.426  1.00  0.00     0.027 C 
BRANCH   3   4
ATOM      4  C   UNL     1     163.635 149.754 148.602  1.00  0.00    -0.031 C 
ATOM      5  C   UNL     1     163.375 149.204 149.799  1.00  0.00    -0.028 C 
BRANCH   5   6
ATOM      6  C   UNL     1     163.377 147.710 150.030  1.00  0.00     0.005 C 
ATOM      7  C   UNL     1     162.955 146.947 148.769  1.00  0.00     0.012 C 
ATOM      8  C   UNL     1     162.499 147.330 151.229  1.00  0.00     0.012 C 
ENDBRANCH   5   6
ENDBRANCH   3   4
ENDBRANCH   2   3
ENDBRANCH   1   2
BRANCH   1   9
ATOM      9  C   UNL     1     166.546 152.083 146.338  1.00  0.00     0.100 C 
BRANCH   9  10
ATOM     10  C   UNL     1     166.850 152.895 147.562  1.00  0.00     0.220 C 
ATOM     11  O   UNL     1     166.741 154.150 147.516  1.00  0.00    -0.275 OA
ATOM     12  N   UNL     1     167.300 152.251 148.763  1.00  0.00    -0.352 N 
ATOM     13  H   UNL     1     167.425 151.213 148.769  1.00  0.00     0.163 HD
BRANCH  12  14
ATOM     14  C   UNL     1     167.615 152.993 149.981  1.00  0.00     0.151 C 
BRANCH  14  15
ATOM     15  C   UNL     1     166.387 153.133 150.838  1.00  0.00    -0.025 A 
ATOM     16  C   UNL     1     165.931 154.401 151.233  1.00  0.00     0.056 A 
ATOM     17  C   UNL     1     165.666 151.991 151.220  1.00  0.00     0.009 A 
ATOM     18  C   UNL     1     164.764 154.531 152.014  1.00  0.00     0.160 A 
ATOM     19  C   UNL     1     164.512 152.114 151.994  1.00  0.00     0.050 A 
ATOM     20  C   UNL     1     164.060 153.379 152.393  1.00  0.00     0.157 A 
BRANCH  18  21
ATOM     21  O   UNL     1     164.276 155.780 152.427  1.00  0.00    -0.493 OA
ATOM     22  C   UNL     1     165.066 156.787 153.051  1.00  0.00     0.278 C 
ENDBRANCH  18  21
BRANCH  20  23
ATOM     23  O   UNL     1     162.906 153.500 153.166  1.00  0.00    -0.504 OA
ATOM     24  H   UNL     1     162.474 152.696 153.604  1.00  0.00     0.293 HD
ENDBRANCH  20  23
ENDBRANCH  14  15
ENDBRANCH  12  14
ENDBRANCH   9  10
ENDBRANCH   1   9
TORSDOF 10
ENDMDL
MODEL 3
REMARK VINA RESULT:    -6.619      1.102      1.986
REMARK INTER + INTRA:         -12.180
REMARK INTER:                 -10.502
REMARK INTRA:                  -1.678
REMARK UNBOUND:                -1.886
REMARK SMILES COc1cc(CNC(=O)CCCCC=CC(C)C)ccc1O
REMARK SMILES IDX 11 1 12 2 13 3 14 4 15 5 16 6 17 7 18 8 10 9 8 10 9 11 7 12
REMARK SMILES IDX 6 14 5 15 4 16 19 17 3 18 20 19 21 20 2 21 1 22 22 23
REMARK H PARENT 7 13 22 24
REMARK Flexibility Score: inf
ROOT
ATOM      1  C   UNL     1     165.162 152.422 146.063  1.00  0.00     0.010 C 
ENDROOT
BRANCH   1   2
ATOM      2  C   UNL     1     163.989 151.736 146.795  1.00  0.00     0.005 C 
BRANCH   2   3
ATOM      3  C   UNL     1     164.405 150.539 147.665  1.00  0.00     0.027 C 
BRANCH   3   4
ATOM      4  C   UNL     1     163.950 150.680 149.094  1.00  0.00    -0.031 C 
ATOM      5  C   UNL     1     164.628 151.457 149.954  1.00  0.00    -0.028 C 
BRANCH   5   6
ATOM      6  C   UNL     1     164.213 151.635 151.397  1.00  0.00     0.005 C 
ATOM      7  C   UNL     1     163.336 150.472 151.875  1.00  0.00     0.012 C 
ATOM      8  C   UNL     1     163.514 152.983 151.614  1.00  0.00     0.012 C 
ENDBRANCH   5   6
ENDBRANCH   3   4
ENDBRANCH   2   3
ENDBRANCH   1   2
BRANCH   1   9
ATOM      9  C   UNL     1     166.449 151.584 145.999  1.00  0.00     0.100 C 
BRANCH   9  10
ATOM     10  C   UNL     1     167.481 152.065 146.976  1.00  0.00     0.220 C 
ATOM     11  O   UNL     1     168.674 151.672 146.859  1.00  0.00    -0.275 OA
ATOM     12  N   UNL     1     167.106 152.930 148.057  1.00  0.00    -0.352 N 
ATOM     13  H   UNL     1     166.105 153.210 148.162  1.00  0.00     0.163 HD
BRANCH  12  14
ATOM     14  C   UNL     1     168.069 153.423 149.038  1.00  0.00     0.151 C 
BRANCH  14  15
ATOM     15  C   UNL     1     167.353 154.077 150.189  1.00  0.00    -0.025 A 
ATOM     16  C   UNL     1     167.524 153.605 151.500  1.00  0.00     0.056 A 
ATOM     17  C   UNL     1     166.533 155.192 149.959  1.00  0.00     0.009 A 
ATOM     18  C   UNL     1     166.873 154.236 152.579  1.00  0.00     0.160 A 
ATOM     19  C   UNL     1     165.884 155.819 151.023  1.00  0.00     0.050 A 
ATOM     20  C   UNL     1     166.051 155.345 152.330  1.00  0.00     0.157 A 
BRANCH  18  21
ATOM     21  O   UNL     1     167.020 153.794 153.903  1.00  0.00    -0.493 OA
ATOM     22  C   UNL     1     166.236 152.768 154.501  1.00  0.00     0.278 C 
ENDBRANCH  18  21
BRANCH  20  23
ATOM     23  O   UNL     1     165.403 155.973 153.393  1.00  0.00    -0.504 OA
ATOM     24  H   UNL     1     165.317 155.528 154.299  1.00  0.00     0.293 HD
ENDBRANCH  20  23
ENDBRANCH  14  15
ENDBRANCH  12  14
ENDBRANCH   9  10
ENDBRANCH   1   9
TORSDOF 10
ENDMDL
MODEL 4
REMARK VINA RESULT:    -6.536      2.682      4.954
REMARK INTER + INTRA:         -12.052
REMARK INTER:                 -10.729
REMARK INTRA:                  -1.323
REMARK UNBOUND:                -1.886
REMARK SMILES COc1cc(CNC(=O)CCCCC=CC(C)C)ccc1O
REMARK SMILES IDX 11 1 12 2 13 3 14 4 15 5 16 6 17 7 18 8 10 9 8 10 9 11 7 12
REMARK SMILES IDX 6 14 5 15 4 16 19 17 3 18 20 19 21 20 2 21 1 22 22 23
REMARK H PARENT 7 13 22 24
REMARK Flexibility Score: inf
ROOT
ATOM      1  C   UNL     1     163.253 147.886 149.899  1.00  0.00     0.010 C 
ENDROOT
BRANCH   1   2
ATOM      2  C   UNL     1     163.603 149.388 149.846  1.00  0.00     0.005 C 
BRANCH   2   3
ATOM      3  C   UNL     1     163.516 150.101 151.206  1.00  0.00     0.027 C 
BRANCH   3   4
ATOM      4  C   UNL     1     164.040 151.512 151.150  1.00  0.00    -0.031 C 
ATOM      5  C   UNL     1     165.255 151.770 150.637  1.00  0.00    -0.028 C 
BRANCH   5   6
ATOM      6  C   UNL     1     165.828 153.167 150.555  1.00  0.00     0.005 C 
ATOM      7  C   UNL     1     167.208 153.245 151.217  1.00  0.00     0.012 C 
ATOM      8  C   UNL     1     164.865 154.200 151.153  1.00  0.00     0.012 C 
ENDBRANCH   5   6
ENDBRANCH   3   4
ENDBRANCH   2   3
ENDBRANCH   1   2
BRANCH   1   9
ATOM      9  C   UNL     1     163.417 147.147 148.561  1.00  0.00     0.100 C 
BRANCH   9  10
ATOM     10  C   UNL     1     164.706 147.500 147.878  1.00  0.00     0.220 C 
ATOM     11  O   UNL     1     165.749 146.846 148.148  1.00  0.00    -0.275 OA
ATOM     12  N   UNL     1     164.758 148.600 146.958  1.00  0.00    -0.352 N 
ATOM     13  H   UNL     1     163.893 149.158 146.781  1.00  0.00     0.163 HD
BRANCH  12  14
ATOM     14  C   UNL     1     165.987 148.991 146.271  1.00  0.00     0.151 C 
BRANCH  14  15
ATOM     15  C   UNL     1     166.327 150.422 146.585  1.00  0.00    -0.025 A 
ATOM     16  C   UNL     1     167.654 150.802 146.843  1.00  0.00     0.056 A 
ATOM     17  C   UNL     1     165.318 151.397 146.588  1.00  0.00     0.009 A 
ATOM     18  C   UNL     1     167.975 152.149 147.111  1.00  0.00     0.160 A 
ATOM     19  C   UNL     1     165.629 152.731 146.854  1.00  0.00     0.050 A 
ATOM     20  C   UNL     1     166.952 153.109 147.117  1.00  0.00     0.157 A 
BRANCH  18  21
ATOM     21  O   UNL     1     169.288 152.567 147.372  1.00  0.00    -0.493 OA
ATOM     22  C   UNL     1     169.877 152.614 148.668  1.00  0.00     0.278 C 
ENDBRANCH  18  21
BRANCH  20  23
ATOM     23  O   UNL     1     167.262 154.442 147.382  1.00  0.00    -0.504 OA
ATOM     24  H   UNL     1     166.822 154.947 148.142  1.00  0.00     0.293 HD
ENDBRANCH  20  23
ENDBRANCH  14  15
ENDBRANCH  12  14
ENDBRANCH   9  10
ENDBRANCH   1   9
TORSDOF 10
ENDMDL
MODEL 5
REMARK VINA RESULT:    -6.498      2.537      5.317
REMARK INTER + INTRA:         -11.993
REMARK INTER:                 -10.685
REMARK INTRA:                  -1.308
REMARK UNBOUND:                -1.886
REMARK SMILES COc1cc(CNC(=O)CCCCC=CC(C)C)ccc1O
REMARK SMILES IDX 11 1 12 2 13 3 14 4 15 5 16 6 17 7 18 8 10 9 8 10 9 11 7 12
REMARK SMILES IDX 6 14 5 15 4 16 19 17 3 18 20 19 21 20 2 21 1 22 22 23
REMARK H PARENT 7 13 22 24
REMARK Flexibility Score: inf
ROOT
ATOM      1  C   UNL     1     169.803 151.600 148.166  1.00  0.00     0.010 C 
ENDROOT
BRANCH   1   2
ATOM      2  C   UNL     1     169.860 152.725 149.221  1.00  0.00     0.005 C 
BRANCH   2   3
ATOM      3  C   UNL     1     168.503 153.395 149.498  1.00  0.00     0.027 C 
BRANCH   3   4
ATOM      4  C   UNL     1     168.282 153.661 150.963  1.00  0.00    -0.031 C 
ATOM      5  C   UNL     1     167.186 153.196 151.585  1.00  0.00    -0.028 C 
BRANCH   5   6
ATOM      6  C   UNL     1     166.915 153.432 153.053  1.00  0.00     0.005 C 
ATOM      7  C   UNL     1     165.760 152.560 153.558  1.00  0.00     0.012 C 
ATOM      8  C   UNL     1     166.657 154.916 153.341  1.00  0.00     0.012 C 
ENDBRANCH   5   6
ENDBRANCH   3   4
ENDBRANCH   2   3
ENDBRANCH   1   2
BRANCH   1   9
ATOM      9  C   UNL     1     168.940 151.924 146.936  1.00  0.00     0.100 C 
BRANCH   9  10
ATOM     10  C   UNL     1     167.660 151.142 146.926  1.00  0.00     0.220 C 
ATOM     11  O   UNL     1     167.701 149.886 147.023  1.00  0.00    -0.275 OA
ATOM     12  N   UNL     1     166.403 151.815 146.765  1.00  0.00    -0.352 N 
ATOM     13  H   UNL     1     166.393 152.853 146.643  1.00  0.00     0.163 HD
BRANCH  12  14
ATOM     14  C   UNL     1     165.128 151.103 146.742  1.00  0.00     0.151 C 
BRANCH  14  15
ATOM     15  C   UNL     1     164.571 150.986 148.135  1.00  0.00    -0.025 A 
ATOM     16  C   UNL     1     164.081 149.758 148.608  1.00  0.00     0.056 A 
ATOM     17  C   UNL     1     164.572 152.102 148.984  1.00  0.00     0.009 A 
ATOM     18  C   UNL     1     163.585 149.644 149.923  1.00  0.00     0.160 A 
ATOM     19  C   UNL     1     164.080 151.996 150.286  1.00  0.00     0.050 A 
ATOM     20  C   UNL     1     163.586 150.772 150.757  1.00  0.00     0.157 A 
BRANCH  18  21
ATOM     21  O   UNL     1     163.087 148.435 150.433  1.00  0.00    -0.493 OA
ATOM     22  C   UNL     1     162.770 147.296 149.640  1.00  0.00     0.278 C 
ENDBRANCH  18  21
BRANCH  20  23
ATOM     23  O   UNL     1     163.096 150.667 152.057  1.00  0.00    -0.504 OA
ATOM     24  H   UNL     1     162.857 151.487 152.602  1.00  0.00     0.293 HD
ENDBRANCH  20  23
ENDBRANCH  14  15
ENDBRANCH  12  14
ENDBRANCH   9  10
ENDBRANCH   1   9
TORSDOF 10
ENDMDL
MODEL 6
REMARK VINA RESULT:    -6.424      2.327      5.267
REMARK INTER + INTRA:         -11.877
REMARK INTER:                 -10.369
REMARK INTRA:                  -1.509
REMARK UNBOUND:                -1.886
REMARK SMILES COc1cc(CNC(=O)CCCCC=CC(C)C)ccc1O
REMARK SMILES IDX 11 1 12 2 13 3 14 4 15 5 16 6 17 7 18 8 10 9 8 10 9 11 7 12
REMARK SMILES IDX 6 14 5 15 4 16 19 17 3 18 20 19 21 20 2 21 1 22 22 23
REMARK H PARENT 7 13 22 24
REMARK Flexibility Score: inf
ROOT
ATOM      1  C   UNL     1     169.210 153.095 149.148  1.00  0.00     0.010 C 
ENDROOT
BRANCH   1   2
ATOM      2  C   UNL     1     168.154 153.991 149.830  1.00  0.00     0.005 C 
BRANCH   2   3
ATOM      3  C   UNL     1     167.822 153.582 151.275  1.00  0.00     0.027 C 
BRANCH   3   4
ATOM      4  C   UNL     1     166.596 154.278 151.802  1.00  0.00    -0.031 C 
ATOM      5  C   UNL     1     165.981 155.224 151.074  1.00  0.00    -0.028 C 
BRANCH   5   6
ATOM      6  C   UNL     1     164.746 155.952 151.556  1.00  0.00     0.005 C 
ATOM      7  C   UNL     1     165.020 157.448 151.753  1.00  0.00     0.012 C 
ATOM      8  C   UNL     1     164.186 155.316 152.834  1.00  0.00     0.012 C 
ENDBRANCH   5   6
ENDBRANCH   3   4
ENDBRANCH   2   3
ENDBRANCH   1   2
BRANCH   1   9
ATOM      9  C   UNL     1     168.950 152.826 147.658  1.00  0.00     0.100 C 
BRANCH   9  10
ATOM     10  C   UNL     1     167.687 152.046 147.440  1.00  0.00     0.220 C 
ATOM     11  O   UNL     1     167.735 150.786 147.417  1.00  0.00    -0.275 OA
ATOM     12  N   UNL     1     166.445 152.728 147.217  1.00  0.00    -0.352 N 
ATOM     13  H   UNL     1     166.434 153.772 147.196  1.00  0.00     0.163 HD
BRANCH  12  14
ATOM     14  C   UNL     1     165.188 152.017 146.993  1.00  0.00     0.151 C 
BRANCH  14  15
ATOM     15  C   UNL     1     164.596 151.580 148.305  1.00  0.00    -0.025 A 
ATOM     16  C   UNL     1     164.156 150.259 148.487  1.00  0.00     0.056 A 
ATOM     17  C   UNL     1     164.514 152.487 149.372  1.00  0.00     0.009 A 
ATOM     18  C   UNL     1     163.627 149.845 149.726  1.00  0.00     0.160 A 
ATOM     19  C   UNL     1     163.989 152.083 150.601  1.00  0.00     0.050 A 
ATOM     20  C   UNL     1     163.545 150.766 150.780  1.00  0.00     0.157 A 
BRANCH  18  21
ATOM     21  O   UNL     1     163.177 148.533 149.946  1.00  0.00    -0.493 OA
ATOM     22  C   UNL     1     163.479 147.425 149.105  1.00  0.00     0.278 C 
ENDBRANCH  18  21
BRANCH  20  23
ATOM     23  O   UNL     1     163.021 150.363 152.007  1.00  0.00    -0.504 OA
ATOM     24  H   UNL     1     163.620 150.051 152.762  1.00  0.00     0.293 HD
ENDBRANCH  20  23
ENDBRANCH  14  15
ENDBRANCH  12  14
ENDBRANCH   9  10
ENDBRANCH   1   9
TORSDOF 10
ENDMDL
MODEL 7
REMARK VINA RESULT:    -6.385      2.488      5.947
REMARK INTER + INTRA:         -11.817
REMARK INTER:                 -10.554
REMARK INTRA:                  -1.264
REMARK UNBOUND:                -1.886
REMARK SMILES COc1cc(CNC(=O)CCCCC=CC(C)C)ccc1O
REMARK SMILES IDX 11 1 12 2 13 3 14 4 15 5 16 6 17 7 18 8 10 9 8 10 9 11 7 12
REMARK SMILES IDX 6 14 5 15 4 16 19 17 3 18 20 19 21 20 2 21 1 22 22 23
REMARK H PARENT 7 13 22 24
REMARK Flexibility Score: inf
ROOT
ATOM      1  C   UNL     1     165.634 153.565 153.677  1.00  0.00     0.010 C 
ENDROOT
BRANCH   1   2
ATOM      2  C   UNL     1     165.118 152.113 153.762  1.00  0.00     0.005 C 
BRANCH   2   3
ATOM      3  C   UNL     1     163.933 151.812 152.829  1.00  0.00     0.027 C 
BRANCH   3   4
ATOM      4  C   UNL     1     164.372 151.506 151.422  1.00  0.00    -0.031 C 
ATOM      5  C   UNL     1     163.719 150.591 150.686  1.00  0.00    -0.028 C 
BRANCH   5   6
ATOM      6  C   UNL     1     164.116 150.247 149.268  1.00  0.00     0.005 C 
ATOM      7  C   UNL     1     163.625 151.307 148.276  1.00  0.00     0.012 C 
ATOM      8  C   UNL     1     163.625 148.849 148.875  1.00  0.00     0.012 C 
ENDBRANCH   5   6
ENDBRANCH   3   4
ENDBRANCH   2   3
ENDBRANCH   1   2
BRANCH   1   9
ATOM      9  C   UNL     1     167.065 153.701 153.134  1.00  0.00     0.100 C 
BRANCH   9  10
ATOM     10  C   UNL     1     167.084 154.090 151.686  1.00  0.00     0.220 C 
ATOM     11  O   UNL     1     166.148 154.798 151.223  1.00  0.00    -0.275 OA
ATOM     12  N   UNL     1     168.134 153.625 150.825  1.00  0.00    -0.352 N 
ATOM     13  H   UNL     1     168.876 153.004 151.218  1.00  0.00     0.163 HD
BRANCH  12  14
ATOM     14  C   UNL     1     168.196 153.968 149.407  1.00  0.00     0.151 C 
BRANCH  14  15
ATOM     15  C   UNL     1     168.428 152.732 148.581  1.00  0.00    -0.025 A 
ATOM     16  C   UNL     1     169.731 152.298 148.293  1.00  0.00     0.056 A 
ATOM     17  C   UNL     1     167.334 151.983 148.122  1.00  0.00     0.009 A 
ATOM     18  C   UNL     1     169.946 151.125 147.542  1.00  0.00     0.160 A 
ATOM     19  C   UNL     1     167.540 150.821 147.377  1.00  0.00     0.050 A 
ATOM     20  C   UNL     1     168.841 150.391 147.085  1.00  0.00     0.157 A 
BRANCH  18  21
ATOM     21  O   UNL     1     171.233 150.658 147.234  1.00  0.00    -0.493 OA
ATOM     22  C   UNL     1     172.054 149.910 148.125  1.00  0.00     0.278 C 
ENDBRANCH  18  21
BRANCH  20  23
ATOM     23  O   UNL     1     169.046 149.230 146.340  1.00  0.00    -0.504 OA
ATOM     24  H   UNL     1     169.978 148.893 146.130  1.00  0.00     0.293 HD
ENDBRANCH  20  23
ENDBRANCH  14  15
ENDBRANCH  12  14
ENDBRANCH   9  10
ENDBRANCH   1   9
TORSDOF 10
ENDMDL
MODEL 8
REMARK VINA RESULT:    -6.380      2.078      5.465
REMARK INTER + INTRA:         -11.809
REMARK INTER:                 -10.968
REMARK INTRA:                  -0.841
REMARK UNBOUND:                -1.886
REMARK SMILES COc1cc(CNC(=O)CCCCC=CC(C)C)ccc1O
REMARK SMILES IDX 11 1 12 2 13 3 14 4 15 5 16 6 17 7 18 8 10 9 8 10 9 11 7 12
REMARK SMILES IDX 6 14 5 15 4 16 19 17 3 18 20 19 21 20 2 21 1 22 22 23
REMARK H PARENT 7 13 22 24
REMARK Flexibility Score: inf
ROOT
ATOM      1  C   UNL     1     164.654 151.669 153.228  1.00  0.00     0.010 C 
ENDROOT
BRANCH   1   2
ATOM      2  C   UNL     1     163.753 152.288 152.139  1.00  0.00     0.005 C 
BRANCH   2   3
ATOM      3  C   UNL     1     163.858 151.597 150.769  1.00  0.00     0.027 C 
BRANCH   3   4
ATOM      4  C   UNL     1     163.577 150.120 150.847  1.00  0.00    -0.031 C 
ATOM      5  C   UNL     1     163.586 149.363 149.738  1.00  0.00    -0.028 C 
BRANCH   5   6
ATOM      6  C   UNL     1     163.313 147.876 149.760  1.00  0.00     0.005 C 
ATOM      7  C   UNL     1     162.449 147.447 148.568  1.00  0.00     0.012 C 
ATOM      8  C   UNL     1     162.679 147.445 151.089  1.00  0.00     0.012 C 
ENDBRANCH   5   6
ENDBRANCH   3   4
ENDBRANCH   2   3
ENDBRANCH   1   2
BRANCH   1   9
ATOM      9  C   UNL     1     165.454 152.692 154.049  1.00  0.00     0.100 C 
BRANCH   9  10
ATOM     10  C   UNL     1     166.185 153.668 153.174  1.00  0.00     0.220 C 
ATOM     11  O   UNL     1     166.094 154.902 153.413  1.00  0.00    -0.275 OA
ATOM     12  N   UNL     1     166.945 153.201 152.050  1.00  0.00    -0.352 N 
ATOM     13  H   UNL     1     166.973 152.178 151.843  1.00  0.00     0.163 HD
BRANCH  12  14
ATOM     14  C   UNL     1     167.670 154.107 151.162  1.00  0.00     0.151 C 
BRANCH  14  15
ATOM     15  C   UNL     1     168.154 153.367 149.945  1.00  0.00    -0.025 A 
ATOM     16  C   UNL     1     167.284 153.102 148.876  1.00  0.00     0.056 A 
ATOM     17  C   UNL     1     169.496 152.967 149.858  1.00  0.00     0.009 A 
ATOM     18  C   UNL     1     167.747 152.432 147.725  1.00  0.00     0.160 A 
ATOM     19  C   UNL     1     169.960 152.302 148.722  1.00  0.00     0.050 A 
ATOM     20  C   UNL     1     169.090 152.032 147.657  1.00  0.00     0.157 A 
BRANCH  18  21
ATOM     21  O   UNL     1     166.908 152.149 146.636  1.00  0.00    -0.493 OA
ATOM     22  C   UNL     1     165.647 151.498 146.738  1.00  0.00     0.278 C 
ENDBRANCH  18  21
BRANCH  20  23
ATOM     23  O   UNL     1     169.554 151.369 146.522  1.00  0.00    -0.504 OA
ATOM     24  H   UNL     1     169.478 151.779 145.600  1.00  0.00     0.293 HD
ENDBRANCH  20  23
ENDBRANCH  14  15
ENDBRANCH  12  14
ENDBRANCH   9  10
ENDBRANCH   1   9
TORSDOF 10
ENDMDL
MODEL 9
REMARK VINA RESULT:    -6.343      2.236      5.837
REMARK INTER + INTRA:         -11.751
REMARK INTER:                 -10.422
REMARK INTRA:                  -1.329
REMARK UNBOUND:                -1.886
REMARK SMILES COc1cc(CNC(=O)CCCCC=CC(C)C)ccc1O
REMARK SMILES IDX 11 1 12 2 13 3 14 4 15 5 16 6 17 7 18 8 10 9 8 10 9 11 7 12
REMARK SMILES IDX 6 14 5 15 4 16 19 17 3 18 20 19 21 20 2 21 1 22 22 23
REMARK H PARENT 7 13 22 24
REMARK Flexibility Score: inf
ROOT
ATOM      1  C   UNL     1     165.599 153.390 153.977  1.00  0.00     0.010 C 
ENDROOT
BRANCH   1   2
ATOM      2  C   UNL     1     165.020 152.002 153.628  1.00  0.00     0.005 C 
BRANCH   2   3
ATOM      3  C   UNL     1     163.852 152.043 152.628  1.00  0.00     0.027 C 
BRANCH   3   4
ATOM      4  C   UNL     1     164.094 151.169 151.426  1.00  0.00    -0.031 C 
ATOM      5  C   UNL     1     164.146 151.702 150.194  1.00  0.00    -0.028 C 
BRANCH   5   6
ATOM      6  C   UNL     1     164.388 150.871 148.954  1.00  0.00     0.005 C 
ATOM      7  C   UNL     1     163.859 151.573 147.698  1.00  0.00     0.012 C 
ATOM      8  C   UNL     1     163.790 149.466 149.099  1.00  0.00     0.012 C 
ENDBRANCH   5   6
ENDBRANCH   3   4
ENDBRANCH   2   3
ENDBRANCH   1   2
BRANCH   1   9
ATOM      9  C   UNL     1     167.016 153.641 153.436  1.00  0.00     0.100 C 
BRANCH   9  10
ATOM     10  C   UNL     1     167.007 153.986 151.976  1.00  0.00     0.220 C 
ATOM     11  O   UNL     1     166.033 154.627 151.497  1.00  0.00    -0.275 OA
ATOM     12  N   UNL     1     168.078 153.553 151.125  1.00  0.00    -0.352 N 
ATOM     13  H   UNL     1     168.855 152.986 151.532  1.00  0.00     0.163 HD
BRANCH  12  14
ATOM     14  C   UNL     1     168.116 153.855 149.696  1.00  0.00     0.151 C 
BRANCH  14  15
ATOM     15  C   UNL     1     168.660 152.681 148.929  1.00  0.00    -0.025 A 
ATOM     16  C   UNL     1     167.830 151.938 148.075  1.00  0.00     0.056 A 
ATOM     17  C   UNL     1     170.017 152.341 149.039  1.00  0.00     0.009 A 
ATOM     18  C   UNL     1     168.347 150.854 147.337  1.00  0.00     0.160 A 
ATOM     19  C   UNL     1     170.535 151.268 148.312  1.00  0.00     0.050 A 
ATOM     20  C   UNL     1     169.705 150.524 147.463  1.00  0.00     0.157 A 
BRANCH  18  21
ATOM     21  O   UNL     1     167.550 150.089 146.472  1.00  0.00    -0.493 OA
ATOM     22  C   UNL     1     166.807 148.941 146.866  1.00  0.00     0.278 C 
ENDBRANCH  18  21
BRANCH  20  23
ATOM     23  O   UNL     1     170.223 149.453 146.737  1.00  0.00    -0.504 OA
ATOM     24  H   UNL     1     169.619 148.772 146.293  1.00  0.00     0.293 HD
ENDBRANCH  20  23
ENDBRANCH  14  15
ENDBRANCH  12  14
ENDBRANCH   9  10
ENDBRANCH   1   9
TORSDOF 10
ENDMDL
