MODEL 1
REMARK VINA RESULT:    -4.684      0.000      0.000
REMARK INTER + INTRA:          -9.056
REMARK INTER:                  -7.421
REMARK INTRA:                  -1.635
REMARK UNBOUND:                -1.635
REMARK SMILES CCCCCCCCCCCC(=O)[O-]
REMARK SMILES IDX 7 1 8 2 9 3 10 4 11 5 12 6 13 7 14 8 6 9 5 10 4 11 3 12 2 13
REMARK SMILES IDX 1 14
REMARK H PARENT
REMARK Flexibility Score: inf
ROOT
ATOM      1  C   UNL     1      21.376  -4.914 -36.982  1.00  0.00     0.000 C 
ENDROOT
BRANCH   1   2
ATOM      2  C   UNL     1      22.599  -4.428 -36.182  1.00  0.00     0.000 C 
BRANCH   2   3
ATOM      3  C   UNL     1      23.724  -5.479 -36.065  1.00  0.00     0.000 C 
BRANCH   3   4
ATOM      4  C   UNL     1      23.403  -6.766 -36.840  1.00  0.00     0.006 C 
BRANCH   4   5
ATOM      5  C   UNL     1      24.645  -7.299 -37.559  1.00  0.00     0.053 C 
BRANCH   5   6
ATOM      6  C   UNL     1      24.280  -8.428 -38.470  1.00  0.00     0.041 C 
ATOM      7  O   UNL     1      24.964  -9.486 -38.473  1.00  0.00    -0.550 OA
ATOM      8  O   UNL     1      23.156  -8.332 -39.280  1.00  0.00    -0.550 OA
ENDBRANCH   5   6
ENDBRANCH   4   5
ENDBRANCH   3   4
ENDBRANCH   2   3
ENDBRANCH   1   2
BRANCH   1   9
ATOM      9  C   UNL     1      20.794  -3.884 -37.964  1.00  0.00     0.000 C 
BRANCH   9  10
ATOM     10  C   UNL     1      21.769  -3.530 -39.101  1.00  0.00    -0.000 C 
BRANCH  10  11
ATOM     11  C   UNL     1      22.359  -4.785 -39.769  1.00  0.00    -0.000 C 
BRANCH  11  12
ATOM     12  C   UNL     1      23.888  -4.706 -39.973  1.00  0.00    -0.000 C 
BRANCH  12  13
ATOM     13  C   UNL     1      24.493  -3.354 -39.559  1.00  0.00    -0.003 C 
ATOM     14  C   UNL     1      25.684  -3.501 -38.614  1.00  0.00     0.004 C 
ENDBRANCH  12  13
ENDBRANCH  11  12
ENDBRANCH  10  11
ENDBRANCH   9  10
ENDBRANCH   1   9
TORSDOF 10
ENDMDL
MODEL 2
REMARK VINA RESULT:    -4.629      1.300      2.208
REMARK INTER + INTRA:          -8.970
REMARK INTER:                  -7.478
REMARK INTRA:                  -1.492
REMARK UNBOUND:                -1.635
REMARK SMILES CCCCCCCCCCCC(=O)[O-]
REMARK SMILES IDX 7 1 8 2 9 3 10 4 11 5 12 6 13 7 14 8 6 9 5 10 4 11 3 12 2 13
REMARK SMILES IDX 1 14
REMARK H PARENT
REMARK Flexibility Score: inf
ROOT
ATOM      1  C   UNL     1      23.283  -4.905 -36.136  1.00  0.00     0.000 C 
ENDROOT
BRANCH   1   2
ATOM      2  C   UNL     1      23.562  -6.335 -36.635  1.00  0.00     0.000 C 
BRANCH   2   3
ATOM      3  C   UNL     1      22.314  -7.055 -37.192  1.00  0.00     0.000 C 
BRANCH   3   4
ATOM      4  C   UNL     1      22.655  -8.419 -37.810  1.00  0.00     0.006 C 
BRANCH   4   5
ATOM      5  C   UNL     1      23.225  -8.256 -39.222  1.00  0.00     0.053 C 
BRANCH   5   6
ATOM      6  C   UNL     1      24.687  -8.574 -39.236  1.00  0.00     0.041 C 
ATOM      7  O   UNL     1      25.099  -9.684 -38.805  1.00  0.00    -0.550 OA
ATOM      8  O   UNL     1      25.591  -7.666 -39.772  1.00  0.00    -0.550 OA
ENDBRANCH   5   6
ENDBRANCH   4   5
ENDBRANCH   3   4
ENDBRANCH   2   3
ENDBRANCH   1   2
BRANCH   1   9
ATOM      9  C   UNL     1      21.834  -4.426 -36.323  1.00  0.00     0.000 C 
BRANCH   9  10
ATOM     10  C   UNL     1      21.749  -3.009 -36.918  1.00  0.00    -0.000 C 
BRANCH  10  11
ATOM     11  C   UNL     1      22.105  -2.987 -38.415  1.00  0.00    -0.000 C 
BRANCH  11  12
ATOM     12  C   UNL     1      21.352  -4.057 -39.237  1.00  0.00    -0.000 C 
BRANCH  12  13
ATOM     13  C   UNL     1      22.266  -4.870 -40.169  1.00  0.00    -0.003 C 
ATOM     14  C   UNL     1      23.750  -4.660 -39.876  1.00  0.00     0.004 C 
ENDBRANCH  12  13
ENDBRANCH  11  12
ENDBRANCH  10  11
ENDBRANCH   9  10
ENDBRANCH   1   9
TORSDOF 10
ENDMDL
MODEL 3
REMARK VINA RESULT:    -4.617      1.341      2.693
REMARK INTER + INTRA:          -8.951
REMARK INTER:                  -7.344
REMARK INTRA:                  -1.607
REMARK UNBOUND:                -1.635
REMARK SMILES CCCCCCCCCCCC(=O)[O-]
REMARK SMILES IDX 7 1 8 2 9 3 10 4 11 5 12 6 13 7 14 8 6 9 5 10 4 11 3 12 2 13
REMARK SMILES IDX 1 14
REMARK H PARENT
REMARK Flexibility Score: inf
ROOT
ATOM      1  C   UNL     1      23.990  -4.813 -36.872  1.00  0.00     0.000 C 
ENDROOT
BRANCH   1   2
ATOM      2  C   UNL     1      23.512  -6.196 -36.389  1.00  0.00     0.000 C 
BRANCH   2   3
ATOM      3  C   UNL     1      22.237  -6.698 -37.101  1.00  0.00     0.000 C 
BRANCH   3   4
ATOM      4  C   UNL     1      22.422  -8.094 -37.714  1.00  0.00     0.006 C 
BRANCH   4   5
ATOM      5  C   UNL     1      22.909  -7.999 -39.162  1.00  0.00     0.053 C 
BRANCH   5   6
ATOM      6  C   UNL     1      24.207  -8.724 -39.328  1.00  0.00     0.041 C 
ATOM      7  O   UNL     1      25.181  -8.460 -38.574  1.00  0.00    -0.550 OA
ATOM      8  O   UNL     1      24.326  -9.727 -40.282  1.00  0.00    -0.550 OA
ENDBRANCH   5   6
ENDBRANCH   4   5
ENDBRANCH   3   4
ENDBRANCH   2   3
ENDBRANCH   1   2
BRANCH   1   9
ATOM      9  C   UNL     1      25.021  -4.848 -38.012  1.00  0.00     0.000 C 
BRANCH   9  10
ATOM     10  C   UNL     1      24.377  -4.695 -39.401  1.00  0.00    -0.000 C 
BRANCH  10  11
ATOM     11  C   UNL     1      23.252  -3.644 -39.405  1.00  0.00    -0.000 C 
BRANCH  11  12
ATOM     12  C   UNL     1      21.882  -4.218 -39.826  1.00  0.00    -0.000 C 
BRANCH  12  13
ATOM     13  C   UNL     1      20.722  -3.760 -38.926  1.00  0.00    -0.003 C 
ATOM     14  C   UNL     1      21.148  -2.718 -37.894  1.00  0.00     0.004 C 
ENDBRANCH  12  13
ENDBRANCH  11  12
ENDBRANCH  10  11
ENDBRANCH   9  10
ENDBRANCH   1   9
TORSDOF 10
ENDMDL
MODEL 4
REMARK VINA RESULT:    -4.616      1.080      2.118
REMARK INTER + INTRA:          -8.949
REMARK INTER:                  -7.476
REMARK INTRA:                  -1.472
REMARK UNBOUND:                -1.635
REMARK SMILES CCCCCCCCCCCC(=O)[O-]
REMARK SMILES IDX 7 1 8 2 9 3 10 4 11 5 12 6 13 7 14 8 6 9 5 10 4 11 3 12 2 13
REMARK SMILES IDX 1 14
REMARK H PARENT
REMARK Flexibility Score: inf
ROOT
ATOM      1  C   UNL     1      23.452  -4.778 -36.112  1.00  0.00     0.000 C 
ENDROOT
BRANCH   1   2
ATOM      2  C   UNL     1      23.865  -6.252 -36.285  1.00  0.00     0.000 C 
BRANCH   2   3
ATOM      3  C   UNL     1      24.988  -6.467 -37.323  1.00  0.00     0.000 C 
BRANCH   3   4
ATOM      4  C   UNL     1      24.942  -7.867 -37.952  1.00  0.00     0.006 C 
BRANCH   4   5
ATOM      5  C   UNL     1      23.507  -8.398 -38.007  1.00  0.00     0.053 C 
BRANCH   5   6
ATOM      6  C   UNL     1      23.070  -8.581 -39.426  1.00  0.00     0.041 C 
ATOM      7  O   UNL     1      22.075  -7.947 -39.870  1.00  0.00    -0.550 OA
ATOM      8  O   UNL     1      23.791  -9.412 -40.274  1.00  0.00    -0.550 OA
ENDBRANCH   5   6
ENDBRANCH   4   5
ENDBRANCH   3   4
ENDBRANCH   2   3
ENDBRANCH   1   2
BRANCH   1   9
ATOM      9  C   UNL     1      21.960  -4.492 -36.348  1.00  0.00     0.000 C 
BRANCH   9  10
ATOM     10  C   UNL     1      21.410  -5.199 -37.600  1.00  0.00    -0.000 C 
BRANCH  10  11
ATOM     11  C   UNL     1      21.101  -4.208 -38.736  1.00  0.00    -0.000 C 
BRANCH  11  12
ATOM     12  C   UNL     1      21.836  -4.540 -40.053  1.00  0.00    -0.000 C 
BRANCH  12  13
ATOM     13  C   UNL     1      23.361  -4.658 -39.891  1.00  0.00    -0.003 C 
ATOM     14  C   UNL     1      24.027  -3.324 -39.559  1.00  0.00     0.004 C 
ENDBRANCH  12  13
ENDBRANCH  11  12
ENDBRANCH  10  11
ENDBRANCH   9  10
ENDBRANCH   1   9
TORSDOF 10
ENDMDL
MODEL 5
REMARK VINA RESULT:    -4.602      1.398      2.933
REMARK INTER + INTRA:          -8.926
REMARK INTER:                  -7.336
REMARK INTRA:                  -1.591
REMARK UNBOUND:                -1.635
REMARK SMILES CCCCCCCCCCCC(=O)[O-]
REMARK SMILES IDX 7 1 8 2 9 3 10 4 11 5 12 6 13 7 14 8 6 9 5 10 4 11 3 12 2 13
REMARK SMILES IDX 1 14
REMARK H PARENT
REMARK Flexibility Score: inf
ROOT
ATOM      1  C   UNL     1      24.862  -5.304 -38.634  1.00  0.00     0.000 C 
ENDROOT
BRANCH   1   2
ATOM      2  C   UNL     1      24.380  -5.012 -37.200  1.00  0.00     0.000 C 
BRANCH   2   3
ATOM      3  C   UNL     1      23.732  -6.227 -36.501  1.00  0.00     0.000 C 
BRANCH   3   4
ATOM      4  C   UNL     1      22.438  -6.678 -37.196  1.00  0.00     0.006 C 
BRANCH   4   5
ATOM      5  C   UNL     1      22.563  -8.115 -37.711  1.00  0.00     0.053 C 
BRANCH   5   6
ATOM      6  C   UNL     1      22.599  -8.134 -39.206  1.00  0.00     0.041 C 
ATOM      7  O   UNL     1      21.883  -7.335 -39.868  1.00  0.00    -0.550 OA
ATOM      8  O   UNL     1      23.460  -8.999 -39.870  1.00  0.00    -0.550 OA
ENDBRANCH   5   6
ENDBRANCH   4   5
ENDBRANCH   3   4
ENDBRANCH   2   3
ENDBRANCH   1   2
BRANCH   1   9
ATOM      9  C   UNL     1      24.189  -4.461 -39.728  1.00  0.00     0.000 C 
BRANCH   9  10
ATOM     10  C   UNL     1      23.223  -3.407 -39.156  1.00  0.00    -0.000 C 
BRANCH  10  11
ATOM     11  C   UNL     1      21.751  -3.769 -39.419  1.00  0.00    -0.000 C 
BRANCH  11  12
ATOM     12  C   UNL     1      20.828  -3.485 -38.213  1.00  0.00    -0.000 C 
BRANCH  12  13
ATOM     13  C   UNL     1      21.448  -2.531 -37.178  1.00  0.00    -0.003 C 
ATOM     14  C   UNL     1      21.532  -3.144 -35.781  1.00  0.00     0.004 C 
ENDBRANCH  12  13
ENDBRANCH  11  12
ENDBRANCH  10  11
ENDBRANCH   9  10
ENDBRANCH   1   9
TORSDOF 10
ENDMDL
MODEL 6
REMARK VINA RESULT:    -4.458      1.247      3.021
REMARK INTER + INTRA:          -8.699
REMARK INTER:                  -7.156
REMARK INTRA:                  -1.542
REMARK UNBOUND:                -1.635
REMARK SMILES CCCCCCCCCCCC(=O)[O-]
REMARK SMILES IDX 7 1 8 2 9 3 10 4 11 5 12 6 13 7 14 8 6 9 5 10 4 11 3 12 2 13
REMARK SMILES IDX 1 14
REMARK H PARENT
REMARK Flexibility Score: inf
ROOT
ATOM      1  C   UNL     1      25.655  -3.361 -38.764  1.00  0.00     0.000 C 
ENDROOT
BRANCH   1   2
ATOM      2  C   UNL     1      25.542  -4.460 -37.690  1.00  0.00     0.000 C 
BRANCH   2   3
ATOM      3  C   UNL     1      26.383  -5.718 -37.996  1.00  0.00     0.000 C 
BRANCH   3   4
ATOM      4  C   UNL     1      25.551  -7.007 -37.930  1.00  0.00     0.006 C 
BRANCH   4   5
ATOM      5  C   UNL     1      25.296  -7.569 -39.331  1.00  0.00     0.053 C 
BRANCH   5   6
ATOM      6  C   UNL     1      24.429  -8.786 -39.258  1.00  0.00     0.041 C 
ATOM      7  O   UNL     1      23.623  -8.933 -38.300  1.00  0.00    -0.550 OA
ATOM      8  O   UNL     1      24.473  -9.734 -40.272  1.00  0.00    -0.550 OA
ENDBRANCH   5   6
ENDBRANCH   4   5
ENDBRANCH   3   4
ENDBRANCH   2   3
ENDBRANCH   1   2
BRANCH   1   9
ATOM      9  C   UNL     1      24.351  -3.060 -39.521  1.00  0.00     0.000 C 
BRANCH   9  10
ATOM     10  C   UNL     1      23.629  -4.335 -39.993  1.00  0.00    -0.000 C 
BRANCH  10  11
ATOM     11  C   UNL     1      22.213  -4.450 -39.401  1.00  0.00    -0.000 C 
BRANCH  11  12
ATOM     12  C   UNL     1      21.888  -5.862 -38.866  1.00  0.00    -0.000 C 
BRANCH  12  13
ATOM     13  C   UNL     1      21.925  -5.960 -37.332  1.00  0.00    -0.003 C 
ATOM     14  C   UNL     1      21.925  -4.593 -36.650  1.00  0.00     0.004 C 
ENDBRANCH  12  13
ENDBRANCH  11  12
ENDBRANCH  10  11
ENDBRANCH   9  10
ENDBRANCH   1   9
TORSDOF 10
ENDMDL
MODEL 7
REMARK VINA RESULT:    -4.400      2.123      4.065
REMARK INTER + INTRA:          -8.607
REMARK INTER:                  -7.303
REMARK INTRA:                  -1.304
REMARK UNBOUND:                -1.635
REMARK SMILES CCCCCCCCCCCC(=O)[O-]
REMARK SMILES IDX 7 1 8 2 9 3 10 4 11 5 12 6 13 7 14 8 6 9 5 10 4 11 3 12 2 13
REMARK SMILES IDX 1 14
REMARK H PARENT
REMARK Flexibility Score: inf
ROOT
ATOM      1  C   UNL     1      22.238  -7.067 -37.392  1.00  0.00     0.000 C 
ENDROOT
BRANCH   1   2
ATOM      2  C   UNL     1      23.211  -6.230 -36.540  1.00  0.00     0.000 C 
BRANCH   2   3
ATOM      3  C   UNL     1      22.930  -4.712 -36.583  1.00  0.00     0.000 C 
BRANCH   3   4
ATOM      4  C   UNL     1      21.774  -4.359 -37.532  1.00  0.00     0.006 C 
BRANCH   4   5
ATOM      5  C   UNL     1      22.208  -3.313 -38.561  1.00  0.00     0.053 C 
BRANCH   5   6
ATOM      6  C   UNL     1      23.200  -3.896 -39.517  1.00  0.00     0.041 C 
ATOM      7  O   UNL     1      22.934  -4.962 -40.134  1.00  0.00    -0.550 OA
ATOM      8  O   UNL     1      24.398  -3.238 -39.764  1.00  0.00    -0.550 OA
ENDBRANCH   5   6
ENDBRANCH   4   5
ENDBRANCH   3   4
ENDBRANCH   2   3
ENDBRANCH   1   2
BRANCH   1   9
ATOM      9  C   UNL     1      22.724  -8.487 -37.723  1.00  0.00     0.000 C 
BRANCH   9  10
ATOM     10  C   UNL     1      23.468  -8.562 -39.069  1.00  0.00    -0.000 C 
BRANCH  10  11
ATOM     11  C   UNL     1      24.995  -8.492 -38.891  1.00  0.00    -0.000 C 
BRANCH  11  12
ATOM     12  C   UNL     1      25.621  -7.213 -39.487  1.00  0.00    -0.000 C 
BRANCH  12  13
ATOM     13  C   UNL     1      26.112  -6.217 -38.423  1.00  0.00    -0.003 C 
ATOM     14  C   UNL     1      26.824  -6.898 -37.256  1.00  0.00     0.004 C 
ENDBRANCH  12  13
ENDBRANCH  11  12
ENDBRANCH  10  11
ENDBRANCH   9  10
ENDBRANCH   1   9
TORSDOF 10
ENDMDL
MODEL 8
REMARK VINA RESULT:    -4.392      2.813      4.706
REMARK INTER + INTRA:          -8.594
REMARK INTER:                  -7.215
REMARK INTRA:                  -1.379
REMARK UNBOUND:                -1.635
REMARK SMILES CCCCCCCCCCCC(=O)[O-]
REMARK SMILES IDX 7 1 8 2 9 3 10 4 11 5 12 6 13 7 14 8 6 9 5 10 4 11 3 12 2 13
REMARK SMILES IDX 1 14
REMARK H PARENT
REMARK Flexibility Score: inf
ROOT
ATOM      1  C   UNL     1      23.894  -4.867 -36.692  1.00  0.00     0.000 C 
ENDROOT
BRANCH   1   2
ATOM      2  C   UNL     1      24.890  -4.404 -37.773  1.00  0.00     0.000 C 
BRANCH   2   3
ATOM      3  C   UNL     1      24.360  -4.558 -39.215  1.00  0.00     0.000 C 
BRANCH   3   4
ATOM      4  C   UNL     1      23.233  -3.563 -39.532  1.00  0.00     0.006 C 
BRANCH   4   5
ATOM      5  C   UNL     1      21.900  -4.288 -39.733  1.00  0.00     0.053 C 
BRANCH   5   6
ATOM      6  C   UNL     1      20.773  -3.477 -39.174  1.00  0.00     0.041 C 
ATOM      7  O   UNL     1      20.744  -3.197 -37.945  1.00  0.00    -0.550 OA
ATOM      8  O   UNL     1      19.783  -2.989 -40.016  1.00  0.00    -0.550 OA
ENDBRANCH   5   6
ENDBRANCH   4   5
ENDBRANCH   3   4
ENDBRANCH   2   3
ENDBRANCH   1   2
BRANCH   1   9
ATOM      9  C   UNL     1      23.715  -6.390 -36.587  1.00  0.00     0.000 C 
BRANCH   9  10
ATOM     10  C   UNL     1      22.359  -6.869 -37.135  1.00  0.00    -0.000 C 
BRANCH  10  11
ATOM     11  C   UNL     1      22.473  -8.223 -37.857  1.00  0.00    -0.000 C 
BRANCH  11  12
ATOM     12  C   UNL     1      23.197  -8.131 -39.218  1.00  0.00    -0.000 C 
BRANCH  12  13
ATOM     13  C   UNL     1      24.559  -8.845 -39.237  1.00  0.00    -0.003 C 
ATOM     14  C   UNL     1      25.732  -7.883 -39.411  1.00  0.00     0.004 C 
ENDBRANCH  12  13
ENDBRANCH  11  12
ENDBRANCH  10  11
ENDBRANCH   9  10
ENDBRANCH   1   9
TORSDOF 10
ENDMDL
MODEL 9
REMARK VINA RESULT:    -4.368      2.538      4.844
REMARK INTER + INTRA:          -8.556
REMARK INTER:                  -7.243
REMARK INTRA:                  -1.313
REMARK UNBOUND:                -1.635
REMARK SMILES CCCCCCCCCCCC(=O)[O-]
REMARK SMILES IDX 7 1 8 2 9 3 10 4 11 5 12 6 13 7 14 8 6 9 5 10 4 11 3 12 2 13
REMARK SMILES IDX 1 14
REMARK H PARENT
REMARK Flexibility Score: inf
ROOT
ATOM      1  C   UNL     1      24.974  -4.913 -38.395  1.00  0.00     0.000 C 
ENDROOT
BRANCH   1   2
ATOM      2  C   UNL     1      24.229  -4.193 -37.255  1.00  0.00     0.000 C 
BRANCH   2   3
ATOM      3  C   UNL     1      23.165  -5.066 -36.557  1.00  0.00     0.000 C 
BRANCH   3   4
ATOM      4  C   UNL     1      21.780  -4.402 -36.546  1.00  0.00     0.006 C 
BRANCH   4   5
ATOM      5  C   UNL     1      20.964  -4.811 -37.775  1.00  0.00     0.053 C 
BRANCH   5   6
ATOM      6  C   UNL     1      20.991  -3.727 -38.806  1.00  0.00     0.041 C 
ATOM      7  O   UNL     1      21.612  -3.898 -39.889  1.00  0.00    -0.550 OA
ATOM      8  O   UNL     1      20.288  -2.548 -38.595  1.00  0.00    -0.550 OA
ENDBRANCH   5   6
ENDBRANCH   4   5
ENDBRANCH   3   4
ENDBRANCH   2   3
ENDBRANCH   1   2
BRANCH   1   9
ATOM      9  C   UNL     1      26.289  -5.592 -37.982  1.00  0.00     0.000 C 
BRANCH   9  10
ATOM     10  C   UNL     1      26.136  -7.110 -37.778  1.00  0.00    -0.000 C 
BRANCH  10  11
ATOM     11  C   UNL     1      25.319  -7.766 -38.905  1.00  0.00    -0.000 C 
BRANCH  11  12
ATOM     12  C   UNL     1      24.310  -8.818 -38.395  1.00  0.00    -0.000 C 
BRANCH  12  13
ATOM     13  C   UNL     1      22.873  -8.284 -38.277  1.00  0.00    -0.003 C 
ATOM     14  C   UNL     1      22.409  -7.546 -39.531  1.00  0.00     0.004 C 
ENDBRANCH  12  13
ENDBRANCH  11  12
ENDBRANCH  10  11
ENDBRANCH   9  10
ENDBRANCH   1   9
TORSDOF 10
ENDMDL
