MODEL 1
REMARK VINA RESULT:    -4.627      0.000      0.000
REMARK INTER + INTRA:         -13.104
REMARK INTER:                 -10.036
REMARK INTRA:                  -3.068
REMARK UNBOUND:                -3.068
REMARK SMILES CCCCCCCCCCCCCCCCCCCCCC(=O)[O-]
REMARK SMILES IDX 12 1 11 2 10 3 9 4 8 5 7 6 6 7 5 8 4 9 3 10 2 11 1 12 13 13
REMARK SMILES IDX 14 14 15 15 16 16 17 17 18 18 19 19 20 20 21 21 22 22 23 23
REMARK SMILES IDX 24 24
REMARK H PARENT
REMARK Flexibility Score: inf
ROOT
ATOM      1  C   UNL     1      -3.667  -0.381 -11.611  1.00  0.00     0.000 C 
ENDROOT
BRANCH   1   2
ATOM      2  C   UNL     1      -3.040   0.441 -10.474  1.00  0.00     0.000 C 
BRANCH   2   3
ATOM      3  C   UNL     1      -3.736   1.799 -10.270  1.00  0.00     0.000 C 
BRANCH   3   4
ATOM      4  C   UNL     1      -4.779   2.096 -11.359  1.00  0.00    -0.000 C 
BRANCH   4   5
ATOM      5  C   UNL     1      -6.157   2.454 -10.777  1.00  0.00    -0.000 C 
BRANCH   5   6
ATOM      6  C   UNL     1      -6.282   2.091  -9.289  1.00  0.00    -0.000 C 
BRANCH   6   7
ATOM      7  C   UNL     1      -7.260   0.930  -9.039  1.00  0.00    -0.000 C 
BRANCH   7   8
ATOM      8  C   UNL     1      -6.636  -0.442  -9.339  1.00  0.00    -0.000 C 
BRANCH   8   9
ATOM      9  C   UNL     1      -7.076  -1.004 -10.704  1.00  0.00    -0.000 C 
BRANCH   9  10
ATOM     10  C   UNL     1      -6.841  -2.518 -10.822  1.00  0.00    -0.000 C 
BRANCH  10  11
ATOM     11  C   UNL     1      -5.675  -3.004  -9.950  1.00  0.00    -0.003 C 
ATOM     12  C   UNL     1      -5.014  -4.240 -10.556  1.00  0.00     0.004 C 
ENDBRANCH  10  11
ENDBRANCH   9  10
ENDBRANCH   8   9
ENDBRANCH   7   8
ENDBRANCH   6   7
ENDBRANCH   5   6
ENDBRANCH   4   5
ENDBRANCH   3   4
ENDBRANCH   2   3
ENDBRANCH   1   2
BRANCH   1  13
ATOM     13  C   UNL     1      -2.848  -1.638 -11.955  1.00  0.00     0.000 C 
BRANCH  13  14
ATOM     14  C   UNL     1      -3.122  -2.151 -13.378  1.00  0.00     0.000 C 
BRANCH  14  15
ATOM     15  C   UNL     1      -4.610  -2.065 -13.762  1.00  0.00     0.000 C 
BRANCH  15  16
ATOM     16  C   UNL     1      -4.884  -2.593 -15.180  1.00  0.00     0.000 C 
BRANCH  16  17
ATOM     17  C   UNL     1      -5.808  -3.825 -15.183  1.00  0.00     0.000 C 
BRANCH  17  18
ATOM     18  C   UNL     1      -6.831  -3.809 -14.032  1.00  0.00     0.000 C 
BRANCH  18  19
ATOM     19  C   UNL     1      -8.242  -3.330 -14.417  1.00  0.00     0.000 C 
BRANCH  19  20
ATOM     20  C   UNL     1      -8.801  -4.046 -15.659  1.00  0.00     0.006 C 
BRANCH  20  21
ATOM     21  C   UNL     1     -10.282  -3.722 -15.896  1.00  0.00     0.053 C 
BRANCH  21  22
ATOM     22  C   UNL     1     -11.175  -4.843 -15.459  1.00  0.00     0.041 C 
ATOM     23  O   UNL     1     -12.424  -4.692 -15.444  1.00  0.00    -0.550 OA
ATOM     24  O   UNL     1     -10.623  -6.047 -15.040  1.00  0.00    -0.550 OA
ENDBRANCH  21  22
ENDBRANCH  20  21
ENDBRANCH  19  20
ENDBRANCH  18  19
ENDBRANCH  17  18
ENDBRANCH  16  17
ENDBRANCH  15  16
ENDBRANCH  14  15
ENDBRANCH  13  14
ENDBRANCH   1  13
TORSDOF 20
ENDMDL
MODEL 2
REMARK VINA RESULT:    -4.454      3.093      6.729
REMARK INTER + INTRA:         -12.729
REMARK INTER:                 -10.067
REMARK INTRA:                  -2.662
REMARK UNBOUND:                -3.068
REMARK SMILES CCCCCCCCCCCCCCCCCCCCCC(=O)[O-]
REMARK SMILES IDX 12 1 11 2 10 3 9 4 8 5 7 6 6 7 5 8 4 9 3 10 2 11 1 12 13 13
REMARK SMILES IDX 14 14 15 15 16 16 17 17 18 18 19 19 20 20 21 21 22 22 23 23
REMARK SMILES IDX 24 24
REMARK H PARENT
REMARK Flexibility Score: inf
ROOT
ATOM      1  C   UNL     1     -10.564  -5.056 -16.054  1.00  0.00     0.000 C 
ENDROOT
BRANCH   1   2
ATOM      2  C   UNL     1      -9.414  -4.046 -15.913  1.00  0.00     0.000 C 
BRANCH   2   3
ATOM      3  C   UNL     1      -9.276  -3.499 -14.481  1.00  0.00     0.000 C 
BRANCH   3   4
ATOM      4  C   UNL     1      -7.848  -3.030 -14.165  1.00  0.00    -0.000 C 
BRANCH   4   5
ATOM      5  C   UNL     1      -7.722  -2.428 -12.754  1.00  0.00    -0.000 C 
BRANCH   5   6
ATOM      6  C   UNL     1      -6.277  -2.445 -12.232  1.00  0.00    -0.000 C 
BRANCH   6   7
ATOM      7  C   UNL     1      -6.175  -2.043 -10.750  1.00  0.00    -0.000 C 
BRANCH   7   8
ATOM      8  C   UNL     1      -7.073  -0.845 -10.401  1.00  0.00    -0.000 C 
BRANCH   8   9
ATOM      9  C   UNL     1      -6.532  -0.029  -9.214  1.00  0.00    -0.000 C 
BRANCH   9  10
ATOM     10  C   UNL     1      -5.664   1.159  -9.661  1.00  0.00    -0.000 C 
BRANCH  10  11
ATOM     11  C   UNL     1      -6.435   2.486  -9.661  1.00  0.00    -0.003 C 
ATOM     12  C   UNL     1      -6.847   2.882 -11.077  1.00  0.00     0.004 C 
ENDBRANCH  10  11
ENDBRANCH   9  10
ENDBRANCH   8   9
ENDBRANCH   7   8
ENDBRANCH   6   7
ENDBRANCH   5   6
ENDBRANCH   4   5
ENDBRANCH   3   4
ENDBRANCH   2   3
ENDBRANCH   1   2
BRANCH   1  13
ATOM     13  C   UNL     1     -11.442  -5.134 -14.792  1.00  0.00     0.000 C 
BRANCH  13  14
ATOM     14  C   UNL     1     -11.142  -6.379 -13.940  1.00  0.00     0.000 C 
BRANCH  14  15
ATOM     15  C   UNL     1     -10.460  -7.498 -14.747  1.00  0.00     0.000 C 
BRANCH  15  16
ATOM     16  C   UNL     1      -9.134  -7.955 -14.118  1.00  0.00     0.000 C 
BRANCH  16  17
ATOM     17  C   UNL     1      -7.907  -7.345 -14.818  1.00  0.00     0.000 C 
BRANCH  17  18
ATOM     18  C   UNL     1      -7.115  -6.386 -13.910  1.00  0.00     0.000 C 
BRANCH  18  19
ATOM     19  C   UNL     1      -7.677  -6.218 -12.487  1.00  0.00     0.000 C 
BRANCH  19  20
ATOM     20  C   UNL     1      -6.611  -6.413 -11.394  1.00  0.00     0.006 C 
BRANCH  20  21
ATOM     21  C   UNL     1      -6.960  -5.658 -10.105  1.00  0.00     0.053 C 
BRANCH  21  22
ATOM     22  C   UNL     1      -6.963  -6.565  -8.912  1.00  0.00     0.041 C 
ATOM     23  O   UNL     1      -7.469  -6.183  -7.825  1.00  0.00    -0.550 OA
ATOM     24  O   UNL     1      -6.380  -7.822  -8.995  1.00  0.00    -0.550 OA
ENDBRANCH  21  22
ENDBRANCH  20  21
ENDBRANCH  19  20
ENDBRANCH  18  19
ENDBRANCH  17  18
ENDBRANCH  16  17
ENDBRANCH  15  16
ENDBRANCH  14  15
ENDBRANCH  13  14
ENDBRANCH   1  13
TORSDOF 20
ENDMDL
MODEL 3
REMARK VINA RESULT:    -4.439      4.393      7.483
REMARK INTER + INTRA:         -12.696
REMARK INTER:                  -9.424
REMARK INTRA:                  -3.273
REMARK UNBOUND:                -3.068
REMARK SMILES CCCCCCCCCCCCCCCCCCCCCC(=O)[O-]
REMARK SMILES IDX 12 1 11 2 10 3 9 4 8 5 7 6 6 7 5 8 4 9 3 10 2 11 1 12 13 13
REMARK SMILES IDX 14 14 15 15 16 16 17 17 18 18 19 19 20 20 21 21 22 22 23 23
REMARK SMILES IDX 24 24
REMARK H PARENT
REMARK Flexibility Score: inf
ROOT
ATOM      1  C   UNL     1     -10.684  -7.588 -14.940  1.00  0.00     0.000 C 
ENDROOT
BRANCH   1   2
ATOM      2  C   UNL     1     -11.031  -6.495 -13.915  1.00  0.00     0.000 C 
BRANCH   2   3
ATOM      3  C   UNL     1     -11.718  -5.277 -14.558  1.00  0.00     0.000 C 
BRANCH   3   4
ATOM      4  C   UNL     1     -11.179  -4.970 -15.964  1.00  0.00    -0.000 C 
BRANCH   4   5
ATOM      5  C   UNL     1     -10.293  -3.712 -15.996  1.00  0.00    -0.000 C 
BRANCH   5   6
ATOM      6  C   UNL     1      -8.823  -4.016 -15.666  1.00  0.00    -0.000 C 
BRANCH   6   7
ATOM      7  C   UNL     1      -8.491  -3.799 -14.179  1.00  0.00    -0.000 C 
BRANCH   7   8
ATOM      8  C   UNL     1      -7.653  -2.534 -13.941  1.00  0.00    -0.000 C 
BRANCH   8   9
ATOM      9  C   UNL     1      -6.695  -2.677 -12.744  1.00  0.00    -0.000 C 
BRANCH   9  10
ATOM     10  C   UNL     1      -6.660  -4.108 -12.184  1.00  0.00    -0.000 C 
BRANCH  10  11
ATOM     11  C   UNL     1      -6.527  -4.140 -10.655  1.00  0.00    -0.003 C 
ATOM     12  C   UNL     1      -7.068  -5.449 -10.083  1.00  0.00     0.004 C 
ENDBRANCH  10  11
ENDBRANCH   9  10
ENDBRANCH   8   9
ENDBRANCH   7   8
ENDBRANCH   6   7
ENDBRANCH   5   6
ENDBRANCH   4   5
ENDBRANCH   3   4
ENDBRANCH   2   3
ENDBRANCH   1   2
BRANCH   1  13
ATOM     13  C   UNL     1      -9.185  -7.938 -14.948  1.00  0.00     0.000 C 
BRANCH  13  14
ATOM     14  C   UNL     1      -8.471  -7.503 -13.657  1.00  0.00     0.000 C 
BRANCH  14  15
ATOM     15  C   UNL     1      -6.979  -7.197 -13.882  1.00  0.00     0.000 C 
BRANCH  15  16
ATOM     16  C   UNL     1      -6.656  -6.877 -15.350  1.00  0.00     0.000 C 
BRANCH  16  17
ATOM     17  C   UNL     1      -5.149  -6.682 -15.596  1.00  0.00     0.000 C 
BRANCH  17  18
ATOM     18  C   UNL     1      -4.598  -5.402 -14.941  1.00  0.00     0.000 C 
BRANCH  18  19
ATOM     19  C   UNL     1      -4.920  -4.094 -15.684  1.00  0.00     0.000 C 
BRANCH  19  20
ATOM     20  C   UNL     1      -3.688  -3.193 -15.875  1.00  0.00     0.006 C 
BRANCH  20  21
ATOM     21  C   UNL     1      -4.032  -1.889 -16.608  1.00  0.00     0.053 C 
BRANCH  21  22
ATOM     22  C   UNL     1      -2.961  -1.496 -17.579  1.00  0.00     0.041 C 
ATOM     23  O   UNL     1      -1.960  -0.840 -17.188  1.00  0.00    -0.550 OA
ATOM     24  O   UNL     1      -3.083  -1.831 -18.921  1.00  0.00    -0.550 OA
ENDBRANCH  21  22
ENDBRANCH  20  21
ENDBRANCH  19  20
ENDBRANCH  18  19
ENDBRANCH  17  18
ENDBRANCH  16  17
ENDBRANCH  15  16
ENDBRANCH  14  15
ENDBRANCH  13  14
ENDBRANCH   1  13
TORSDOF 20
ENDMDL
MODEL 4
REMARK VINA RESULT:    -4.421      3.673      8.035
REMARK INTER + INTRA:         -12.657
REMARK INTER:                 -10.244
REMARK INTRA:                  -2.414
REMARK UNBOUND:                -3.068
REMARK SMILES CCCCCCCCCCCCCCCCCCCCCC(=O)[O-]
REMARK SMILES IDX 12 1 11 2 10 3 9 4 8 5 7 6 6 7 5 8 4 9 3 10 2 11 1 12 13 13
REMARK SMILES IDX 14 14 15 15 16 16 17 17 18 18 19 19 20 20 21 21 22 22 23 23
REMARK SMILES IDX 24 24
REMARK H PARENT
REMARK Flexibility Score: inf
ROOT
ATOM      1  C   UNL     1      -8.161  -3.920 -15.293  1.00  0.00     0.000 C 
ENDROOT
BRANCH   1   2
ATOM      2  C   UNL     1      -9.397  -4.269 -16.139  1.00  0.00     0.000 C 
BRANCH   2   3
ATOM      3  C   UNL     1     -10.715  -3.860 -15.458  1.00  0.00     0.000 C 
BRANCH   3   4
ATOM      4  C   UNL     1     -11.359  -5.018 -14.679  1.00  0.00    -0.000 C 
BRANCH   4   5
ATOM      5  C   UNL     1     -10.856  -6.396 -15.145  1.00  0.00    -0.000 C 
BRANCH   5   6
ATOM      6  C   UNL     1     -10.270  -7.230 -13.995  1.00  0.00    -0.000 C 
BRANCH   6   7
ATOM      7  C   UNL     1      -8.732  -7.267 -14.011  1.00  0.00    -0.000 C 
BRANCH   7   8
ATOM      8  C   UNL     1      -8.111  -6.504 -12.831  1.00  0.00    -0.000 C 
BRANCH   8   9
ATOM      9  C   UNL     1      -6.636  -6.876 -12.598  1.00  0.00    -0.000 C 
BRANCH   9  10
ATOM     10  C   UNL     1      -6.036  -6.174 -11.369  1.00  0.00    -0.000 C 
BRANCH  10  11
ATOM     11  C   UNL     1      -7.099  -5.473 -10.513  1.00  0.00    -0.003 C 
ATOM     12  C   UNL     1      -6.921  -5.805  -9.034  1.00  0.00     0.004 C 
ENDBRANCH  10  11
ENDBRANCH   9  10
ENDBRANCH   8   9
ENDBRANCH   7   8
ENDBRANCH   6   7
ENDBRANCH   5   6
ENDBRANCH   4   5
ENDBRANCH   3   4
ENDBRANCH   2   3
ENDBRANCH   1   2
BRANCH   1  13
ATOM     13  C   UNL     1      -8.515  -3.109 -14.034  1.00  0.00     0.000 C 
BRANCH  13  14
ATOM     14  C   UNL     1      -7.272  -2.707 -13.222  1.00  0.00     0.000 C 
BRANCH  14  15
ATOM     15  C   UNL     1      -7.628  -1.928 -11.942  1.00  0.00     0.000 C 
BRANCH  15  16
ATOM     16  C   UNL     1      -6.505  -1.973 -10.893  1.00  0.00     0.000 C 
BRANCH  16  17
ATOM     17  C   UNL     1      -6.709  -0.945  -9.766  1.00  0.00     0.000 C 
BRANCH  17  18
ATOM     18  C   UNL     1      -5.382  -0.441  -9.169  1.00  0.00     0.000 C 
BRANCH  18  19
ATOM     19  C   UNL     1      -4.436   0.252 -10.166  1.00  0.00     0.000 C 
BRANCH  19  20
ATOM     20  C   UNL     1      -4.517   1.787 -10.104  1.00  0.00     0.006 C 
BRANCH  20  21
ATOM     21  C   UNL     1      -5.639   2.344 -10.990  1.00  0.00     0.053 C 
BRANCH  21  22
ATOM     22  C   UNL     1      -6.739   2.956 -10.177  1.00  0.00     0.041 C 
ATOM     23  O   UNL     1      -6.927   2.592  -8.987  1.00  0.00    -0.550 OA
ATOM     24  O   UNL     1      -7.573   3.910 -10.745  1.00  0.00    -0.550 OA
ENDBRANCH  21  22
ENDBRANCH  20  21
ENDBRANCH  19  20
ENDBRANCH  18  19
ENDBRANCH  17  18
ENDBRANCH  16  17
ENDBRANCH  15  16
ENDBRANCH  14  15
ENDBRANCH  13  14
ENDBRANCH   1  13
TORSDOF 20
ENDMDL
MODEL 5
REMARK VINA RESULT:    -4.414      3.782      7.923
REMARK INTER + INTRA:         -12.643
REMARK INTER:                  -9.742
REMARK INTRA:                  -2.901
REMARK UNBOUND:                -3.068
REMARK SMILES CCCCCCCCCCCCCCCCCCCCCC(=O)[O-]
REMARK SMILES IDX 12 1 11 2 10 3 9 4 8 5 7 6 6 7 5 8 4 9 3 10 2 11 1 12 13 13
REMARK SMILES IDX 14 14 15 15 16 16 17 17 18 18 19 19 20 20 21 21 22 22 23 23
REMARK SMILES IDX 24 24
REMARK H PARENT
REMARK Flexibility Score: inf
ROOT
ATOM      1  C   UNL     1     -11.145  -6.438 -13.923  1.00  0.00     0.000 C 
ENDROOT
BRANCH   1   2
ATOM      2  C   UNL     1     -10.698  -7.815 -14.439  1.00  0.00     0.000 C 
BRANCH   2   3
ATOM      3  C   UNL     1      -9.245  -8.149 -14.057  1.00  0.00     0.000 C 
BRANCH   3   4
ATOM      4  C   UNL     1      -8.253  -7.846 -15.191  1.00  0.00    -0.000 C 
BRANCH   4   5
ATOM      5  C   UNL     1      -6.961  -7.181 -14.685  1.00  0.00    -0.000 C 
BRANCH   5   6
ATOM      6  C   UNL     1      -6.996  -6.896 -13.175  1.00  0.00    -0.000 C 
BRANCH   6   7
ATOM      7  C   UNL     1      -5.835  -5.997 -12.713  1.00  0.00    -0.000 C 
BRANCH   7   8
ATOM      8  C   UNL     1      -5.505  -6.181 -11.223  1.00  0.00    -0.000 C 
BRANCH   8   9
ATOM      9  C   UNL     1      -5.996  -5.004 -10.361  1.00  0.00    -0.000 C 
BRANCH   9  10
ATOM     10  C   UNL     1      -7.160  -5.396  -9.436  1.00  0.00    -0.000 C 
BRANCH  10  11
ATOM     11  C   UNL     1      -6.957  -6.770  -8.782  1.00  0.00    -0.003 C 
ATOM     12  C   UNL     1      -7.707  -6.862  -7.455  1.00  0.00     0.004 C 
ENDBRANCH  10  11
ENDBRANCH   9  10
ENDBRANCH   8   9
ENDBRANCH   7   8
ENDBRANCH   6   7
ENDBRANCH   5   6
ENDBRANCH   4   5
ENDBRANCH   3   4
ENDBRANCH   2   3
ENDBRANCH   1   2
BRANCH   1  13
ATOM     13  C   UNL     1     -11.448  -5.448 -15.062  1.00  0.00     0.000 C 
BRANCH  13  14
ATOM     14  C   UNL     1     -10.575  -4.184 -14.994  1.00  0.00     0.000 C 
BRANCH  14  15
ATOM     15  C   UNL     1      -9.183  -4.391 -15.617  1.00  0.00     0.000 C 
BRANCH  15  16
ATOM     16  C   UNL     1      -8.099  -3.542 -14.933  1.00  0.00     0.000 C 
BRANCH  16  17
ATOM     17  C   UNL     1      -8.379  -3.320 -13.436  1.00  0.00     0.000 C 
BRANCH  17  18
ATOM     18  C   UNL     1      -7.282  -2.496 -12.737  1.00  0.00     0.000 C 
BRANCH  18  19
ATOM     19  C   UNL     1      -7.753  -1.669 -11.529  1.00  0.00     0.000 C 
BRANCH  19  20
ATOM     20  C   UNL     1      -6.610  -1.315 -10.561  1.00  0.00     0.006 C 
BRANCH  20  21
ATOM     21  C   UNL     1      -6.325   0.192 -10.528  1.00  0.00     0.053 C 
BRANCH  21  22
ATOM     22  C   UNL     1      -6.998   0.861  -9.369  1.00  0.00     0.041 C 
ATOM     23  O   UNL     1      -7.644   0.180  -8.530  1.00  0.00    -0.550 OA
ATOM     24  O   UNL     1      -6.936   2.242  -9.232  1.00  0.00    -0.550 OA
ENDBRANCH  21  22
ENDBRANCH  20  21
ENDBRANCH  19  20
ENDBRANCH  18  19
ENDBRANCH  17  18
ENDBRANCH  16  17
ENDBRANCH  15  16
ENDBRANCH  14  15
ENDBRANCH  13  14
ENDBRANCH   1  13
TORSDOF 20
ENDMDL
MODEL 6
REMARK VINA RESULT:    -4.411      3.527      7.656
REMARK INTER + INTRA:         -12.637
REMARK INTER:                  -9.256
REMARK INTRA:                  -3.381
REMARK UNBOUND:                -3.068
REMARK SMILES CCCCCCCCCCCCCCCCCCCCCC(=O)[O-]
REMARK SMILES IDX 12 1 11 2 10 3 9 4 8 5 7 6 6 7 5 8 4 9 3 10 2 11 1 12 13 13
REMARK SMILES IDX 14 14 15 15 16 16 17 17 18 18 19 19 20 20 21 21 22 22 23 23
REMARK SMILES IDX 24 24
REMARK H PARENT
REMARK Flexibility Score: inf
ROOT
ATOM      1  C   UNL     1      -8.452  -6.611 -13.062  1.00  0.00     0.000 C 
ENDROOT
BRANCH   1   2
ATOM      2  C   UNL     1      -9.272  -7.171 -14.235  1.00  0.00     0.000 C 
BRANCH   2   3
ATOM      3  C   UNL     1     -10.735  -6.691 -14.219  1.00  0.00     0.000 C 
BRANCH   3   4
ATOM      4  C   UNL     1     -11.031  -5.668 -15.327  1.00  0.00    -0.000 C 
BRANCH   4   5
ATOM      5  C   UNL     1     -10.594  -4.242 -14.948  1.00  0.00    -0.000 C 
BRANCH   5   6
ATOM      6  C   UNL     1      -9.375  -3.765 -15.752  1.00  0.00    -0.000 C 
BRANCH   6   7
ATOM      7  C   UNL     1      -8.124  -3.572 -14.877  1.00  0.00    -0.000 C 
BRANCH   7   8
ATOM      8  C   UNL     1      -6.926  -4.398 -15.370  1.00  0.00    -0.000 C 
BRANCH   8   9
ATOM      9  C   UNL     1      -5.607  -3.989 -14.689  1.00  0.00    -0.000 C 
BRANCH   9  10
ATOM     10  C   UNL     1      -5.423  -2.464 -14.627  1.00  0.00    -0.000 C 
BRANCH  10  11
ATOM     11  C   UNL     1      -4.417  -2.035 -13.551  1.00  0.00    -0.003 C 
ATOM     12  C   UNL     1      -3.700  -3.244 -12.955  1.00  0.00     0.004 C 
ENDBRANCH  10  11
ENDBRANCH   9  10
ENDBRANCH   8   9
ENDBRANCH   7   8
ENDBRANCH   6   7
ENDBRANCH   5   6
ENDBRANCH   4   5
ENDBRANCH   3   4
ENDBRANCH   2   3
ENDBRANCH   1   2
BRANCH   1  13
ATOM     13  C   UNL     1      -7.035  -7.207 -12.992  1.00  0.00     0.000 C 
BRANCH  13  14
ATOM     14  C   UNL     1      -6.193  -6.600 -11.857  1.00  0.00     0.000 C 
BRANCH  14  15
ATOM     15  C   UNL     1      -7.019  -5.690 -10.929  1.00  0.00     0.000 C 
BRANCH  15  16
ATOM     16  C   UNL     1      -6.471  -4.255 -10.870  1.00  0.00     0.000 C 
BRANCH  16  17
ATOM     17  C   UNL     1      -7.447  -3.225 -11.467  1.00  0.00     0.000 C 
BRANCH  17  18
ATOM     18  C   UNL     1      -7.162  -1.788 -10.994  1.00  0.00     0.000 C 
BRANCH  18  19
ATOM     19  C   UNL     1      -5.919  -1.625 -10.103  1.00  0.00     0.000 C 
BRANCH  19  20
ATOM     20  C   UNL     1      -5.650  -0.162  -9.709  1.00  0.00     0.006 C 
BRANCH  20  21
ATOM     21  C   UNL     1      -6.763   0.780 -10.185  1.00  0.00     0.053 C 
BRANCH  21  22
ATOM     22  C   UNL     1      -6.215   2.079 -10.692  1.00  0.00     0.041 C 
ATOM     23  O   UNL     1      -6.920   3.121 -10.664  1.00  0.00    -0.550 OA
ATOM     24  O   UNL     1      -4.933   2.131 -11.223  1.00  0.00    -0.550 OA
ENDBRANCH  21  22
ENDBRANCH  20  21
ENDBRANCH  19  20
ENDBRANCH  18  19
ENDBRANCH  17  18
ENDBRANCH  16  17
ENDBRANCH  15  16
ENDBRANCH  14  15
ENDBRANCH  13  14
ENDBRANCH   1  13
TORSDOF 20
ENDMDL
MODEL 7
REMARK VINA RESULT:    -4.356      3.616      5.233
REMARK INTER + INTRA:         -12.518
REMARK INTER:                  -8.815
REMARK INTRA:                  -3.702
REMARK UNBOUND:                -3.068
REMARK SMILES CCCCCCCCCCCCCCCCCCCCCC(=O)[O-]
REMARK SMILES IDX 12 1 11 2 10 3 9 4 8 5 7 6 6 7 5 8 4 9 3 10 2 11 1 12 13 13
REMARK SMILES IDX 14 14 15 15 16 16 17 17 18 18 19 19 20 20 21 21 22 22 23 23
REMARK SMILES IDX 24 24
REMARK H PARENT
REMARK Flexibility Score: inf
ROOT
ATOM      1  C   UNL     1      -4.798  -2.630 -11.353  1.00  0.00     0.000 C 
ENDROOT
BRANCH   1   2
ATOM      2  C   UNL     1      -4.397  -1.535 -12.355  1.00  0.00     0.000 C 
BRANCH   2   3
ATOM      3  C   UNL     1      -2.913  -1.141 -12.240  1.00  0.00     0.000 C 
BRANCH   3   4
ATOM      4  C   UNL     1      -2.616  -0.334 -10.966  1.00  0.00    -0.000 C 
BRANCH   4   5
ATOM      5  C   UNL     1      -2.327   1.149 -11.259  1.00  0.00    -0.000 C 
BRANCH   5   6
ATOM      6  C   UNL     1      -3.394   2.085 -10.672  1.00  0.00    -0.000 C 
BRANCH   6   7
ATOM      7  C   UNL     1      -4.681   2.122 -11.515  1.00  0.00    -0.000 C 
BRANCH   7   8
ATOM      8  C   UNL     1      -5.952   2.131 -10.651  1.00  0.00    -0.000 C 
BRANCH   8   9
ATOM      9  C   UNL     1      -6.532   0.720 -10.442  1.00  0.00    -0.000 C 
BRANCH   9  10
ATOM     10  C   UNL     1      -6.540   0.298  -8.964  1.00  0.00    -0.000 C 
BRANCH  10  11
ATOM     11  C   UNL     1      -5.218  -0.347  -8.527  1.00  0.00    -0.003 C 
ATOM     12  C   UNL     1      -4.416   0.594  -7.631  1.00  0.00     0.004 C 
ENDBRANCH  10  11
ENDBRANCH   9  10
ENDBRANCH   8   9
ENDBRANCH   7   8
ENDBRANCH   6   7
ENDBRANCH   5   6
ENDBRANCH   4   5
ENDBRANCH   3   4
ENDBRANCH   2   3
ENDBRANCH   1   2
BRANCH   1  13
ATOM     13  C   UNL     1      -6.202  -3.199 -11.629  1.00  0.00     0.000 C 
BRANCH  13  14
ATOM     14  C   UNL     1      -7.077  -2.239 -12.452  1.00  0.00     0.000 C 
BRANCH  14  15
ATOM     15  C   UNL     1      -7.495  -2.835 -13.809  1.00  0.00     0.000 C 
BRANCH  15  16
ATOM     16  C   UNL     1      -6.710  -4.109 -14.160  1.00  0.00     0.000 C 
BRANCH  16  17
ATOM     17  C   UNL     1      -5.805  -3.924 -15.392  1.00  0.00     0.000 C 
BRANCH  17  18
ATOM     18  C   UNL     1      -4.335  -4.287 -15.116  1.00  0.00     0.000 C 
BRANCH  18  19
ATOM     19  C   UNL     1      -3.311  -3.197 -15.478  1.00  0.00     0.000 C 
BRANCH  19  20
ATOM     20  C   UNL     1      -3.966  -1.915 -16.021  1.00  0.00     0.006 C 
BRANCH  20  21
ATOM     21  C   UNL     1      -3.585  -1.645 -17.483  1.00  0.00     0.053 C 
BRANCH  21  22
ATOM     22  C   UNL     1      -2.112  -1.428 -17.644  1.00  0.00     0.041 C 
ATOM     23  O   UNL     1      -1.465  -2.074 -18.509  1.00  0.00    -0.550 OA
ATOM     24  O   UNL     1      -1.447  -0.532 -16.816  1.00  0.00    -0.550 OA
ENDBRANCH  21  22
ENDBRANCH  20  21
ENDBRANCH  19  20
ENDBRANCH  18  19
ENDBRANCH  17  18
ENDBRANCH  16  17
ENDBRANCH  15  16
ENDBRANCH  14  15
ENDBRANCH  13  14
ENDBRANCH   1  13
TORSDOF 20
ENDMDL
MODEL 8
REMARK VINA RESULT:    -4.343      3.246      7.302
REMARK INTER + INTRA:         -12.489
REMARK INTER:                  -9.074
REMARK INTRA:                  -3.415
REMARK UNBOUND:                -3.068
REMARK SMILES CCCCCCCCCCCCCCCCCCCCCC(=O)[O-]
REMARK SMILES IDX 12 1 11 2 10 3 9 4 8 5 7 6 6 7 5 8 4 9 3 10 2 11 1 12 13 13
REMARK SMILES IDX 14 14 15 15 16 16 17 17 18 18 19 19 20 20 21 21 22 22 23 23
REMARK SMILES IDX 24 24
REMARK H PARENT
REMARK Flexibility Score: inf
ROOT
ATOM      1  C   UNL     1      -7.246  -6.820 -15.753  1.00  0.00     0.000 C 
ENDROOT
BRANCH   1   2
ATOM      2  C   UNL     1      -8.493  -6.000 -16.123  1.00  0.00     0.000 C 
BRANCH   2   3
ATOM      3  C   UNL     1      -9.535  -5.961 -14.990  1.00  0.00     0.000 C 
BRANCH   3   4
ATOM      4  C   UNL     1      -9.806  -4.533 -14.489  1.00  0.00    -0.000 C 
BRANCH   4   5
ATOM      5  C   UNL     1      -8.683  -3.551 -14.867  1.00  0.00    -0.000 C 
BRANCH   5   6
ATOM      6  C   UNL     1      -8.032  -2.898 -13.637  1.00  0.00    -0.000 C 
BRANCH   6   7
ATOM      7  C   UNL     1      -6.549  -2.554 -13.862  1.00  0.00    -0.000 C 
BRANCH   7   8
ATOM      8  C   UNL     1      -5.869  -3.502 -14.862  1.00  0.00    -0.000 C 
BRANCH   8   9
ATOM      9  C   UNL     1      -4.350  -3.612 -14.631  1.00  0.00    -0.000 C 
BRANCH   9  10
ATOM     10  C   UNL     1      -3.585  -2.384 -15.152  1.00  0.00    -0.000 C 
BRANCH  10  11
ATOM     11  C   UNL     1      -4.017  -1.975 -16.566  1.00  0.00    -0.003 C 
ATOM     12  C   UNL     1      -2.848  -1.379 -17.347  1.00  0.00     0.004 C 
ENDBRANCH  10  11
ENDBRANCH   9  10
ENDBRANCH   8   9
ENDBRANCH   7   8
ENDBRANCH   6   7
ENDBRANCH   5   6
ENDBRANCH   4   5
ENDBRANCH   3   4
ENDBRANCH   2   3
ENDBRANCH   1   2
BRANCH   1  13
ATOM     13  C   UNL     1      -7.179  -7.150 -14.251  1.00  0.00     0.000 C 
BRANCH  13  14
ATOM     14  C   UNL     1      -5.771  -6.953 -13.665  1.00  0.00     0.000 C 
BRANCH  14  15
ATOM     15  C   UNL     1      -5.798  -6.387 -12.234  1.00  0.00     0.000 C 
BRANCH  15  16
ATOM     16  C   UNL     1      -7.154  -5.757 -11.875  1.00  0.00     0.000 C 
BRANCH  16  17
ATOM     17  C   UNL     1      -7.112  -4.982 -10.546  1.00  0.00     0.000 C 
BRANCH  17  18
ATOM     18  C   UNL     1      -5.708  -4.953  -9.914  1.00  0.00     0.000 C 
BRANCH  18  19
ATOM     19  C   UNL     1      -5.085  -3.554  -9.765  1.00  0.00     0.000 C 
BRANCH  19  20
ATOM     20  C   UNL     1      -6.047  -2.422 -10.165  1.00  0.00     0.006 C 
BRANCH  20  21
ATOM     21  C   UNL     1      -5.802  -1.141  -9.358  1.00  0.00     0.053 C 
BRANCH  21  22
ATOM     22  C   UNL     1      -6.856  -0.108  -9.619  1.00  0.00     0.041 C 
ATOM     23  O   UNL     1      -6.993   0.382 -10.770  1.00  0.00    -0.550 OA
ATOM     24  O   UNL     1      -7.667   0.333  -8.582  1.00  0.00    -0.550 OA
ENDBRANCH  21  22
ENDBRANCH  20  21
ENDBRANCH  19  20
ENDBRANCH  18  19
ENDBRANCH  17  18
ENDBRANCH  16  17
ENDBRANCH  15  16
ENDBRANCH  14  15
ENDBRANCH  13  14
ENDBRANCH   1  13
TORSDOF 20
ENDMDL
MODEL 9
REMARK VINA RESULT:    -4.318      1.695      3.689
REMARK INTER + INTRA:         -12.433
REMARK INTER:                  -9.268
REMARK INTRA:                  -3.166
REMARK UNBOUND:                -3.068
REMARK SMILES CCCCCCCCCCCCCCCCCCCCCC(=O)[O-]
REMARK SMILES IDX 12 1 11 2 10 3 9 4 8 5 7 6 6 7 5 8 4 9 3 10 2 11 1 12 13 13
REMARK SMILES IDX 14 14 15 15 16 16 17 17 18 18 19 19 20 20 21 21 22 22 23 23
REMARK SMILES IDX 24 24
REMARK H PARENT
REMARK Flexibility Score: inf
ROOT
ATOM      1  C   UNL     1      -4.971  -2.717  -9.570  1.00  0.00     0.000 C 
ENDROOT
BRANCH   1   2
ATOM      2  C   UNL     1      -4.755  -1.945 -10.883  1.00  0.00     0.000 C 
BRANCH   2   3
ATOM      3  C   UNL     1      -5.683  -0.724 -11.012  1.00  0.00     0.000 C 
BRANCH   3   4
ATOM      4  C   UNL     1      -6.947  -0.851 -10.148  1.00  0.00    -0.000 C 
BRANCH   4   5
ATOM      5  C   UNL     1      -7.092   0.301  -9.138  1.00  0.00    -0.000 C 
BRANCH   5   6
ATOM      6  C   UNL     1      -5.930   1.304  -9.216  1.00  0.00    -0.000 C 
BRANCH   6   7
ATOM      7  C   UNL     1      -5.602   1.940  -7.853  1.00  0.00    -0.000 C 
BRANCH   7   8
ATOM      8  C   UNL     1      -4.270   1.437  -7.274  1.00  0.00    -0.000 C 
BRANCH   8   9
ATOM      9  C   UNL     1      -3.548   0.459  -8.219  1.00  0.00    -0.000 C 
BRANCH   9  10
ATOM     10  C   UNL     1      -2.343   1.102  -8.925  1.00  0.00    -0.000 C 
BRANCH  10  11
ATOM     11  C   UNL     1      -2.366   0.888 -10.445  1.00  0.00    -0.003 C 
ATOM     12  C   UNL     1      -2.942   2.107 -11.162  1.00  0.00     0.004 C 
ENDBRANCH  10  11
ENDBRANCH   9  10
ENDBRANCH   8   9
ENDBRANCH   7   8
ENDBRANCH   6   7
ENDBRANCH   5   6
ENDBRANCH   4   5
ENDBRANCH   3   4
ENDBRANCH   2   3
ENDBRANCH   1   2
BRANCH   1  13
ATOM     13  C   UNL     1      -4.866  -4.241  -9.755  1.00  0.00     0.000 C 
BRANCH  13  14
ATOM     14  C   UNL     1      -6.163  -4.973  -9.373  1.00  0.00     0.000 C 
BRANCH  14  15
ATOM     15  C   UNL     1      -7.032  -5.315 -10.596  1.00  0.00     0.000 C 
BRANCH  15  16
ATOM     16  C   UNL     1      -6.194  -5.714 -11.822  1.00  0.00     0.000 C 
BRANCH  16  17
ATOM     17  C   UNL     1      -6.454  -4.803 -13.036  1.00  0.00     0.000 C 
BRANCH  17  18
ATOM     18  C   UNL     1      -7.303  -3.568 -12.687  1.00  0.00     0.000 C 
BRANCH  18  19
ATOM     19  C   UNL     1      -7.779  -2.738 -13.892  1.00  0.00     0.000 C 
BRANCH  19  20
ATOM     20  C   UNL     1      -8.391  -3.599 -15.011  1.00  0.00     0.006 C 
BRANCH  20  21
ATOM     21  C   UNL     1      -9.850  -3.975 -14.720  1.00  0.00     0.053 C 
BRANCH  21  22
ATOM     22  C   UNL     1     -10.700  -3.901 -15.952  1.00  0.00     0.041 C 
ATOM     23  O   UNL     1     -10.329  -3.212 -16.939  1.00  0.00    -0.550 OA
ATOM     24  O   UNL     1     -11.916  -4.570 -15.999  1.00  0.00    -0.550 OA
ENDBRANCH  21  22
ENDBRANCH  20  21
ENDBRANCH  19  20
ENDBRANCH  18  19
ENDBRANCH  17  18
ENDBRANCH  16  17
ENDBRANCH  15  16
ENDBRANCH  14  15
ENDBRANCH  13  14
ENDBRANCH   1  13
TORSDOF 20
ENDMDL
