MODEL 1
REMARK VINA RESULT:    -3.940      0.000      0.000
REMARK INTER + INTRA:          -4.409
REMARK INTER:                  -4.171
REMARK INTRA:                  -0.238
REMARK UNBOUND:                -0.238
REMARK SMILES O=c1cc(-c2ccccc2)oc2ccccc12
REMARK SMILES IDX 4 1 3 2 2 3 1 4 17 5 16 6 15 7 14 8 13 9 12 10 11 11 5 12
REMARK SMILES IDX 8 13 7 14 9 15 6 16 10 17
REMARK H PARENT
REMARK Flexibility Score: inf
ROOT
ATOM      1  C   UNL     1      26.908  41.701  49.027  1.00  0.00     0.138 A 
ATOM      2  C   UNL     1      26.551  40.862  50.104  1.00  0.00     0.100 A 
ATOM      3  C   UNL     1      27.399  40.761  51.208  1.00  0.00     0.193 A 
ATOM      4  O   UNL     1      27.080  40.011  52.171  1.00  0.00    -0.289 OA
ATOM      5  C   UNL     1      28.593  41.496  51.232  1.00  0.00     0.065 A 
ATOM      6  C   UNL     1      29.490  41.440  52.315  1.00  0.00     0.016 A 
ATOM      7  C   UNL     1      30.667  42.194  52.287  1.00  0.00     0.001 A 
ATOM      8  C   UNL     1      30.957  43.005  51.186  1.00  0.00     0.004 A 
ATOM      9  C   UNL     1      30.070  43.067  50.106  1.00  0.00     0.048 A 
ATOM     10  C   UNL     1      28.890  42.316  50.124  1.00  0.00     0.138 A 
ATOM     11  O   UNL     1      28.054  42.381  49.093  1.00  0.00    -0.456 OA
ENDROOT
BRANCH   1  12
ATOM     12  C   UNL     1      26.059  41.866  47.807  1.00  0.00     0.017 A 
ATOM     13  C   UNL     1      24.381  42.201  45.562  1.00  0.00     0.000 A 
ATOM     14  C   UNL     1      25.717  41.843  45.387  1.00  0.00     0.001 A 
ATOM     15  C   UNL     1      23.875  42.392  46.847  1.00  0.00     0.001 A 
ATOM     16  C   UNL     1      26.554  41.677  46.496  1.00  0.00     0.012 A 
ATOM     17  C   UNL     1      24.704  42.227  47.961  1.00  0.00     0.012 A 
ENDBRANCH   1  12
TORSDOF 1
ENDMDL
MODEL 2
REMARK VINA RESULT:    -3.917     15.636     18.109
REMARK INTER + INTRA:          -4.384
REMARK INTER:                  -4.155
REMARK INTRA:                  -0.229
REMARK UNBOUND:                -0.238
REMARK SMILES O=c1cc(-c2ccccc2)oc2ccccc12
REMARK SMILES IDX 4 1 3 2 2 3 1 4 17 5 16 6 15 7 14 8 13 9 12 10 11 11 5 12
REMARK SMILES IDX 8 13 7 14 9 15 6 16 10 17
REMARK H PARENT
REMARK Flexibility Score: inf
ROOT
ATOM      1  C   UNL     1      39.226  30.750  56.917  1.00  0.00     0.138 A 
ATOM      2  C   UNL     1      40.356  31.263  56.247  1.00  0.00     0.100 A 
ATOM      3  C   UNL     1      40.556  32.644  56.192  1.00  0.00     0.193 A 
ATOM      4  O   UNL     1      41.567  33.103  55.593  1.00  0.00    -0.289 OA
ATOM      5  C   UNL     1      39.631  33.500  56.805  1.00  0.00     0.065 A 
ATOM      6  C   UNL     1      39.774  34.900  56.787  1.00  0.00     0.016 A 
ATOM      7  C   UNL     1      38.821  35.709  57.415  1.00  0.00     0.001 A 
ATOM      8  C   UNL     1      37.724  35.130  58.061  1.00  0.00     0.004 A 
ATOM      9  C   UNL     1      37.575  33.740  58.083  1.00  0.00     0.048 A 
ATOM     10  C   UNL     1      38.522  32.923  57.459  1.00  0.00     0.138 A 
ATOM     11  O   UNL     1      38.372  31.603  57.485  1.00  0.00    -0.456 OA
ENDROOT
BRANCH   1  12
ATOM     12  C   UNL     1      38.936  29.286  57.022  1.00  0.00     0.017 A 
ATOM     13  C   UNL     1      38.469  26.514  57.277  1.00  0.00     0.000 A 
ATOM     14  C   UNL     1      37.605  27.300  56.515  1.00  0.00     0.001 A 
ATOM     15  C   UNL     1      39.564  27.099  57.912  1.00  0.00     0.001 A 
ATOM     16  C   UNL     1      37.832  28.675  56.386  1.00  0.00     0.012 A 
ATOM     17  C   UNL     1      39.798  28.472  57.787  1.00  0.00     0.012 A 
ENDBRANCH   1  12
TORSDOF 1
ENDMDL
MODEL 3
REMARK VINA RESULT:    -3.864      1.819      6.040
REMARK INTER + INTRA:          -4.328
REMARK INTER:                  -4.084
REMARK INTRA:                  -0.244
REMARK UNBOUND:                -0.238
REMARK SMILES O=c1cc(-c2ccccc2)oc2ccccc12
REMARK SMILES IDX 4 1 3 2 2 3 1 4 17 5 16 6 15 7 14 8 13 9 12 10 11 11 5 12
REMARK SMILES IDX 8 13 7 14 9 15 6 16 10 17
REMARK H PARENT
REMARK Flexibility Score: inf
ROOT
ATOM      1  C   UNL     1      28.610  41.909  49.411  1.00  0.00     0.138 A 
ATOM      2  C   UNL     1      27.226  42.166  49.310  1.00  0.00     0.100 A 
ATOM      3  C   UNL     1      26.574  41.964  48.093  1.00  0.00     0.193 A 
ATOM      4  O   UNL     1      25.337  42.193  48.003  1.00  0.00    -0.289 OA
ATOM      5  C   UNL     1      27.305  41.507  46.986  1.00  0.00     0.065 A 
ATOM      6  C   UNL     1      26.710  41.282  45.731  1.00  0.00     0.016 A 
ATOM      7  C   UNL     1      27.485  40.825  44.661  1.00  0.00     0.001 A 
ATOM      8  C   UNL     1      28.853  40.592  44.833  1.00  0.00     0.004 A 
ATOM      9  C   UNL     1      29.452  40.812  46.077  1.00  0.00     0.048 A 
ATOM     10  C   UNL     1      28.685  41.269  47.154  1.00  0.00     0.138 A 
ATOM     11  O   UNL     1      29.264  41.476  48.332  1.00  0.00    -0.456 OA
ENDROOT
BRANCH   1  12
ATOM     12  C   UNL     1      29.384  42.100  50.676  1.00  0.00     0.017 A 
ATOM     13  C   UNL     1      30.912  42.508  53.014  1.00  0.00     0.000 A 
ATOM     14  C   UNL     1      29.699  41.824  53.084  1.00  0.00     0.001 A 
ATOM     15  C   UNL     1      31.369  42.990  51.787  1.00  0.00     0.001 A 
ATOM     16  C   UNL     1      28.937  41.620  51.928  1.00  0.00     0.012 A 
ATOM     17  C   UNL     1      30.614  42.789  50.628  1.00  0.00     0.012 A 
ENDBRANCH   1  12
TORSDOF 1
ENDMDL
MODEL 4
REMARK VINA RESULT:    -3.862      1.808      5.961
REMARK INTER + INTRA:          -4.326
REMARK INTER:                  -4.082
REMARK INTRA:                  -0.244
REMARK UNBOUND:                -0.238
REMARK SMILES O=c1cc(-c2ccccc2)oc2ccccc12
REMARK SMILES IDX 4 1 3 2 2 3 1 4 17 5 16 6 15 7 14 8 13 9 12 10 11 11 5 12
REMARK SMILES IDX 8 13 7 14 9 15 6 16 10 17
REMARK H PARENT
REMARK Flexibility Score: inf
ROOT
ATOM      1  C   UNL     1      28.597  41.918  49.279  1.00  0.00     0.138 A 
ATOM      2  C   UNL     1      27.213  42.178  49.187  1.00  0.00     0.100 A 
ATOM      3  C   UNL     1      26.551  41.969  47.976  1.00  0.00     0.193 A 
ATOM      4  O   UNL     1      25.314  42.202  47.894  1.00  0.00    -0.289 OA
ATOM      5  C   UNL     1      27.271  41.503  46.867  1.00  0.00     0.065 A 
ATOM      6  C   UNL     1      26.665  41.271  45.619  1.00  0.00     0.016 A 
ATOM      7  C   UNL     1      27.431  40.805  44.545  1.00  0.00     0.001 A 
ATOM      8  C   UNL     1      28.799  40.568  44.708  1.00  0.00     0.004 A 
ATOM      9  C   UNL     1      29.409  40.796  45.945  1.00  0.00     0.048 A 
ATOM     10  C   UNL     1      28.652  41.262  47.025  1.00  0.00     0.138 A 
ATOM     11  O   UNL     1      29.241  41.475  48.198  1.00  0.00    -0.456 OA
ENDROOT
BRANCH   1  12
ATOM     12  C   UNL     1      29.381  42.115  50.536  1.00  0.00     0.017 A 
ATOM     13  C   UNL     1      30.791  42.441  52.959  1.00  0.00     0.000 A 
ATOM     14  C   UNL     1      31.329  42.928  51.768  1.00  0.00     0.001 A 
ATOM     15  C   UNL     1      29.556  41.794  52.952  1.00  0.00     0.001 A 
ATOM     16  C   UNL     1      30.635  42.768  50.564  1.00  0.00     0.012 A 
ATOM     17  C   UNL     1      28.856  41.632  51.753  1.00  0.00     0.012 A 
ENDBRANCH   1  12
TORSDOF 1
ENDMDL
MODEL 5
REMARK VINA RESULT:    -3.840      1.324      6.194
REMARK INTER + INTRA:          -4.303
REMARK INTER:                  -4.067
REMARK INTRA:                  -0.235
REMARK UNBOUND:                -0.238
REMARK SMILES O=c1cc(-c2ccccc2)oc2ccccc12
REMARK SMILES IDX 4 1 3 2 2 3 1 4 17 5 16 6 15 7 14 8 13 9 12 10 11 11 5 12
REMARK SMILES IDX 8 13 7 14 9 15 6 16 10 17
REMARK H PARENT
REMARK Flexibility Score: inf
ROOT
ATOM      1  C   UNL     1      28.266  41.770  48.743  1.00  0.00     0.138 A 
ATOM      2  C   UNL     1      28.800  41.267  47.538  1.00  0.00     0.100 A 
ATOM      3  C   UNL     1      27.967  41.107  46.429  1.00  0.00     0.193 A 
ATOM      4  O   UNL     1      28.444  40.658  45.351  1.00  0.00    -0.289 OA
ATOM      5  C   UNL     1      26.611  41.450  46.530  1.00  0.00     0.065 A 
ATOM      6  C   UNL     1      25.718  41.313  45.451  1.00  0.00     0.016 A 
ATOM      7  C   UNL     1      24.375  41.670  45.605  1.00  0.00     0.001 A 
ATOM      8  C   UNL     1      23.914  42.162  46.830  1.00  0.00     0.004 A 
ATOM      9  C   UNL     1      24.795  42.301  47.907  1.00  0.00     0.048 A 
ATOM     10  C   UNL     1      26.141  41.948  47.763  1.00  0.00     0.138 A 
ATOM     11  O   UNL     1      26.970  42.083  48.792  1.00  0.00    -0.456 OA
ENDROOT
BRANCH   1  12
ATOM     12  C   UNL     1      29.088  41.972  49.976  1.00  0.00     0.017 A 
ATOM     13  C   UNL     1      30.579  42.292  52.351  1.00  0.00     0.000 A 
ATOM     14  C   UNL     1      30.965  42.961  51.190  1.00  0.00     0.001 A 
ATOM     15  C   UNL     1      29.456  41.466  52.337  1.00  0.00     0.001 A 
ATOM     16  C   UNL     1      30.229  42.805  50.010  1.00  0.00     0.012 A 
ATOM     17  C   UNL     1      28.716  41.306  51.163  1.00  0.00     0.012 A 
ENDBRANCH   1  12
TORSDOF 1
ENDMDL
MODEL 6
REMARK VINA RESULT:    -3.760     16.549     18.400
REMARK INTER + INTRA:          -4.218
REMARK INTER:                  -3.984
REMARK INTRA:                  -0.234
REMARK UNBOUND:                -0.238
REMARK SMILES O=c1cc(-c2ccccc2)oc2ccccc12
REMARK SMILES IDX 4 1 3 2 2 3 1 4 17 5 16 6 15 7 14 8 13 9 12 10 11 11 5 12
REMARK SMILES IDX 8 13 7 14 9 15 6 16 10 17
REMARK H PARENT
REMARK Flexibility Score: inf
ROOT
ATOM      1  C   UNL     1      39.347  30.752  56.923  1.00  0.00     0.138 A 
ATOM      2  C   UNL     1      38.467  31.781  57.320  1.00  0.00     0.100 A 
ATOM      3  C   UNL     1      38.847  33.114  57.154  1.00  0.00     0.193 A 
ATOM      4  O   UNL     1      38.060  34.034  57.510  1.00  0.00    -0.289 OA
ATOM      5  C   UNL     1      40.097  33.411  56.594  1.00  0.00     0.065 A 
ATOM      6  C   UNL     1      40.540  34.733  56.399  1.00  0.00     0.016 A 
ATOM      7  C   UNL     1      41.797  34.973  55.836  1.00  0.00     0.001 A 
ATOM      8  C   UNL     1      42.618  33.903  55.465  1.00  0.00     0.004 A 
ATOM      9  C   UNL     1      42.185  32.588  55.655  1.00  0.00     0.048 A 
ATOM     10  C   UNL     1      40.929  32.336  56.218  1.00  0.00     0.138 A 
ATOM     11  O   UNL     1      40.526  31.082  56.395  1.00  0.00    -0.456 OA
ENDROOT
BRANCH   1  12
ATOM     12  C   UNL     1      39.019  29.300  57.066  1.00  0.00     0.017 A 
ATOM     13  C   UNL     1      38.478  26.549  57.392  1.00  0.00     0.000 A 
ATOM     14  C   UNL     1      37.636  27.338  56.610  1.00  0.00     0.001 A 
ATOM     15  C   UNL     1      39.588  27.121  58.012  1.00  0.00     0.001 A 
ATOM     16  C   UNL     1      37.898  28.702  56.445  1.00  0.00     0.012 A 
ATOM     17  C   UNL     1      39.859  28.483  57.852  1.00  0.00     0.012 A 
ENDBRANCH   1  12
TORSDOF 1
ENDMDL
MODEL 7
REMARK VINA RESULT:    -3.751      2.921      6.933
REMARK INTER + INTRA:          -4.208
REMARK INTER:                  -3.978
REMARK INTRA:                  -0.230
REMARK UNBOUND:                -0.238
REMARK SMILES O=c1cc(-c2ccccc2)oc2ccccc12
REMARK SMILES IDX 4 1 3 2 2 3 1 4 17 5 16 6 15 7 14 8 13 9 12 10 11 11 5 12
REMARK SMILES IDX 8 13 7 14 9 15 6 16 10 17
REMARK H PARENT
REMARK Flexibility Score: inf
ROOT
ATOM      1  C   UNL     1      30.215  41.383  47.529  1.00  0.00     0.138 A 
ATOM      2  C   UNL     1      31.137  41.256  46.468  1.00  0.00     0.100 A 
ATOM      3  C   UNL     1      30.669  41.058  45.169  1.00  0.00     0.193 A 
ATOM      4  O   UNL     1      31.493  40.944  44.220  1.00  0.00    -0.289 OA
ATOM      5  C   UNL     1      29.288  40.989  44.936  1.00  0.00     0.065 A 
ATOM      6  C   UNL     1      28.750  40.791  43.650  1.00  0.00     0.016 A 
ATOM      7  C   UNL     1      27.364  40.731  43.474  1.00  0.00     0.001 A 
ATOM      8  C   UNL     1      26.509  40.865  44.572  1.00  0.00     0.004 A 
ATOM      9  C   UNL     1      27.035  41.061  45.852  1.00  0.00     0.048 A 
ATOM     10  C   UNL     1      28.420  41.124  46.040  1.00  0.00     0.138 A 
ATOM     11  O   UNL     1      28.911  41.311  47.260  1.00  0.00    -0.456 OA
ENDROOT
BRANCH   1  12
ATOM     12  C   UNL     1      30.632  41.596  48.949  1.00  0.00     0.017 A 
ATOM     13  C   UNL     1      31.377  42.087  51.627  1.00  0.00     0.000 A 
ATOM     14  C   UNL     1      31.717  40.879  51.019  1.00  0.00     0.001 A 
ATOM     15  C   UNL     1      30.669  43.052  50.911  1.00  0.00     0.001 A 
ATOM     16  C   UNL     1      31.349  40.631  49.692  1.00  0.00     0.012 A 
ATOM     17  C   UNL     1      30.299  42.811  49.585  1.00  0.00     0.012 A 
ENDBRANCH   1  12
TORSDOF 1
ENDMDL
MODEL 8
REMARK VINA RESULT:    -3.721     16.828     19.415
REMARK INTER + INTRA:          -4.177
REMARK INTER:                  -3.912
REMARK INTRA:                  -0.265
REMARK UNBOUND:                -0.238
REMARK SMILES O=c1cc(-c2ccccc2)oc2ccccc12
REMARK SMILES IDX 4 1 3 2 2 3 1 4 17 5 16 6 15 7 14 8 13 9 12 10 11 11 5 12
REMARK SMILES IDX 8 13 7 14 9 15 6 16 10 17
REMARK H PARENT
REMARK Flexibility Score: inf
ROOT
ATOM      1  C   UNL     1      39.010  29.394  56.685  1.00  0.00     0.138 A 
ATOM      2  C   UNL     1      38.669  28.310  55.848  1.00  0.00     0.100 A 
ATOM      3  C   UNL     1      39.517  27.204  55.774  1.00  0.00     0.193 A 
ATOM      4  O   UNL     1      39.212  26.235  55.025  1.00  0.00    -0.289 OA
ATOM      5  C   UNL     1      40.696  27.185  56.534  1.00  0.00     0.065 A 
ATOM      6  C   UNL     1      41.592  26.101  56.505  1.00  0.00     0.016 A 
ATOM      7  C   UNL     1      42.754  26.133  57.283  1.00  0.00     0.001 A 
ATOM      8  C   UNL     1      43.028  27.241  58.091  1.00  0.00     0.004 A 
ATOM      9  C   UNL     1      42.142  28.322  58.125  1.00  0.00     0.048 A 
ATOM     10  C   UNL     1      40.978  28.300  57.350  1.00  0.00     0.138 A 
ATOM     11  O   UNL     1      40.142  29.332  57.389  1.00  0.00    -0.456 OA
ENDROOT
BRANCH   1  12
ATOM     12  C   UNL     1      38.160  30.616  56.822  1.00  0.00     0.017 A 
ATOM     13  C   UNL     1      36.483  32.877  57.031  1.00  0.00     0.000 A 
ATOM     14  C   UNL     1      37.758  32.899  57.597  1.00  0.00     0.001 A 
ATOM     15  C   UNL     1      36.039  31.738  56.362  1.00  0.00     0.001 A 
ATOM     16  C   UNL     1      38.592  31.780  57.497  1.00  0.00     0.012 A 
ATOM     17  C   UNL     1      36.867  30.617  56.257  1.00  0.00     0.012 A 
ENDBRANCH   1  12
TORSDOF 1
ENDMDL
