MODEL 1
REMARK VINA RESULT:    -4.218      0.000      0.000
REMARK INTER + INTRA:          -4.689
REMARK INTER:                  -4.588
REMARK INTRA:                  -0.101
REMARK UNBOUND:                -0.101
REMARK SMILES Cc1ccc(C(C)C)cc1O
REMARK SMILES IDX 1 1 2 2 10 3 9 4 5 5 4 6 3 7 11 8 6 10 7 11 8 12
REMARK H PARENT 11 9
REMARK Flexibility Score: inf
ROOT
ATOM      1  C   UNL     1     166.937 166.751 169.443  1.00  0.00     0.048 C 
ATOM      2  C   UNL     1     166.167 166.073 168.344  1.00  0.00    -0.009 A 
ATOM      3  C   UNL     1     165.192 165.091 168.631  1.00  0.00     0.118 A 
ATOM      4  C   UNL     1     164.493 164.479 167.584  1.00  0.00     0.050 A 
ATOM      5  C   UNL     1     164.745 164.825 166.247  1.00  0.00    -0.042 A 
ATOM      6  C   UNL     1     165.716 165.803 165.969  1.00  0.00     0.004 A 
ATOM      7  C   UNL     1     166.418 166.419 167.007  1.00  0.00     0.007 A 
ENDROOT
BRANCH   3   8
ATOM      8  O   UNL     1     164.897 164.705 169.940  1.00  0.00    -0.508 OA
ATOM      9  H   UNL     1     165.436 165.008 170.741  1.00  0.00     0.293 HD
ENDBRANCH   3   8
BRANCH   5  10
ATOM     10  C   UNL     1     163.974 164.148 165.128  1.00  0.00     0.013 C 
ATOM     11  C   UNL     1     164.479 162.719 164.895  1.00  0.00     0.012 C 
ATOM     12  C   UNL     1     162.467 164.162 165.408  1.00  0.00     0.012 C 
ENDBRANCH   5  10
TORSDOF 2
ENDMDL
MODEL 2
REMARK VINA RESULT:    -4.215      1.669      3.653
REMARK INTER + INTRA:          -4.685
REMARK INTER:                  -4.585
REMARK INTRA:                  -0.100
REMARK UNBOUND:                -0.101
REMARK SMILES Cc1ccc(C(C)C)cc1O
REMARK SMILES IDX 1 1 2 2 10 3 9 4 5 5 4 6 3 7 11 8 6 10 7 11 8 12
REMARK H PARENT 11 9
REMARK Flexibility Score: inf
ROOT
ATOM      1  C   UNL     1     164.293 164.308 169.333  1.00  0.00     0.048 C 
ATOM      2  C   UNL     1     165.052 165.018 168.247  1.00  0.00    -0.009 A 
ATOM      3  C   UNL     1     166.003 166.018 168.553  1.00  0.00     0.118 A 
ATOM      4  C   UNL     1     166.694 166.660 167.519  1.00  0.00     0.050 A 
ATOM      5  C   UNL     1     166.457 166.326 166.176  1.00  0.00    -0.042 A 
ATOM      6  C   UNL     1     165.511 165.330 165.879  1.00  0.00     0.004 A 
ATOM      7  C   UNL     1     164.817 164.684 166.904  1.00  0.00     0.007 A 
ENDROOT
BRANCH   3   8
ATOM      8  O   UNL     1     166.282 166.393 169.869  1.00  0.00    -0.508 OA
ATOM      9  H   UNL     1     166.432 167.354 170.149  1.00  0.00     0.293 HD
ENDBRANCH   3   8
BRANCH   5  10
ATOM     10  C   UNL     1     167.219 167.036 165.071  1.00  0.00     0.013 C 
ATOM     11  C   UNL     1     166.757 168.491 164.928  1.00  0.00     0.012 C 
ATOM     12  C   UNL     1     168.732 166.958 165.303  1.00  0.00     0.012 C 
ENDBRANCH   5  10
TORSDOF 2
ENDMDL
MODEL 3
REMARK VINA RESULT:    -3.897      3.418      4.456
REMARK INTER + INTRA:          -4.340
REMARK INTER:                  -4.213
REMARK INTRA:                  -0.126
REMARK UNBOUND:                -0.101
REMARK SMILES Cc1ccc(C(C)C)cc1O
REMARK SMILES IDX 1 1 2 2 10 3 9 4 5 5 4 6 3 7 11 8 6 10 7 11 8 12
REMARK H PARENT 11 9
REMARK Flexibility Score: inf
ROOT
ATOM      1  C   UNL     1     171.979 166.751 166.271  1.00  0.00     0.048 C 
ATOM      2  C   UNL     1     170.476 166.753 166.263  1.00  0.00    -0.009 A 
ATOM      3  C   UNL     1     169.737 166.758 167.468  1.00  0.00     0.118 A 
ATOM      4  C   UNL     1     168.338 166.761 167.425  1.00  0.00     0.050 A 
ATOM      5  C   UNL     1     167.652 166.757 166.200  1.00  0.00    -0.042 A 
ATOM      6  C   UNL     1     168.393 166.752 165.006  1.00  0.00     0.004 A 
ATOM      7  C   UNL     1     169.789 166.750 165.038  1.00  0.00     0.007 A 
ENDROOT
BRANCH   3   8
ATOM      8  O   UNL     1     170.362 166.762 168.716  1.00  0.00    -0.508 OA
ATOM      9  H   UNL     1     170.118 166.118 169.458  1.00  0.00     0.293 HD
ENDBRANCH   3   8
BRANCH   5  10
ATOM     10  C   UNL     1     166.134 166.759 166.179  1.00  0.00     0.013 C 
ATOM     11  C   UNL     1     165.598 166.157 164.875  1.00  0.00     0.012 C 
ATOM     12  C   UNL     1     165.563 166.029 167.400  1.00  0.00     0.012 C 
ENDBRANCH   5  10
TORSDOF 2
ENDMDL
MODEL 4
REMARK VINA RESULT:    -3.831      2.092      3.752
REMARK INTER + INTRA:          -4.267
REMARK INTER:                  -4.168
REMARK INTRA:                  -0.099
REMARK UNBOUND:                -0.101
REMARK SMILES Cc1ccc(C(C)C)cc1O
REMARK SMILES IDX 1 1 2 2 10 3 9 4 5 5 4 6 3 7 11 8 6 10 7 11 8 12
REMARK H PARENT 11 9
REMARK Flexibility Score: inf
ROOT
ATOM      1  C   UNL     1     166.316 166.996 164.875  1.00  0.00     0.048 C 
ATOM      2  C   UNL     1     165.976 166.253 166.137  1.00  0.00    -0.009 A 
ATOM      3  C   UNL     1     165.205 165.069 166.105  1.00  0.00     0.118 A 
ATOM      4  C   UNL     1     164.906 164.401 167.298  1.00  0.00     0.050 A 
ATOM      5  C   UNL     1     165.361 164.890 168.533  1.00  0.00    -0.042 A 
ATOM      6  C   UNL     1     166.128 166.067 168.558  1.00  0.00     0.004 A 
ATOM      7  C   UNL     1     166.431 166.741 167.373  1.00  0.00     0.007 A 
ENDROOT
BRANCH   3   8
ATOM      8  O   UNL     1     164.724 164.534 164.908  1.00  0.00    -0.508 OA
ATOM      9  H   UNL     1     165.253 163.884 164.341  1.00  0.00     0.293 HD
ENDBRANCH   3   8
BRANCH   5  10
ATOM     10  C   UNL     1     165.025 164.148 169.814  1.00  0.00     0.013 C 
ATOM     11  C   UNL     1     163.522 164.216 170.114  1.00  0.00     0.012 C 
ATOM     12  C   UNL     1     165.511 162.695 169.756  1.00  0.00     0.012 C 
ENDBRANCH   5  10
TORSDOF 2
ENDMDL
MODEL 5
REMARK VINA RESULT:    -3.829      1.991      4.752
REMARK INTER + INTRA:          -4.265
REMARK INTER:                  -4.165
REMARK INTRA:                  -0.100
REMARK UNBOUND:                -0.101
REMARK SMILES Cc1ccc(C(C)C)cc1O
REMARK SMILES IDX 1 1 2 2 10 3 9 4 5 5 4 6 3 7 11 8 6 10 7 11 8 12
REMARK H PARENT 11 9
REMARK Flexibility Score: inf
ROOT
ATOM      1  C   UNL     1     164.936 164.144 164.877  1.00  0.00     0.048 C 
ATOM      2  C   UNL     1     165.234 164.930 166.123  1.00  0.00    -0.009 A 
ATOM      3  C   UNL     1     165.999 166.117 166.075  1.00  0.00     0.118 A 
ATOM      4  C   UNL     1     166.259 166.826 167.253  1.00  0.00     0.050 A 
ATOM      5  C   UNL     1     165.770 166.375 168.490  1.00  0.00    -0.042 A 
ATOM      6  C   UNL     1     165.009 165.194 168.531  1.00  0.00     0.004 A 
ATOM      7  C   UNL     1     164.745 164.481 167.360  1.00  0.00     0.007 A 
ENDROOT
BRANCH   3   8
ATOM      8  O   UNL     1     166.513 166.615 164.876  1.00  0.00    -0.508 OA
ATOM      9  H   UNL     1     165.939 167.064 164.173  1.00  0.00     0.293 HD
ENDBRANCH   3   8
BRANCH   5  10
ATOM     10  C   UNL     1     166.064 167.161 169.755  1.00  0.00     0.013 C 
ATOM     11  C   UNL     1     167.547 167.064 170.134  1.00  0.00     0.012 C 
ATOM     12  C   UNL     1     165.625 168.623 169.613  1.00  0.00     0.012 C 
ENDBRANCH   5  10
TORSDOF 2
ENDMDL
MODEL 6
REMARK VINA RESULT:    -3.758      1.998      3.486
REMARK INTER + INTRA:          -4.188
REMARK INTER:                  -4.062
REMARK INTRA:                  -0.126
REMARK UNBOUND:                -0.101
REMARK SMILES Cc1ccc(C(C)C)cc1O
REMARK SMILES IDX 1 1 2 2 10 3 9 4 5 5 4 6 3 7 11 8 6 10 7 11 8 12
REMARK H PARENT 11 9
REMARK Flexibility Score: inf
ROOT
ATOM      1  C   UNL     1     165.341 165.174 170.476  1.00  0.00     0.048 C 
ATOM      2  C   UNL     1     165.794 165.621 169.114  1.00  0.00    -0.009 A 
ATOM      3  C   UNL     1     165.070 165.273 167.951  1.00  0.00     0.118 A 
ATOM      4  C   UNL     1     165.518 165.705 166.698  1.00  0.00     0.050 A 
ATOM      5  C   UNL     1     166.681 166.483 166.575  1.00  0.00    -0.042 A 
ATOM      6  C   UNL     1     167.395 166.827 167.735  1.00  0.00     0.004 A 
ATOM      7  C   UNL     1     166.956 166.400 168.990  1.00  0.00     0.007 A 
ENDROOT
BRANCH   3   8
ATOM      8  O   UNL     1     163.908 164.501 168.009  1.00  0.00    -0.508 OA
ATOM      9  H   UNL     1     163.065 164.807 168.478  1.00  0.00     0.293 HD
ENDBRANCH   3   8
BRANCH   5  10
ATOM     10  C   UNL     1     167.147 166.941 165.204  1.00  0.00     0.013 C 
ATOM     11  C   UNL     1     166.639 168.353 164.891  1.00  0.00     0.012 C 
ATOM     12  C   UNL     1     168.673 166.864 165.085  1.00  0.00     0.012 C 
ENDBRANCH   5  10
TORSDOF 2
ENDMDL
MODEL 7
REMARK VINA RESULT:    -3.541      1.620      2.224
REMARK INTER + INTRA:          -3.952
REMARK INTER:                  -3.827
REMARK INTRA:                  -0.125
REMARK UNBOUND:                -0.101
REMARK SMILES Cc1ccc(C(C)C)cc1O
REMARK SMILES IDX 1 1 2 2 10 3 9 4 5 5 4 6 3 7 11 8 6 10 7 11 8 12
REMARK H PARENT 11 9
REMARK Flexibility Score: inf
ROOT
ATOM      1  C   UNL     1     165.883 164.464 171.291  1.00  0.00     0.048 C 
ATOM      2  C   UNL     1     165.630 164.436 169.810  1.00  0.00    -0.009 A 
ATOM      3  C   UNL     1     165.512 163.214 169.110  1.00  0.00     0.118 A 
ATOM      4  C   UNL     1     165.276 163.223 167.730  1.00  0.00     0.050 A 
ATOM      5  C   UNL     1     165.155 164.431 167.025  1.00  0.00    -0.042 A 
ATOM      6  C   UNL     1     165.273 165.643 167.728  1.00  0.00     0.004 A 
ATOM      7  C   UNL     1     165.509 165.644 169.104  1.00  0.00     0.007 A 
ENDROOT
BRANCH   3   8
ATOM      8  O   UNL     1     165.622 161.981 169.755  1.00  0.00    -0.508 OA
ATOM      9  H   UNL     1     165.667 161.100 169.259  1.00  0.00     0.293 HD
ENDBRANCH   3   8
BRANCH   5  10
ATOM     10  C   UNL     1     164.899 164.416 165.529  1.00  0.00     0.013 C 
ATOM     11  C   UNL     1     163.422 164.138 165.224  1.00  0.00     0.012 C 
ATOM     12  C   UNL     1     165.361 165.722 164.875  1.00  0.00     0.012 C 
ENDBRANCH   5  10
TORSDOF 2
ENDMDL
MODEL 8
REMARK VINA RESULT:    -3.521      2.178      3.533
REMARK INTER + INTRA:          -3.931
REMARK INTER:                  -3.821
REMARK INTRA:                  -0.110
REMARK UNBOUND:                -0.101
REMARK SMILES Cc1ccc(C(C)C)cc1O
REMARK SMILES IDX 1 1 2 2 10 3 9 4 5 5 4 6 3 7 11 8 6 10 7 11 8 12
REMARK H PARENT 11 9
REMARK Flexibility Score: inf
ROOT
ATOM      1  C   UNL     1     165.133 165.283 170.946  1.00  0.00     0.048 C 
ATOM      2  C   UNL     1     165.611 165.629 169.563  1.00  0.00    -0.009 A 
ATOM      3  C   UNL     1     166.728 166.471 169.364  1.00  0.00     0.118 A 
ATOM      4  C   UNL     1     167.148 166.774 168.064  1.00  0.00     0.050 A 
ATOM      5  C   UNL     1     166.475 166.252 166.947  1.00  0.00    -0.042 A 
ATOM      6  C   UNL     1     165.365 165.415 167.152  1.00  0.00     0.004 A 
ATOM      7  C   UNL     1     164.939 165.108 168.446  1.00  0.00     0.007 A 
ENDROOT
BRANCH   3   8
ATOM      8  O   UNL     1     167.438 167.020 170.434  1.00  0.00    -0.508 OA
ATOM      9  H   UNL     1     166.996 167.330 171.290  1.00  0.00     0.293 HD
ENDBRANCH   3   8
BRANCH   5  10
ATOM     10  C   UNL     1     166.949 166.595 165.546  1.00  0.00     0.013 C 
ATOM     11  C   UNL     1     166.008 167.602 164.875  1.00  0.00     0.012 C 
ATOM     12  C   UNL     1     168.392 167.113 165.562  1.00  0.00     0.012 C 
ENDBRANCH   5  10
TORSDOF 2
ENDMDL
