MODEL 1
REMARK VINA RESULT:    -6.151      0.000      0.000
REMARK INTER + INTRA:         -10.088
REMARK INTER:                  -9.567
REMARK INTRA:                  -0.521
REMARK UNBOUND:                -0.521
REMARK SMILES COc1cc(CNC(=O)CCCCC=CC(C)C)ccc1O
REMARK SMILES IDX 11 1 12 2 13 3 14 4 15 5 16 6 17 7 18 8 10 9 8 10 9 11 7 12
REMARK SMILES IDX 6 14 5 15 4 16 19 17 3 18 20 19 21 20 2 21 1 22 22 23
REMARK H PARENT 7 13 22 24
REMARK Flexibility Score: inf
ROOT
ATOM      1  C   UNL     1     117.764 255.241 341.628  1.00  0.00     0.010 C 
ENDROOT
BRANCH   1   2
ATOM      2  C   UNL     1     117.104 254.657 342.890  1.00  0.00     0.005 C 
BRANCH   2   3
ATOM      3  C   UNL     1     115.573 254.771 342.846  1.00  0.00     0.027 C 
BRANCH   3   4
ATOM      4  C   UNL     1     114.979 255.023 344.206  1.00  0.00    -0.031 C 
ATOM      5  C   UNL     1     113.914 254.331 344.648  1.00  0.00    -0.028 C 
BRANCH   5   6
ATOM      6  C   UNL     1     113.304 254.555 346.013  1.00  0.00     0.005 C 
ATOM      7  C   UNL     1     111.784 254.738 345.926  1.00  0.00     0.012 C 
ATOM      8  C   UNL     1     113.968 255.737 346.729  1.00  0.00     0.012 C 
ENDBRANCH   5   6
ENDBRANCH   3   4
ENDBRANCH   2   3
ENDBRANCH   1   2
BRANCH   1   9
ATOM      9  C   UNL     1     116.853 255.139 340.397  1.00  0.00     0.100 C 
BRANCH   9  10
ATOM     10  C   UNL     1     116.347 256.485 339.966  1.00  0.00     0.220 C 
ATOM     11  O   UNL     1     117.112 257.486 340.034  1.00  0.00    -0.275 OA
ATOM     12  N   UNL     1     114.992 256.637 339.518  1.00  0.00    -0.352 N 
ATOM     13  H   UNL     1     114.358 255.808 339.526  1.00  0.00     0.163 HD
BRANCH  12  14
ATOM     14  C   UNL     1     114.440 257.927 339.111  1.00  0.00     0.151 C 
BRANCH  14  15
ATOM     15  C   UNL     1     113.610 257.775 337.865  1.00  0.00    -0.025 A 
ATOM     16  C   UNL     1     114.047 258.314 336.645  1.00  0.00     0.056 A 
ATOM     17  C   UNL     1     112.400 257.067 337.913  1.00  0.00     0.009 A 
ATOM     18  C   UNL     1     113.276 258.156 335.476  1.00  0.00     0.160 A 
ATOM     19  C   UNL     1     111.633 256.907 336.759  1.00  0.00     0.050 A 
ATOM     20  C   UNL     1     112.066 257.449 335.541  1.00  0.00     0.157 A 
BRANCH  18  21
ATOM     21  O   UNL     1     113.678 258.682 334.238  1.00  0.00    -0.493 OA
ATOM     22  C   UNL     1     115.030 258.945 333.875  1.00  0.00     0.278 C 
ENDBRANCH  18  21
BRANCH  20  23
ATOM     23  O   UNL     1     111.299 257.289 334.388  1.00  0.00    -0.504 OA
ATOM     24  H   UNL     1     110.404 257.751 334.279  1.00  0.00     0.293 HD
ENDBRANCH  20  23
ENDBRANCH  14  15
ENDBRANCH  12  14
ENDBRANCH   9  10
ENDBRANCH   1   9
TORSDOF 10
ENDMDL
MODEL 2
REMARK VINA RESULT:    -5.194      2.910      9.059
REMARK INTER + INTRA:          -8.598
REMARK INTER:                  -8.045
REMARK INTRA:                  -0.553
REMARK UNBOUND:                -0.521
REMARK SMILES COc1cc(CNC(=O)CCCCC=CC(C)C)ccc1O
REMARK SMILES IDX 11 1 12 2 13 3 14 4 15 5 16 6 17 7 18 8 10 9 8 10 9 11 7 12
REMARK SMILES IDX 6 14 5 15 4 16 19 17 3 18 20 19 21 20 2 21 1 22 22 23
REMARK H PARENT 7 13 22 24
REMARK Flexibility Score: inf
ROOT
ATOM      1  C   UNL     1     114.926 256.658 339.239  1.00  0.00     0.010 C 
ENDROOT
BRANCH   1   2
ATOM      2  C   UNL     1     114.159 257.982 339.071  1.00  0.00     0.005 C 
BRANCH   2   3
ATOM      3  C   UNL     1     112.808 257.780 338.371  1.00  0.00     0.027 C 
BRANCH   3   4
ATOM      4  C   UNL     1     112.848 258.187 336.922  1.00  0.00    -0.031 C 
ATOM      5  C   UNL     1     112.914 257.275 335.937  1.00  0.00    -0.028 C 
BRANCH   5   6
ATOM      6  C   UNL     1     112.944 257.653 334.474  1.00  0.00     0.005 C 
ATOM      7  C   UNL     1     114.379 257.691 333.932  1.00  0.00     0.012 C 
ATOM      8  C   UNL     1     112.221 258.982 334.230  1.00  0.00     0.012 C 
ENDBRANCH   5   6
ENDBRANCH   3   4
ENDBRANCH   2   3
ENDBRANCH   1   2
BRANCH   1   9
ATOM      9  C   UNL     1     116.283 256.857 339.927  1.00  0.00     0.100 C 
BRANCH   9  10
ATOM     10  C   UNL     1     116.572 255.765 340.915  1.00  0.00     0.220 C 
ATOM     11  O   UNL     1     117.419 254.876 340.626  1.00  0.00    -0.275 OA
ATOM     12  N   UNL     1     115.862 255.712 342.161  1.00  0.00    -0.352 N 
ATOM     13  H   UNL     1     115.123 256.423 342.355  1.00  0.00     0.163 HD
BRANCH  12  14
ATOM     14  C   UNL     1     116.086 254.658 343.147  1.00  0.00     0.151 C 
BRANCH  14  15
ATOM     15  C   UNL     1     114.978 254.647 344.166  1.00  0.00    -0.025 A 
ATOM     16  C   UNL     1     115.027 255.494 345.284  1.00  0.00     0.056 A 
ATOM     17  C   UNL     1     113.872 253.803 343.988  1.00  0.00     0.009 A 
ATOM     18  C   UNL     1     113.981 255.494 346.228  1.00  0.00     0.160 A 
ATOM     19  C   UNL     1     112.833 253.800 344.919  1.00  0.00     0.050 A 
ATOM     20  C   UNL     1     112.884 254.641 346.038  1.00  0.00     0.157 A 
BRANCH  18  21
ATOM     21  O   UNL     1     113.995 256.324 347.361  1.00  0.00    -0.493 OA
ATOM     22  C   UNL     1     115.086 257.163 347.731  1.00  0.00     0.278 C 
ENDBRANCH  18  21
BRANCH  20  23
ATOM     23  O   UNL     1     111.845 254.637 346.968  1.00  0.00    -0.504 OA
ATOM     24  H   UNL     1     111.722 255.395 347.629  1.00  0.00     0.293 HD
ENDBRANCH  20  23
ENDBRANCH  14  15
ENDBRANCH  12  14
ENDBRANCH   9  10
ENDBRANCH   1   9
TORSDOF 10
ENDMDL
MODEL 3
REMARK VINA RESULT:    -5.047      4.071      7.322
REMARK INTER + INTRA:          -8.370
REMARK INTER:                  -7.863
REMARK INTRA:                  -0.506
REMARK UNBOUND:                -0.521
REMARK SMILES COc1cc(CNC(=O)CCCCC=CC(C)C)ccc1O
REMARK SMILES IDX 11 1 12 2 13 3 14 4 15 5 16 6 17 7 18 8 10 9 8 10 9 11 7 12
REMARK SMILES IDX 6 14 5 15 4 16 19 17 3 18 20 19 21 20 2 21 1 22 22 23
REMARK H PARENT 7 13 22 24
REMARK Flexibility Score: inf
ROOT
ATOM      1  C   UNL     1     115.230 256.734 347.757  1.00  0.00     0.010 C 
ENDROOT
BRANCH   1   2
ATOM      2  C   UNL     1     115.433 258.236 348.026  1.00  0.00     0.005 C 
BRANCH   2   3
ATOM      3  C   UNL     1     116.694 258.507 348.860  1.00  0.00     0.027 C 
BRANCH   3   4
ATOM      4  C   UNL     1     116.368 258.981 350.252  1.00  0.00    -0.031 C 
ATOM      5  C   UNL     1     116.385 258.143 351.303  1.00  0.00    -0.028 C 
BRANCH   5   6
ATOM      6  C   UNL     1     116.073 258.594 352.711  1.00  0.00     0.005 C 
ATOM      7  C   UNL     1     117.352 258.809 353.529  1.00  0.00     0.012 C 
ATOM      8  C   UNL     1     115.124 257.613 353.409  1.00  0.00     0.012 C 
ENDBRANCH   5   6
ENDBRANCH   3   4
ENDBRANCH   2   3
ENDBRANCH   1   2
BRANCH   1   9
ATOM      9  C   UNL     1     113.938 256.455 346.977  1.00  0.00     0.100 C 
BRANCH   9  10
ATOM     10  C   UNL     1     114.111 255.330 345.997  1.00  0.00     0.220 C 
ATOM     11  O   UNL     1     113.656 254.188 346.278  1.00  0.00    -0.275 OA
ATOM     12  N   UNL     1     114.824 255.546 344.770  1.00  0.00    -0.352 N 
ATOM     13  H   UNL     1     115.245 256.483 344.585  1.00  0.00     0.163 HD
BRANCH  12  14
ATOM     14  C   UNL     1     115.043 254.481 343.794  1.00  0.00     0.151 C 
BRANCH  14  15
ATOM     15  C   UNL     1     116.062 254.908 342.771  1.00  0.00    -0.025 A 
ATOM     16  C   UNL     1     115.670 255.626 341.630  1.00  0.00     0.056 A 
ATOM     17  C   UNL     1     117.418 254.610 342.967  1.00  0.00     0.009 A 
ATOM     18  C   UNL     1     116.627 256.039 340.682  1.00  0.00     0.160 A 
ATOM     19  C   UNL     1     118.370 255.017 342.032  1.00  0.00     0.050 A 
ATOM     20  C   UNL     1     117.979 255.729 340.890  1.00  0.00     0.157 A 
BRANCH  18  21
ATOM     21  O   UNL     1     116.275 256.756 339.527  1.00  0.00    -0.493 OA
ATOM     22  C   UNL     1     114.936 256.987 339.099  1.00  0.00     0.278 C 
ENDBRANCH  18  21
BRANCH  20  23
ATOM     23  O   UNL     1     118.931 256.135 339.956  1.00  0.00    -0.504 OA
ATOM     24  H   UNL     1     119.910 256.223 340.200  1.00  0.00     0.293 HD
ENDBRANCH  20  23
ENDBRANCH  14  15
ENDBRANCH  12  14
ENDBRANCH   9  10
ENDBRANCH   1   9
TORSDOF 10
ENDMDL
MODEL 4
REMARK VINA RESULT:    -4.912      5.748     11.402
REMARK INTER + INTRA:          -8.160
REMARK INTER:                  -7.590
REMARK INTRA:                  -0.570
REMARK UNBOUND:                -0.521
REMARK SMILES COc1cc(CNC(=O)CCCCC=CC(C)C)ccc1O
REMARK SMILES IDX 11 1 12 2 13 3 14 4 15 5 16 6 17 7 18 8 10 9 8 10 9 11 7 12
REMARK SMILES IDX 6 14 5 15 4 16 19 17 3 18 20 19 21 20 2 21 1 22 22 23
REMARK H PARENT 7 13 22 24
REMARK Flexibility Score: inf
ROOT
ATOM      1  C   UNL     1     113.831 254.256 344.963  1.00  0.00     0.010 C 
ENDROOT
BRANCH   1   2
ATOM      2  C   UNL     1     114.624 255.178 344.018  1.00  0.00     0.005 C 
BRANCH   2   3
ATOM      3  C   UNL     1     115.948 254.543 343.569  1.00  0.00     0.027 C 
BRANCH   3   4
ATOM      4  C   UNL     1     116.554 255.258 342.391  1.00  0.00    -0.031 C 
ATOM      5  C   UNL     1     117.879 255.238 342.162  1.00  0.00    -0.028 C 
BRANCH   5   6
ATOM      6  C   UNL     1     118.514 255.937 340.982  1.00  0.00     0.005 C 
ATOM      7  C   UNL     1     119.156 257.267 341.394  1.00  0.00     0.012 C 
ATOM      8  C   UNL     1     117.504 256.134 339.845  1.00  0.00     0.012 C 
ENDBRANCH   5   6
ENDBRANCH   3   4
ENDBRANCH   2   3
ENDBRANCH   1   2
BRANCH   1   9
ATOM      9  C   UNL     1     114.194 254.485 346.436  1.00  0.00     0.100 C 
BRANCH   9  10
ATOM     10  C   UNL     1     114.004 255.919 346.840  1.00  0.00     0.220 C 
ATOM     11  O   UNL     1     112.891 256.476 346.641  1.00  0.00    -0.275 OA
ATOM     12  N   UNL     1     115.094 256.657 347.411  1.00  0.00    -0.352 N 
ATOM     13  H   UNL     1     116.024 256.194 347.512  1.00  0.00     0.163 HD
BRANCH  12  14
ATOM     14  C   UNL     1     114.972 258.061 347.798  1.00  0.00     0.151 C 
BRANCH  14  15
ATOM     15  C   UNL     1     115.821 258.348 349.007  1.00  0.00    -0.025 A 
ATOM     16  C   UNL     1     115.228 258.602 350.254  1.00  0.00     0.056 A 
ATOM     17  C   UNL     1     117.220 258.339 348.898  1.00  0.00     0.009 A 
ATOM     18  C   UNL     1     116.025 258.855 351.387  1.00  0.00     0.160 A 
ATOM     19  C   UNL     1     118.014 258.588 350.018  1.00  0.00     0.050 A 
ATOM     20  C   UNL     1     117.421 258.846 351.261  1.00  0.00     0.157 A 
BRANCH  18  21
ATOM     21  O   UNL     1     115.469 259.116 352.650  1.00  0.00    -0.493 OA
ATOM     22  C   UNL     1     114.088 258.969 352.967  1.00  0.00     0.278 C 
ENDBRANCH  18  21
BRANCH  20  23
ATOM     23  O   UNL     1     118.216 259.095 352.379  1.00  0.00    -0.504 OA
ATOM     24  H   UNL     1     118.298 260.024 352.776  1.00  0.00     0.293 HD
ENDBRANCH  20  23
ENDBRANCH  14  15
ENDBRANCH  12  14
ENDBRANCH   9  10
ENDBRANCH   1   9
TORSDOF 10
ENDMDL
MODEL 5
REMARK VINA RESULT:    -3.915      1.614      2.766
REMARK INTER + INTRA:          -6.610
REMARK INTER:                  -5.939
REMARK INTRA:                  -0.671
REMARK UNBOUND:                -0.521
REMARK SMILES COc1cc(CNC(=O)CCCCC=CC(C)C)ccc1O
REMARK SMILES IDX 11 1 12 2 13 3 14 4 15 5 16 6 17 7 18 8 10 9 8 10 9 11 7 12
REMARK SMILES IDX 6 14 5 15 4 16 19 17 3 18 20 19 21 20 2 21 1 22 22 23
REMARK H PARENT 7 13 22 24
REMARK Flexibility Score: inf
ROOT
ATOM      1  C   UNL     1     115.528 255.321 343.469  1.00  0.00     0.010 C 
ENDROOT
BRANCH   1   2
ATOM      2  C   UNL     1     115.175 254.398 344.649  1.00  0.00     0.005 C 
BRANCH   2   3
ATOM      3  C   UNL     1     114.780 255.190 345.903  1.00  0.00     0.027 C 
BRANCH   3   4
ATOM      4  C   UNL     1     113.305 255.105 346.193  1.00  0.00    -0.031 C 
ATOM      5  C   UNL     1     112.406 254.904 345.213  1.00  0.00    -0.028 C 
BRANCH   5   6
ATOM      6  C   UNL     1     110.922 254.803 345.475  1.00  0.00     0.005 C 
ATOM      7  C   UNL     1     110.285 256.188 345.648  1.00  0.00     0.012 C 
ATOM      8  C   UNL     1     110.632 253.903 346.681  1.00  0.00     0.012 C 
ENDBRANCH   5   6
ENDBRANCH   3   4
ENDBRANCH   2   3
ENDBRANCH   1   2
BRANCH   1   9
ATOM      9  C   UNL     1     116.847 254.921 342.794  1.00  0.00     0.100 C 
BRANCH   9  10
ATOM     10  C   UNL     1     117.010 255.581 341.456  1.00  0.00     0.220 C 
ATOM     11  O   UNL     1     118.156 255.956 341.085  1.00  0.00    -0.275 OA
ATOM     12  N   UNL     1     115.865 255.818 340.624  1.00  0.00    -0.352 N 
ATOM     13  H   UNL     1     114.918 255.554 340.976  1.00  0.00     0.163 HD
BRANCH  12  14
ATOM     14  C   UNL     1     115.963 256.478 339.325  1.00  0.00     0.151 C 
BRANCH  14  15
ATOM     15  C   UNL     1     114.672 257.178 338.992  1.00  0.00    -0.025 A 
ATOM     16  C   UNL     1     113.856 256.713 337.948  1.00  0.00     0.056 A 
ATOM     17  C   UNL     1     114.265 258.289 339.744  1.00  0.00     0.009 A 
ATOM     18  C   UNL     1     112.641 257.359 337.649  1.00  0.00     0.160 A 
ATOM     19  C   UNL     1     113.061 258.932 339.453  1.00  0.00     0.050 A 
ATOM     20  C   UNL     1     112.249 258.472 338.408  1.00  0.00     0.157 A 
BRANCH  18  21
ATOM     21  O   UNL     1     111.799 256.927 336.612  1.00  0.00    -0.493 OA
ATOM     22  C   UNL     1     112.001 257.226 335.233  1.00  0.00     0.278 C 
ENDBRANCH  18  21
BRANCH  20  23
ATOM     23  O   UNL     1     111.047 259.116 338.117  1.00  0.00    -0.504 OA
ATOM     24  H   UNL     1     110.475 258.841 337.327  1.00  0.00     0.293 HD
ENDBRANCH  20  23
ENDBRANCH  14  15
ENDBRANCH  12  14
ENDBRANCH   9  10
ENDBRANCH   1   9
TORSDOF 10
ENDMDL
MODEL 6
REMARK VINA RESULT:    -3.683      2.195      3.556
REMARK INTER + INTRA:          -6.249
REMARK INTER:                  -5.746
REMARK INTRA:                  -0.503
REMARK UNBOUND:                -0.521
REMARK SMILES COc1cc(CNC(=O)CCCCC=CC(C)C)ccc1O
REMARK SMILES IDX 11 1 12 2 13 3 14 4 15 5 16 6 17 7 18 8 10 9 8 10 9 11 7 12
REMARK SMILES IDX 6 14 5 15 4 16 19 17 3 18 20 19 21 20 2 21 1 22 22 23
REMARK H PARENT 7 13 22 24
REMARK Flexibility Score: inf
ROOT
ATOM      1  C   UNL     1     114.985 255.487 344.243  1.00  0.00     0.010 C 
ENDROOT
BRANCH   1   2
ATOM      2  C   UNL     1     114.715 254.788 345.588  1.00  0.00     0.005 C 
BRANCH   2   3
ATOM      3  C   UNL     1     113.952 255.693 346.566  1.00  0.00     0.027 C 
BRANCH   3   4
ATOM      4  C   UNL     1     114.762 256.892 346.985  1.00  0.00    -0.031 C 
ATOM      5  C   UNL     1     115.435 256.914 348.148  1.00  0.00    -0.028 C 
BRANCH   5   6
ATOM      6  C   UNL     1     116.264 258.098 348.590  1.00  0.00     0.005 C 
ATOM      7  C   UNL     1     117.486 257.657 349.405  1.00  0.00     0.012 C 
ATOM      8  C   UNL     1     115.414 259.111 349.365  1.00  0.00     0.012 C 
ENDBRANCH   5   6
ENDBRANCH   3   4
ENDBRANCH   2   3
ENDBRANCH   1   2
BRANCH   1   9
ATOM      9  C   UNL     1     115.745 254.584 343.263  1.00  0.00     0.100 C 
BRANCH   9  10
ATOM     10  C   UNL     1     116.326 255.367 342.121  1.00  0.00     0.220 C 
ATOM     11  O   UNL     1     117.495 255.831 342.218  1.00  0.00    -0.275 OA
ATOM     12  N   UNL     1     115.541 255.618 340.946  1.00  0.00    -0.352 N 
ATOM     13  H   UNL     1     114.555 255.277 340.911  1.00  0.00     0.163 HD
BRANCH  12  14
ATOM     14  C   UNL     1     116.046 256.395 339.817  1.00  0.00     0.151 C 
BRANCH  14  15
ATOM     15  C   UNL     1     114.917 257.106 339.121  1.00  0.00    -0.025 A 
ATOM     16  C   UNL     1     114.372 256.591 337.933  1.00  0.00     0.056 A 
ATOM     17  C   UNL     1     114.385 258.280 339.672  1.00  0.00     0.009 A 
ATOM     18  C   UNL     1     113.305 257.250 337.292  1.00  0.00     0.160 A 
ATOM     19  C   UNL     1     113.327 258.936 339.041  1.00  0.00     0.050 A 
ATOM     20  C   UNL     1     112.786 258.425 337.853  1.00  0.00     0.157 A 
BRANCH  18  21
ATOM     21  O   UNL     1     112.735 256.768 336.102  1.00  0.00    -0.493 OA
ATOM     22  C   UNL     1     113.196 257.102 334.796  1.00  0.00     0.278 C 
ENDBRANCH  18  21
BRANCH  20  23
ATOM     23  O   UNL     1     111.729 259.081 337.224  1.00  0.00    -0.504 OA
ATOM     24  H   UNL     1     111.870 259.943 336.710  1.00  0.00     0.293 HD
ENDBRANCH  20  23
ENDBRANCH  14  15
ENDBRANCH  12  14
ENDBRANCH   9  10
ENDBRANCH   1   9
TORSDOF 10
ENDMDL
MODEL 7
REMARK VINA RESULT:    -3.209      3.233      6.578
REMARK INTER + INTRA:          -5.511
REMARK INTER:                  -4.919
REMARK INTRA:                  -0.593
REMARK UNBOUND:                -0.521
REMARK SMILES COc1cc(CNC(=O)CCCCC=CC(C)C)ccc1O
REMARK SMILES IDX 11 1 12 2 13 3 14 4 15 5 16 6 17 7 18 8 10 9 8 10 9 11 7 12
REMARK SMILES IDX 6 14 5 15 4 16 19 17 3 18 20 19 21 20 2 21 1 22 22 23
REMARK H PARENT 7 13 22 24
REMARK Flexibility Score: inf
ROOT
ATOM      1  C   UNL     1     112.651 255.242 346.612  1.00  0.00     0.010 C 
ENDROOT
BRANCH   1   2
ATOM      2  C   UNL     1     113.305 256.592 346.959  1.00  0.00     0.005 C 
BRANCH   2   3
ATOM      3  C   UNL     1     114.782 256.434 347.346  1.00  0.00     0.027 C 
BRANCH   3   4
ATOM      4  C   UNL     1     115.324 257.652 348.046  1.00  0.00    -0.031 C 
ATOM      5  C   UNL     1     116.183 257.549 349.074  1.00  0.00    -0.028 C 
BRANCH   5   6
ATOM      6  C   UNL     1     116.752 258.754 349.788  1.00  0.00     0.005 C 
ATOM      7  C   UNL     1     118.211 259.006 349.392  1.00  0.00     0.012 C 
ATOM      8  C   UNL     1     116.602 258.619 351.308  1.00  0.00     0.012 C 
ENDBRANCH   5   6
ENDBRANCH   3   4
ENDBRANCH   2   3
ENDBRANCH   1   2
BRANCH   1   9
ATOM      9  C   UNL     1     112.586 255.001 345.098  1.00  0.00     0.100 C 
BRANCH   9  10
ATOM     10  C   UNL     1     113.770 254.219 344.608  1.00  0.00     0.220 C 
ATOM     11  O   UNL     1     113.690 252.963 344.520  1.00  0.00    -0.275 OA
ATOM     12  N   UNL     1     114.994 254.893 344.279  1.00  0.00    -0.352 N 
ATOM     13  H   UNL     1     115.057 255.925 344.415  1.00  0.00     0.163 HD
BRANCH  12  14
ATOM     14  C   UNL     1     116.183 254.178 343.822  1.00  0.00     0.151 C 
BRANCH  14  15
ATOM     15  C   UNL     1     116.739 254.824 342.581  1.00  0.00    -0.025 A 
ATOM     16  C   UNL     1     115.883 255.263 341.559  1.00  0.00     0.056 A 
ATOM     17  C   UNL     1     118.123 255.013 342.451  1.00  0.00     0.009 A 
ATOM     18  C   UNL     1     116.404 255.882 340.406  1.00  0.00     0.160 A 
ATOM     19  C   UNL     1     118.644 255.627 341.311  1.00  0.00     0.050 A 
ATOM     20  C   UNL     1     117.790 256.060 340.288  1.00  0.00     0.157 A 
BRANCH  18  21
ATOM     21  O   UNL     1     115.581 256.331 339.360  1.00  0.00    -0.493 OA
ATOM     22  C   UNL     1     114.828 257.540 339.392  1.00  0.00     0.278 C 
ENDBRANCH  18  21
BRANCH  20  23
ATOM     23  O   UNL     1     118.312 256.672 339.150  1.00  0.00    -0.504 OA
ATOM     24  H   UNL     1     118.273 257.677 339.022  1.00  0.00     0.293 HD
ENDBRANCH  20  23
ENDBRANCH  14  15
ENDBRANCH  12  14
ENDBRANCH   9  10
ENDBRANCH   1   9
TORSDOF 10
ENDMDL
