MODEL 1
REMARK VINA RESULT:    -4.548      0.000      0.000
REMARK INTER + INTRA:          -6.082
REMARK INTER:                  -5.877
REMARK INTRA:                  -0.205
REMARK UNBOUND:                -0.205
REMARK SMILES CCCCCCC(=O)[O-]
REMARK SMILES IDX 5 1 6 2 7 3 8 4 9 5 4 6 3 7 2 8 1 9
REMARK H PARENT
REMARK Flexibility Score: inf
ROOT
ATOM      1  C   UNL     1      88.144 326.733 194.157  1.00  0.00     0.006 C 
ENDROOT
BRANCH   1   2
ATOM      2  C   UNL     1      88.781 326.168 195.434  1.00  0.00     0.053 C 
BRANCH   2   3
ATOM      3  C   UNL     1      87.825 326.180 196.587  1.00  0.00     0.041 C 
ATOM      4  O   UNL     1      88.227 325.896 197.746  1.00  0.00    -0.550 OA
ATOM      5  O   UNL     1      86.483 326.474 196.376  1.00  0.00    -0.550 OA
ENDBRANCH   2   3
ENDBRANCH   1   2
BRANCH   1   6
ATOM      6  C   UNL     1      87.818 325.631 193.134  1.00  0.00     0.000 C 
BRANCH   6   7
ATOM      7  C   UNL     1      88.289 324.241 193.593  1.00  0.00    -0.000 C 
BRANCH   7   8
ATOM      8  C   UNL     1      88.228 323.195 192.470  1.00  0.00    -0.003 C 
ATOM      9  C   UNL     1      87.874 323.843 191.134  1.00  0.00     0.004 C 
ENDBRANCH   7   8
ENDBRANCH   6   7
ENDBRANCH   1   6
TORSDOF 5
ENDMDL
MODEL 2
REMARK VINA RESULT:    -4.440     20.279     21.247
REMARK INTER + INTRA:          -5.943
REMARK INTER:                  -5.732
REMARK INTRA:                  -0.211
REMARK UNBOUND:                -0.205
REMARK SMILES CCCCCCC(=O)[O-]
REMARK SMILES IDX 5 1 6 2 7 3 8 4 9 5 4 6 3 7 2 8 1 9
REMARK H PARENT
REMARK Flexibility Score: inf
ROOT
ATOM      1  C   UNL     1     105.408 311.478 193.362  1.00  0.00     0.006 C 
ENDROOT
BRANCH   1   2
ATOM      2  C   UNL     1     105.657 311.824 194.836  1.00  0.00     0.053 C 
BRANCH   2   3
ATOM      3  C   UNL     1     104.394 311.783 195.641  1.00  0.00     0.041 C 
ATOM      4  O   UNL     1     104.436 311.913 196.892  1.00  0.00    -0.550 OA
ATOM      5  O   UNL     1     103.173 311.570 195.011  1.00  0.00    -0.550 OA
ENDBRANCH   2   3
ENDBRANCH   1   2
BRANCH   1   6
ATOM      6  C   UNL     1     105.429 312.725 192.462  1.00  0.00     0.000 C 
BRANCH   6   7
ATOM      7  C   UNL     1     104.065 313.009 191.812  1.00  0.00    -0.000 C 
BRANCH   7   8
ATOM      8  C   UNL     1     104.156 314.019 190.660  1.00  0.00    -0.003 C 
ATOM      9  C   UNL     1     105.575 314.563 190.517  1.00  0.00     0.004 C 
ENDBRANCH   7   8
ENDBRANCH   6   7
ENDBRANCH   1   6
TORSDOF 5
ENDMDL
MODEL 3
REMARK VINA RESULT:    -4.405      2.477      4.516
REMARK INTER + INTRA:          -5.898
REMARK INTER:                  -5.592
REMARK INTRA:                  -0.306
REMARK UNBOUND:                -0.205
REMARK SMILES CCCCCCC(=O)[O-]
REMARK SMILES IDX 5 1 6 2 7 3 8 4 9 5 4 6 3 7 2 8 1 9
REMARK H PARENT
REMARK Flexibility Score: inf
ROOT
ATOM      1  C   UNL     1      88.140 325.691 193.866  1.00  0.00     0.006 C 
ENDROOT
BRANCH   1   2
ATOM      2  C   UNL     1      87.822 324.993 192.538  1.00  0.00     0.053 C 
BRANCH   2   3
ATOM      3  C   UNL     1      86.738 323.969 192.690  1.00  0.00     0.041 C 
ATOM      4  O   UNL     1      85.876 323.821 191.785  1.00  0.00    -0.550 OA
ATOM      5  O   UNL     1      86.663 323.201 193.845  1.00  0.00    -0.550 OA
ENDBRANCH   2   3
ENDBRANCH   1   2
BRANCH   1   6
ATOM      6  C   UNL     1      86.996 326.614 194.325  1.00  0.00     0.000 C 
BRANCH   6   7
ATOM      7  C   UNL     1      86.633 326.413 195.805  1.00  0.00    -0.000 C 
BRANCH   7   8
ATOM      8  C   UNL     1      87.685 325.596 196.568  1.00  0.00    -0.003 C 
ATOM      9  C   UNL     1      88.331 326.427 197.673  1.00  0.00     0.004 C 
ENDBRANCH   7   8
ENDBRANCH   6   7
ENDBRANCH   1   6
TORSDOF 5
ENDMDL
MODEL 4
REMARK VINA RESULT:    -4.402      1.189      1.736
REMARK INTER + INTRA:          -5.894
REMARK INTER:                  -5.704
REMARK INTRA:                  -0.190
REMARK UNBOUND:                -0.205
REMARK SMILES CCCCCCC(=O)[O-]
REMARK SMILES IDX 5 1 6 2 7 3 8 4 9 5 4 6 3 7 2 8 1 9
REMARK H PARENT
REMARK Flexibility Score: inf
ROOT
ATOM      1  C   UNL     1      88.089 325.311 193.181  1.00  0.00     0.006 C 
ENDROOT
BRANCH   1   2
ATOM      2  C   UNL     1      87.876 326.601 193.984  1.00  0.00     0.053 C 
BRANCH   2   3
ATOM      3  C   UNL     1      88.065 326.381 195.454  1.00  0.00     0.041 C 
ATOM      4  O   UNL     1      89.208 326.492 195.969  1.00  0.00    -0.550 OA
ATOM      5  O   UNL     1      86.983 326.021 196.249  1.00  0.00    -0.550 OA
ENDBRANCH   2   3
ENDBRANCH   1   2
BRANCH   1   6
ATOM      6  C   UNL     1      86.767 324.573 192.908  1.00  0.00     0.000 C 
BRANCH   6   7
ATOM      7  C   UNL     1      86.832 323.688 191.653  1.00  0.00    -0.000 C 
BRANCH   7   8
ATOM      8  C   UNL     1      88.127 323.889 190.853  1.00  0.00    -0.003 C 
ATOM      9  C   UNL     1      88.086 323.118 189.537  1.00  0.00     0.004 C 
ENDBRANCH   7   8
ENDBRANCH   6   7
ENDBRANCH   1   6
TORSDOF 5
ENDMDL
MODEL 5
REMARK VINA RESULT:    -4.387      2.950      4.941
REMARK INTER + INTRA:          -5.875
REMARK INTER:                  -5.758
REMARK INTRA:                  -0.117
REMARK UNBOUND:                -0.205
REMARK SMILES CCCCCCC(=O)[O-]
REMARK SMILES IDX 5 1 6 2 7 3 8 4 9 5 4 6 3 7 2 8 1 9
REMARK H PARENT
REMARK Flexibility Score: inf
ROOT
ATOM      1  C   UNL     1      87.196 325.570 193.473  1.00  0.00     0.006 C 
ENDROOT
BRANCH   1   2
ATOM      2  C   UNL     1      88.056 324.711 192.537  1.00  0.00     0.053 C 
BRANCH   2   3
ATOM      3  C   UNL     1      87.219 323.903 191.593  1.00  0.00     0.041 C 
ATOM      4  O   UNL     1      87.722 323.447 190.533  1.00  0.00    -0.550 OA
ATOM      5  O   UNL     1      85.876 323.680 191.870  1.00  0.00    -0.550 OA
ENDBRANCH   2   3
ENDBRANCH   1   2
BRANCH   1   6
ATOM      6  C   UNL     1      88.007 326.695 194.139  1.00  0.00     0.000 C 
BRANCH   6   7
ATOM      7  C   UNL     1      88.739 326.225 195.407  1.00  0.00    -0.000 C 
BRANCH   7   8
ATOM      8  C   UNL     1      87.801 326.089 196.615  1.00  0.00    -0.003 C 
ATOM      9  C   UNL     1      88.501 326.511 197.904  1.00  0.00     0.004 C 
ENDBRANCH   7   8
ENDBRANCH   6   7
ENDBRANCH   1   6
TORSDOF 5
ENDMDL
MODEL 6
REMARK VINA RESULT:    -4.353     19.666     20.881
REMARK INTER + INTRA:          -5.831
REMARK INTER:                  -5.554
REMARK INTRA:                  -0.277
REMARK UNBOUND:                -0.205
REMARK SMILES CCCCCCC(=O)[O-]
REMARK SMILES IDX 5 1 6 2 7 3 8 4 9 5 4 6 3 7 2 8 1 9
REMARK H PARENT
REMARK Flexibility Score: inf
ROOT
ATOM      1  C   UNL     1     104.086 311.956 192.847  1.00  0.00     0.006 C 
ENDROOT
BRANCH   1   2
ATOM      2  C   UNL     1     104.270 313.003 191.740  1.00  0.00     0.053 C 
BRANCH   2   3
ATOM      3  C   UNL     1     103.781 314.355 192.163  1.00  0.00     0.041 C 
ATOM      4  O   UNL     1     103.500 314.577 193.370  1.00  0.00    -0.550 OA
ATOM      5  O   UNL     1     103.608 315.359 191.219  1.00  0.00    -0.550 OA
ENDBRANCH   2   3
ENDBRANCH   1   2
BRANCH   1   6
ATOM      6  C   UNL     1     105.416 311.592 193.529  1.00  0.00     0.000 C 
BRANCH   6   7
ATOM      7  C   UNL     1     105.412 311.901 195.035  1.00  0.00    -0.000 C 
BRANCH   7   8
ATOM      8  C   UNL     1     103.996 311.955 195.624  1.00  0.00    -0.003 C 
ATOM      9  C   UNL     1     104.006 311.604 197.110  1.00  0.00     0.004 C 
ENDBRANCH   7   8
ENDBRANCH   6   7
ENDBRANCH   1   6
TORSDOF 5
ENDMDL
MODEL 7
REMARK VINA RESULT:    -4.352     20.162     21.361
REMARK INTER + INTRA:          -5.829
REMARK INTER:                  -5.614
REMARK INTRA:                  -0.216
REMARK UNBOUND:                -0.205
REMARK SMILES CCCCCCC(=O)[O-]
REMARK SMILES IDX 5 1 6 2 7 3 8 4 9 5 4 6 3 7 2 8 1 9
REMARK H PARENT
REMARK Flexibility Score: inf
ROOT
ATOM      1  C   UNL     1     104.022 313.720 192.194  1.00  0.00     0.006 C 
ENDROOT
BRANCH   1   2
ATOM      2  C   UNL     1     103.854 313.755 190.669  1.00  0.00     0.053 C 
BRANCH   2   3
ATOM      3  C   UNL     1     104.781 314.741 190.027  1.00  0.00     0.041 C 
ATOM      4  O   UNL     1     104.381 315.456 189.070  1.00  0.00    -0.550 OA
ATOM      5  O   UNL     1     106.095 314.849 190.464  1.00  0.00    -0.550 OA
ENDBRANCH   2   3
ENDBRANCH   1   2
BRANCH   1   6
ATOM      6  C   UNL     1     104.417 312.323 192.703  1.00  0.00     0.000 C 
BRANCH   6   7
ATOM      7  C   UNL     1     105.900 312.235 193.097  1.00  0.00    -0.000 C 
BRANCH   7   8
ATOM      8  C   UNL     1     106.107 311.620 194.489  1.00  0.00    -0.003 C 
ATOM      9  C   UNL     1     105.001 312.048 195.449  1.00  0.00     0.004 C 
ENDBRANCH   7   8
ENDBRANCH   6   7
ENDBRANCH   1   6
TORSDOF 5
ENDMDL
MODEL 8
REMARK VINA RESULT:    -4.324     19.751     20.844
REMARK INTER + INTRA:          -5.793
REMARK INTER:                  -5.447
REMARK INTRA:                  -0.346
REMARK UNBOUND:                -0.205
REMARK SMILES CCCCCCC(=O)[O-]
REMARK SMILES IDX 5 1 6 2 7 3 8 4 9 5 4 6 3 7 2 8 1 9
REMARK H PARENT
REMARK Flexibility Score: inf
ROOT
ATOM      1  C   UNL     1     105.591 311.860 194.985  1.00  0.00     0.006 C 
ENDROOT
BRANCH   1   2
ATOM      2  C   UNL     1     104.239 311.872 195.710  1.00  0.00     0.053 C 
BRANCH   2   3
ATOM      3  C   UNL     1     104.110 313.044 196.634  1.00  0.00     0.041 C 
ATOM      4  O   UNL     1     103.796 312.867 197.840  1.00  0.00    -0.550 OA
ATOM      5  O   UNL     1     104.306 314.333 196.155  1.00  0.00    -0.550 OA
ENDBRANCH   2   3
ENDBRANCH   1   2
BRANCH   1   6
ATOM      6  C   UNL     1     105.461 311.411 193.519  1.00  0.00     0.000 C 
BRANCH   6   7
ATOM      7  C   UNL     1     104.079 311.729 192.924  1.00  0.00    -0.000 C 
BRANCH   7   8
ATOM      8  C   UNL     1     104.116 312.906 191.939  1.00  0.00    -0.003 C 
ATOM      9  C   UNL     1     103.756 314.216 192.635  1.00  0.00     0.004 C 
ENDBRANCH   7   8
ENDBRANCH   6   7
ENDBRANCH   1   6
TORSDOF 5
ENDMDL
MODEL 9
REMARK VINA RESULT:    -4.307      1.465      2.012
REMARK INTER + INTRA:          -5.771
REMARK INTER:                  -5.526
REMARK INTRA:                  -0.245
REMARK UNBOUND:                -0.205
REMARK SMILES CCCCCCC(=O)[O-]
REMARK SMILES IDX 5 1 6 2 7 3 8 4 9 5 4 6 3 7 2 8 1 9
REMARK H PARENT
REMARK Flexibility Score: inf
ROOT
ATOM      1  C   UNL     1      88.889 326.472 195.368  1.00  0.00     0.006 C 
ENDROOT
BRANCH   1   2
ATOM      2  C   UNL     1      88.172 325.510 196.325  1.00  0.00     0.053 C 
BRANCH   2   3
ATOM      3  C   UNL     1      88.538 325.770 197.755  1.00  0.00     0.041 C 
ATOM      4  O   UNL     1      88.863 326.928 198.125  1.00  0.00    -0.550 OA
ATOM      5  O   UNL     1      88.548 324.726 198.671  1.00  0.00    -0.550 OA
ENDBRANCH   2   3
ENDBRANCH   1   2
BRANCH   1   6
ATOM      6  C   UNL     1      88.094 326.700 194.070  1.00  0.00     0.000 C 
BRANCH   6   7
ATOM      7  C   UNL     1      86.700 326.054 194.110  1.00  0.00    -0.000 C 
BRANCH   7   8
ATOM      8  C   UNL     1      86.543 324.921 193.086  1.00  0.00    -0.003 C 
ATOM      9  C   UNL     1      87.848 324.675 192.334  1.00  0.00     0.004 C 
ENDBRANCH   7   8
ENDBRANCH   6   7
ENDBRANCH   1   6
TORSDOF 5
ENDMDL
