MODEL 1
REMARK VINA RESULT:    -3.951      0.000      0.000
REMARK INTER + INTRA:          -4.298
REMARK INTER:                  -4.298
REMARK INTRA:                   0.000
REMARK UNBOUND:                 0.000
REMARK SMILES Oc1cccc(O)c1O
REMARK SMILES IDX 4 1 5 2 6 3 8 4 2 5 3 6 7 7 1 9 9 11
REMARK H PARENT 7 8 1 10 9 12
REMARK Flexibility Score: inf
ROOT
ATOM      1  C   UNL     1      16.691  -3.879   5.718  1.00  0.00     0.008 A 
ATOM      2  C   UNL     1      18.080  -3.835   5.857  1.00  0.00     0.050 A 
ATOM      3  C   UNL     1      18.757  -4.868   6.523  1.00  0.00     0.161 A 
ATOM      4  C   UNL     1      18.030  -5.950   7.053  1.00  0.00     0.200 A 
ATOM      5  C   UNL     1      16.636  -5.990   6.912  1.00  0.00     0.161 A 
ATOM      6  C   UNL     1      15.969  -4.953   6.244  1.00  0.00     0.050 A 
ENDROOT
BRANCH   3   7
ATOM      7  O   UNL     1      20.144  -4.822   6.661  1.00  0.00    -0.504 OA
ATOM      8  H   UNL     1      20.619  -3.979   6.963  1.00  0.00     0.293 HD
ENDBRANCH   3   7
BRANCH   5   9
ATOM      9  O   UNL     1      15.919  -7.063   7.439  1.00  0.00    -0.504 OA
ATOM     10  H   UNL     1      15.727  -7.137   8.431  1.00  0.00     0.293 HD
ENDBRANCH   5   9
BRANCH   4  11
ATOM     11  O   UNL     1      18.678  -6.989   7.721  1.00  0.00    -0.502 OA
ATOM     12  H   UNL     1      18.262  -7.907   7.824  1.00  0.00     0.293 HD
ENDBRANCH   4  11
TORSDOF 3
ENDMDL
MODEL 2
REMARK VINA RESULT:    -3.914      0.043      2.799
REMARK INTER + INTRA:          -4.258
REMARK INTER:                  -4.258
REMARK INTRA:                   0.000
REMARK UNBOUND:                 0.000
REMARK SMILES Oc1cccc(O)c1O
REMARK SMILES IDX 4 1 5 2 6 3 8 4 2 5 3 6 7 7 1 9 9 11
REMARK H PARENT 7 8 1 10 9 12
REMARK Flexibility Score: inf
ROOT
ATOM      1  C   UNL     1      16.742  -3.877   5.704  1.00  0.00     0.008 A 
ATOM      2  C   UNL     1      15.997  -4.933   6.233  1.00  0.00     0.050 A 
ATOM      3  C   UNL     1      16.637  -5.976   6.918  1.00  0.00     0.161 A 
ATOM      4  C   UNL     1      18.035  -5.956   7.071  1.00  0.00     0.200 A 
ATOM      5  C   UNL     1      18.780  -4.894   6.538  1.00  0.00     0.161 A 
ATOM      6  C   UNL     1      18.131  -3.857   5.855  1.00  0.00     0.050 A 
ENDROOT
BRANCH   3   7
ATOM      7  O   UNL     1      15.890  -7.030   7.445  1.00  0.00    -0.504 OA
ATOM      8  H   UNL     1      14.878  -7.007   7.459  1.00  0.00     0.293 HD
ENDBRANCH   3   7
BRANCH   5   9
ATOM      9  O   UNL     1      20.166  -4.878   6.691  1.00  0.00    -0.504 OA
ATOM     10  H   UNL     1      20.722  -5.717   6.570  1.00  0.00     0.293 HD
ENDBRANCH   5   9
BRANCH   4  11
ATOM     11  O   UNL     1      18.696  -6.982   7.747  1.00  0.00    -0.502 OA
ATOM     12  H   UNL     1      19.584  -7.353   7.429  1.00  0.00     0.293 HD
ENDBRANCH   4  11
TORSDOF 3
ENDMDL
MODEL 3
REMARK VINA RESULT:    -3.744      1.066      2.054
REMARK INTER + INTRA:          -4.073
REMARK INTER:                  -4.073
REMARK INTRA:                   0.000
REMARK UNBOUND:                 0.000
REMARK SMILES Oc1cccc(O)c1O
REMARK SMILES IDX 4 1 5 2 6 3 8 4 2 5 3 6 7 7 1 9 9 11
REMARK H PARENT 7 8 1 10 9 12
REMARK Flexibility Score: inf
ROOT
ATOM      1  C   UNL     1      15.658  -5.375   6.436  1.00  0.00     0.008 A 
ATOM      2  C   UNL     1      16.259  -4.250   5.868  1.00  0.00     0.050 A 
ATOM      3  C   UNL     1      17.647  -4.069   5.958  1.00  0.00     0.161 A 
ATOM      4  C   UNL     1      18.434  -5.026   6.625  1.00  0.00     0.200 A 
ATOM      5  C   UNL     1      17.826  -6.154   7.195  1.00  0.00     0.161 A 
ATOM      6  C   UNL     1      16.439  -6.326   7.099  1.00  0.00     0.050 A 
ENDROOT
BRANCH   3   7
ATOM      7  O   UNL     1      18.245  -2.944   5.390  1.00  0.00    -0.504 OA
ATOM      8  H   UNL     1      18.146  -2.025   5.804  1.00  0.00     0.293 HD
ENDBRANCH   3   7
BRANCH   5   9
ATOM      9  O   UNL     1      18.609  -7.100   7.855  1.00  0.00    -0.504 OA
ATOM     10  H   UNL     1      18.194  -7.820   8.435  1.00  0.00     0.293 HD
ENDBRANCH   5   9
BRANCH   4  11
ATOM     11  O   UNL     1      19.816  -4.870   6.729  1.00  0.00    -0.502 OA
ATOM     12  H   UNL     1      20.351  -5.284   7.484  1.00  0.00     0.293 HD
ENDBRANCH   4  11
TORSDOF 3
ENDMDL
MODEL 4
REMARK VINA RESULT:    -3.728      1.083      2.730
REMARK INTER + INTRA:          -4.055
REMARK INTER:                  -4.055
REMARK INTRA:                   0.000
REMARK UNBOUND:                 0.000
REMARK SMILES Oc1cccc(O)c1O
REMARK SMILES IDX 4 1 5 2 6 3 8 4 2 5 3 6 7 7 1 9 9 11
REMARK H PARENT 7 8 1 10 9 12
REMARK Flexibility Score: inf
ROOT
ATOM      1  C   UNL     1      15.664  -5.475   6.410  1.00  0.00     0.008 A 
ATOM      2  C   UNL     1      16.460  -6.394   7.098  1.00  0.00     0.050 A 
ATOM      3  C   UNL     1      17.845  -6.192   7.198  1.00  0.00     0.161 A 
ATOM      4  C   UNL     1      18.430  -5.060   6.602  1.00  0.00     0.200 A 
ATOM      5  C   UNL     1      17.627  -4.141   5.911  1.00  0.00     0.161 A 
ATOM      6  C   UNL     1      16.244  -4.352   5.817  1.00  0.00     0.050 A 
ENDROOT
BRANCH   3   7
ATOM      7  O   UNL     1      18.638  -7.110   7.885  1.00  0.00    -0.504 OA
ATOM      8  H   UNL     1      18.233  -7.799   8.508  1.00  0.00     0.293 HD
ENDBRANCH   3   7
BRANCH   5   9
ATOM      9  O   UNL     1      18.210  -3.021   5.321  1.00  0.00    -0.504 OA
ATOM     10  H   UNL     1      17.741  -2.123   5.310  1.00  0.00     0.293 HD
ENDBRANCH   5   9
BRANCH   4  11
ATOM     11  O   UNL     1      19.804  -4.836   6.686  1.00  0.00    -0.502 OA
ATOM     12  H   UNL     1      20.359  -4.575   5.880  1.00  0.00     0.293 HD
ENDBRANCH   4  11
TORSDOF 3
ENDMDL
MODEL 5
REMARK VINA RESULT:    -3.431      1.683      2.204
REMARK INTER + INTRA:          -3.732
REMARK INTER:                  -3.732
REMARK INTRA:                   0.000
REMARK UNBOUND:                 0.000
REMARK SMILES Oc1cccc(O)c1O
REMARK SMILES IDX 4 1 5 2 6 3 8 4 2 5 3 6 7 7 1 9 9 11
REMARK H PARENT 7 8 1 10 9 12
REMARK Flexibility Score: inf
ROOT
ATOM      1  C   UNL     1      14.534  -5.493   7.058  1.00  0.00     0.008 A 
ATOM      2  C   UNL     1      15.518  -5.124   6.138  1.00  0.00     0.050 A 
ATOM      3  C   UNL     1      16.848  -5.526   6.326  1.00  0.00     0.161 A 
ATOM      4  C   UNL     1      17.190  -6.304   7.447  1.00  0.00     0.200 A 
ATOM      5  C   UNL     1      16.200  -6.673   8.369  1.00  0.00     0.161 A 
ATOM      6  C   UNL     1      14.873  -6.265   8.172  1.00  0.00     0.050 A 
ENDROOT
BRANCH   3   7
ATOM      7  O   UNL     1      17.829  -5.156   5.406  1.00  0.00    -0.504 OA
ATOM      8  H   UNL     1      18.703  -5.663   5.330  1.00  0.00     0.293 HD
ENDBRANCH   3   7
BRANCH   5   9
ATOM      9  O   UNL     1      16.543  -7.443   9.479  1.00  0.00    -0.504 OA
ATOM     10  H   UNL     1      16.011  -8.267   9.737  1.00  0.00     0.293 HD
ENDBRANCH   5   9
BRANCH   4  11
ATOM     11  O   UNL     1      18.506  -6.717   7.658  1.00  0.00    -0.502 OA
ATOM     12  H   UNL     1      18.835  -7.031   8.563  1.00  0.00     0.293 HD
ENDBRANCH   4  11
TORSDOF 3
ENDMDL
MODEL 6
REMARK VINA RESULT:    -3.422     16.324     17.310
REMARK INTER + INTRA:          -3.723
REMARK INTER:                  -3.723
REMARK INTRA:                   0.000
REMARK UNBOUND:                 0.000
REMARK SMILES Oc1cccc(O)c1O
REMARK SMILES IDX 4 1 5 2 6 3 8 4 2 5 3 6 7 7 1 9 9 11
REMARK H PARENT 7 8 1 10 9 12
REMARK Flexibility Score: inf
ROOT
ATOM      1  C   UNL     1      25.412 -14.356  17.942  1.00  0.00     0.008 A 
ATOM      2  C   UNL     1      25.997 -15.618  17.808  1.00  0.00     0.050 A 
ATOM      3  C   UNL     1      25.270 -16.771  18.135  1.00  0.00     0.161 A 
ATOM      4  C   UNL     1      23.947 -16.654  18.601  1.00  0.00     0.200 A 
ATOM      5  C   UNL     1      23.364 -15.385  18.735  1.00  0.00     0.161 A 
ATOM      6  C   UNL     1      24.100 -14.239  18.405  1.00  0.00     0.050 A 
ENDROOT
BRANCH   3   7
ATOM      7  O   UNL     1      25.855 -18.030  18.001  1.00  0.00    -0.504 OA
ATOM      8  H   UNL     1      25.951 -18.476  17.096  1.00  0.00     0.293 HD
ENDBRANCH   3   7
BRANCH   5   9
ATOM      9  O   UNL     1      22.054 -15.273  19.197  1.00  0.00    -0.504 OA
ATOM     10  H   UNL     1      21.449 -14.517  18.897  1.00  0.00     0.293 HD
ENDBRANCH   5   9
BRANCH   4  11
ATOM     11  O   UNL     1      23.203 -17.785  18.935  1.00  0.00    -0.502 OA
ATOM     12  H   UNL     1      23.429 -18.364  19.735  1.00  0.00     0.293 HD
ENDBRANCH   4  11
TORSDOF 3
ENDMDL
MODEL 7
REMARK VINA RESULT:    -3.422      1.678      3.039
REMARK INTER + INTRA:          -3.722
REMARK INTER:                  -3.722
REMARK INTRA:                   0.000
REMARK UNBOUND:                 0.000
REMARK SMILES Oc1cccc(O)c1O
REMARK SMILES IDX 4 1 5 2 6 3 8 4 2 5 3 6 7 7 1 9 9 11
REMARK H PARENT 7 8 1 10 9 12
REMARK Flexibility Score: inf
ROOT
ATOM      1  C   UNL     1      14.589  -5.498   6.995  1.00  0.00     0.008 A 
ATOM      2  C   UNL     1      14.919  -6.227   8.140  1.00  0.00     0.050 A 
ATOM      3  C   UNL     1      16.242  -6.640   8.357  1.00  0.00     0.161 A 
ATOM      4  C   UNL     1      17.237  -6.316   7.416  1.00  0.00     0.200 A 
ATOM      5  C   UNL     1      16.901  -5.585   6.268  1.00  0.00     0.161 A 
ATOM      6  C   UNL     1      15.576  -5.177   6.060  1.00  0.00     0.050 A 
ENDROOT
BRANCH   3   7
ATOM      7  O   UNL     1      16.570  -7.368   9.500  1.00  0.00    -0.504 OA
ATOM      8  H   UNL     1      17.057  -6.941  10.279  1.00  0.00     0.293 HD
ENDBRANCH   3   7
BRANCH   5   9
ATOM      9  O   UNL     1      17.889  -5.267   5.338  1.00  0.00    -0.504 OA
ATOM     10  H   UNL     1      18.874  -5.357   5.559  1.00  0.00     0.293 HD
ENDBRANCH   5   9
BRANCH   4  11
ATOM     11  O   UNL     1      18.560  -6.715   7.608  1.00  0.00    -0.502 OA
ATOM     12  H   UNL     1      19.223  -6.155   8.130  1.00  0.00     0.293 HD
ENDBRANCH   4  11
TORSDOF 3
ENDMDL
MODEL 8
REMARK VINA RESULT:    -3.415     16.331     17.415
REMARK INTER + INTRA:          -3.714
REMARK INTER:                  -3.714
REMARK INTRA:                   0.000
REMARK UNBOUND:                 0.000
REMARK SMILES Oc1cccc(O)c1O
REMARK SMILES IDX 4 1 5 2 6 3 8 4 2 5 3 6 7 7 1 9 9 11
REMARK H PARENT 7 8 1 10 9 12
REMARK Flexibility Score: inf
ROOT
ATOM      1  C   UNL     1      25.399 -14.346  17.983  1.00  0.00     0.008 A 
ATOM      2  C   UNL     1      24.085 -14.227  18.441  1.00  0.00     0.050 A 
ATOM      3  C   UNL     1      23.341 -15.373  18.759  1.00  0.00     0.161 A 
ATOM      4  C   UNL     1      23.924 -16.645  18.615  1.00  0.00     0.200 A 
ATOM      5  C   UNL     1      25.244 -16.761  18.155  1.00  0.00     0.161 A 
ATOM      6  C   UNL     1      25.978 -15.609  17.839  1.00  0.00     0.050 A 
ENDROOT
BRANCH   3   7
ATOM      7  O   UNL     1      22.029 -15.252  19.215  1.00  0.00    -0.504 OA
ATOM      8  H   UNL     1      21.254 -15.130  18.574  1.00  0.00     0.293 HD
ENDBRANCH   3   7
BRANCH   5   9
ATOM      9  O   UNL     1      25.818 -18.023  18.013  1.00  0.00    -0.504 OA
ATOM     10  H   UNL     1      26.373 -18.439  18.752  1.00  0.00     0.293 HD
ENDBRANCH   5   9
BRANCH   4  11
ATOM     11  O   UNL     1      23.206 -17.801  18.924  1.00  0.00    -0.502 OA
ATOM     12  H   UNL     1      23.616 -18.725  18.857  1.00  0.00     0.293 HD
ENDBRANCH   4  11
TORSDOF 3
ENDMDL
MODEL 9
REMARK VINA RESULT:    -3.262     18.066     19.163
REMARK INTER + INTRA:          -3.548
REMARK INTER:                  -3.548
REMARK INTRA:                   0.000
REMARK UNBOUND:                 0.000
REMARK SMILES Oc1cccc(O)c1O
REMARK SMILES IDX 4 1 5 2 6 3 8 4 2 5 3 6 7 7 1 9 9 11
REMARK H PARENT 7 8 1 10 9 12
REMARK Flexibility Score: inf
ROOT
ATOM      1  C   UNL     1      12.644 -17.545  18.954  1.00  0.00     0.008 A 
ATOM      2  C   UNL     1      13.944 -17.949  18.639  1.00  0.00     0.050 A 
ATOM      3  C   UNL     1      14.825 -18.347  19.654  1.00  0.00     0.161 A 
ATOM      4  C   UNL     1      14.396 -18.338  20.994  1.00  0.00     0.200 A 
ATOM      5  C   UNL     1      13.091 -17.932  21.306  1.00  0.00     0.161 A 
ATOM      6  C   UNL     1      12.217 -17.536  20.284  1.00  0.00     0.050 A 
ENDROOT
BRANCH   3   7
ATOM      7  O   UNL     1      16.122 -18.749  19.338  1.00  0.00    -0.504 OA
ATOM      8  H   UNL     1      16.595 -18.409  18.509  1.00  0.00     0.293 HD
ENDBRANCH   3   7
BRANCH   5   9
ATOM      9  O   UNL     1      12.669 -17.924  22.635  1.00  0.00    -0.504 OA
ATOM     10  H   UNL     1      12.689 -18.764  23.202  1.00  0.00     0.293 HD
ENDBRANCH   5   9
BRANCH   4  11
ATOM     11  O   UNL     1      15.253 -18.729  22.023  1.00  0.00    -0.502 OA
ATOM     12  H   UNL     1      16.252 -18.565  21.985  1.00  0.00     0.293 HD
ENDBRANCH   4  11
TORSDOF 3
ENDMDL
