MODEL 1
REMARK VINA RESULT:    -4.155      0.000      0.000
REMARK INTER + INTRA:          -6.988
REMARK INTER:                  -6.341
REMARK INTRA:                  -0.647
REMARK UNBOUND:                -0.647
REMARK SMILES O=C([O-])CCCCCCCCC(=O)[O-]
REMARK SMILES IDX 7 1 6 2 5 3 4 4 2 5 1 6 3 7 8 8 9 9 10 10 11 11 12 12 13 13
REMARK SMILES IDX 14 14
REMARK H PARENT
REMARK Flexibility Score: inf
ROOT
ATOM      1  C   UNL     1       7.599 -19.091  24.187  1.00  0.00     0.000 C 
ENDROOT
BRANCH   1   2
ATOM      2  C   UNL     1       6.698 -20.243  23.723  1.00  0.00     0.000 C 
BRANCH   2   3
ATOM      3  C   UNL     1       6.614 -20.294  22.190  1.00  0.00     0.006 C 
BRANCH   3   4
ATOM      4  C   UNL     1       7.995 -20.423  21.536  1.00  0.00     0.053 C 
BRANCH   4   5
ATOM      5  C   UNL     1       8.073 -21.621  20.640  1.00  0.00     0.041 C 
ATOM      6  O   UNL     1       8.438 -21.494  19.441  1.00  0.00    -0.550 OA
ATOM      7  O   UNL     1       7.775 -22.883  21.138  1.00  0.00    -0.550 OA
ENDBRANCH   4   5
ENDBRANCH   3   4
ENDBRANCH   2   3
ENDBRANCH   1   2
BRANCH   1   8
ATOM      8  C   UNL     1       6.773 -17.974  24.838  1.00  0.00     0.000 C 
BRANCH   8   9
ATOM      9  C   UNL     1       6.250 -16.992  23.779  1.00  0.00     0.000 C 
BRANCH   9  10
ATOM     10  C   UNL     1       7.381 -16.343  22.964  1.00  0.00     0.006 C 
BRANCH  10  11
ATOM     11  C   UNL     1       7.629 -14.882  23.357  1.00  0.00     0.053 C 
BRANCH  11  12
ATOM     12  C   UNL     1       8.810 -14.779  24.269  1.00  0.00     0.041 C 
ATOM     13  O   UNL     1       9.919 -14.377  23.827  1.00  0.00    -0.550 OA
ATOM     14  O   UNL     1       8.675 -15.080  25.618  1.00  0.00    -0.550 OA
ENDBRANCH  11  12
ENDBRANCH  10  11
ENDBRANCH   9  10
ENDBRANCH   8   9
ENDBRANCH   1   8
TORSDOF 9
ENDMDL
MODEL 2
REMARK VINA RESULT:    -4.054      0.486      6.269
REMARK INTER + INTRA:          -6.834
REMARK INTER:                  -6.205
REMARK INTRA:                  -0.629
REMARK UNBOUND:                -0.647
REMARK SMILES O=C([O-])CCCCCCCCC(=O)[O-]
REMARK SMILES IDX 7 1 6 2 5 3 4 4 2 5 1 6 3 7 8 8 9 9 10 10 11 11 12 12 13 13
REMARK SMILES IDX 14 14
REMARK H PARENT
REMARK Flexibility Score: inf
ROOT
ATOM      1  C   UNL     1       6.932 -18.127  24.704  1.00  0.00     0.000 C 
ENDROOT
BRANCH   1   2
ATOM      2  C   UNL     1       6.323 -17.116  23.725  1.00  0.00     0.000 C 
BRANCH   2   3
ATOM      3  C   UNL     1       7.420 -16.369  22.951  1.00  0.00     0.006 C 
BRANCH   3   4
ATOM      4  C   UNL     1       7.645 -14.950  23.485  1.00  0.00     0.053 C 
BRANCH   4   5
ATOM      5  C   UNL     1       8.835 -14.882  24.393  1.00  0.00     0.041 C 
ATOM      6  O   UNL     1       9.955 -14.519  23.946  1.00  0.00    -0.550 OA
ATOM      7  O   UNL     1       8.699 -15.188  25.741  1.00  0.00    -0.550 OA
ENDBRANCH   4   5
ENDBRANCH   3   4
ENDBRANCH   2   3
ENDBRANCH   1   2
BRANCH   1   8
ATOM      8  C   UNL     1       7.366 -19.406  23.976  1.00  0.00     0.000 C 
BRANCH   8   9
ATOM      9  C   UNL     1       6.242 -19.930  23.071  1.00  0.00     0.000 C 
BRANCH   9  10
ATOM     10  C   UNL     1       6.765 -20.454  21.723  1.00  0.00     0.006 C 
BRANCH  10  11
ATOM     11  C   UNL     1       8.293 -20.568  21.686  1.00  0.00     0.053 C 
BRANCH  11  12
ATOM     12  C   UNL     1       8.714 -21.634  20.724  1.00  0.00     0.041 C 
ATOM     13  O   UNL     1       9.267 -21.322  19.636  1.00  0.00    -0.550 OA
ATOM     14  O   UNL     1       8.542 -22.973  21.050  1.00  0.00    -0.550 OA
ENDBRANCH  11  12
ENDBRANCH  10  11
ENDBRANCH   9  10
ENDBRANCH   8   9
ENDBRANCH   1   8
TORSDOF 9
ENDMDL
MODEL 3
REMARK VINA RESULT:    -4.033      1.098      6.308
REMARK INTER + INTRA:          -6.802
REMARK INTER:                  -6.121
REMARK INTRA:                  -0.681
REMARK UNBOUND:                -0.647
REMARK SMILES O=C([O-])CCCCCCCCC(=O)[O-]
REMARK SMILES IDX 7 1 6 2 5 3 4 4 2 5 1 6 3 7 8 8 9 9 10 10 11 11 12 12 13 13
REMARK SMILES IDX 14 14
REMARK H PARENT
REMARK Flexibility Score: inf
ROOT
ATOM      1  C   UNL     1       6.410 -17.057  23.469  1.00  0.00     0.000 C 
ENDROOT
BRANCH   1   2
ATOM      2  C   UNL     1       7.691 -16.388  22.957  1.00  0.00     0.000 C 
BRANCH   2   3
ATOM      3  C   UNL     1       7.834 -14.966  23.521  1.00  0.00     0.006 C 
BRANCH   3   4
ATOM      4  C   UNL     1       9.149 -14.773  24.285  1.00  0.00     0.053 C 
BRANCH   4   5
ATOM      5  C   UNL     1       9.158 -15.536  25.574  1.00  0.00     0.041 C 
ATOM      6  O   UNL     1       8.134 -15.557  26.307  1.00  0.00    -0.550 OA
ATOM      7  O   UNL     1      10.289 -16.250  25.951  1.00  0.00    -0.550 OA
ENDBRANCH   4   5
ENDBRANCH   3   4
ENDBRANCH   2   3
ENDBRANCH   1   2
BRANCH   1   8
ATOM      8  C   UNL     1       6.734 -18.183  24.459  1.00  0.00     0.000 C 
BRANCH   8   9
ATOM      9  C   UNL     1       7.455 -19.342  23.755  1.00  0.00     0.000 C 
BRANCH   9  10
ATOM     10  C   UNL     1       6.541 -20.101  22.779  1.00  0.00     0.006 C 
BRANCH  10  11
ATOM     11  C   UNL     1       7.108 -20.148  21.355  1.00  0.00     0.053 C 
BRANCH  11  12
ATOM     12  C   UNL     1       7.996 -21.340  21.186  1.00  0.00     0.041 C 
ATOM     13  O   UNL     1       7.503 -22.462  20.896  1.00  0.00    -0.550 OA
ATOM     14  O   UNL     1       9.374 -21.202  21.300  1.00  0.00    -0.550 OA
ENDBRANCH  11  12
ENDBRANCH  10  11
ENDBRANCH   9  10
ENDBRANCH   8   9
ENDBRANCH   1   8
TORSDOF 9
ENDMDL
MODEL 4
REMARK VINA RESULT:    -4.000      1.235      1.996
REMARK INTER + INTRA:          -6.751
REMARK INTER:                  -6.161
REMARK INTRA:                  -0.589
REMARK UNBOUND:                -0.647
REMARK SMILES O=C([O-])CCCCCCCCC(=O)[O-]
REMARK SMILES IDX 7 1 6 2 5 3 4 4 2 5 1 6 3 7 8 8 9 9 10 10 11 11 12 12 13 13
REMARK SMILES IDX 14 14
REMARK H PARENT
REMARK Flexibility Score: inf
ROOT
ATOM      1  C   UNL     1       6.786 -17.809  22.640  1.00  0.00     0.000 C 
ENDROOT
BRANCH   1   2
ATOM      2  C   UNL     1       6.901 -18.710  23.876  1.00  0.00     0.000 C 
BRANCH   2   3
ATOM      3  C   UNL     1       6.755 -20.191  23.493  1.00  0.00     0.006 C 
BRANCH   3   4
ATOM      4  C   UNL     1       6.637 -20.390  21.977  1.00  0.00     0.053 C 
BRANCH   4   5
ATOM      5  C   UNL     1       7.773 -21.203  21.435  1.00  0.00     0.041 C 
ATOM      6  O   UNL     1       7.547 -22.279  20.820  1.00  0.00    -0.550 OA
ATOM      7  O   UNL     1       9.080 -20.755  21.581  1.00  0.00    -0.550 OA
ENDBRANCH   4   5
ENDBRANCH   3   4
ENDBRANCH   2   3
ENDBRANCH   1   2
BRANCH   1   8
ATOM      8  C   UNL     1       6.558 -16.347  23.044  1.00  0.00     0.000 C 
BRANCH   8   9
ATOM      9  C   UNL     1       7.738 -15.466  22.607  1.00  0.00     0.000 C 
BRANCH   9  10
ATOM     10  C   UNL     1       8.217 -14.523  23.723  1.00  0.00     0.006 C 
BRANCH  10  11
ATOM     11  C   UNL     1       9.572 -14.938  24.308  1.00  0.00     0.053 C 
BRANCH  11  12
ATOM     12  C   UNL     1       9.377 -15.764  25.540  1.00  0.00     0.041 C 
ATOM     13  O   UNL     1      10.357 -16.353  26.069  1.00  0.00    -0.550 OA
ATOM     14  O   UNL     1       8.124 -15.842  26.134  1.00  0.00    -0.550 OA
ENDBRANCH  11  12
ENDBRANCH  10  11
ENDBRANCH   9  10
ENDBRANCH   8   9
ENDBRANCH   1   8
TORSDOF 9
ENDMDL
MODEL 5
REMARK VINA RESULT:    -3.936      1.315      6.216
REMARK INTER + INTRA:          -6.653
REMARK INTER:                  -5.913
REMARK INTRA:                  -0.740
REMARK UNBOUND:                -0.647
REMARK SMILES O=C([O-])CCCCCCCCC(=O)[O-]
REMARK SMILES IDX 7 1 6 2 5 3 4 4 2 5 1 6 3 7 8 8 9 9 10 10 11 11 12 12 13 13
REMARK SMILES IDX 14 14
REMARK H PARENT
REMARK Flexibility Score: inf
ROOT
ATOM      1  C   UNL     1       7.108 -16.213  21.652  1.00  0.00     0.000 C 
ENDROOT
BRANCH   1   2
ATOM      2  C   UNL     1       6.726 -15.515  22.963  1.00  0.00     0.000 C 
BRANCH   2   3
ATOM      3  C   UNL     1       7.737 -14.411  23.314  1.00  0.00     0.006 C 
BRANCH   3   4
ATOM      4  C   UNL     1       8.569 -14.760  24.554  1.00  0.00     0.053 C 
BRANCH   4   5
ATOM      5  C   UNL     1       9.812 -15.515  24.192  1.00  0.00     0.041 C 
ATOM      6  O   UNL     1       9.941 -16.722  24.528  1.00  0.00    -0.550 OA
ATOM      7  O   UNL     1      10.813 -14.895  23.455  1.00  0.00    -0.550 OA
ENDBRANCH   4   5
ENDBRANCH   3   4
ENDBRANCH   2   3
ENDBRANCH   1   2
BRANCH   1   8
ATOM      8  C   UNL     1       7.550 -17.659  21.907  1.00  0.00     0.000 C 
BRANCH   8   9
ATOM      9  C   UNL     1       6.769 -18.273  23.078  1.00  0.00     0.000 C 
BRANCH   9  10
ATOM     10  C   UNL     1       6.851 -19.808  23.103  1.00  0.00     0.006 C 
BRANCH  10  11
ATOM     11  C   UNL     1       6.602 -20.436  21.726  1.00  0.00     0.053 C 
BRANCH  11  12
ATOM     12  C   UNL     1       7.731 -21.344  21.355  1.00  0.00     0.041 C 
ATOM     13  O   UNL     1       7.502 -22.425  20.751  1.00  0.00    -0.550 OA
ATOM     14  O   UNL     1       9.041 -20.974  21.631  1.00  0.00    -0.550 OA
ENDBRANCH  11  12
ENDBRANCH  10  11
ENDBRANCH   9  10
ENDBRANCH   8   9
ENDBRANCH   1   8
TORSDOF 9
ENDMDL
MODEL 6
REMARK VINA RESULT:    -3.923      3.099      4.476
REMARK INTER + INTRA:          -6.633
REMARK INTER:                  -5.532
REMARK INTRA:                  -1.101
REMARK UNBOUND:                -0.647
REMARK SMILES O=C([O-])CCCCCCCCC(=O)[O-]
REMARK SMILES IDX 7 1 6 2 5 3 4 4 2 5 1 6 3 7 8 8 9 9 10 10 11 11 12 12 13 13
REMARK SMILES IDX 14 14
REMARK H PARENT
REMARK Flexibility Score: inf
ROOT
ATOM      1  C   UNL     1       6.401 -19.751  22.986  1.00  0.00     0.000 C 
ENDROOT
BRANCH   1   2
ATOM      2  C   UNL     1       6.830 -20.022  24.433  1.00  0.00     0.000 C 
BRANCH   2   3
ATOM      3  C   UNL     1       7.133 -18.710  25.173  1.00  0.00     0.006 C 
BRANCH   3   4
ATOM      4  C   UNL     1       8.617 -18.333  25.103  1.00  0.00     0.053 C 
BRANCH   4   5
ATOM      5  C   UNL     1       8.904 -17.070  25.857  1.00  0.00     0.041 C 
ATOM      6  O   UNL     1      10.084 -16.786  26.194  1.00  0.00    -0.550 OA
ATOM      7  O   UNL     1       7.872 -16.191  26.160  1.00  0.00    -0.550 OA
ENDBRANCH   4   5
ENDBRANCH   3   4
ENDBRANCH   2   3
ENDBRANCH   1   2
BRANCH   1   8
ATOM      8  C   UNL     1       7.509 -20.142  22.000  1.00  0.00     0.000 C 
BRANCH   8   9
ATOM      9  C   UNL     1       7.941 -18.934  21.154  1.00  0.00     0.000 C 
BRANCH   9  10
ATOM     10  C   UNL     1       7.157 -17.658  21.503  1.00  0.00     0.006 C 
BRANCH  10  11
ATOM     11  C   UNL     1       8.069 -16.501  21.925  1.00  0.00     0.053 C 
BRANCH  11  12
ATOM     12  C   UNL     1       7.333 -15.557  22.823  1.00  0.00     0.041 C 
ATOM     13  O   UNL     1       7.858 -14.461  23.156  1.00  0.00    -0.550 OA
ATOM     14  O   UNL     1       6.049 -15.864  23.252  1.00  0.00    -0.550 OA
ENDBRANCH  11  12
ENDBRANCH  10  11
ENDBRANCH   9  10
ENDBRANCH   8   9
ENDBRANCH   1   8
TORSDOF 9
ENDMDL
MODEL 7
REMARK VINA RESULT:    -3.895      2.318      5.207
REMARK INTER + INTRA:          -6.591
REMARK INTER:                  -5.364
REMARK INTRA:                  -1.227
REMARK UNBOUND:                -0.647
REMARK SMILES O=C([O-])CCCCCCCCC(=O)[O-]
REMARK SMILES IDX 7 1 6 2 5 3 4 4 2 5 1 6 3 7 8 8 9 9 10 10 11 11 12 12 13 13
REMARK SMILES IDX 14 14
REMARK H PARENT
REMARK Flexibility Score: inf
ROOT
ATOM      1  C   UNL     1       6.284 -17.394  24.003  1.00  0.00     0.000 C 
ENDROOT
BRANCH   1   2
ATOM      2  C   UNL     1       7.037 -17.572  25.327  1.00  0.00     0.000 C 
BRANCH   2   3
ATOM      3  C   UNL     1       7.901 -16.341  25.640  1.00  0.00     0.006 C 
BRANCH   3   4
ATOM      4  C   UNL     1       9.394 -16.681  25.712  1.00  0.00     0.053 C 
BRANCH   4   5
ATOM      5  C   UNL     1      10.197 -15.857  24.753  1.00  0.00     0.041 C 
ATOM      6  O   UNL     1       9.743 -14.765  24.319  1.00  0.00    -0.550 OA
ATOM      7  O   UNL     1      11.462 -16.279  24.363  1.00  0.00    -0.550 OA
ENDBRANCH   4   5
ENDBRANCH   3   4
ENDBRANCH   2   3
ENDBRANCH   1   2
BRANCH   1   8
ATOM      8  C   UNL     1       6.551 -16.010  23.399  1.00  0.00     0.000 C 
BRANCH   8   9
ATOM      9  C   UNL     1       7.274 -16.131  22.049  1.00  0.00     0.000 C 
BRANCH   9  10
ATOM     10  C   UNL     1       7.646 -17.583  21.706  1.00  0.00     0.006 C 
BRANCH  10  11
ATOM     11  C   UNL     1       9.146 -17.860  21.858  1.00  0.00     0.053 C 
BRANCH  11  12
ATOM     12  C   UNL     1       9.370 -19.076  22.700  1.00  0.00     0.041 C 
ATOM     13  O   UNL     1       8.452 -19.926  22.841  1.00  0.00    -0.550 OA
ATOM     14  O   UNL     1      10.609 -19.296  23.289  1.00  0.00    -0.550 OA
ENDBRANCH  11  12
ENDBRANCH  10  11
ENDBRANCH   9  10
ENDBRANCH   8   9
ENDBRANCH   1   8
TORSDOF 9
ENDMDL
MODEL 8
REMARK VINA RESULT:    -3.853      1.214      6.211
REMARK INTER + INTRA:          -6.526
REMARK INTER:                  -5.943
REMARK INTRA:                  -0.583
REMARK UNBOUND:                -0.647
REMARK SMILES O=C([O-])CCCCCCCCC(=O)[O-]
REMARK SMILES IDX 7 1 6 2 5 3 4 4 2 5 1 6 3 7 8 8 9 9 10 10 11 11 12 12 13 13
REMARK SMILES IDX 14 14
REMARK H PARENT
REMARK Flexibility Score: inf
ROOT
ATOM      1  C   UNL     1       6.835 -20.104  24.563  1.00  0.00     0.000 C 
ENDROOT
BRANCH   1   2
ATOM      2  C   UNL     1       7.150 -19.143  25.716  1.00  0.00     0.000 C 
BRANCH   2   3
ATOM      3  C   UNL     1       6.782 -17.698  25.344  1.00  0.00     0.006 C 
BRANCH   3   4
ATOM      4  C   UNL     1       7.890 -16.704  25.712  1.00  0.00     0.053 C 
BRANCH   4   5
ATOM      5  C   UNL     1       8.027 -15.621  24.685  1.00  0.00     0.041 C 
ATOM      6  O   UNL     1       8.957 -14.777  24.773  1.00  0.00    -0.550 OA
ATOM      7  O   UNL     1       7.146 -15.566  23.612  1.00  0.00    -0.550 OA
ENDBRANCH   4   5
ENDBRANCH   3   4
ENDBRANCH   2   3
ENDBRANCH   1   2
BRANCH   1   8
ATOM      8  C   UNL     1       6.322 -19.342  23.335  1.00  0.00     0.000 C 
BRANCH   8   9
ATOM      9  C   UNL     1       6.737 -20.051  22.037  1.00  0.00     0.000 C 
BRANCH   9  10
ATOM     10  C   UNL     1       8.121 -19.606  21.537  1.00  0.00     0.006 C 
BRANCH  10  11
ATOM     11  C   UNL     1       9.151 -20.742  21.560  1.00  0.00     0.053 C 
BRANCH  11  12
ATOM     12  C   UNL     1       8.759 -21.821  20.599  1.00  0.00     0.041 C 
ATOM     13  O   UNL     1       8.659 -23.013  20.993  1.00  0.00    -0.550 OA
ATOM     14  O   UNL     1       8.456 -21.502  19.282  1.00  0.00    -0.550 OA
ENDBRANCH  11  12
ENDBRANCH  10  11
ENDBRANCH   9  10
ENDBRANCH   8   9
ENDBRANCH   1   8
TORSDOF 9
ENDMDL
MODEL 9
REMARK VINA RESULT:    -3.846      2.578      3.170
REMARK INTER + INTRA:          -6.517
REMARK INTER:                  -5.487
REMARK INTRA:                  -1.029
REMARK UNBOUND:                -0.647
REMARK SMILES O=C([O-])CCCCCCCCC(=O)[O-]
REMARK SMILES IDX 7 1 6 2 5 3 4 4 2 5 1 6 3 7 8 8 9 9 10 10 11 11 12 12 13 13
REMARK SMILES IDX 14 14
REMARK H PARENT
REMARK Flexibility Score: inf
ROOT
ATOM      1  C   UNL     1       7.416 -19.332  25.382  1.00  0.00     0.000 C 
ENDROOT
BRANCH   1   2
ATOM      2  C   UNL     1       6.760 -20.005  24.170  1.00  0.00     0.000 C 
BRANCH   2   3
ATOM      3  C   UNL     1       7.648 -19.883  22.923  1.00  0.00     0.006 C 
BRANCH   3   4
ATOM      4  C   UNL     1       7.104 -18.859  21.920  1.00  0.00     0.053 C 
BRANCH   4   5
ATOM      5  C   UNL     1       7.787 -17.532  22.057  1.00  0.00     0.041 C 
ATOM      6  O   UNL     1       9.023 -17.429  21.839  1.00  0.00    -0.550 OA
ATOM      7  O   UNL     1       7.051 -16.403  22.393  1.00  0.00    -0.550 OA
ENDBRANCH   4   5
ENDBRANCH   3   4
ENDBRANCH   2   3
ENDBRANCH   1   2
BRANCH   1   8
ATOM      8  C   UNL     1       6.730 -18.000  25.711  1.00  0.00     0.000 C 
BRANCH   8   9
ATOM      9  C   UNL     1       7.761 -16.868  25.832  1.00  0.00     0.000 C 
BRANCH   9  10
ATOM     10  C   UNL     1       9.184 -17.323  25.467  1.00  0.00     0.006 C 
BRANCH  10  11
ATOM     11  C   UNL     1      10.226 -16.215  25.661  1.00  0.00     0.053 C 
BRANCH  11  12
ATOM     12  C   UNL     1      10.482 -15.507  24.368  1.00  0.00     0.041 C 
ATOM     13  O   UNL     1       9.676 -14.631  23.956  1.00  0.00    -0.550 OA
ATOM     14  O   UNL     1      11.635 -15.778  23.642  1.00  0.00    -0.550 OA
ENDBRANCH  11  12
ENDBRANCH  10  11
ENDBRANCH   9  10
ENDBRANCH   8   9
ENDBRANCH   1   8
TORSDOF 9
ENDMDL
