MODEL 1
REMARK VINA RESULT:     2.900      0.000      0.000
REMARK INTER + INTRA:           6.701
REMARK INTER:                   6.630
REMARK INTRA:                   0.071
REMARK UNBOUND:                 0.071
REMARK SMILES CCCCCCCCCCCCCCCCCCCCCCCC(=O)[O-]
REMARK SMILES IDX 13 1 14 2 15 3 16 4 17 5 18 6 19 7 20 8 21 9 22 10 23 11
REMARK SMILES IDX 24 12 25 13 26 14 12 15 11 16 10 17 9 18 8 19 7 20 6 21 5 22
REMARK SMILES IDX 4 23 3 24 2 25 1 26
REMARK H PARENT
REMARK Flexibility Score: inf
ROOT
ATOM      1  C   UNL     1       6.112 -34.452  23.070  1.00  0.00     0.000 C 
ENDROOT
BRANCH   1   2
ATOM      2  C   UNL     1       5.194 -35.613  23.472  1.00  0.00     0.000 C 
BRANCH   2   3
ATOM      3  C   UNL     1       4.565 -36.274  22.236  1.00  0.00     0.000 C 
BRANCH   3   4
ATOM      4  C   UNL     1       5.600 -37.049  21.393  1.00  0.00     0.000 C 
BRANCH   4   5
ATOM      5  C   UNL     1       5.045 -37.578  20.055  1.00  0.00     0.000 C 
BRANCH   5   6
ATOM      6  C   UNL     1       5.202 -39.094  19.839  1.00  0.00     0.000 C 
BRANCH   6   7
ATOM      7  C   UNL     1       5.921 -39.836  20.981  1.00  0.00     0.000 C 
BRANCH   7   8
ATOM      8  C   UNL     1       4.962 -40.594  21.929  1.00  0.00     0.000 C 
BRANCH   8   9
ATOM      9  C   UNL     1       5.322 -40.442  23.417  1.00  0.00     0.000 C 
BRANCH   9  10
ATOM     10  C   UNL     1       4.683 -39.190  24.045  1.00  0.00     0.006 C 
BRANCH  10  11
ATOM     11  C   UNL     1       4.964 -39.088  25.550  1.00  0.00     0.053 C 
BRANCH  11  12
ATOM     12  C   UNL     1       4.571 -37.753  26.102  1.00  0.00     0.041 C 
ATOM     13  O   UNL     1       5.408 -36.813  26.146  1.00  0.00    -0.550 OA
ATOM     14  O   UNL     1       3.287 -37.553  26.595  1.00  0.00    -0.550 OA
ENDBRANCH  11  12
ENDBRANCH  10  11
ENDBRANCH   9  10
ENDBRANCH   8   9
ENDBRANCH   7   8
ENDBRANCH   6   7
ENDBRANCH   5   6
ENDBRANCH   4   5
ENDBRANCH   3   4
ENDBRANCH   2   3
ENDBRANCH   1   2
BRANCH   1  15
ATOM     15  C   UNL     1       5.297 -33.274  22.515  1.00  0.00     0.000 C 
BRANCH  15  16
ATOM     16  C   UNL     1       3.939 -33.713  21.944  1.00  0.00     0.000 C 
BRANCH  16  17
ATOM     17  C   UNL     1       3.954 -33.812  20.408  1.00  0.00     0.000 C 
BRANCH  17  18
ATOM     18  C   UNL     1       5.324 -34.230  19.852  1.00  0.00    -0.000 C 
BRANCH  18  19
ATOM     19  C   UNL     1       5.330 -34.361  18.318  1.00  0.00    -0.000 C 
BRANCH  19  20
ATOM     20  C   UNL     1       3.941 -34.701  17.755  1.00  0.00    -0.000 C 
BRANCH  20  21
ATOM     21  C   UNL     1       3.965 -35.927  16.827  1.00  0.00    -0.000 C 
BRANCH  21  22
ATOM     22  C   UNL     1       2.813 -35.926  15.805  1.00  0.00    -0.000 C 
BRANCH  22  23
ATOM     23  C   UNL     1       3.211 -36.332  14.374  1.00  0.00    -0.000 C 
BRANCH  23  24
ATOM     24  C   UNL     1       3.171 -37.854  14.151  1.00  0.00    -0.000 C 
BRANCH  24  25
ATOM     25  C   UNL     1       4.563 -38.446  13.875  1.00  0.00    -0.003 C 
ATOM     26  C   UNL     1       4.650 -39.935  14.211  1.00  0.00     0.004 C 
ENDBRANCH  24  25
ENDBRANCH  23  24
ENDBRANCH  22  23
ENDBRANCH  21  22
ENDBRANCH  20  21
ENDBRANCH  19  20
ENDBRANCH  18  19
ENDBRANCH  17  18
ENDBRANCH  16  17
ENDBRANCH  15  16
ENDBRANCH   1  15
TORSDOF 22
ENDMDL
MODEL 2
REMARK VINA RESULT:     3.144      1.133      1.845
REMARK INTER + INTRA:           7.260
REMARK INTER:                   8.249
REMARK INTRA:                  -0.989
REMARK UNBOUND:                 0.071
REMARK SMILES CCCCCCCCCCCCCCCCCCCCCCCC(=O)[O-]
REMARK SMILES IDX 13 1 14 2 15 3 16 4 17 5 18 6 19 7 20 8 21 9 22 10 23 11
REMARK SMILES IDX 24 12 25 13 26 14 12 15 11 16 10 17 9 18 8 19 7 20 6 21 5 22
REMARK SMILES IDX 4 23 3 24 2 25 1 26
REMARK H PARENT
REMARK Flexibility Score: inf
ROOT
ATOM      1  C   UNL     1       5.436 -35.785  23.550  1.00  0.00     0.000 C 
ENDROOT
BRANCH   1   2
ATOM      2  C   UNL     1       5.854 -36.368  22.194  1.00  0.00     0.000 C 
BRANCH   2   3
ATOM      3  C   UNL     1       4.685 -37.108  21.527  1.00  0.00     0.000 C 
BRANCH   3   4
ATOM      4  C   UNL     1       5.098 -37.790  20.206  1.00  0.00     0.000 C 
BRANCH   4   5
ATOM      5  C   UNL     1       5.705 -39.196  20.391  1.00  0.00     0.000 C 
BRANCH   5   6
ATOM      6  C   UNL     1       4.989 -40.083  21.425  1.00  0.00     0.000 C 
BRANCH   6   7
ATOM      7  C   UNL     1       5.641 -40.098  22.821  1.00  0.00     0.000 C 
BRANCH   7   8
ATOM      8  C   UNL     1       4.648 -39.814  23.972  1.00  0.00     0.000 C 
BRANCH   8   9
ATOM      9  C   UNL     1       5.023 -38.584  24.817  1.00  0.00     0.000 C 
BRANCH   9  10
ATOM     10  C   UNL     1       4.249 -38.534  26.146  1.00  0.00     0.006 C 
BRANCH  10  11
ATOM     11  C   UNL     1       3.759 -37.118  26.479  1.00  0.00     0.053 C 
BRANCH  11  12
ATOM     12  C   UNL     1       2.451 -37.136  27.208  1.00  0.00     0.041 C 
ATOM     13  O   UNL     1       2.070 -36.124  27.853  1.00  0.00    -0.550 OA
ATOM     14  O   UNL     1       1.663 -38.282  27.198  1.00  0.00    -0.550 OA
ENDBRANCH  11  12
ENDBRANCH  10  11
ENDBRANCH   9  10
ENDBRANCH   8   9
ENDBRANCH   7   8
ENDBRANCH   6   7
ENDBRANCH   5   6
ENDBRANCH   4   5
ENDBRANCH   3   4
ENDBRANCH   2   3
ENDBRANCH   1   2
BRANCH   1  15
ATOM     15  C   UNL     1       6.107 -34.426  23.795  1.00  0.00     0.000 C 
BRANCH  15  16
ATOM     16  C   UNL     1       5.595 -33.334  22.841  1.00  0.00     0.000 C 
BRANCH  16  17
ATOM     17  C   UNL     1       4.228 -33.687  22.228  1.00  0.00     0.000 C 
BRANCH  17  18
ATOM     18  C   UNL     1       4.142 -33.347  20.731  1.00  0.00    -0.000 C 
BRANCH  18  19
ATOM     19  C   UNL     1       4.000 -34.596  19.844  1.00  0.00    -0.000 C 
BRANCH  19  20
ATOM     20  C   UNL     1       4.768 -34.463  18.519  1.00  0.00    -0.000 C 
BRANCH  20  21
ATOM     21  C   UNL     1       4.542 -35.662  17.583  1.00  0.00    -0.000 C 
BRANCH  21  22
ATOM     22  C   UNL     1       3.269 -35.523  16.729  1.00  0.00    -0.000 C 
BRANCH  22  23
ATOM     23  C   UNL     1       3.410 -35.987  15.268  1.00  0.00    -0.000 C 
BRANCH  23  24
ATOM     24  C   UNL     1       3.343 -37.516  15.115  1.00  0.00    -0.000 C 
BRANCH  24  25
ATOM     25  C   UNL     1       4.147 -38.024  13.907  1.00  0.00    -0.003 C 
ATOM     26  C   UNL     1       4.521 -39.502  14.023  1.00  0.00     0.004 C 
ENDBRANCH  24  25
ENDBRANCH  23  24
ENDBRANCH  22  23
ENDBRANCH  21  22
ENDBRANCH  20  21
ENDBRANCH  19  20
ENDBRANCH  18  19
ENDBRANCH  17  18
ENDBRANCH  16  17
ENDBRANCH  15  16
ENDBRANCH   1  15
TORSDOF 22
ENDMDL
MODEL 3
REMARK VINA RESULT:     4.089      3.481      8.425
REMARK INTER + INTRA:           9.418
REMARK INTER:                  10.580
REMARK INTRA:                  -1.162
REMARK UNBOUND:                 0.071
REMARK SMILES CCCCCCCCCCCCCCCCCCCCCCCC(=O)[O-]
REMARK SMILES IDX 13 1 14 2 15 3 16 4 17 5 18 6 19 7 20 8 21 9 22 10 23 11
REMARK SMILES IDX 24 12 25 13 26 14 12 15 11 16 10 17 9 18 8 19 7 20 6 21 5 22
REMARK SMILES IDX 4 23 3 24 2 25 1 26
REMARK H PARENT
REMARK Flexibility Score: inf
ROOT
ATOM      1  C   UNL     1       5.887 -36.333  22.343  1.00  0.00     0.000 C 
ENDROOT
BRANCH   1   2
ATOM      2  C   UNL     1       5.597 -34.857  22.640  1.00  0.00     0.000 C 
BRANCH   2   3
ATOM      3  C   UNL     1       4.162 -34.484  22.235  1.00  0.00     0.000 C 
BRANCH   3   4
ATOM      4  C   UNL     1       4.071 -34.000  20.773  1.00  0.00     0.000 C 
BRANCH   4   5
ATOM      5  C   UNL     1       5.419 -34.011  20.025  1.00  0.00     0.000 C 
BRANCH   5   6
ATOM      6  C   UNL     1       5.357 -34.530  18.578  1.00  0.00     0.000 C 
BRANCH   6   7
ATOM      7  C   UNL     1       3.995 -35.118  18.163  1.00  0.00     0.000 C 
BRANCH   7   8
ATOM      8  C   UNL     1       3.804 -35.218  16.631  1.00  0.00     0.000 C 
BRANCH   8   9
ATOM      9  C   UNL     1       2.817 -36.319  16.207  1.00  0.00     0.000 C 
BRANCH   9  10
ATOM     10  C   UNL     1       2.302 -36.117  14.770  1.00  0.00     0.006 C 
BRANCH  10  11
ATOM     11  C   UNL     1       2.587 -37.330  13.875  1.00  0.00     0.053 C 
BRANCH  11  12
ATOM     12  C   UNL     1       3.967 -37.871  14.090  1.00  0.00     0.041 C 
ATOM     13  O   UNL     1       4.973 -37.139  13.894  1.00  0.00    -0.550 OA
ATOM     14  O   UNL     1       4.145 -39.193  14.481  1.00  0.00    -0.550 OA
ENDBRANCH  11  12
ENDBRANCH  10  11
ENDBRANCH   9  10
ENDBRANCH   8   9
ENDBRANCH   7   8
ENDBRANCH   6   7
ENDBRANCH   5   6
ENDBRANCH   4   5
ENDBRANCH   3   4
ENDBRANCH   2   3
ENDBRANCH   1   2
BRANCH   1  15
ATOM     15  C   UNL     1       4.744 -36.967  21.539  1.00  0.00     0.000 C 
BRANCH  15  16
ATOM     16  C   UNL     1       5.177 -37.383  20.124  1.00  0.00     0.000 C 
BRANCH  16  17
ATOM     17  C   UNL     1       4.864 -38.860  19.826  1.00  0.00     0.000 C 
BRANCH  17  18
ATOM     18  C   UNL     1       6.121 -39.745  19.819  1.00  0.00    -0.000 C 
BRANCH  18  19
ATOM     19  C   UNL     1       6.069 -40.860  20.879  1.00  0.00    -0.000 C 
BRANCH  19  20
ATOM     20  C   UNL     1       5.982 -40.304  22.310  1.00  0.00    -0.000 C 
BRANCH  20  21
ATOM     21  C   UNL     1       4.580 -40.471  22.922  1.00  0.00    -0.000 C 
BRANCH  21  22
ATOM     22  C   UNL     1       4.478 -39.897  24.346  1.00  0.00    -0.000 C 
BRANCH  22  23
ATOM     23  C   UNL     1       5.265 -38.595  24.582  1.00  0.00    -0.000 C 
BRANCH  23  24
ATOM     24  C   UNL     1       5.141 -38.072  26.023  1.00  0.00    -0.000 C 
BRANCH  24  25
ATOM     25  C   UNL     1       4.041 -37.007  26.171  1.00  0.00    -0.003 C 
ATOM     26  C   UNL     1       2.838 -37.505  26.972  1.00  0.00     0.004 C 
ENDBRANCH  24  25
ENDBRANCH  23  24
ENDBRANCH  22  23
ENDBRANCH  21  22
ENDBRANCH  20  21
ENDBRANCH  19  20
ENDBRANCH  18  19
ENDBRANCH  17  18
ENDBRANCH  16  17
ENDBRANCH  15  16
ENDBRANCH   1  15
TORSDOF 22
ENDMDL
MODEL 4
REMARK VINA RESULT:     4.463      3.442      7.386
REMARK INTER + INTRA:          10.274
REMARK INTER:                   9.783
REMARK INTRA:                   0.491
REMARK UNBOUND:                 0.071
REMARK SMILES CCCCCCCCCCCCCCCCCCCCCCCC(=O)[O-]
REMARK SMILES IDX 13 1 14 2 15 3 16 4 17 5 18 6 19 7 20 8 21 9 22 10 23 11
REMARK SMILES IDX 24 12 25 13 26 14 12 15 11 16 10 17 9 18 8 19 7 20 6 21 5 22
REMARK SMILES IDX 4 23 3 24 2 25 1 26
REMARK H PARENT
REMARK Flexibility Score: inf
ROOT
ATOM      1  C   UNL     1       6.121 -35.312  22.763  1.00  0.00     0.000 C 
ENDROOT
BRANCH   1   2
ATOM      2  C   UNL     1       5.975 -33.900  23.343  1.00  0.00     0.000 C 
BRANCH   2   3
ATOM      3  C   UNL     1       4.804 -33.152  22.687  1.00  0.00     0.000 C 
BRANCH   3   4
ATOM      4  C   UNL     1       3.803 -34.109  22.005  1.00  0.00     0.000 C 
BRANCH   4   5
ATOM      5  C   UNL     1       3.842 -34.058  20.464  1.00  0.00     0.000 C 
BRANCH   5   6
ATOM      6  C   UNL     1       5.217 -34.347  19.837  1.00  0.00     0.000 C 
BRANCH   6   7
ATOM      7  C   UNL     1       5.180 -34.703  18.339  1.00  0.00     0.000 C 
BRANCH   7   8
ATOM      8  C   UNL     1       3.776 -35.106  17.833  1.00  0.00     0.000 C 
BRANCH   8   9
ATOM      9  C   UNL     1       3.799 -35.849  16.485  1.00  0.00     0.000 C 
BRANCH   9  10
ATOM     10  C   UNL     1       2.420 -35.854  15.800  1.00  0.00     0.006 C 
BRANCH  10  11
ATOM     11  C   UNL     1       2.429 -36.643  14.485  1.00  0.00     0.053 C 
BRANCH  11  12
ATOM     12  C   UNL     1       3.688 -37.437  14.317  1.00  0.00     0.041 C 
ATOM     13  O   UNL     1       4.731 -36.885  13.879  1.00  0.00    -0.550 OA
ATOM     14  O   UNL     1       3.702 -38.794  14.618  1.00  0.00    -0.550 OA
ENDBRANCH  11  12
ENDBRANCH  10  11
ENDBRANCH   9  10
ENDBRANCH   8   9
ENDBRANCH   7   8
ENDBRANCH   6   7
ENDBRANCH   5   6
ENDBRANCH   4   5
ENDBRANCH   3   4
ENDBRANCH   2   3
ENDBRANCH   1   2
BRANCH   1  15
ATOM     15  C   UNL     1       6.124 -36.368  23.878  1.00  0.00     0.000 C 
BRANCH  15  16
ATOM     16  C   UNL     1       5.919 -35.754  25.272  1.00  0.00     0.000 C 
BRANCH  16  17
ATOM     17  C   UNL     1       4.780 -36.437  26.050  1.00  0.00     0.000 C 
BRANCH  17  18
ATOM     18  C   UNL     1       4.102 -37.560  25.250  1.00  0.00    -0.000 C 
BRANCH  18  19
ATOM     19  C   UNL     1       5.107 -38.584  24.692  1.00  0.00    -0.000 C 
BRANCH  19  20
ATOM     20  C   UNL     1       4.452 -39.573  23.714  1.00  0.00    -0.000 C 
BRANCH  20  21
ATOM     21  C   UNL     1       5.465 -40.555  23.102  1.00  0.00    -0.000 C 
BRANCH  21  22
ATOM     22  C   UNL     1       6.097 -40.029  21.800  1.00  0.00    -0.000 C 
BRANCH  22  23
ATOM     23  C   UNL     1       5.196 -40.121  20.556  1.00  0.00    -0.000 C 
BRANCH  23  24
ATOM     24  C   UNL     1       5.430 -38.972  19.560  1.00  0.00    -0.000 C 
BRANCH  24  25
ATOM     25  C   UNL     1       5.140 -37.593  20.172  1.00  0.00    -0.003 C 
ATOM     26  C   UNL     1       4.229 -37.668  21.397  1.00  0.00     0.004 C 
ENDBRANCH  24  25
ENDBRANCH  23  24
ENDBRANCH  22  23
ENDBRANCH  21  22
ENDBRANCH  20  21
ENDBRANCH  19  20
ENDBRANCH  18  19
ENDBRANCH  17  18
ENDBRANCH  16  17
ENDBRANCH  15  16
ENDBRANCH   1  15
TORSDOF 22
ENDMDL
MODEL 5
REMARK VINA RESULT:     4.638      3.858      9.193
REMARK INTER + INTRA:          10.674
REMARK INTER:                  11.992
REMARK INTRA:                  -1.318
REMARK UNBOUND:                 0.071
REMARK SMILES CCCCCCCCCCCCCCCCCCCCCCCC(=O)[O-]
REMARK SMILES IDX 13 1 14 2 15 3 16 4 17 5 18 6 19 7 20 8 21 9 22 10 23 11
REMARK SMILES IDX 24 12 25 13 26 14 12 15 11 16 10 17 9 18 8 19 7 20 6 21 5 22
REMARK SMILES IDX 4 23 3 24 2 25 1 26
REMARK H PARENT
REMARK Flexibility Score: inf
ROOT
ATOM      1  C   UNL     1       4.774 -37.188  21.190  1.00  0.00     0.000 C 
ENDROOT
BRANCH   1   2
ATOM      2  C   UNL     1       5.870 -36.302  21.794  1.00  0.00     0.000 C 
BRANCH   2   3
ATOM      3  C   UNL     1       5.299 -35.381  22.883  1.00  0.00     0.000 C 
BRANCH   3   4
ATOM      4  C   UNL     1       3.893 -34.852  22.527  1.00  0.00     0.000 C 
BRANCH   4   5
ATOM      5  C   UNL     1       3.905 -33.561  21.685  1.00  0.00     0.000 C 
BRANCH   5   6
ATOM      6  C   UNL     1       3.821 -33.775  20.163  1.00  0.00     0.000 C 
BRANCH   6   7
ATOM      7  C   UNL     1       5.150 -34.179  19.496  1.00  0.00     0.000 C 
BRANCH   7   8
ATOM      8  C   UNL     1       5.002 -34.572  18.008  1.00  0.00     0.000 C 
BRANCH   8   9
ATOM      9  C   UNL     1       4.111 -35.806  17.785  1.00  0.00     0.000 C 
BRANCH   9  10
ATOM     10  C   UNL     1       3.241 -35.675  16.522  1.00  0.00     0.006 C 
BRANCH  10  11
ATOM     11  C   UNL     1       3.948 -36.211  15.271  1.00  0.00     0.053 C 
BRANCH  11  12
ATOM     12  C   UNL     1       3.125 -37.240  14.560  1.00  0.00     0.041 C 
ATOM     13  O   UNL     1       3.568 -38.407  14.400  1.00  0.00    -0.550 OA
ATOM     14  O   UNL     1       1.877 -36.902  14.049  1.00  0.00    -0.550 OA
ENDBRANCH  11  12
ENDBRANCH  10  11
ENDBRANCH   9  10
ENDBRANCH   8   9
ENDBRANCH   7   8
ENDBRANCH   6   7
ENDBRANCH   5   6
ENDBRANCH   4   5
ENDBRANCH   3   4
ENDBRANCH   2   3
ENDBRANCH   1   2
BRANCH   1  15
ATOM     15  C   UNL     1       5.341 -38.089  20.085  1.00  0.00     0.000 C 
BRANCH  15  16
ATOM     16  C   UNL     1       5.327 -39.577  20.471  1.00  0.00     0.000 C 
BRANCH  16  17
ATOM     17  C   UNL     1       5.704 -39.803  21.945  1.00  0.00     0.000 C 
BRANCH  17  18
ATOM     18  C   UNL     1       4.513 -39.625  22.899  1.00  0.00    -0.000 C 
BRANCH  18  19
ATOM     19  C   UNL     1       4.939 -39.531  24.375  1.00  0.00    -0.000 C 
BRANCH  19  20
ATOM     20  C   UNL     1       5.264 -38.089  24.799  1.00  0.00    -0.000 C 
BRANCH  20  21
ATOM     21  C   UNL     1       4.752 -37.761  26.211  1.00  0.00    -0.000 C 
BRANCH  21  22
ATOM     22  C   UNL     1       3.296 -37.259  26.218  1.00  0.00    -0.000 C 
BRANCH  22  23
ATOM     23  C   UNL     1       2.506 -37.568  27.502  1.00  0.00    -0.000 C 
BRANCH  23  24
ATOM     24  C   UNL     1       1.587 -36.412  27.933  1.00  0.00    -0.000 C 
BRANCH  24  25
ATOM     25  C   UNL     1       2.367 -35.231  28.533  1.00  0.00    -0.003 C 
ATOM     26  C   UNL     1       1.621 -34.549  29.680  1.00  0.00     0.004 C 
ENDBRANCH  24  25
ENDBRANCH  23  24
ENDBRANCH  22  23
ENDBRANCH  21  22
ENDBRANCH  20  21
ENDBRANCH  19  20
ENDBRANCH  18  19
ENDBRANCH  17  18
ENDBRANCH  16  17
ENDBRANCH  15  16
ENDBRANCH   1  15
TORSDOF 22
ENDMDL
MODEL 6
REMARK VINA RESULT:     5.135      2.360      4.010
REMARK INTER + INTRA:          11.809
REMARK INTER:                  12.489
REMARK INTRA:                  -0.680
REMARK UNBOUND:                 0.071
REMARK SMILES CCCCCCCCCCCCCCCCCCCCCCCC(=O)[O-]
REMARK SMILES IDX 13 1 14 2 15 3 16 4 17 5 18 6 19 7 20 8 21 9 22 10 23 11
REMARK SMILES IDX 24 12 25 13 26 14 12 15 11 16 10 17 9 18 8 19 7 20 6 21 5 22
REMARK SMILES IDX 4 23 3 24 2 25 1 26
REMARK H PARENT
REMARK Flexibility Score: inf
ROOT
ATOM      1  C   UNL     1       3.715 -34.920  22.888  1.00  0.00     0.000 C 
ENDROOT
BRANCH   1   2
ATOM      2  C   UNL     1       4.751 -33.802  22.719  1.00  0.00     0.000 C 
BRANCH   2   3
ATOM      3  C   UNL     1       6.125 -34.236  23.253  1.00  0.00     0.000 C 
BRANCH   3   4
ATOM      4  C   UNL     1       6.084 -34.607  24.750  1.00  0.00     0.000 C 
BRANCH   4   5
ATOM      5  C   UNL     1       6.082 -36.126  25.017  1.00  0.00     0.000 C 
BRANCH   5   6
ATOM      6  C   UNL     1       4.696 -36.738  25.287  1.00  0.00     0.000 C 
BRANCH   6   7
ATOM      7  C   UNL     1       4.707 -37.976  26.204  1.00  0.00     0.000 C 
BRANCH   7   8
ATOM      8  C   UNL     1       3.718 -37.879  27.389  1.00  0.00     0.000 C 
BRANCH   8   9
ATOM      9  C   UNL     1       2.291 -37.490  26.966  1.00  0.00     0.000 C 
BRANCH   9  10
ATOM     10  C   UNL     1       1.564 -36.677  28.052  1.00  0.00     0.006 C 
BRANCH  10  11
ATOM     11  C   UNL     1       2.116 -35.251  28.179  1.00  0.00     0.053 C 
BRANCH  11  12
ATOM     12  C   UNL     1       1.640 -34.576  29.428  1.00  0.00     0.041 C 
ATOM     13  O   UNL     1       0.549 -33.948  29.433  1.00  0.00    -0.550 OA
ATOM     14  O   UNL     1       2.416 -34.617  30.581  1.00  0.00    -0.550 OA
ENDBRANCH  11  12
ENDBRANCH  10  11
ENDBRANCH   9  10
ENDBRANCH   8   9
ENDBRANCH   7   8
ENDBRANCH   6   7
ENDBRANCH   5   6
ENDBRANCH   4   5
ENDBRANCH   3   4
ENDBRANCH   2   3
ENDBRANCH   1   2
BRANCH   1  15
ATOM     15  C   UNL     1       3.855 -35.971  21.778  1.00  0.00     0.000 C 
BRANCH  15  16
ATOM     16  C   UNL     1       5.147 -36.794  21.903  1.00  0.00     0.000 C 
BRANCH  16  17
ATOM     17  C   UNL     1       5.338 -37.767  20.726  1.00  0.00     0.000 C 
BRANCH  17  18
ATOM     18  C   UNL     1       4.991 -37.136  19.369  1.00  0.00    -0.000 C 
BRANCH  18  19
ATOM     19  C   UNL     1       5.583 -35.725  19.200  1.00  0.00    -0.000 C 
BRANCH  19  20
ATOM     20  C   UNL     1       4.721 -34.834  18.290  1.00  0.00    -0.000 C 
BRANCH  20  21
ATOM     21  C   UNL     1       3.572 -35.610  17.623  1.00  0.00    -0.000 C 
BRANCH  21  22
ATOM     22  C   UNL     1       3.469 -35.341  16.111  1.00  0.00    -0.000 C 
BRANCH  22  23
ATOM     23  C   UNL     1       2.600 -36.343  15.329  1.00  0.00    -0.000 C 
BRANCH  23  24
ATOM     24  C   UNL     1       3.148 -36.642  13.923  1.00  0.00    -0.000 C 
BRANCH  24  25
ATOM     25  C   UNL     1       3.991 -37.927  13.880  1.00  0.00    -0.003 C 
ATOM     26  C   UNL     1       3.681 -38.878  15.035  1.00  0.00     0.004 C 
ENDBRANCH  24  25
ENDBRANCH  23  24
ENDBRANCH  22  23
ENDBRANCH  21  22
ENDBRANCH  20  21
ENDBRANCH  19  20
ENDBRANCH  18  19
ENDBRANCH  17  18
ENDBRANCH  16  17
ENDBRANCH  15  16
ENDBRANCH   1  15
TORSDOF 22
ENDMDL
MODEL 7
REMARK VINA RESULT:     5.251      2.982      8.356
REMARK INTER + INTRA:          12.075
REMARK INTER:                  13.424
REMARK INTRA:                  -1.349
REMARK UNBOUND:                 0.071
REMARK SMILES CCCCCCCCCCCCCCCCCCCCCCCC(=O)[O-]
REMARK SMILES IDX 13 1 14 2 15 3 16 4 17 5 18 6 19 7 20 8 21 9 22 10 23 11
REMARK SMILES IDX 24 12 25 13 26 14 12 15 11 16 10 17 9 18 8 19 7 20 6 21 5 22
REMARK SMILES IDX 4 23 3 24 2 25 1 26
REMARK H PARENT
REMARK Flexibility Score: inf
ROOT
ATOM      1  C   UNL     1       5.372 -33.373  22.986  1.00  0.00     0.000 C 
ENDROOT
BRANCH   1   2
ATOM      2  C   UNL     1       4.178 -34.167  22.443  1.00  0.00     0.000 C 
BRANCH   2   3
ATOM      3  C   UNL     1       4.124 -34.104  20.909  1.00  0.00     0.000 C 
BRANCH   3   4
ATOM      4  C   UNL     1       5.521 -34.238  20.266  1.00  0.00     0.000 C 
BRANCH   4   5
ATOM      5  C   UNL     1       5.527 -34.037  18.737  1.00  0.00     0.000 C 
BRANCH   5   6
ATOM      6  C   UNL     1       4.329 -34.655  17.994  1.00  0.00     0.000 C 
BRANCH   6   7
ATOM      7  C   UNL     1       4.222 -36.188  18.110  1.00  0.00     0.000 C 
BRANCH   7   8
ATOM      8  C   UNL     1       5.173 -36.798  19.165  1.00  0.00     0.000 C 
BRANCH   8   9
ATOM      9  C   UNL     1       4.826 -38.250  19.539  1.00  0.00     0.000 C 
BRANCH   9  10
ATOM     10  C   UNL     1       4.291 -38.369  20.977  1.00  0.00     0.006 C 
BRANCH  10  11
ATOM     11  C   UNL     1       5.404 -38.681  21.986  1.00  0.00     0.053 C 
BRANCH  11  12
ATOM     12  C   UNL     1       5.450 -40.136  22.335  1.00  0.00     0.041 C 
ATOM     13  O   UNL     1       5.033 -40.534  23.454  1.00  0.00    -0.550 OA
ATOM     14  O   UNL     1       5.980 -41.052  21.434  1.00  0.00    -0.550 OA
ENDBRANCH  11  12
ENDBRANCH  10  11
ENDBRANCH   9  10
ENDBRANCH   8   9
ENDBRANCH   7   8
ENDBRANCH   6   7
ENDBRANCH   5   6
ENDBRANCH   4   5
ENDBRANCH   3   4
ENDBRANCH   2   3
ENDBRANCH   1   2
BRANCH   1  15
ATOM     15  C   UNL     1       6.123 -34.174  24.060  1.00  0.00     0.000 C 
BRANCH  15  16
ATOM     16  C   UNL     1       6.125 -35.685  23.775  1.00  0.00     0.000 C 
BRANCH  16  17
ATOM     17  C   UNL     1       6.082 -36.524  25.065  1.00  0.00     0.000 C 
BRANCH  17  18
ATOM     18  C   UNL     1       4.655 -36.936  25.460  1.00  0.00    -0.000 C 
BRANCH  18  19
ATOM     19  C   UNL     1       4.625 -38.171  26.378  1.00  0.00    -0.000 C 
BRANCH  19  20
ATOM     20  C   UNL     1       3.465 -38.122  27.385  1.00  0.00    -0.000 C 
BRANCH  20  21
ATOM     21  C   UNL     1       2.111 -37.834  26.713  1.00  0.00    -0.000 C 
BRANCH  21  22
ATOM     22  C   UNL     1       1.344 -36.680  27.383  1.00  0.00    -0.000 C 
BRANCH  22  23
ATOM     23  C   UNL     1       2.068 -36.018  28.569  1.00  0.00    -0.000 C 
BRANCH  23  24
ATOM     24  C   UNL     1       1.144 -35.121  29.411  1.00  0.00    -0.000 C 
BRANCH  24  25
ATOM     25  C   UNL     1       1.816 -33.800  29.819  1.00  0.00    -0.003 C 
ATOM     26  C   UNL     1       2.400 -33.845  31.231  1.00  0.00     0.004 C 
ENDBRANCH  24  25
ENDBRANCH  23  24
ENDBRANCH  22  23
ENDBRANCH  21  22
ENDBRANCH  20  21
ENDBRANCH  19  20
ENDBRANCH  18  19
ENDBRANCH  17  18
ENDBRANCH  16  17
ENDBRANCH  15  16
ENDBRANCH   1  15
TORSDOF 22
ENDMDL
