MODEL 1
REMARK VINA RESULT:    -8.101      0.000      0.000
REMARK INTER + INTRA:         -10.358
REMARK INTER:                  -9.995
REMARK INTRA:                  -0.363
REMARK UNBOUND:                -0.363
REMARK SMILES O=c1c(O)c(-c2cc(O)c(O)c(O)c2)oc2cc(O)cc(O)c12
REMARK SMILES IDX 5 1 3 2 2 3 1 4 23 5 21 6 20 7 18 8 17 9 16 10 15 11 6 12
REMARK SMILES IDX 7 13 8 14 14 15 10 16 12 17 9 18 11 20 13 22 4 24 22 26
REMARK SMILES IDX 19 28
REMARK H PARENT 9 19 11 21 13 23 4 25 22 27 19 29
REMARK Flexibility Score: inf
ROOT
ATOM      1  C   UNL     1      80.559 -26.849  84.748  1.00  0.00     0.180 A 
ATOM      2  C   UNL     1      81.874 -27.255  85.032  1.00  0.00     0.208 A 
ATOM      3  C   UNL     1      82.590 -26.588  86.038  1.00  0.00     0.238 A 
ATOM      4  O   UNL     1      83.785 -26.920  86.251  1.00  0.00    -0.285 OA
ATOM      5  C   UNL     1      81.979 -25.533  86.757  1.00  0.00     0.111 A 
ATOM      6  C   UNL     1      82.596 -24.813  87.824  1.00  0.00     0.134 A 
ATOM      7  C   UNL     1      81.946 -23.703  88.376  1.00  0.00     0.093 A 
ATOM      8  C   UNL     1      80.673 -23.327  87.947  1.00  0.00     0.123 A 
ATOM      9  C   UNL     1      80.034 -24.060  86.945  1.00  0.00     0.094 A 
ATOM     10  C   UNL     1      80.673 -25.151  86.350  1.00  0.00     0.146 A 
ATOM     11  O   UNL     1      80.035 -25.814  85.394  1.00  0.00    -0.452 OA
ENDROOT
BRANCH   1  12
ATOM     12  C   UNL     1      79.733 -27.521  83.719  1.00  0.00     0.029 A 
ATOM     13  C   UNL     1      79.756 -27.048  82.397  1.00  0.00     0.062 A 
ATOM     14  C   UNL     1      78.967 -27.653  81.408  1.00  0.00     0.162 A 
ATOM     15  C   UNL     1      78.880 -28.589  84.048  1.00  0.00     0.062 A 
ATOM     16  C   UNL     1      78.133 -28.733  81.743  1.00  0.00     0.200 A 
ATOM     17  C   UNL     1      78.087 -29.196  83.064  1.00  0.00     0.162 A 
BRANCH  14  18
ATOM     18  O   UNL     1      79.009 -27.184  80.096  1.00  0.00    -0.504 OA
ATOM     19  H   UNL     1      79.654 -27.568  79.415  1.00  0.00     0.293 HD
ENDBRANCH  14  18
BRANCH  16  20
ATOM     20  O   UNL     1      77.340 -29.353  80.776  1.00  0.00    -0.502 OA
ATOM     21  H   UNL     1      77.169 -28.934  79.870  1.00  0.00     0.293 HD
ENDBRANCH  16  20
BRANCH  17  22
ATOM     22  O   UNL     1      77.248 -30.259  83.393  1.00  0.00    -0.504 OA
ATOM     23  H   UNL     1      76.308 -30.104  83.740  1.00  0.00     0.293 HD
ENDBRANCH  17  22
ENDBRANCH   1  12
BRANCH   2  24
ATOM     24  O   UNL     1      82.467 -28.284  84.295  1.00  0.00    -0.502 OA
ATOM     25  H   UNL     1      82.749 -28.170  83.329  1.00  0.00     0.293 HD
ENDBRANCH   2  24
BRANCH   6  26
ATOM     26  O   UNL     1      83.826 -25.162  88.390  1.00  0.00    -0.507 OA
ATOM     27  H   UNL     1      84.031 -25.138  89.377  1.00  0.00     0.293 HD
ENDBRANCH   6  26
BRANCH   8  28
ATOM     28  O   UNL     1      80.048 -22.226  88.530  1.00  0.00    -0.508 OA
ATOM     29  H   UNL     1      80.577 -21.520  89.028  1.00  0.00     0.293 HD
ENDBRANCH   8  28
TORSDOF 7
ENDMDL
MODEL 2
REMARK VINA RESULT:    -8.005      3.268      4.715
REMARK INTER + INTRA:         -10.240
REMARK INTER:                  -9.938
REMARK INTRA:                  -0.302
REMARK UNBOUND:                -0.363
REMARK SMILES O=c1c(O)c(-c2cc(O)c(O)c(O)c2)oc2cc(O)cc(O)c12
REMARK SMILES IDX 5 1 3 2 2 3 1 4 23 5 21 6 20 7 18 8 17 9 16 10 15 11 6 12
REMARK SMILES IDX 7 13 8 14 14 15 10 16 12 17 9 18 11 20 13 22 4 24 22 26
REMARK SMILES IDX 19 28
REMARK H PARENT 9 19 11 21 13 23 4 25 22 27 19 29
REMARK Flexibility Score: inf
ROOT
ATOM      1  C   UNL     1      79.029 -25.721  86.340  1.00  0.00     0.180 A 
ATOM      2  C   UNL     1      79.624 -24.644  87.020  1.00  0.00     0.208 A 
ATOM      3  C   UNL     1      81.021 -24.609  87.148  1.00  0.00     0.238 A 
ATOM      4  O   UNL     1      81.545 -23.671  87.804  1.00  0.00    -0.285 OA
ATOM      5  C   UNL     1      81.807 -25.642  86.583  1.00  0.00     0.111 A 
ATOM      6  C   UNL     1      83.233 -25.687  86.618  1.00  0.00     0.134 A 
ATOM      7  C   UNL     1      83.900 -26.823  86.141  1.00  0.00     0.093 A 
ATOM      8  C   UNL     1      83.198 -27.883  85.570  1.00  0.00     0.123 A 
ATOM      9  C   UNL     1      81.806 -27.824  85.477  1.00  0.00     0.094 A 
ATOM     10  C   UNL     1      81.110 -26.720  85.977  1.00  0.00     0.146 A 
ATOM     11  O   UNL     1      79.787 -26.708  85.878  1.00  0.00    -0.452 OA
ENDROOT
BRANCH   1  12
ATOM     12  C   UNL     1      77.564 -25.814  86.143  1.00  0.00     0.029 A 
ATOM     13  C   UNL     1      77.011 -25.466  84.900  1.00  0.00     0.062 A 
ATOM     14  C   UNL     1      75.626 -25.525  84.693  1.00  0.00     0.162 A 
ATOM     15  C   UNL     1      76.707 -26.188  87.192  1.00  0.00     0.062 A 
ATOM     16  C   UNL     1      74.778 -25.920  85.742  1.00  0.00     0.200 A 
ATOM     17  C   UNL     1      75.320 -26.246  86.991  1.00  0.00     0.162 A 
BRANCH  14  18
ATOM     18  O   UNL     1      75.090 -25.192  83.450  1.00  0.00    -0.504 OA
ATOM     19  H   UNL     1      75.651 -24.751  82.730  1.00  0.00     0.293 HD
ENDBRANCH  14  18
BRANCH  16  20
ATOM     20  O   UNL     1      73.397 -25.988  85.560  1.00  0.00    -0.502 OA
ATOM     21  H   UNL     1      72.789 -26.467  86.214  1.00  0.00     0.293 HD
ENDBRANCH  16  20
BRANCH  17  22
ATOM     22  O   UNL     1      74.474 -26.624  88.032  1.00  0.00    -0.504 OA
ATOM     23  H   UNL     1      74.836 -26.993  88.903  1.00  0.00     0.293 HD
ENDBRANCH  17  22
ENDBRANCH   1  12
BRANCH   2  24
ATOM     24  O   UNL     1      78.828 -23.646  87.589  1.00  0.00    -0.502 OA
ATOM     25  H   UNL     1      78.661 -23.586  88.587  1.00  0.00     0.293 HD
ENDBRANCH   2  24
BRANCH   6  26
ATOM     26  O   UNL     1      84.036 -24.641  87.083  1.00  0.00    -0.507 OA
ATOM     27  H   UNL     1      84.795 -24.227  86.565  1.00  0.00     0.293 HD
ENDBRANCH   6  26
BRANCH   8  28
ATOM     28  O   UNL     1      83.895 -28.991  85.091  1.00  0.00    -0.508 OA
ATOM     29  H   UNL     1      84.759 -28.889  84.572  1.00  0.00     0.293 HD
ENDBRANCH   8  28
TORSDOF 7
ENDMDL
MODEL 3
REMARK VINA RESULT:    -7.989      3.350      4.445
REMARK INTER + INTRA:         -10.219
REMARK INTER:                 -10.020
REMARK INTRA:                  -0.199
REMARK UNBOUND:                -0.363
REMARK SMILES O=c1c(O)c(-c2cc(O)c(O)c(O)c2)oc2cc(O)cc(O)c12
REMARK SMILES IDX 5 1 3 2 2 3 1 4 23 5 21 6 20 7 18 8 17 9 16 10 15 11 6 12
REMARK SMILES IDX 7 13 8 14 14 15 10 16 12 17 9 18 11 20 13 22 4 24 22 26
REMARK SMILES IDX 19 28
REMARK H PARENT 9 19 11 21 13 23 4 25 22 27 19 29
REMARK Flexibility Score: inf
ROOT
ATOM      1  C   UNL     1      78.634 -26.412  85.309  1.00  0.00     0.180 A 
ATOM      2  C   UNL     1      79.192 -27.496  84.609  1.00  0.00     0.208 A 
ATOM      3  C   UNL     1      80.585 -27.669  84.619  1.00  0.00     0.238 A 
ATOM      4  O   UNL     1      81.083 -28.608  83.947  1.00  0.00    -0.285 OA
ATOM      5  C   UNL     1      81.402 -26.765  85.341  1.00  0.00     0.111 A 
ATOM      6  C   UNL     1      82.821 -26.868  85.454  1.00  0.00     0.134 A 
ATOM      7  C   UNL     1      83.540 -25.844  86.084  1.00  0.00     0.093 A 
ATOM      8  C   UNL     1      82.886 -24.758  86.664  1.00  0.00     0.123 A 
ATOM      9  C   UNL     1      81.494 -24.678  86.613  1.00  0.00     0.094 A 
ATOM     10  C   UNL     1      80.752 -25.665  85.958  1.00  0.00     0.146 A 
ATOM     11  O   UNL     1      79.431 -25.545  85.923  1.00  0.00    -0.452 OA
ENDROOT
BRANCH   1  12
ATOM     12  C   UNL     1      77.173 -26.180  85.365  1.00  0.00     0.029 A 
ATOM     13  C   UNL     1      76.495 -26.339  86.585  1.00  0.00     0.062 A 
ATOM     14  C   UNL     1      75.108 -26.146  86.661  1.00  0.00     0.162 A 
ATOM     15  C   UNL     1      76.438 -25.860  84.211  1.00  0.00     0.062 A 
ATOM     16  C   UNL     1      74.385 -25.806  85.505  1.00  0.00     0.200 A 
ATOM     17  C   UNL     1      75.052 -25.668  84.281  1.00  0.00     0.162 A 
BRANCH  14  18
ATOM     18  O   UNL     1      74.448 -26.292  87.880  1.00  0.00    -0.504 OA
ATOM     19  H   UNL     1      74.952 -26.301  88.759  1.00  0.00     0.293 HD
ENDBRANCH  14  18
BRANCH  16  20
ATOM     20  O   UNL     1      73.005 -25.607  85.556  1.00  0.00    -0.502 OA
ATOM     21  H   UNL     1      72.346 -26.365  85.434  1.00  0.00     0.293 HD
ENDBRANCH  16  20
BRANCH  17  22
ATOM     22  O   UNL     1      74.327 -25.344  83.135  1.00  0.00    -0.504 OA
ATOM     23  H   UNL     1      73.910 -24.429  83.012  1.00  0.00     0.293 HD
ENDBRANCH  17  22
ENDBRANCH   1  12
BRANCH   2  24
ATOM     24  O   UNL     1      78.370 -28.363  83.885  1.00  0.00    -0.502 OA
ATOM     25  H   UNL     1      77.705 -28.983  84.332  1.00  0.00     0.293 HD
ENDBRANCH   2  24
BRANCH   6  26
ATOM     26  O   UNL     1      83.564 -27.957  84.990  1.00  0.00    -0.507 OA
ATOM     27  H   UNL     1      84.507 -27.901  84.637  1.00  0.00     0.293 HD
ENDBRANCH   6  26
BRANCH   8  28
ATOM     28  O   UNL     1      83.632 -23.765  87.298  1.00  0.00    -0.508 OA
ATOM     29  H   UNL     1      83.187 -23.021  87.821  1.00  0.00     0.293 HD
ENDBRANCH   8  28
TORSDOF 7
ENDMDL
MODEL 4
REMARK VINA RESULT:    -7.902      1.226      2.909
REMARK INTER + INTRA:         -10.112
REMARK INTER:                  -9.951
REMARK INTRA:                  -0.161
REMARK UNBOUND:                -0.363
REMARK SMILES O=c1c(O)c(-c2cc(O)c(O)c(O)c2)oc2cc(O)cc(O)c12
REMARK SMILES IDX 5 1 3 2 2 3 1 4 23 5 21 6 20 7 18 8 17 9 16 10 15 11 6 12
REMARK SMILES IDX 7 13 8 14 14 15 10 16 12 17 9 18 11 20 13 22 4 24 22 26
REMARK SMILES IDX 19 28
REMARK H PARENT 9 19 11 21 13 23 4 25 22 27 19 29
REMARK Flexibility Score: inf
ROOT
ATOM      1  C   UNL     1      79.364 -26.142  84.773  1.00  0.00     0.180 A 
ATOM      2  C   UNL     1      78.418 -25.297  85.379  1.00  0.00     0.208 A 
ATOM      3  C   UNL     1      78.822 -24.476  86.443  1.00  0.00     0.238 A 
ATOM      4  O   UNL     1      77.959 -23.762  87.016  1.00  0.00    -0.285 OA
ATOM      5  C   UNL     1      80.168 -24.498  86.879  1.00  0.00     0.111 A 
ATOM      6  C   UNL     1      80.697 -23.679  87.922  1.00  0.00     0.134 A 
ATOM      7  C   UNL     1      82.012 -23.879  88.358  1.00  0.00     0.093 A 
ATOM      8  C   UNL     1      82.839 -24.820  87.745  1.00  0.00     0.123 A 
ATOM      9  C   UNL     1      82.351 -25.585  86.684  1.00  0.00     0.094 A 
ATOM     10  C   UNL     1      81.031 -25.434  86.251  1.00  0.00     0.146 A 
ATOM     11  O   UNL     1      80.603 -26.188  85.247  1.00  0.00    -0.452 OA
ENDROOT
BRANCH   1  12
ATOM     12  C   UNL     1      79.019 -27.017  83.629  1.00  0.00     0.029 A 
ATOM     13  C   UNL     1      79.617 -26.788  82.379  1.00  0.00     0.062 A 
ATOM     14  C   UNL     1      79.292 -27.589  81.275  1.00  0.00     0.162 A 
ATOM     15  C   UNL     1      78.062 -28.038  83.752  1.00  0.00     0.062 A 
ATOM     16  C   UNL     1      78.348 -28.620  81.413  1.00  0.00     0.200 A 
ATOM     17  C   UNL     1      77.731 -28.840  82.651  1.00  0.00     0.162 A 
BRANCH  14  18
ATOM     18  O   UNL     1      79.903 -27.361  80.043  1.00  0.00    -0.504 OA
ATOM     19  H   UNL     1      80.862 -27.635  79.867  1.00  0.00     0.293 HD
ENDBRANCH  14  18
BRANCH  16  20
ATOM     20  O   UNL     1      78.010 -29.432  80.329  1.00  0.00    -0.502 OA
ATOM     21  H   UNL     1      77.385 -29.120  79.596  1.00  0.00     0.293 HD
ENDBRANCH  16  20
BRANCH  17  22
ATOM     22  O   UNL     1      76.786 -29.856  82.778  1.00  0.00    -0.504 OA
ATOM     23  H   UNL     1      76.706 -30.403  83.627  1.00  0.00     0.293 HD
ENDBRANCH  17  22
ENDBRANCH   1  12
BRANCH   2  24
ATOM     24  O   UNL     1      77.089 -25.306  84.947  1.00  0.00    -0.502 OA
ATOM     25  H   UNL     1      76.375 -24.725  85.370  1.00  0.00     0.293 HD
ENDBRANCH   2  24
BRANCH   6  26
ATOM     26  O   UNL     1      79.985 -22.646  88.539  1.00  0.00    -0.507 OA
ATOM     27  H   UNL     1      79.007 -22.687  88.779  1.00  0.00     0.293 HD
ENDBRANCH   6  26
BRANCH   8  28
ATOM     28  O   UNL     1      84.148 -24.981  88.193  1.00  0.00    -0.508 OA
ATOM     29  H   UNL     1      84.367 -25.039  89.181  1.00  0.00     0.293 HD
ENDBRANCH   8  28
TORSDOF 7
ENDMDL
MODEL 5
REMARK VINA RESULT:    -7.817      1.385      3.327
REMARK INTER + INTRA:         -10.007
REMARK INTER:                 -10.063
REMARK INTRA:                   0.056
REMARK UNBOUND:                -0.363
REMARK SMILES O=c1c(O)c(-c2cc(O)c(O)c(O)c2)oc2cc(O)cc(O)c12
REMARK SMILES IDX 5 1 3 2 2 3 1 4 23 5 21 6 20 7 18 8 17 9 16 10 15 11 6 12
REMARK SMILES IDX 7 13 8 14 14 15 10 16 12 17 9 18 11 20 13 22 4 24 22 26
REMARK SMILES IDX 19 28
REMARK H PARENT 9 19 11 21 13 23 4 25 22 27 19 29
REMARK Flexibility Score: inf
ROOT
ATOM      1  C   UNL     1      79.471 -26.286  84.360  1.00  0.00     0.180 A 
ATOM      2  C   UNL     1      78.598 -25.490  85.122  1.00  0.00     0.208 A 
ATOM      3  C   UNL     1      79.129 -24.675  86.135  1.00  0.00     0.238 A 
ATOM      4  O   UNL     1      78.338 -24.006  86.848  1.00  0.00    -0.285 OA
ATOM      5  C   UNL     1      80.526 -24.654  86.363  1.00  0.00     0.111 A 
ATOM      6  C   UNL     1      81.176 -23.836  87.335  1.00  0.00     0.134 A 
ATOM      7  C   UNL     1      82.549 -23.993  87.563  1.00  0.00     0.093 A 
ATOM      8  C   UNL     1      83.306 -24.889  86.809  1.00  0.00     0.123 A 
ATOM      9  C   UNL     1      82.691 -25.652  85.815  1.00  0.00     0.094 A 
ATOM     10  C   UNL     1      81.316 -25.543  85.589  1.00  0.00     0.146 A 
ATOM     11  O   UNL     1      80.769 -26.294  84.641  1.00  0.00    -0.452 OA
ENDROOT
BRANCH   1  12
ATOM     12  C   UNL     1      78.989 -27.151  83.260  1.00  0.00     0.029 A 
ATOM     13  C   UNL     1      77.891 -27.999  83.479  1.00  0.00     0.062 A 
ATOM     14  C   UNL     1      77.428 -28.844  82.460  1.00  0.00     0.162 A 
ATOM     15  C   UNL     1      79.642 -27.185  82.016  1.00  0.00     0.062 A 
ATOM     16  C   UNL     1      78.074 -28.856  81.213  1.00  0.00     0.200 A 
ATOM     17  C   UNL     1      79.184 -28.029  80.995  1.00  0.00     0.162 A 
BRANCH  14  18
ATOM     18  O   UNL     1      76.328 -29.671  82.685  1.00  0.00    -0.504 OA
ATOM     19  H   UNL     1      76.208 -30.543  82.184  1.00  0.00     0.293 HD
ENDBRANCH  14  18
BRANCH  16  20
ATOM     20  O   UNL     1      77.630 -29.687  80.184  1.00  0.00    -0.502 OA
ATOM     21  H   UNL     1      77.878 -30.668  80.137  1.00  0.00     0.293 HD
ENDBRANCH  16  20
BRANCH  17  22
ATOM     22  O   UNL     1      79.830 -28.056  79.760  1.00  0.00    -0.504 OA
ATOM     23  H   UNL     1      80.486 -27.332  79.489  1.00  0.00     0.293 HD
ENDBRANCH  17  22
ENDBRANCH   1  12
BRANCH   2  24
ATOM     24  O   UNL     1      77.220 -25.542  84.895  1.00  0.00    -0.502 OA
ATOM     25  H   UNL     1      76.548 -25.635  85.647  1.00  0.00     0.293 HD
ENDBRANCH   2  24
BRANCH   6  26
ATOM     26  O   UNL     1      80.530 -22.843  88.078  1.00  0.00    -0.507 OA
ATOM     27  H   UNL     1      80.008 -23.008  88.924  1.00  0.00     0.293 HD
ENDBRANCH   6  26
BRANCH   8  28
ATOM     28  O   UNL     1      84.673 -25.009  87.052  1.00  0.00    -0.508 OA
ATOM     29  H   UNL     1      85.134 -24.462  87.770  1.00  0.00     0.293 HD
ENDBRANCH   8  28
TORSDOF 7
ENDMDL
MODEL 6
REMARK VINA RESULT:    -7.225      2.641      7.123
REMARK INTER + INTRA:          -9.277
REMARK INTER:                  -8.973
REMARK INTRA:                  -0.304
REMARK UNBOUND:                -0.363
REMARK SMILES O=c1c(O)c(-c2cc(O)c(O)c(O)c2)oc2cc(O)cc(O)c12
REMARK SMILES IDX 5 1 3 2 2 3 1 4 23 5 21 6 20 7 18 8 17 9 16 10 15 11 6 12
REMARK SMILES IDX 7 13 8 14 14 15 10 16 12 17 9 18 11 20 13 22 4 24 22 26
REMARK SMILES IDX 19 28
REMARK H PARENT 9 19 11 21 13 23 4 25 22 27 19 29
REMARK Flexibility Score: inf
ROOT
ATOM      1  C   UNL     1      82.267 -25.498  87.261  1.00  0.00     0.180 A 
ATOM      2  C   UNL     1      82.231 -26.745  86.613  1.00  0.00     0.208 A 
ATOM      3  C   UNL     1      81.039 -27.156  85.994  1.00  0.00     0.238 A 
ATOM      4  O   UNL     1      80.996 -28.295  85.462  1.00  0.00    -0.285 OA
ATOM      5  C   UNL     1      79.904 -26.311  86.020  1.00  0.00     0.111 A 
ATOM      6  C   UNL     1      78.657 -26.608  85.392  1.00  0.00     0.134 A 
ATOM      7  C   UNL     1      77.563 -25.758  85.592  1.00  0.00     0.093 A 
ATOM      8  C   UNL     1      77.687 -24.588  86.341  1.00  0.00     0.123 A 
ATOM      9  C   UNL     1      78.918 -24.257  86.910  1.00  0.00     0.094 A 
ATOM     10  C   UNL     1      80.019 -25.104  86.758  1.00  0.00     0.146 A 
ATOM     11  O   UNL     1      81.168 -24.757  87.324  1.00  0.00    -0.452 OA
ENDROOT
BRANCH   1  12
ATOM     12  C   UNL     1      83.494 -24.986  87.913  1.00  0.00     0.029 A 
ATOM     13  C   UNL     1      84.541 -24.489  87.120  1.00  0.00     0.062 A 
ATOM     14  C   UNL     1      85.722 -24.018  87.711  1.00  0.00     0.162 A 
ATOM     15  C   UNL     1      83.659 -25.039  89.307  1.00  0.00     0.062 A 
ATOM     16  C   UNL     1      85.869 -24.056  89.107  1.00  0.00     0.200 A 
ATOM     17  C   UNL     1      84.838 -24.571  89.903  1.00  0.00     0.162 A 
BRANCH  14  18
ATOM     18  O   UNL     1      86.749 -23.513  86.914  1.00  0.00    -0.504 OA
ATOM     19  H   UNL     1      86.867 -23.806  85.951  1.00  0.00     0.293 HD
ENDBRANCH  14  18
BRANCH  16  20
ATOM     20  O   UNL     1      87.034 -23.591  89.718  1.00  0.00    -0.502 OA
ATOM     21  H   UNL     1      87.950 -23.946  89.474  1.00  0.00     0.293 HD
ENDBRANCH  16  20
BRANCH  17  22
ATOM     22  O   UNL     1      84.995 -24.620  91.287  1.00  0.00    -0.504 OA
ATOM     23  H   UNL     1      84.618 -23.897  91.889  1.00  0.00     0.293 HD
ENDBRANCH  17  22
ENDBRANCH   1  12
BRANCH   2  24
ATOM     24  O   UNL     1      83.356 -27.573  86.618  1.00  0.00    -0.502 OA
ATOM     25  H   UNL     1      83.564 -28.204  87.384  1.00  0.00     0.293 HD
ENDBRANCH   2  24
BRANCH   6  26
ATOM     26  O   UNL     1      78.451 -27.703  84.547  1.00  0.00    -0.507 OA
ATOM     27  H   UNL     1      78.752 -28.645  84.744  1.00  0.00     0.293 HD
ENDBRANCH   6  26
BRANCH   8  28
ATOM     28  O   UNL     1      76.581 -23.757  86.506  1.00  0.00    -0.508 OA
ATOM     29  H   UNL     1      75.710 -23.930  86.018  1.00  0.00     0.293 HD
ENDBRANCH   8  28
TORSDOF 7
ENDMDL
MODEL 7
REMARK VINA RESULT:    -7.031      2.492      6.709
REMARK INTER + INTRA:          -9.038
REMARK INTER:                  -9.197
REMARK INTRA:                   0.159
REMARK UNBOUND:                -0.363
REMARK SMILES O=c1c(O)c(-c2cc(O)c(O)c(O)c2)oc2cc(O)cc(O)c12
REMARK SMILES IDX 5 1 3 2 2 3 1 4 23 5 21 6 20 7 18 8 17 9 16 10 15 11 6 12
REMARK SMILES IDX 7 13 8 14 14 15 10 16 12 17 9 18 11 20 13 22 4 24 22 26
REMARK SMILES IDX 19 28
REMARK H PARENT 9 19 11 21 13 23 4 25 22 27 19 29
REMARK Flexibility Score: inf
ROOT
ATOM      1  C   UNL     1      80.128 -26.132  85.685  1.00  0.00     0.180 A 
ATOM      2  C   UNL     1      80.094 -27.304  84.908  1.00  0.00     0.208 A 
ATOM      3  C   UNL     1      78.903 -27.651  84.252  1.00  0.00     0.238 A 
ATOM      4  O   UNL     1      78.863 -28.728  83.602  1.00  0.00    -0.285 OA
ATOM      5  C   UNL     1      77.765 -26.818  84.369  1.00  0.00     0.111 A 
ATOM      6  C   UNL     1      76.518 -27.052  83.716  1.00  0.00     0.134 A 
ATOM      7  C   UNL     1      75.421 -26.232  84.007  1.00  0.00     0.093 A 
ATOM      8  C   UNL     1      75.542 -25.148  84.875  1.00  0.00     0.123 A 
ATOM      9  C   UNL     1      76.773 -24.873  85.474  1.00  0.00     0.094 A 
ATOM     10  C   UNL     1      77.877 -25.695  85.231  1.00  0.00     0.146 A 
ATOM     11  O   UNL     1      79.026 -25.406  85.828  1.00  0.00    -0.452 OA
ENDROOT
BRANCH   1  12
ATOM     12  C   UNL     1      81.355 -25.687  86.385  1.00  0.00     0.029 A 
ATOM     13  C   UNL     1      81.243 -24.993  87.601  1.00  0.00     0.062 A 
ATOM     14  C   UNL     1      82.387 -24.542  88.273  1.00  0.00     0.162 A 
ATOM     15  C   UNL     1      82.629 -25.894  85.830  1.00  0.00     0.062 A 
ATOM     16  C   UNL     1      83.659 -24.771  87.721  1.00  0.00     0.200 A 
ATOM     17  C   UNL     1      83.777 -25.443  86.497  1.00  0.00     0.162 A 
BRANCH  14  18
ATOM     18  O   UNL     1      82.264 -23.867  89.487  1.00  0.00    -0.504 OA
ATOM     19  H   UNL     1      81.932 -22.911  89.531  1.00  0.00     0.293 HD
ENDBRANCH  14  18
BRANCH  16  20
ATOM     20  O   UNL     1      84.812 -24.334  88.372  1.00  0.00    -0.502 OA
ATOM     21  H   UNL     1      85.040 -23.352  88.464  1.00  0.00     0.293 HD
ENDBRANCH  16  20
BRANCH  17  22
ATOM     22  O   UNL     1      85.040 -25.655  85.947  1.00  0.00    -0.504 OA
ATOM     23  H   UNL     1      85.834 -25.906  86.524  1.00  0.00     0.293 HD
ENDBRANCH  17  22
ENDBRANCH   1  12
BRANCH   2  24
ATOM     24  O   UNL     1      81.222 -28.124  84.824  1.00  0.00    -0.502 OA
ATOM     25  H   UNL     1      81.166 -29.134  84.868  1.00  0.00     0.293 HD
ENDBRANCH   2  24
BRANCH   6  26
ATOM     26  O   UNL     1      76.313 -28.052  82.760  1.00  0.00    -0.507 OA
ATOM     27  H   UNL     1      76.807 -28.118  81.884  1.00  0.00     0.293 HD
ENDBRANCH   6  26
BRANCH   8  28
ATOM     28  O   UNL     1      74.433 -24.343  85.130  1.00  0.00    -0.508 OA
ATOM     29  H   UNL     1      73.690 -24.235  84.451  1.00  0.00     0.293 HD
ENDBRANCH   8  28
TORSDOF 7
ENDMDL
MODEL 8
REMARK VINA RESULT:    -6.989      1.818      7.186
REMARK INTER + INTRA:          -8.986
REMARK INTER:                  -8.623
REMARK INTRA:                  -0.363
REMARK UNBOUND:                -0.363
REMARK SMILES O=c1c(O)c(-c2cc(O)c(O)c(O)c2)oc2cc(O)cc(O)c12
REMARK SMILES IDX 5 1 3 2 2 3 1 4 23 5 21 6 20 7 18 8 17 9 16 10 15 11 6 12
REMARK SMILES IDX 7 13 8 14 14 15 10 16 12 17 9 18 11 20 13 22 4 24 22 26
REMARK SMILES IDX 19 28
REMARK H PARENT 9 19 11 21 13 23 4 25 22 27 19 29
REMARK Flexibility Score: inf
ROOT
ATOM      1  C   UNL     1      80.221 -26.251  85.494  1.00  0.00     0.180 A 
ATOM      2  C   UNL     1      78.883 -26.093  85.897  1.00  0.00     0.208 A 
ATOM      3  C   UNL     1      77.860 -26.573  85.064  1.00  0.00     0.238 A 
ATOM      4  O   UNL     1      76.664 -26.381  85.404  1.00  0.00    -0.285 OA
ATOM      5  C   UNL     1      78.187 -27.218  83.847  1.00  0.00     0.111 A 
ATOM      6  C   UNL     1      77.233 -27.779  82.946  1.00  0.00     0.134 A 
ATOM      7  C   UNL     1      77.661 -28.277  81.709  1.00  0.00     0.093 A 
ATOM      8  C   UNL     1      79.013 -28.297  81.369  1.00  0.00     0.123 A 
ATOM      9  C   UNL     1      79.961 -27.805  82.269  1.00  0.00     0.094 A 
ATOM     10  C   UNL     1      79.561 -27.268  83.495  1.00  0.00     0.146 A 
ATOM     11  O   UNL     1      80.493 -26.802  84.317  1.00  0.00    -0.452 OA
ENDROOT
BRANCH   1  12
ATOM     12  C   UNL     1      81.354 -25.794  86.330  1.00  0.00     0.029 A 
ATOM     13  C   UNL     1      81.858 -24.494  86.159  1.00  0.00     0.062 A 
ATOM     14  C   UNL     1      82.944 -24.043  86.923  1.00  0.00     0.162 A 
ATOM     15  C   UNL     1      81.975 -26.652  87.253  1.00  0.00     0.062 A 
ATOM     16  C   UNL     1      83.545 -24.902  87.858  1.00  0.00     0.200 A 
ATOM     17  C   UNL     1      83.062 -26.207  88.018  1.00  0.00     0.162 A 
BRANCH  14  18
ATOM     18  O   UNL     1      83.426 -22.746  86.754  1.00  0.00    -0.504 OA
ATOM     19  H   UNL     1      84.263 -22.556  86.216  1.00  0.00     0.293 HD
ENDBRANCH  14  18
BRANCH  16  20
ATOM     20  O   UNL     1      84.625 -24.475  88.632  1.00  0.00    -0.502 OA
ATOM     21  H   UNL     1      85.336 -23.851  88.268  1.00  0.00     0.293 HD
ENDBRANCH  16  20
BRANCH  17  22
ATOM     22  O   UNL     1      83.672 -27.059  88.938  1.00  0.00    -0.504 OA
ATOM     23  H   UNL     1      84.206 -26.699  89.721  1.00  0.00     0.293 HD
ENDBRANCH  17  22
ENDBRANCH   1  12
BRANCH   2  24
ATOM     24  O   UNL     1      78.583 -25.434  87.092  1.00  0.00    -0.502 OA
ATOM     25  H   UNL     1      79.080 -25.617  87.955  1.00  0.00     0.293 HD
ENDBRANCH   2  24
BRANCH   6  26
ATOM     26  O   UNL     1      75.868 -27.894  83.226  1.00  0.00    -0.507 OA
ATOM     27  H   UNL     1      75.452 -27.734  84.130  1.00  0.00     0.293 HD
ENDBRANCH   6  26
BRANCH   8  28
ATOM     28  O   UNL     1      79.406 -28.815  80.137  1.00  0.00    -0.508 OA
ATOM     29  H   UNL     1      78.776 -28.827  79.343  1.00  0.00     0.293 HD
ENDBRANCH   8  28
TORSDOF 7
ENDMDL
MODEL 9
REMARK VINA RESULT:    -6.930      1.970      7.266
REMARK INTER + INTRA:          -8.913
REMARK INTER:                  -9.085
REMARK INTRA:                   0.172
REMARK UNBOUND:                -0.363
REMARK SMILES O=c1c(O)c(-c2cc(O)c(O)c(O)c2)oc2cc(O)cc(O)c12
REMARK SMILES IDX 5 1 3 2 2 3 1 4 23 5 21 6 20 7 18 8 17 9 16 10 15 11 6 12
REMARK SMILES IDX 7 13 8 14 14 15 10 16 12 17 9 18 11 20 13 22 4 24 22 26
REMARK SMILES IDX 19 28
REMARK H PARENT 9 19 11 21 13 23 4 25 22 27 19 29
REMARK Flexibility Score: inf
ROOT
ATOM      1  C   UNL     1      79.882 -25.803  85.683  1.00  0.00     0.180 A 
ATOM      2  C   UNL     1      78.699 -25.046  85.740  1.00  0.00     0.208 A 
ATOM      3  C   UNL     1      77.571 -25.491  85.032  1.00  0.00     0.238 A 
ATOM      4  O   UNL     1      76.532 -24.782  85.043  1.00  0.00    -0.285 OA
ATOM      5  C   UNL     1      77.635 -26.695  84.290  1.00  0.00     0.111 A 
ATOM      6  C   UNL     1      76.542 -27.261  83.568  1.00  0.00     0.134 A 
ATOM      7  C   UNL     1      76.755 -28.387  82.762  1.00  0.00     0.093 A 
ATOM      8  C   UNL     1      78.004 -29.005  82.704  1.00  0.00     0.123 A 
ATOM      9  C   UNL     1      79.066 -28.494  83.453  1.00  0.00     0.094 A 
ATOM     10  C   UNL     1      78.893 -27.351  84.238  1.00  0.00     0.146 A 
ATOM     11  O   UNL     1      79.930 -26.892  84.926  1.00  0.00    -0.452 OA
ENDROOT
BRANCH   1  12
ATOM     12  C   UNL     1      81.103 -25.411  86.423  1.00  0.00     0.029 A 
ATOM     13  C   UNL     1      82.364 -25.744  85.901  1.00  0.00     0.062 A 
ATOM     14  C   UNL     1      83.535 -25.403  86.592  1.00  0.00     0.162 A 
ATOM     15  C   UNL     1      81.028 -24.761  87.667  1.00  0.00     0.062 A 
ATOM     16  C   UNL     1      83.451 -24.736  87.825  1.00  0.00     0.200 A 
ATOM     17  C   UNL     1      82.196 -24.419  88.363  1.00  0.00     0.162 A 
BRANCH  14  18
ATOM     18  O   UNL     1      84.781 -25.727  86.057  1.00  0.00    -0.504 OA
ATOM     19  H   UNL     1      84.886 -26.012  85.090  1.00  0.00     0.293 HD
ENDBRANCH  14  18
BRANCH  16  20
ATOM     20  O   UNL     1      84.602 -24.384  88.530  1.00  0.00    -0.502 OA
ATOM     21  H   UNL     1      84.821 -24.777  89.437  1.00  0.00     0.293 HD
ENDBRANCH  16  20
BRANCH  17  22
ATOM     22  O   UNL     1      82.118 -23.769  89.593  1.00  0.00    -0.504 OA
ATOM     23  H   UNL     1      81.260 -23.332  89.909  1.00  0.00     0.293 HD
ENDBRANCH  17  22
ENDBRANCH   1  12
BRANCH   2  24
ATOM     24  O   UNL     1      78.664 -23.849  86.461  1.00  0.00    -0.502 OA
ATOM     25  H   UNL     1      77.833 -23.530  86.945  1.00  0.00     0.293 HD
ENDBRANCH   2  24
BRANCH   6  26
ATOM     26  O   UNL     1      75.232 -26.777  83.629  1.00  0.00    -0.507 OA
ATOM     27  H   UNL     1      74.801 -26.390  84.454  1.00  0.00     0.293 HD
ENDBRANCH   6  26
BRANCH   8  28
ATOM     28  O   UNL     1      78.176 -30.133  81.904  1.00  0.00    -0.508 OA
ATOM     29  H   UNL     1      78.292 -31.055  82.307  1.00  0.00     0.293 HD
ENDBRANCH   8  28
TORSDOF 7
ENDMDL
