MODEL 1
REMARK VINA RESULT:    -5.863      0.000      0.000
REMARK INTER + INTRA:          -7.485
REMARK INTER:                  -7.233
REMARK INTRA:                  -0.252
REMARK UNBOUND:                -0.252
REMARK SMILES O=c1c(O)c(-c2cc(O)c(O)c(O)c2)oc2cc(O)cc(O)c12
REMARK SMILES IDX 5 1 3 2 2 3 1 4 23 5 21 6 20 7 18 8 17 9 16 10 15 11 6 12
REMARK SMILES IDX 7 13 8 14 14 15 10 16 12 17 9 18 11 20 13 22 4 24 22 26
REMARK SMILES IDX 19 28
REMARK H PARENT 9 19 11 21 13 23 4 25 22 27 19 29
REMARK Flexibility Score: inf
ROOT
ATOM      1  C   UNL     1      -3.129  14.187 -27.231  1.00  0.00     0.180 A 
ATOM      2  C   UNL     1      -3.883  13.182 -26.595  1.00  0.00     0.208 A 
ATOM      3  C   UNL     1      -4.407  12.134 -27.367  1.00  0.00     0.238 A 
ATOM      4  O   UNL     1      -5.075  11.224 -26.806  1.00  0.00    -0.285 OA
ATOM      5  C   UNL     1      -4.185  12.116 -28.760  1.00  0.00     0.111 A 
ATOM      6  C   UNL     1      -4.681  11.099 -29.610  1.00  0.00     0.134 A 
ATOM      7  C   UNL     1      -4.425  11.157 -30.988  1.00  0.00     0.093 A 
ATOM      8  C   UNL     1      -3.686  12.210 -31.531  1.00  0.00     0.123 A 
ATOM      9  C   UNL     1      -3.193  13.219 -30.696  1.00  0.00     0.094 A 
ATOM     10  C   UNL     1      -3.436  13.177 -29.320  1.00  0.00     0.146 A 
ATOM     11  O   UNL     1      -2.953  14.145 -28.549  1.00  0.00    -0.452 OA
ENDROOT
BRANCH   1  12
ATOM     12  C   UNL     1      -2.528  15.314 -26.483  1.00  0.00     0.029 A 
ATOM     13  C   UNL     1      -2.967  16.621 -26.734  1.00  0.00     0.062 A 
ATOM     14  C   UNL     1      -2.402  17.705 -26.053  1.00  0.00     0.162 A 
ATOM     15  C   UNL     1      -1.485  15.109 -25.566  1.00  0.00     0.062 A 
ATOM     16  C   UNL     1      -1.376  17.498 -25.120  1.00  0.00     0.200 A 
ATOM     17  C   UNL     1      -0.908  16.185 -24.880  1.00  0.00     0.162 A 
BRANCH  14  18
ATOM     18  O   UNL     1      -2.857  19.000 -26.298  1.00  0.00    -0.504 OA
ATOM     19  H   UNL     1      -3.773  19.308 -25.993  1.00  0.00     0.293 HD
ENDBRANCH  14  18
BRANCH  16  20
ATOM     20  O   UNL     1      -0.851  18.614 -24.462  1.00  0.00    -0.502 OA
ATOM     21  H   UNL     1      -1.088  18.876 -23.516  1.00  0.00     0.293 HD
ENDBRANCH  16  20
BRANCH  17  22
ATOM     22  O   UNL     1       0.125  15.904 -23.981  1.00  0.00    -0.504 OA
ATOM     23  H   UNL     1       0.795  15.159 -24.106  1.00  0.00     0.293 HD
ENDBRANCH  17  22
ENDBRANCH   1  12
BRANCH   2  24
ATOM     24  O   UNL     1      -4.130  13.249 -25.221  1.00  0.00    -0.502 OA
ATOM     25  H   UNL     1      -4.947  13.710 -24.838  1.00  0.00     0.293 HD
ENDBRANCH   2  24
BRANCH   6  26
ATOM     26  O   UNL     1      -5.423  10.033 -29.098  1.00  0.00    -0.507 OA
ATOM     27  H   UNL     1      -5.246   9.076 -29.380  1.00  0.00     0.293 HD
ENDBRANCH   6  26
BRANCH   8  28
ATOM     28  O   UNL     1      -3.448  12.246 -32.903  1.00  0.00    -0.508 OA
ATOM     29  H   UNL     1      -4.188  12.448 -33.564  1.00  0.00     0.293 HD
ENDBRANCH   8  28
TORSDOF 7
ENDMDL
MODEL 2
REMARK VINA RESULT:    -5.580      2.138      3.009
REMARK INTER + INTRA:          -7.137
REMARK INTER:                  -6.781
REMARK INTRA:                  -0.356
REMARK UNBOUND:                -0.252
REMARK SMILES O=c1c(O)c(-c2cc(O)c(O)c(O)c2)oc2cc(O)cc(O)c12
REMARK SMILES IDX 5 1 3 2 2 3 1 4 23 5 21 6 20 7 18 8 17 9 16 10 15 11 6 12
REMARK SMILES IDX 7 13 8 14 14 15 10 16 12 17 9 18 11 20 13 22 4 24 22 26
REMARK SMILES IDX 19 28
REMARK H PARENT 9 19 11 21 13 23 4 25 22 27 19 29
REMARK Flexibility Score: inf
ROOT
ATOM      1  C   UNL     1      -2.939  15.359 -26.634  1.00  0.00     0.180 A 
ATOM      2  C   UNL     1      -4.241  15.188 -26.128  1.00  0.00     0.208 A 
ATOM      3  C   UNL     1      -4.862  13.936 -26.258  1.00  0.00     0.238 A 
ATOM      4  O   UNL     1      -6.025  13.770 -25.798  1.00  0.00    -0.285 OA
ATOM      5  C   UNL     1      -4.182  12.885 -26.906  1.00  0.00     0.111 A 
ATOM      6  C   UNL     1      -4.739  11.595 -27.083  1.00  0.00     0.134 A 
ATOM      7  C   UNL     1      -4.001  10.605 -27.748  1.00  0.00     0.093 A 
ATOM      8  C   UNL     1      -2.722  10.878 -28.239  1.00  0.00     0.123 A 
ATOM      9  C   UNL     1      -2.167  12.150 -28.068  1.00  0.00     0.094 A 
ATOM     10  C   UNL     1      -2.886  13.151 -27.407  1.00  0.00     0.146 A 
ATOM     11  O   UNL     1      -2.334  14.349 -27.253  1.00  0.00    -0.452 OA
ENDROOT
BRANCH   1  12
ATOM     12  C   UNL     1      -2.211  16.642 -26.518  1.00  0.00     0.029 A 
ATOM     13  C   UNL     1      -1.390  16.872 -25.406  1.00  0.00     0.062 A 
ATOM     14  C   UNL     1      -0.706  18.085 -25.264  1.00  0.00     0.162 A 
ATOM     15  C   UNL     1      -2.368  17.661 -27.471  1.00  0.00     0.062 A 
ATOM     16  C   UNL     1      -0.846  19.094 -26.227  1.00  0.00     0.200 A 
ATOM     17  C   UNL     1      -1.693  18.880 -27.340  1.00  0.00     0.162 A 
BRANCH  14  18
ATOM     18  O   UNL     1       0.121  18.297 -24.161  1.00  0.00    -0.504 OA
ATOM     19  H   UNL     1       0.391  17.539 -23.545  1.00  0.00     0.293 HD
ENDBRANCH  14  18
BRANCH  16  20
ATOM     20  O   UNL     1      -0.135  20.282 -26.041  1.00  0.00    -0.502 OA
ATOM     21  H   UNL     1       0.871  20.336 -25.982  1.00  0.00     0.293 HD
ENDBRANCH  16  20
BRANCH  17  22
ATOM     22  O   UNL     1      -1.898  19.847 -28.328  1.00  0.00    -0.504 OA
ATOM     23  H   UNL     1      -1.341  19.925 -29.167  1.00  0.00     0.293 HD
ENDBRANCH  17  22
ENDBRANCH   1  12
BRANCH   2  24
ATOM     24  O   UNL     1      -4.913  16.260 -25.532  1.00  0.00    -0.502 OA
ATOM     25  H   UNL     1      -5.923  16.305 -25.479  1.00  0.00     0.293 HD
ENDBRANCH   2  24
BRANCH   6  26
ATOM     26  O   UNL     1      -6.014  11.291 -26.604  1.00  0.00    -0.507 OA
ATOM     27  H   UNL     1      -6.239  10.376 -26.231  1.00  0.00     0.293 HD
ENDBRANCH   6  26
BRANCH   8  28
ATOM     28  O   UNL     1      -2.012   9.876 -28.898  1.00  0.00    -0.508 OA
ATOM     29  H   UNL     1      -1.674  10.003 -29.844  1.00  0.00     0.293 HD
ENDBRANCH   8  28
TORSDOF 7
ENDMDL
MODEL 3
REMARK VINA RESULT:    -5.580      3.502      4.789
REMARK INTER + INTRA:          -7.136
REMARK INTER:                  -6.789
REMARK INTRA:                  -0.347
REMARK UNBOUND:                -0.252
REMARK SMILES O=c1c(O)c(-c2cc(O)c(O)c(O)c2)oc2cc(O)cc(O)c12
REMARK SMILES IDX 5 1 3 2 2 3 1 4 23 5 21 6 20 7 18 8 17 9 16 10 15 11 6 12
REMARK SMILES IDX 7 13 8 14 14 15 10 16 12 17 9 18 11 20 13 22 4 24 22 26
REMARK SMILES IDX 19 28
REMARK H PARENT 9 19 11 21 13 23 4 25 22 27 19 29
REMARK Flexibility Score: inf
ROOT
ATOM      1  C   UNL     1      -5.063  15.604 -28.754  1.00  0.00     0.180 A 
ATOM      2  C   UNL     1      -5.416  15.286 -27.429  1.00  0.00     0.208 A 
ATOM      3  C   UNL     1      -5.102  14.012 -26.930  1.00  0.00     0.238 A 
ATOM      4  O   UNL     1      -5.404  13.721 -25.740  1.00  0.00    -0.285 OA
ATOM      5  C   UNL     1      -4.461  13.075 -27.766  1.00  0.00     0.111 A 
ATOM      6  C   UNL     1      -4.114  11.769 -27.342  1.00  0.00     0.134 A 
ATOM      7  C   UNL     1      -3.485  10.891 -28.237  1.00  0.00     0.093 A 
ATOM      8  C   UNL     1      -3.198  11.291 -29.544  1.00  0.00     0.123 A 
ATOM      9  C   UNL     1      -3.539  12.580 -29.969  1.00  0.00     0.094 A 
ATOM     10  C   UNL     1      -4.165  13.470 -29.091  1.00  0.00     0.146 A 
ATOM     11  O   UNL     1      -4.472  14.690 -29.518  1.00  0.00    -0.452 OA
ENDROOT
BRANCH   1  12
ATOM     12  C   UNL     1      -5.343  16.932 -29.347  1.00  0.00     0.029 A 
ATOM     13  C   UNL     1      -4.356  17.926 -29.308  1.00  0.00     0.062 A 
ATOM     14  C   UNL     1      -4.603  19.195 -29.845  1.00  0.00     0.162 A 
ATOM     15  C   UNL     1      -6.599  17.238 -29.896  1.00  0.00     0.062 A 
ATOM     16  C   UNL     1      -5.850  19.493 -30.413  1.00  0.00     0.200 A 
ATOM     17  C   UNL     1      -6.860  18.504 -30.432  1.00  0.00     0.162 A 
BRANCH  14  18
ATOM     18  O   UNL     1      -3.609  20.173 -29.816  1.00  0.00    -0.504 OA
ATOM     19  H   UNL     1      -2.957  20.290 -30.584  1.00  0.00     0.293 HD
ENDBRANCH  14  18
BRANCH  16  20
ATOM     20  O   UNL     1      -6.041  20.773 -30.941  1.00  0.00    -0.502 OA
ATOM     21  H   UNL     1      -6.701  21.443 -30.575  1.00  0.00     0.293 HD
ENDBRANCH  16  20
BRANCH  17  22
ATOM     22  O   UNL     1      -8.133  18.734 -30.963  1.00  0.00    -0.504 OA
ATOM     23  H   UNL     1      -8.949  18.940 -30.405  1.00  0.00     0.293 HD
ENDBRANCH  17  22
ENDBRANCH   1  12
BRANCH   2  24
ATOM     24  O   UNL     1      -6.095  16.216 -26.637  1.00  0.00    -0.502 OA
ATOM     25  H   UNL     1      -5.954  17.215 -26.733  1.00  0.00     0.293 HD
ENDBRANCH   2  24
BRANCH   6  26
ATOM     26  O   UNL     1      -4.387  11.339 -26.042  1.00  0.00    -0.507 OA
ATOM     27  H   UNL     1      -5.176  10.738 -25.835  1.00  0.00     0.293 HD
ENDBRANCH   6  26
BRANCH   8  28
ATOM     28  O   UNL     1      -2.575  10.399 -30.414  1.00  0.00    -0.508 OA
ATOM     29  H   UNL     1      -2.956  10.201 -31.331  1.00  0.00     0.293 HD
ENDBRANCH   8  28
TORSDOF 7
ENDMDL
MODEL 4
REMARK VINA RESULT:    -5.577      2.628      7.104
REMARK INTER + INTRA:          -7.133
REMARK INTER:                  -6.782
REMARK INTRA:                  -0.351
REMARK UNBOUND:                -0.252
REMARK SMILES O=c1c(O)c(-c2cc(O)c(O)c(O)c2)oc2cc(O)cc(O)c12
REMARK SMILES IDX 5 1 3 2 2 3 1 4 23 5 21 6 20 7 18 8 17 9 16 10 15 11 6 12
REMARK SMILES IDX 7 13 8 14 14 15 10 16 12 17 9 18 11 20 13 22 4 24 22 26
REMARK SMILES IDX 19 28
REMARK H PARENT 9 19 11 21 13 23 4 25 22 27 19 29
REMARK Flexibility Score: inf
ROOT
ATOM      1  C   UNL     1      -3.902  14.894 -26.541  1.00  0.00     0.180 A 
ATOM      2  C   UNL     1      -4.169  15.622 -27.716  1.00  0.00     0.208 A 
ATOM      3  C   UNL     1      -3.485  16.828 -27.938  1.00  0.00     0.238 A 
ATOM      4  O   UNL     1      -3.708  17.482 -28.992  1.00  0.00    -0.285 OA
ATOM      5  C   UNL     1      -2.564  17.293 -26.977  1.00  0.00     0.111 A 
ATOM      6  C   UNL     1      -1.836  18.500 -27.122  1.00  0.00     0.134 A 
ATOM      7  C   UNL     1      -0.944  18.899 -26.116  1.00  0.00     0.093 A 
ATOM      8  C   UNL     1      -0.766  18.119 -24.971  1.00  0.00     0.123 A 
ATOM      9  C   UNL     1      -1.482  16.927 -24.822  1.00  0.00     0.094 A 
ATOM     10  C   UNL     1      -2.375  16.510 -25.815  1.00  0.00     0.146 A 
ATOM     11  O   UNL     1      -3.038  15.371 -25.650  1.00  0.00    -0.452 OA
ENDROOT
BRANCH   1  12
ATOM     12  C   UNL     1      -4.568  13.606 -26.245  1.00  0.00     0.029 A 
ATOM     13  C   UNL     1      -3.955  12.407 -26.634  1.00  0.00     0.062 A 
ATOM     14  C   UNL     1      -4.574  11.177 -26.382  1.00  0.00     0.162 A 
ATOM     15  C   UNL     1      -5.831  13.559 -25.634  1.00  0.00     0.062 A 
ATOM     16  C   UNL     1      -5.825  11.129 -25.751  1.00  0.00     0.200 A 
ATOM     17  C   UNL     1      -6.463  12.336 -25.379  1.00  0.00     0.162 A 
BRANCH  14  18
ATOM     18  O   UNL     1      -3.949   9.988 -26.758  1.00  0.00    -0.504 OA
ATOM     19  H   UNL     1      -4.478   9.142 -26.937  1.00  0.00     0.293 HD
ENDBRANCH  14  18
BRANCH  16  20
ATOM     20  O   UNL     1      -6.395   9.875 -25.516  1.00  0.00    -0.502 OA
ATOM     21  H   UNL     1      -5.877   9.009 -25.518  1.00  0.00     0.293 HD
ENDBRANCH  16  20
BRANCH  17  22
ATOM     22  O   UNL     1      -7.719  12.368 -24.767  1.00  0.00    -0.504 OA
ATOM     23  H   UNL     1      -7.860  12.359 -23.767  1.00  0.00     0.293 HD
ENDBRANCH  17  22
ENDBRANCH   1  12
BRANCH   2  24
ATOM     24  O   UNL     1      -5.122  15.164 -28.629  1.00  0.00    -0.502 OA
ATOM     25  H   UNL     1      -6.106  15.390 -28.546  1.00  0.00     0.293 HD
ENDBRANCH   2  24
BRANCH   6  26
ATOM     26  O   UNL     1      -1.992  19.301 -28.254  1.00  0.00    -0.507 OA
ATOM     27  H   UNL     1      -1.472  20.162 -28.373  1.00  0.00     0.293 HD
ENDBRANCH   6  26
BRANCH   8  28
ATOM     28  O   UNL     1       0.125  18.540 -23.986  1.00  0.00    -0.508 OA
ATOM     29  H   UNL     1      -0.155  19.193 -23.263  1.00  0.00     0.293 HD
ENDBRANCH   8  28
TORSDOF 7
ENDMDL
MODEL 5
REMARK VINA RESULT:    -5.572      2.498      7.013
REMARK INTER + INTRA:          -7.127
REMARK INTER:                  -6.760
REMARK INTRA:                  -0.367
REMARK UNBOUND:                -0.252
REMARK SMILES O=c1c(O)c(-c2cc(O)c(O)c(O)c2)oc2cc(O)cc(O)c12
REMARK SMILES IDX 5 1 3 2 2 3 1 4 23 5 21 6 20 7 18 8 17 9 16 10 15 11 6 12
REMARK SMILES IDX 7 13 8 14 14 15 10 16 12 17 9 18 11 20 13 22 4 24 22 26
REMARK SMILES IDX 19 28
REMARK H PARENT 9 19 11 21 13 23 4 25 22 27 19 29
REMARK Flexibility Score: inf
ROOT
ATOM      1  C   UNL     1      -3.728  14.949 -26.704  1.00  0.00     0.180 A 
ATOM      2  C   UNL     1      -4.019  15.737 -27.834  1.00  0.00     0.208 A 
ATOM      3  C   UNL     1      -3.386  16.981 -27.975  1.00  0.00     0.238 A 
ATOM      4  O   UNL     1      -3.631  17.690 -28.989  1.00  0.00    -0.285 OA
ATOM      5  C   UNL     1      -2.491  17.424 -26.980  1.00  0.00     0.111 A 
ATOM      6  C   UNL     1      -1.815  18.667 -27.044  1.00  0.00     0.134 A 
ATOM      7  C   UNL     1      -0.946  19.040 -26.008  1.00  0.00     0.093 A 
ATOM      8  C   UNL     1      -0.741  18.199 -24.912  1.00  0.00     0.123 A 
ATOM      9  C   UNL     1      -1.407  16.971 -24.842  1.00  0.00     0.094 A 
ATOM     10  C   UNL     1      -2.275  16.580 -25.866  1.00  0.00     0.146 A 
ATOM     11  O   UNL     1      -2.890  15.405 -25.778  1.00  0.00    -0.452 OA
ENDROOT
BRANCH   1  12
ATOM     12  C   UNL     1      -4.341  13.617 -26.494  1.00  0.00     0.029 A 
ATOM     13  C   UNL     1      -5.508  13.509 -25.726  1.00  0.00     0.062 A 
ATOM     14  C   UNL     1      -6.096  12.259 -25.498  1.00  0.00     0.162 A 
ATOM     15  C   UNL     1      -3.746  12.450 -26.999  1.00  0.00     0.062 A 
ATOM     16  C   UNL     1      -5.514  11.096 -26.021  1.00  0.00     0.200 A 
ATOM     17  C   UNL     1      -4.321  11.194 -26.775  1.00  0.00     0.162 A 
BRANCH  14  18
ATOM     18  O   UNL     1      -7.267  12.163 -24.746  1.00  0.00    -0.504 OA
ATOM     19  H   UNL     1      -7.244  12.062 -23.737  1.00  0.00     0.293 HD
ENDBRANCH  14  18
BRANCH  16  20
ATOM     20  O   UNL     1      -6.145   9.875 -25.770  1.00  0.00    -0.502 OA
ATOM     21  H   UNL     1      -5.661   8.993 -25.694  1.00  0.00     0.293 HD
ENDBRANCH  16  20
BRANCH  17  22
ATOM     22  O   UNL     1      -3.672  10.078 -27.310  1.00  0.00    -0.504 OA
ATOM     23  H   UNL     1      -4.021   9.542 -28.091  1.00  0.00     0.293 HD
ENDBRANCH  17  22
ENDBRANCH   1  12
BRANCH   2  24
ATOM     24  O   UNL     1      -4.947  15.296 -28.782  1.00  0.00    -0.502 OA
ATOM     25  H   UNL     1      -5.144  15.814 -29.630  1.00  0.00     0.293 HD
ENDBRANCH   2  24
BRANCH   6  26
ATOM     26  O   UNL     1      -1.998  19.530 -28.125  1.00  0.00    -0.507 OA
ATOM     27  H   UNL     1      -1.806  20.522 -28.054  1.00  0.00     0.293 HD
ENDBRANCH   6  26
BRANCH   8  28
ATOM     28  O   UNL     1       0.125  18.596 -23.895  1.00  0.00    -0.508 OA
ATOM     29  H   UNL     1       0.556  17.921 -23.275  1.00  0.00     0.293 HD
ENDBRANCH   8  28
TORSDOF 7
ENDMDL
MODEL 6
REMARK VINA RESULT:    -5.480      2.193      2.590
REMARK INTER + INTRA:          -7.013
REMARK INTER:                  -6.650
REMARK INTRA:                  -0.363
REMARK UNBOUND:                -0.252
REMARK SMILES O=c1c(O)c(-c2cc(O)c(O)c(O)c2)oc2cc(O)cc(O)c12
REMARK SMILES IDX 5 1 3 2 2 3 1 4 23 5 21 6 20 7 18 8 17 9 16 10 15 11 6 12
REMARK SMILES IDX 7 13 8 14 14 15 10 16 12 17 9 18 11 20 13 22 4 24 22 26
REMARK SMILES IDX 19 28
REMARK H PARENT 9 19 11 21 13 23 4 25 22 27 19 29
REMARK Flexibility Score: inf
ROOT
ATOM      1  C   UNL     1      -2.855  15.378 -26.594  1.00  0.00     0.180 A 
ATOM      2  C   UNL     1      -4.175  15.192 -26.142  1.00  0.00     0.208 A 
ATOM      3  C   UNL     1      -4.772  13.931 -26.288  1.00  0.00     0.238 A 
ATOM      4  O   UNL     1      -5.951  13.751 -25.876  1.00  0.00    -0.285 OA
ATOM      5  C   UNL     1      -4.050  12.885 -26.898  1.00  0.00     0.111 A 
ATOM      6  C   UNL     1      -4.581  11.585 -27.088  1.00  0.00     0.134 A 
ATOM      7  C   UNL     1      -3.801  10.601 -27.713  1.00  0.00     0.093 A 
ATOM      8  C   UNL     1      -2.507  10.888 -28.152  1.00  0.00     0.123 A 
ATOM      9  C   UNL     1      -1.978  12.170 -27.968  1.00  0.00     0.094 A 
ATOM     10  C   UNL     1      -2.738  13.165 -27.345  1.00  0.00     0.146 A 
ATOM     11  O   UNL     1      -2.210  14.372 -27.178  1.00  0.00    -0.452 OA
ENDROOT
BRANCH   1  12
ATOM     12  C   UNL     1      -2.151  16.673 -26.458  1.00  0.00     0.029 A 
ATOM     13  C   UNL     1      -2.244  17.620 -27.486  1.00  0.00     0.062 A 
ATOM     14  C   UNL     1      -1.572  18.844 -27.390  1.00  0.00     0.162 A 
ATOM     15  C   UNL     1      -1.341  16.952 -25.345  1.00  0.00     0.062 A 
ATOM     16  C   UNL     1      -0.782  19.132 -26.268  1.00  0.00     0.200 A 
ATOM     17  C   UNL     1      -0.661  18.170 -25.237  1.00  0.00     0.162 A 
BRANCH  14  18
ATOM     18  O   UNL     1      -1.685  19.787 -28.411  1.00  0.00    -0.504 OA
ATOM     19  H   UNL     1      -1.338  20.734 -28.301  1.00  0.00     0.293 HD
ENDBRANCH  14  18
BRANCH  16  20
ATOM     20  O   UNL     1      -0.139  20.371 -26.217  1.00  0.00    -0.502 OA
ATOM     21  H   UNL     1       0.592  20.603 -25.561  1.00  0.00     0.293 HD
ENDBRANCH  16  20
BRANCH  17  22
ATOM     22  O   UNL     1       0.125  18.377 -24.100  1.00  0.00    -0.504 OA
ATOM     23  H   UNL     1       0.066  19.197 -23.514  1.00  0.00     0.293 HD
ENDBRANCH  17  22
ENDBRANCH   1  12
BRANCH   2  24
ATOM     24  O   UNL     1      -4.886  16.259 -25.585  1.00  0.00    -0.502 OA
ATOM     25  H   UNL     1      -4.613  17.224 -25.724  1.00  0.00     0.293 HD
ENDBRANCH   2  24
BRANCH   6  26
ATOM     26  O   UNL     1      -5.870  11.266 -26.661  1.00  0.00    -0.507 OA
ATOM     27  H   UNL     1      -6.037  10.581 -25.933  1.00  0.00     0.293 HD
ENDBRANCH   6  26
BRANCH   8  28
ATOM     28  O   UNL     1      -1.755   9.892 -28.771  1.00  0.00    -0.508 OA
ATOM     29  H   UNL     1      -2.197   9.116 -29.249  1.00  0.00     0.293 HD
ENDBRANCH   8  28
TORSDOF 7
ENDMDL
MODEL 7
REMARK VINA RESULT:    -5.462      3.244      6.321
REMARK INTER + INTRA:          -6.991
REMARK INTER:                  -6.670
REMARK INTRA:                  -0.321
REMARK UNBOUND:                -0.252
REMARK SMILES O=c1c(O)c(-c2cc(O)c(O)c(O)c2)oc2cc(O)cc(O)c12
REMARK SMILES IDX 5 1 3 2 2 3 1 4 23 5 21 6 20 7 18 8 17 9 16 10 15 11 6 12
REMARK SMILES IDX 7 13 8 14 14 15 10 16 12 17 9 18 11 20 13 22 4 24 22 26
REMARK SMILES IDX 19 28
REMARK H PARENT 9 19 11 21 13 23 4 25 22 27 19 29
REMARK Flexibility Score: inf
ROOT
ATOM      1  C   UNL     1      -4.429  15.130 -27.898  1.00  0.00     0.180 A 
ATOM      2  C   UNL     1      -3.344  16.017 -27.761  1.00  0.00     0.208 A 
ATOM      3  C   UNL     1      -3.428  17.289 -28.348  1.00  0.00     0.238 A 
ATOM      4  O   UNL     1      -2.467  18.095 -28.222  1.00  0.00    -0.285 OA
ATOM      5  C   UNL     1      -4.582  17.645 -29.076  1.00  0.00     0.111 A 
ATOM      6  C   UNL     1      -4.744  18.905 -29.703  1.00  0.00     0.134 A 
ATOM      7  C   UNL     1      -5.919  19.179 -30.418  1.00  0.00     0.093 A 
ATOM      8  C   UNL     1      -6.932  18.223 -30.520  1.00  0.00     0.123 A 
ATOM      9  C   UNL     1      -6.777  16.976 -29.904  1.00  0.00     0.094 A 
ATOM     10  C   UNL     1      -5.614  16.684 -29.185  1.00  0.00     0.146 A 
ATOM     11  O   UNL     1      -5.495  15.495 -28.605  1.00  0.00    -0.452 OA
ENDROOT
BRANCH   1  12
ATOM     12  C   UNL     1      -4.423  13.779 -27.292  1.00  0.00     0.029 A 
ATOM     13  C   UNL     1      -3.729  12.741 -27.927  1.00  0.00     0.062 A 
ATOM     14  C   UNL     1      -3.724  11.451 -27.383  1.00  0.00     0.162 A 
ATOM     15  C   UNL     1      -5.148  13.500 -26.122  1.00  0.00     0.062 A 
ATOM     16  C   UNL     1      -4.429  11.177 -26.203  1.00  0.00     0.200 A 
ATOM     17  C   UNL     1      -5.154  12.214 -25.570  1.00  0.00     0.162 A 
BRANCH  14  18
ATOM     18  O   UNL     1      -3.017  10.428 -28.014  1.00  0.00    -0.504 OA
ATOM     19  H   UNL     1      -3.473   9.575 -28.317  1.00  0.00     0.293 HD
ENDBRANCH  14  18
BRANCH  16  20
ATOM     20  O   UNL     1      -4.385   9.875 -25.698  1.00  0.00    -0.502 OA
ATOM     21  H   UNL     1      -4.681   9.618 -24.768  1.00  0.00     0.293 HD
ENDBRANCH  16  20
BRANCH  17  22
ATOM     22  O   UNL     1      -5.897  12.012 -24.403  1.00  0.00    -0.504 OA
ATOM     23  H   UNL     1      -6.905  11.956 -24.377  1.00  0.00     0.293 HD
ENDBRANCH  17  22
ENDBRANCH   1  12
BRANCH   2  24
ATOM     24  O   UNL     1      -2.192  15.622 -27.075  1.00  0.00    -0.502 OA
ATOM     25  H   UNL     1      -1.272  15.970 -27.316  1.00  0.00     0.293 HD
ENDBRANCH   2  24
BRANCH   6  26
ATOM     26  O   UNL     1      -3.751  19.881 -29.620  1.00  0.00    -0.507 OA
ATOM     27  H   UNL     1      -3.438  20.249 -28.729  1.00  0.00     0.293 HD
ENDBRANCH   6  26
BRANCH   8  28
ATOM     28  O   UNL     1      -8.088  18.521 -31.238  1.00  0.00    -0.508 OA
ATOM     29  H   UNL     1      -8.926  18.855 -30.777  1.00  0.00     0.293 HD
ENDBRANCH   8  28
TORSDOF 7
ENDMDL
MODEL 8
REMARK VINA RESULT:    -5.428      2.069      6.888
REMARK INTER + INTRA:          -6.949
REMARK INTER:                  -6.619
REMARK INTRA:                  -0.330
REMARK UNBOUND:                -0.252
REMARK SMILES O=c1c(O)c(-c2cc(O)c(O)c(O)c2)oc2cc(O)cc(O)c12
REMARK SMILES IDX 5 1 3 2 2 3 1 4 23 5 21 6 20 7 18 8 17 9 16 10 15 11 6 12
REMARK SMILES IDX 7 13 8 14 14 15 10 16 12 17 9 18 11 20 13 22 4 24 22 26
REMARK SMILES IDX 19 28
REMARK H PARENT 9 19 11 21 13 23 4 25 22 27 19 29
REMARK Flexibility Score: inf
ROOT
ATOM      1  C   UNL     1      -2.600  15.595 -26.537  1.00  0.00     0.180 A 
ATOM      2  C   UNL     1      -1.648  15.801 -25.521  1.00  0.00     0.208 A 
ATOM      3  C   UNL     1      -1.042  17.061 -25.403  1.00  0.00     0.238 A 
ATOM      4  O   UNL     1      -0.196  17.260 -24.489  1.00  0.00    -0.285 OA
ATOM      5  C   UNL     1      -1.381  18.085 -26.312  1.00  0.00     0.111 A 
ATOM      6  C   UNL     1      -0.813  19.381 -26.265  1.00  0.00     0.134 A 
ATOM      7  C   UNL     1      -1.196  20.343 -27.212  1.00  0.00     0.093 A 
ATOM      8  C   UNL     1      -2.132  20.035 -28.201  1.00  0.00     0.123 A 
ATOM      9  C   UNL     1      -2.697  18.756 -28.253  1.00  0.00     0.094 A 
ATOM     10  C   UNL     1      -2.329  17.784 -27.317  1.00  0.00     0.146 A 
ATOM     11  O   UNL     1      -2.884  16.579 -27.385  1.00  0.00    -0.452 OA
ENDROOT
BRANCH   1  12
ATOM     12  C   UNL     1      -3.296  14.300 -26.713  1.00  0.00     0.029 A 
ATOM     13  C   UNL     1      -4.375  13.978 -25.879  1.00  0.00     0.062 A 
ATOM     14  C   UNL     1      -5.038  12.753 -26.013  1.00  0.00     0.162 A 
ATOM     15  C   UNL     1      -2.864  13.360 -27.661  1.00  0.00     0.062 A 
ATOM     16  C   UNL     1      -4.620  11.823 -26.975  1.00  0.00     0.200 A 
ATOM     17  C   UNL     1      -3.515  12.129 -27.804  1.00  0.00     0.162 A 
BRANCH  14  18
ATOM     18  O   UNL     1      -6.121  12.449 -25.189  1.00  0.00    -0.504 OA
ATOM     19  H   UNL     1      -7.027  12.884 -25.319  1.00  0.00     0.293 HD
ENDBRANCH  14  18
BRANCH  16  20
ATOM     20  O   UNL     1      -5.321  10.618 -27.073  1.00  0.00    -0.502 OA
ATOM     21  H   UNL     1      -4.938   9.771 -27.467  1.00  0.00     0.293 HD
ENDBRANCH  16  20
BRANCH  17  22
ATOM     22  O   UNL     1      -3.028  11.244 -28.770  1.00  0.00    -0.504 OA
ATOM     23  H   UNL     1      -3.137  11.377 -29.765  1.00  0.00     0.293 HD
ENDBRANCH  17  22
ENDBRANCH   1  12
BRANCH   2  24
ATOM     24  O   UNL     1      -1.294  14.755 -24.664  1.00  0.00    -0.502 OA
ATOM     25  H   UNL     1      -1.481  14.783 -23.668  1.00  0.00     0.293 HD
ENDBRANCH   2  24
BRANCH   6  26
ATOM     26  O   UNL     1       0.125  19.720 -25.289  1.00  0.00    -0.507 OA
ATOM     27  H   UNL     1       0.385  20.683 -25.111  1.00  0.00     0.293 HD
ENDBRANCH   6  26
BRANCH   8  28
ATOM     28  O   UNL     1      -2.494  21.008 -29.131  1.00  0.00    -0.508 OA
ATOM     29  H   UNL     1      -1.996  21.115 -30.006  1.00  0.00     0.293 HD
ENDBRANCH   8  28
TORSDOF 7
ENDMDL
MODEL 9
REMARK VINA RESULT:    -5.092      1.514      3.761
REMARK INTER + INTRA:          -6.534
REMARK INTER:                  -6.483
REMARK INTRA:                  -0.051
REMARK UNBOUND:                -0.252
REMARK SMILES O=c1c(O)c(-c2cc(O)c(O)c(O)c2)oc2cc(O)cc(O)c12
REMARK SMILES IDX 5 1 3 2 2 3 1 4 23 5 21 6 20 7 18 8 17 9 16 10 15 11 6 12
REMARK SMILES IDX 7 13 8 14 14 15 10 16 12 17 9 18 11 20 13 22 4 24 22 26
REMARK SMILES IDX 19 28
REMARK H PARENT 9 19 11 21 13 23 4 25 22 27 19 29
REMARK Flexibility Score: inf
ROOT
ATOM      1  C   UNL     1      -3.079  14.271 -26.973  1.00  0.00     0.180 A 
ATOM      2  C   UNL     1      -3.168  13.841 -28.310  1.00  0.00     0.208 A 
ATOM      3  C   UNL     1      -3.883  12.668 -28.600  1.00  0.00     0.238 A 
ATOM      4  O   UNL     1      -3.978  12.280 -29.797  1.00  0.00    -0.285 OA
ATOM      5  C   UNL     1      -4.480  11.939 -27.552  1.00  0.00     0.111 A 
ATOM      6  C   UNL     1      -5.214  10.745 -27.758  1.00  0.00     0.134 A 
ATOM      7  C   UNL     1      -5.769  10.072 -26.660  1.00  0.00     0.093 A 
ATOM      8  C   UNL     1      -5.605  10.565 -25.364  1.00  0.00     0.123 A 
ATOM      9  C   UNL     1      -4.880  11.743 -25.154  1.00  0.00     0.094 A 
ATOM     10  C   UNL     1      -4.320  12.430 -26.235  1.00  0.00     0.146 A 
ATOM     11  O   UNL     1      -3.642  13.549 -26.008  1.00  0.00    -0.452 OA
ENDROOT
BRANCH   1  12
ATOM     12  C   UNL     1      -2.359  15.507 -26.590  1.00  0.00     0.029 A 
ATOM     13  C   UNL     1      -1.460  15.476 -25.515  1.00  0.00     0.062 A 
ATOM     14  C   UNL     1      -0.781  16.635 -25.121  1.00  0.00     0.162 A 
ATOM     15  C   UNL     1      -2.599  16.726 -27.242  1.00  0.00     0.062 A 
ATOM     16  C   UNL     1      -1.004  17.847 -25.789  1.00  0.00     0.200 A 
ATOM     17  C   UNL     1      -1.930  17.893 -26.857  1.00  0.00     0.162 A 
BRANCH  14  18
ATOM     18  O   UNL     1       0.124  16.590 -24.061  1.00  0.00    -0.504 OA
ATOM     19  H   UNL     1       0.983  16.053 -24.117  1.00  0.00     0.293 HD
ENDBRANCH  14  18
BRANCH  16  20
ATOM     20  O   UNL     1      -0.295  18.973 -25.361  1.00  0.00    -0.502 OA
ATOM     21  H   UNL     1      -0.497  19.916 -25.658  1.00  0.00     0.293 HD
ENDBRANCH  16  20
BRANCH  17  22
ATOM     22  O   UNL     1      -2.220  19.069 -27.555  1.00  0.00    -0.504 OA
ATOM     23  H   UNL     1      -1.938  19.990 -27.251  1.00  0.00     0.293 HD
ENDBRANCH  17  22
ENDBRANCH   1  12
BRANCH   2  24
ATOM     24  O   UNL     1      -2.527  14.556 -29.326  1.00  0.00    -0.502 OA
ATOM     25  H   UNL     1      -2.455  14.206 -30.274  1.00  0.00     0.293 HD
ENDBRANCH   2  24
BRANCH   6  26
ATOM     26  O   UNL     1      -5.395  10.227 -29.041  1.00  0.00    -0.507 OA
ATOM     27  H   UNL     1      -5.999   9.432 -29.214  1.00  0.00     0.293 HD
ENDBRANCH   6  26
BRANCH   8  28
ATOM     28  O   UNL     1      -6.165   9.875 -24.291  1.00  0.00    -0.508 OA
ATOM     29  H   UNL     1      -6.938   9.234 -24.420  1.00  0.00     0.293 HD
ENDBRANCH   8  28
TORSDOF 7
ENDMDL
