MODEL 1
REMARK VINA RESULT:    -4.532      0.000      0.000
REMARK INTER + INTRA:          -4.665
REMARK INTER:                  -4.665
REMARK INTRA:                   0.000
REMARK UNBOUND:                 0.000
REMARK SMILES O=c1ccc2ccc(O)cc2o1
REMARK SMILES IDX 6 1 7 2 8 3 10 4 11 5 5 6 4 7 3 8 2 9 1 10 12 11 9 12
REMARK H PARENT 9 13
REMARK Flexibility Score: inf
ROOT
ATOM      1  C   UNL     1       2.885  37.428   5.357  1.00  0.00     0.016 A 
ATOM      2  C   UNL     1       3.065  38.772   5.705  1.00  0.00     0.047 A 
ATOM      3  C   UNL     1       2.060  39.467   6.386  1.00  0.00     0.119 A 
ATOM      4  C   UNL     1       0.863  38.818   6.722  1.00  0.00     0.094 A 
ATOM      5  C   UNL     1       0.673  37.475   6.379  1.00  0.00     0.142 A 
ATOM      6  C   UNL     1       1.690  36.775   5.692  1.00  0.00     0.018 A 
ATOM      7  C   UNL     1       1.471  35.434   5.362  1.00  0.00     0.019 A 
ATOM      8  C   UNL     1       0.266  34.831   5.718  1.00  0.00     0.094 A 
ATOM      9  C   UNL     1      -0.697  35.585   6.397  1.00  0.00     0.336 A 
ATOM     10  O   UNL     1      -1.791  35.057   6.727  1.00  0.00    -0.246 OA
ATOM     11  O   UNL     1      -0.463  36.860   6.699  1.00  0.00    -0.423 OA
ENDROOT
BRANCH   3  12
ATOM     12  O   UNL     1       2.259  40.805   6.723  1.00  0.00    -0.508 OA
ATOM     13  H   UNL     1       2.867  41.074   7.487  1.00  0.00     0.293 HD
ENDBRANCH   3  12
TORSDOF 1
ENDMDL
MODEL 2
REMARK VINA RESULT:    -4.435      0.797      4.225
REMARK INTER + INTRA:          -4.565
REMARK INTER:                  -4.565
REMARK INTRA:                   0.000
REMARK UNBOUND:                 0.000
REMARK SMILES O=c1ccc2ccc(O)cc2o1
REMARK SMILES IDX 6 1 7 2 8 3 10 4 11 5 5 6 4 7 3 8 2 9 1 10 12 11 9 12
REMARK H PARENT 9 13
REMARK Flexibility Score: inf
ROOT
ATOM      1  C   UNL     1       1.721  35.464   5.409  1.00  0.00     0.016 A 
ATOM      2  C   UNL     1       0.550  34.743   5.664  1.00  0.00     0.047 A 
ATOM      3  C   UNL     1      -0.574  35.384   6.198  1.00  0.00     0.119 A 
ATOM      4  C   UNL     1      -0.529  36.757   6.480  1.00  0.00     0.094 A 
ATOM      5  C   UNL     1       0.637  37.488   6.227  1.00  0.00     0.142 A 
ATOM      6  C   UNL     1       1.770  36.837   5.688  1.00  0.00     0.018 A 
ATOM      7  C   UNL     1       2.921  37.594   5.447  1.00  0.00     0.019 A 
ATOM      8  C   UNL     1       2.918  38.956   5.742  1.00  0.00     0.094 A 
ATOM      9  C   UNL     1       1.760  39.533   6.275  1.00  0.00     0.336 A 
ATOM     10  O   UNL     1       1.738  40.762   6.547  1.00  0.00    -0.246 OA
ATOM     11  O   UNL     1       0.678  38.791   6.495  1.00  0.00    -0.423 OA
ENDROOT
BRANCH   3  12
ATOM     12  O   UNL     1      -1.731  34.647   6.447  1.00  0.00    -0.508 OA
ATOM     13  H   UNL     1      -2.613  35.101   6.650  1.00  0.00     0.293 HD
ENDBRANCH   3  12
TORSDOF 1
ENDMDL
MODEL 3
REMARK VINA RESULT:    -4.343      1.790      3.962
REMARK INTER + INTRA:          -4.470
REMARK INTER:                  -4.470
REMARK INTRA:                   0.000
REMARK UNBOUND:                 0.000
REMARK SMILES O=c1ccc2ccc(O)cc2o1
REMARK SMILES IDX 6 1 7 2 8 3 10 4 11 5 5 6 4 7 3 8 2 9 1 10 12 11 9 12
REMARK H PARENT 9 13
REMARK Flexibility Score: inf
ROOT
ATOM      1  C   UNL     1       2.388  37.598   5.687  1.00  0.00     0.016 A 
ATOM      2  C   UNL     1       2.104  36.269   5.353  1.00  0.00     0.047 A 
ATOM      3  C   UNL     1       0.852  35.718   5.648  1.00  0.00     0.119 A 
ATOM      4  C   UNL     1      -0.125  36.499   6.283  1.00  0.00     0.094 A 
ATOM      5  C   UNL     1       0.149  37.828   6.621  1.00  0.00     0.142 A 
ATOM      6  C   UNL     1       1.414  38.382   6.322  1.00  0.00     0.018 A 
ATOM      7  C   UNL     1       1.659  39.714   6.671  1.00  0.00     0.019 A 
ATOM      8  C   UNL     1       0.657  40.450   7.300  1.00  0.00     0.094 A 
ATOM      9  C   UNL     1      -0.572  39.836   7.567  1.00  0.00     0.336 A 
ATOM     10  O   UNL     1      -1.489  40.486   8.135  1.00  0.00    -0.246 OA
ATOM     11  O   UNL     1      -0.779  38.567   7.224  1.00  0.00    -0.423 OA
ENDROOT
BRANCH   3  12
ATOM     12  O   UNL     1       0.588  34.392   5.308  1.00  0.00    -0.508 OA
ATOM     13  H   UNL     1       0.639  34.072   4.349  1.00  0.00     0.293 HD
ENDBRANCH   3  12
TORSDOF 1
ENDMDL
MODEL 4
REMARK VINA RESULT:    -4.306      0.966      1.275
REMARK INTER + INTRA:          -4.432
REMARK INTER:                  -4.432
REMARK INTRA:                   0.000
REMARK UNBOUND:                 0.000
REMARK SMILES O=c1ccc2ccc(O)cc2o1
REMARK SMILES IDX 6 1 7 2 8 3 10 4 11 5 5 6 4 7 3 8 2 9 1 10 12 11 9 12
REMARK H PARENT 9 13
REMARK Flexibility Score: inf
ROOT
ATOM      1  C   UNL     1       2.098  36.233   5.015  1.00  0.00     0.016 A 
ATOM      2  C   UNL     1       2.832  37.424   5.010  1.00  0.00     0.047 A 
ATOM      3  C   UNL     1       2.365  38.546   5.703  1.00  0.00     0.119 A 
ATOM      4  C   UNL     1       1.154  38.480   6.407  1.00  0.00     0.094 A 
ATOM      5  C   UNL     1       0.412  37.293   6.419  1.00  0.00     0.142 A 
ATOM      6  C   UNL     1       0.887  36.162   5.718  1.00  0.00     0.018 A 
ATOM      7  C   UNL     1       0.125  34.990   5.748  1.00  0.00     0.019 A 
ATOM      8  C   UNL     1      -1.072  34.972   6.462  1.00  0.00     0.094 A 
ATOM      9  C   UNL     1      -1.481  36.130   7.133  1.00  0.00     0.336 A 
ATOM     10  O   UNL     1      -2.559  36.132   7.783  1.00  0.00    -0.246 OA
ATOM     11  O   UNL     1      -0.737  37.232   7.088  1.00  0.00    -0.423 OA
ENDROOT
BRANCH   3  12
ATOM     12  O   UNL     1       3.110  39.724   5.685  1.00  0.00    -0.508 OA
ATOM     13  H   UNL     1       2.701  40.605   5.399  1.00  0.00     0.293 HD
ENDBRANCH   3  12
TORSDOF 1
ENDMDL
MODEL 5
REMARK VINA RESULT:    -4.266      1.437      4.103
REMARK INTER + INTRA:          -4.390
REMARK INTER:                  -4.390
REMARK INTRA:                   0.000
REMARK UNBOUND:                 0.000
REMARK SMILES O=c1ccc2ccc(O)cc2o1
REMARK SMILES IDX 6 1 7 2 8 3 10 4 11 5 5 6 4 7 3 8 2 9 1 10 12 11 9 12
REMARK H PARENT 9 13
REMARK Flexibility Score: inf
ROOT
ATOM      1  C   UNL     1       0.250  35.030   5.720  1.00  0.00     0.016 A 
ATOM      2  C   UNL     1      -0.838  35.063   6.600  1.00  0.00     0.047 A 
ATOM      3  C   UNL     1      -1.226  36.266   7.202  1.00  0.00     0.119 A 
ATOM      4  C   UNL     1      -0.522  37.446   6.923  1.00  0.00     0.094 A 
ATOM      5  C   UNL     1       0.566  37.425   6.044  1.00  0.00     0.142 A 
ATOM      6  C   UNL     1       0.955  36.209   5.439  1.00  0.00     0.018 A 
ATOM      7  C   UNL     1       2.047  36.218   4.565  1.00  0.00     0.019 A 
ATOM      8  C   UNL     1       2.714  37.417   4.318  1.00  0.00     0.094 A 
ATOM      9  C   UNL     1       2.274  38.583   4.954  1.00  0.00     0.336 A 
ATOM     10  O   UNL     1       2.864  39.675   4.743  1.00  0.00    -0.246 OA
ATOM     11  O   UNL     1       1.232  38.547   5.781  1.00  0.00    -0.423 OA
ENDROOT
BRANCH   3  12
ATOM     12  O   UNL     1      -2.311  36.277   8.077  1.00  0.00    -0.508 OA
ATOM     13  H   UNL     1      -3.243  36.033   7.766  1.00  0.00     0.293 HD
ENDBRANCH   3  12
TORSDOF 1
ENDMDL
MODEL 6
REMARK VINA RESULT:    -4.229      3.444      4.716
REMARK INTER + INTRA:          -4.352
REMARK INTER:                  -4.352
REMARK INTRA:                   0.000
REMARK UNBOUND:                 0.000
REMARK SMILES O=c1ccc2ccc(O)cc2o1
REMARK SMILES IDX 6 1 7 2 8 3 10 4 11 5 5 6 4 7 3 8 2 9 1 10 12 11 9 12
REMARK H PARENT 9 13
REMARK Flexibility Score: inf
ROOT
ATOM      1  C   UNL     1       6.394  39.495   6.763  1.00  0.00     0.016 A 
ATOM      2  C   UNL     1       7.082  39.008   7.880  1.00  0.00     0.047 A 
ATOM      3  C   UNL     1       6.488  38.057   8.717  1.00  0.00     0.119 A 
ATOM      4  C   UNL     1       5.196  37.588   8.439  1.00  0.00     0.094 A 
ATOM      5  C   UNL     1       4.500  38.068   7.324  1.00  0.00     0.142 A 
ATOM      6  C   UNL     1       5.102  39.029   6.481  1.00  0.00     0.018 A 
ATOM      7  C   UNL     1       4.382  39.490   5.375  1.00  0.00     0.019 A 
ATOM      8  C   UNL     1       3.101  38.994   5.138  1.00  0.00     0.094 A 
ATOM      9  C   UNL     1       2.567  38.044   6.016  1.00  0.00     0.336 A 
ATOM     10  O   UNL     1       1.412  37.584   5.819  1.00  0.00    -0.246 OA
ATOM     11  O   UNL     1       3.274  37.621   7.062  1.00  0.00    -0.423 OA
ENDROOT
BRANCH   3  12
ATOM     12  O   UNL     1       7.190  37.585   9.826  1.00  0.00    -0.508 OA
ATOM     13  H   UNL     1       8.123  37.201   9.737  1.00  0.00     0.293 HD
ENDBRANCH   3  12
TORSDOF 1
ENDMDL
MODEL 7
REMARK VINA RESULT:    -4.074      3.569      5.083
REMARK INTER + INTRA:          -4.193
REMARK INTER:                  -4.193
REMARK INTRA:                   0.000
REMARK UNBOUND:                 0.000
REMARK SMILES O=c1ccc2ccc(O)cc2o1
REMARK SMILES IDX 6 1 7 2 8 3 10 4 11 5 5 6 4 7 3 8 2 9 1 10 12 11 9 12
REMARK H PARENT 9 13
REMARK Flexibility Score: inf
ROOT
ATOM      1  C   UNL     1       4.757  37.422   8.308  1.00  0.00     0.016 A 
ATOM      2  C   UNL     1       6.051  37.719   8.749  1.00  0.00     0.047 A 
ATOM      3  C   UNL     1       6.835  38.654   8.063  1.00  0.00     0.119 A 
ATOM      4  C   UNL     1       6.323  39.298   6.928  1.00  0.00     0.094 A 
ATOM      5  C   UNL     1       5.029  39.009   6.479  1.00  0.00     0.142 A 
ATOM      6  C   UNL     1       4.241  38.064   7.174  1.00  0.00     0.018 A 
ATOM      7  C   UNL     1       2.952  37.795   6.702  1.00  0.00     0.019 A 
ATOM      8  C   UNL     1       2.487  38.461   5.569  1.00  0.00     0.094 A 
ATOM      9  C   UNL     1       3.323  39.384   4.931  1.00  0.00     0.336 A 
ATOM     10  O   UNL     1       2.920  39.995   3.908  1.00  0.00    -0.246 OA
ATOM     11  O   UNL     1       4.545  39.621   5.401  1.00  0.00    -0.423 OA
ENDROOT
BRANCH   3  12
ATOM     12  O   UNL     1       8.122  38.936   8.518  1.00  0.00    -0.508 OA
ATOM     13  H   UNL     1       8.307  39.719   9.132  1.00  0.00     0.293 HD
ENDBRANCH   3  12
TORSDOF 1
ENDMDL
MODEL 8
REMARK VINA RESULT:    -4.067      3.498      5.622
REMARK INTER + INTRA:          -4.186
REMARK INTER:                  -4.186
REMARK INTRA:                   0.000
REMARK UNBOUND:                 0.000
REMARK SMILES O=c1ccc2ccc(O)cc2o1
REMARK SMILES IDX 6 1 7 2 8 3 10 4 11 5 5 6 4 7 3 8 2 9 1 10 12 11 9 12
REMARK H PARENT 9 13
REMARK Flexibility Score: inf
ROOT
ATOM      1  C   UNL     1       2.987  37.784   6.896  1.00  0.00     0.016 A 
ATOM      2  C   UNL     1       2.436  38.398   5.766  1.00  0.00     0.047 A 
ATOM      3  C   UNL     1       3.201  39.283   4.998  1.00  0.00     0.119 A 
ATOM      4  C   UNL     1       4.527  39.559   5.361  1.00  0.00     0.094 A 
ATOM      5  C   UNL     1       5.088  38.950   6.488  1.00  0.00     0.142 A 
ATOM      6  C   UNL     1       4.313  38.057   7.262  1.00  0.00     0.018 A 
ATOM      7  C   UNL     1       4.901  37.463   8.384  1.00  0.00     0.019 A 
ATOM      8  C   UNL     1       6.223  37.768   8.704  1.00  0.00     0.094 A 
ATOM      9  C   UNL     1       6.930  38.662   7.893  1.00  0.00     0.336 A 
ATOM     10  O   UNL     1       8.125  38.949   8.166  1.00  0.00    -0.246 OA
ATOM     11  O   UNL     1       6.347  39.213   6.831  1.00  0.00    -0.423 OA
ENDROOT
BRANCH   3  12
ATOM     12  O   UNL     1       2.633  39.885   3.876  1.00  0.00    -0.508 OA
ATOM     13  H   UNL     1       3.173  40.055   3.037  1.00  0.00     0.293 HD
ENDBRANCH   3  12
TORSDOF 1
ENDMDL
MODEL 9
REMARK VINA RESULT:    -4.067      1.739      4.880
REMARK INTER + INTRA:          -4.186
REMARK INTER:                  -4.186
REMARK INTRA:                   0.000
REMARK UNBOUND:                 0.000
REMARK SMILES O=c1ccc2ccc(O)cc2o1
REMARK SMILES IDX 6 1 7 2 8 3 10 4 11 5 5 6 4 7 3 8 2 9 1 10 12 11 9 12
REMARK H PARENT 9 13
REMARK Flexibility Score: inf
ROOT
ATOM      1  C   UNL     1       0.090  37.892   6.400  1.00  0.00     0.016 A 
ATOM      2  C   UNL     1      -0.182  36.559   6.070  1.00  0.00     0.047 A 
ATOM      3  C   UNL     1       0.836  35.727   5.592  1.00  0.00     0.119 A 
ATOM      4  C   UNL     1       2.137  36.228   5.441  1.00  0.00     0.094 A 
ATOM      5  C   UNL     1       2.420  37.558   5.768  1.00  0.00     0.142 A 
ATOM      6  C   UNL     1       1.389  38.396   6.251  1.00  0.00     0.018 A 
ATOM      7  C   UNL     1       1.702  39.721   6.570  1.00  0.00     0.019 A 
ATOM      8  C   UNL     1       3.009  40.174   6.404  1.00  0.00     0.094 A 
ATOM      9  C   UNL     1       3.979  39.288   5.920  1.00  0.00     0.336 A 
ATOM     10  O   UNL     1       5.166  39.678   5.764  1.00  0.00    -0.246 OA
ATOM     11  O   UNL     1       3.655  38.032   5.624  1.00  0.00    -0.423 OA
ENDROOT
BRANCH   3  12
ATOM     12  O   UNL     1       0.544  34.403   5.268  1.00  0.00    -0.508 OA
ATOM     13  H   UNL     1      -0.045  33.830   5.860  1.00  0.00     0.293 HD
ENDBRANCH   3  12
TORSDOF 1
ENDMDL
