MODEL 1
REMARK VINA RESULT:    -3.577      0.000      0.000
REMARK INTER + INTRA:          -4.239
REMARK INTER:                  -4.204
REMARK INTRA:                  -0.035
REMARK UNBOUND:                -0.035
REMARK SMILES O=C([O-])CCC(=O)[O-]
REMARK SMILES IDX 4 1 2 2 1 3 3 4 5 5 6 6 7 7 8 8
REMARK H PARENT
REMARK Flexibility Score: inf
ROOT
ATOM      1  C   UNL     1      99.489  69.908  68.713  1.00  0.00     0.059 C 
ENDROOT
BRANCH   1   2
ATOM      2  C   UNL     1      98.361  70.869  68.934  1.00  0.00     0.042 C 
ATOM      3  O   UNL     1      98.579  72.109  68.953  1.00  0.00    -0.550 OA
ATOM      4  O   UNL     1      97.064  70.396  69.081  1.00  0.00    -0.550 OA
ENDBRANCH   1   2
BRANCH   1   5
ATOM      5  C   UNL     1      99.289  68.610  69.504  1.00  0.00     0.059 C 
BRANCH   5   6
ATOM      6  C   UNL     1     100.501  68.268  70.317  1.00  0.00     0.042 C 
ATOM      7  O   UNL     1     101.562  67.898  69.748  1.00  0.00    -0.550 OA
ATOM      8  O   UNL     1     100.445  68.319  71.703  1.00  0.00    -0.550 OA
ENDBRANCH   5   6
ENDBRANCH   1   5
TORSDOF 3
ENDMDL
MODEL 2
REMARK VINA RESULT:    -3.570      2.365      4.526
REMARK INTER + INTRA:          -4.231
REMARK INTER:                  -4.192
REMARK INTRA:                  -0.039
REMARK UNBOUND:                -0.035
REMARK SMILES O=C([O-])CCC(=O)[O-]
REMARK SMILES IDX 4 1 2 2 1 3 3 4 5 5 6 6 7 7 8 8
REMARK H PARENT
REMARK Flexibility Score: inf
ROOT
ATOM      1  C   UNL     1     100.500  69.201  72.390  1.00  0.00     0.059 C 
ENDROOT
BRANCH   1   2
ATOM      2  C   UNL     1     101.301  68.982  73.637  1.00  0.00     0.042 C 
ATOM      3  O   UNL     1     102.000  67.942  73.767  1.00  0.00    -0.550 OA
ATOM      4  O   UNL     1     101.306  69.944  74.638  1.00  0.00    -0.550 OA
ENDBRANCH   1   2
BRANCH   1   5
ATOM      5  C   UNL     1     100.702  68.063  71.382  1.00  0.00     0.059 C 
BRANCH   5   6
ATOM      6  C   UNL     1     100.401  68.506  69.983  1.00  0.00     0.042 C 
ATOM      7  O   UNL     1     100.877  67.875  69.002  1.00  0.00    -0.550 OA
ATOM      8  O   UNL     1      99.629  69.639  69.763  1.00  0.00    -0.550 OA
ENDBRANCH   5   6
ENDBRANCH   1   5
TORSDOF 3
ENDMDL
MODEL 3
REMARK VINA RESULT:    -3.542      5.328      6.460
REMARK INTER + INTRA:          -4.198
REMARK INTER:                  -4.160
REMARK INTRA:                  -0.038
REMARK UNBOUND:                -0.035
REMARK SMILES O=C([O-])CCC(=O)[O-]
REMARK SMILES IDX 4 1 2 2 1 3 3 4 5 5 6 6 7 7 8 8
REMARK H PARENT
REMARK Flexibility Score: inf
ROOT
ATOM      1  C   UNL     1     103.181  71.196  74.755  1.00  0.00     0.059 C 
ENDROOT
BRANCH   1   2
ATOM      2  C   UNL     1     103.569  72.597  74.392  1.00  0.00     0.042 C 
ATOM      3  O   UNL     1     104.656  73.080  74.807  1.00  0.00    -0.550 OA
ATOM      4  O   UNL     1     102.751  73.353  73.565  1.00  0.00    -0.550 OA
ENDBRANCH   1   2
BRANCH   1   5
ATOM      5  C   UNL     1     101.660  71.009  74.734  1.00  0.00     0.059 C 
BRANCH   5   6
ATOM      6  C   UNL     1     101.281  69.617  74.326  1.00  0.00     0.042 C 
ATOM      7  O   UNL     1     101.660  68.631  75.011  1.00  0.00    -0.550 OA
ATOM      8  O   UNL     1     100.543  69.409  73.168  1.00  0.00    -0.550 OA
ENDBRANCH   5   6
ENDBRANCH   1   5
TORSDOF 3
ENDMDL
MODEL 4
REMARK VINA RESULT:    -3.532      2.286      3.419
REMARK INTER + INTRA:          -4.186
REMARK INTER:                  -4.147
REMARK INTRA:                  -0.039
REMARK UNBOUND:                -0.035
REMARK SMILES O=C([O-])CCC(=O)[O-]
REMARK SMILES IDX 4 1 2 2 1 3 3 4 5 5 6 6 7 7 8 8
REMARK H PARENT
REMARK Flexibility Score: inf
ROOT
ATOM      1  C   UNL     1     100.618  68.080  71.167  1.00  0.00     0.059 C 
ENDROOT
BRANCH   1   2
ATOM      2  C   UNL     1     100.229  68.566  69.804  1.00  0.00     0.042 C 
ATOM      3  O   UNL     1     100.507  67.881  68.784  1.00  0.00    -0.550 OA
ATOM      4  O   UNL     1      99.525  69.753  69.664  1.00  0.00    -0.550 OA
ENDBRANCH   1   2
BRANCH   1   5
ATOM      5  C   UNL     1     100.403  69.161  72.233  1.00  0.00     0.059 C 
BRANCH   5   6
ATOM      6  C   UNL     1     101.265  68.926  73.437  1.00  0.00     0.042 C 
ATOM      7  O   UNL     1     101.952  67.875  73.529  1.00  0.00    -0.550 OA
ATOM      8  O   UNL     1     101.276  69.849  74.475  1.00  0.00    -0.550 OA
ENDBRANCH   5   6
ENDBRANCH   1   5
TORSDOF 3
ENDMDL
MODEL 5
REMARK VINA RESULT:    -3.521      5.207      6.603
REMARK INTER + INTRA:          -4.174
REMARK INTER:                  -4.128
REMARK INTRA:                  -0.045
REMARK UNBOUND:                -0.035
REMARK SMILES O=C([O-])CCC(=O)[O-]
REMARK SMILES IDX 4 1 2 2 1 3 3 4 5 5 6 6 7 7 8 8
REMARK H PARENT
REMARK Flexibility Score: inf
ROOT
ATOM      1  C   UNL     1     101.581  70.844  74.686  1.00  0.00     0.059 C 
ENDROOT
BRANCH   1   2
ATOM      2  C   UNL     1     101.282  69.487  74.126  1.00  0.00     0.042 C 
ATOM      3  O   UNL     1     101.671  68.453  74.730  1.00  0.00    -0.550 OA
ATOM      4  O   UNL     1     100.542  69.365  72.958  1.00  0.00    -0.550 OA
ENDBRANCH   1   2
BRANCH   1   5
ATOM      5  C   UNL     1     103.090  71.104  74.760  1.00  0.00     0.059 C 
BRANCH   5   6
ATOM      6  C   UNL     1     103.425  72.519  74.396  1.00  0.00     0.042 C 
ATOM      7  O   UNL     1     102.642  73.188  73.671  1.00  0.00    -0.550 OA
ATOM      8  O   UNL     1     104.619  73.083  74.823  1.00  0.00    -0.550 OA
ENDBRANCH   5   6
ENDBRANCH   1   5
TORSDOF 3
ENDMDL
MODEL 6
REMARK VINA RESULT:    -3.342     11.352     13.385
REMARK INTER + INTRA:          -3.963
REMARK INTER:                  -3.931
REMARK INTRA:                  -0.031
REMARK UNBOUND:                -0.035
REMARK SMILES O=C([O-])CCC(=O)[O-]
REMARK SMILES IDX 4 1 2 2 1 3 3 4 5 5 6 6 7 7 8 8
REMARK H PARENT
REMARK Flexibility Score: inf
ROOT
ATOM      1  C   UNL     1      92.983  80.197  69.219  1.00  0.00     0.059 C 
ENDROOT
BRANCH   1   2
ATOM      2  C   UNL     1      92.929  78.940  70.032  1.00  0.00     0.042 C 
ATOM      3  O   UNL     1      93.757  78.750  70.962  1.00  0.00    -0.550 OA
ATOM      4  O   UNL     1      91.940  77.996  69.789  1.00  0.00    -0.550 OA
ENDBRANCH   1   2
BRANCH   1   5
ATOM      5  C   UNL     1      91.875  80.232  68.160  1.00  0.00     0.059 C 
BRANCH   5   6
ATOM      6  C   UNL     1      91.907  81.505  67.370  1.00  0.00     0.042 C 
ATOM      7  O   UNL     1      92.000  81.470  66.115  1.00  0.00    -0.550 OA
ATOM      8  O   UNL     1      91.875  82.730  68.024  1.00  0.00    -0.550 OA
ENDBRANCH   5   6
ENDBRANCH   1   5
TORSDOF 3
ENDMDL
MODEL 7
REMARK VINA RESULT:    -3.296      3.968      5.469
REMARK INTER + INTRA:          -3.909
REMARK INTER:                  -3.794
REMARK INTRA:                  -0.115
REMARK UNBOUND:                -0.035
REMARK SMILES O=C([O-])CCC(=O)[O-]
REMARK SMILES IDX 4 1 2 2 1 3 3 4 5 5 6 6 7 7 8 8
REMARK H PARENT
REMARK Flexibility Score: inf
ROOT
ATOM      1  C   UNL     1     102.472  69.757  74.394  1.00  0.00     0.059 C 
ENDROOT
BRANCH   1   2
ATOM      2  C   UNL     1     101.667  70.815  75.085  1.00  0.00     0.042 C 
ATOM      3  O   UNL     1     102.054  72.013  75.076  1.00  0.00    -0.550 OA
ATOM      4  O   UNL     1     100.469  70.484  75.703  1.00  0.00    -0.550 OA
ENDBRANCH   1   2
BRANCH   1   5
ATOM      5  C   UNL     1     101.614  68.539  74.034  1.00  0.00     0.059 C 
BRANCH   5   6
ATOM      6  C   UNL     1     101.142  68.597  72.613  1.00  0.00     0.042 C 
ATOM      7  O   UNL     1     100.122  69.271  72.311  1.00  0.00    -0.550 OA
ATOM      8  O   UNL     1     101.805  67.875  71.630  1.00  0.00    -0.550 OA
ENDBRANCH   5   6
ENDBRANCH   1   5
TORSDOF 3
ENDMDL
