MODEL 1
REMARK VINA RESULT:    -3.964      0.000      0.000
REMARK INTER + INTRA:          -8.082
REMARK INTER:                  -6.745
REMARK INTRA:                  -1.338
REMARK UNBOUND:                -1.338
REMARK SMILES CCCCCCCCCCCCCC(=O)[O-]
REMARK SMILES IDX 8 1 9 2 10 3 11 4 12 5 13 6 14 7 15 8 16 9 7 10 6 11 5 12
REMARK SMILES IDX 4 13 3 14 2 15 1 16
REMARK H PARENT
REMARK Flexibility Score: inf
ROOT
ATOM      1  C   UNL     1     -15.040   6.940  29.653  1.00  0.00     0.000 C 
ENDROOT
BRANCH   1   2
ATOM      2  C   UNL     1     -16.299   6.823  30.520  1.00  0.00     0.000 C 
BRANCH   2   3
ATOM      3  C   UNL     1     -16.266   5.548  31.370  1.00  0.00     0.000 C 
BRANCH   3   4
ATOM      4  C   UNL     1     -15.189   4.577  30.863  1.00  0.00     0.000 C 
BRANCH   4   5
ATOM      5  C   UNL     1     -14.469   3.843  32.006  1.00  0.00     0.006 C 
BRANCH   5   6
ATOM      6  C   UNL     1     -15.428   3.394  33.117  1.00  0.00     0.053 C 
BRANCH   6   7
ATOM      7  C   UNL     1     -15.768   1.946  32.959  1.00  0.00     0.041 C 
ATOM      8  O   UNL     1     -15.097   1.218  32.180  1.00  0.00    -0.550 OA
ATOM      9  O   UNL     1     -16.856   1.410  33.635  1.00  0.00    -0.550 OA
ENDBRANCH   6   7
ENDBRANCH   5   6
ENDBRANCH   4   5
ENDBRANCH   3   4
ENDBRANCH   2   3
ENDBRANCH   1   2
BRANCH   1  10
ATOM     10  C   UNL     1     -14.822   8.385  29.189  1.00  0.00     0.000 C 
BRANCH  10  11
ATOM     11  C   UNL     1     -13.857   8.440  27.995  1.00  0.00    -0.000 C 
BRANCH  11  12
ATOM     12  C   UNL     1     -12.460   8.962  28.379  1.00  0.00    -0.000 C 
BRANCH  12  13
ATOM     13  C   UNL     1     -11.525   7.915  29.015  1.00  0.00    -0.000 C 
BRANCH  13  14
ATOM     14  C   UNL     1     -11.457   6.563  28.277  1.00  0.00    -0.000 C 
BRANCH  14  15
ATOM     15  C   UNL     1     -11.812   5.338  29.139  1.00  0.00    -0.003 C 
ATOM     16  C   UNL     1     -11.478   5.533  30.617  1.00  0.00     0.004 C 
ENDBRANCH  14  15
ENDBRANCH  13  14
ENDBRANCH  12  13
ENDBRANCH  11  12
ENDBRANCH  10  11
ENDBRANCH   1  10
TORSDOF 12
ENDMDL
MODEL 2
REMARK VINA RESULT:    -3.906      2.565      5.658
REMARK INTER + INTRA:          -7.983
REMARK INTER:                  -6.855
REMARK INTRA:                  -1.128
REMARK UNBOUND:                -1.338
REMARK SMILES CCCCCCCCCCCCCC(=O)[O-]
REMARK SMILES IDX 8 1 9 2 10 3 11 4 12 5 13 6 14 7 15 8 16 9 7 10 6 11 5 12
REMARK SMILES IDX 4 13 3 14 2 15 1 16
REMARK H PARENT
REMARK Flexibility Score: inf
ROOT
ATOM      1  C   UNL     1     -15.183   6.311  29.349  1.00  0.00     0.000 C 
ENDROOT
BRANCH   1   2
ATOM      2  C   UNL     1     -13.994   7.231  29.046  1.00  0.00     0.000 C 
BRANCH   2   3
ATOM      3  C   UNL     1     -12.667   6.472  29.161  1.00  0.00     0.000 C 
BRANCH   3   4
ATOM      4  C   UNL     1     -12.906   4.994  29.508  1.00  0.00     0.000 C 
BRANCH   4   5
ATOM      5  C   UNL     1     -12.398   4.627  30.911  1.00  0.00     0.006 C 
BRANCH   5   6
ATOM      6  C   UNL     1     -11.059   5.297  31.248  1.00  0.00     0.053 C 
BRANCH   6   7
ATOM      7  C   UNL     1     -10.012   4.263  31.519  1.00  0.00     0.041 C 
ATOM      8  O   UNL     1     -10.333   3.050  31.632  1.00  0.00    -0.550 OA
ATOM      9  O   UNL     1      -8.688   4.643  31.695  1.00  0.00    -0.550 OA
ENDBRANCH   6   7
ENDBRANCH   5   6
ENDBRANCH   4   5
ENDBRANCH   3   4
ENDBRANCH   2   3
ENDBRANCH   1   2
BRANCH   1  10
ATOM     10  C   UNL     1     -16.033   6.870  30.496  1.00  0.00     0.000 C 
BRANCH  10  11
ATOM     11  C   UNL     1     -16.561   5.738  31.391  1.00  0.00    -0.000 C 
BRANCH  11  12
ATOM     12  C   UNL     1     -16.375   4.344  30.765  1.00  0.00    -0.000 C 
BRANCH  12  13
ATOM     13  C   UNL     1     -16.638   3.162  31.718  1.00  0.00    -0.000 C 
BRANCH  13  14
ATOM     14  C   UNL     1     -16.811   3.542  33.202  1.00  0.00    -0.000 C 
BRANCH  14  15
ATOM     15  C   UNL     1     -16.005   2.678  34.188  1.00  0.00    -0.003 C 
ATOM     16  C   UNL     1     -16.425   1.210  34.175  1.00  0.00     0.004 C 
ENDBRANCH  14  15
ENDBRANCH  13  14
ENDBRANCH  12  13
ENDBRANCH  11  12
ENDBRANCH  10  11
ENDBRANCH   1  10
TORSDOF 12
ENDMDL
MODEL 3
REMARK VINA RESULT:    -3.832      3.482      7.053
REMARK INTER + INTRA:          -7.858
REMARK INTER:                  -6.864
REMARK INTRA:                  -0.994
REMARK UNBOUND:                -1.338
REMARK SMILES CCCCCCCCCCCCCC(=O)[O-]
REMARK SMILES IDX 8 1 9 2 10 3 11 4 12 5 13 6 14 7 15 8 16 9 7 10 6 11 5 12
REMARK SMILES IDX 4 13 3 14 2 15 1 16
REMARK H PARENT
REMARK Flexibility Score: inf
ROOT
ATOM      1  C   UNL     1     -16.015   4.044  32.269  1.00  0.00     0.000 C 
ENDROOT
BRANCH   1   2
ATOM      2  C   UNL     1     -16.743   5.263  31.690  1.00  0.00     0.000 C 
BRANCH   2   3
ATOM      3  C   UNL     1     -16.081   5.732  30.389  1.00  0.00     0.000 C 
BRANCH   3   4
ATOM      4  C   UNL     1     -16.017   7.266  30.327  1.00  0.00     0.000 C 
BRANCH   4   5
ATOM      5  C   UNL     1     -14.937   7.774  29.360  1.00  0.00     0.006 C 
BRANCH   5   6
ATOM      6  C   UNL     1     -13.814   6.752  29.138  1.00  0.00     0.053 C 
BRANCH   6   7
ATOM      7  C   UNL     1     -12.939   7.177  28.002  1.00  0.00     0.041 C 
ATOM      8  O   UNL     1     -11.698   7.311  28.173  1.00  0.00    -0.550 OA
ATOM      9  O   UNL     1     -13.498   7.473  26.766  1.00  0.00    -0.550 OA
ENDBRANCH   6   7
ENDBRANCH   5   6
ENDBRANCH   4   5
ENDBRANCH   3   4
ENDBRANCH   2   3
ENDBRANCH   1   2
BRANCH   1  10
ATOM     10  C   UNL     1     -16.811   3.425  33.425  1.00  0.00     0.000 C 
BRANCH  10  11
ATOM     11  C   UNL     1     -15.891   2.625  34.360  1.00  0.00    -0.000 C 
BRANCH  11  12
ATOM     12  C   UNL     1     -16.339   1.163  34.532  1.00  0.00    -0.000 C 
BRANCH  12  13
ATOM     13  C   UNL     1     -16.947   0.515  33.272  1.00  0.00    -0.000 C 
BRANCH  13  14
ATOM     14  C   UNL     1     -15.956  -0.279  32.399  1.00  0.00    -0.000 C 
BRANCH  14  15
ATOM     15  C   UNL     1     -15.526   0.428  31.102  1.00  0.00    -0.003 C 
ATOM     16  C   UNL     1     -14.133   1.047  31.195  1.00  0.00     0.004 C 
ENDBRANCH  14  15
ENDBRANCH  13  14
ENDBRANCH  12  13
ENDBRANCH  11  12
ENDBRANCH  10  11
ENDBRANCH   1  10
TORSDOF 12
ENDMDL
MODEL 4
REMARK VINA RESULT:    -3.796      3.233      5.822
REMARK INTER + INTRA:          -7.798
REMARK INTER:                  -6.521
REMARK INTRA:                  -1.276
REMARK UNBOUND:                -1.338
REMARK SMILES CCCCCCCCCCCCCC(=O)[O-]
REMARK SMILES IDX 8 1 9 2 10 3 11 4 12 5 13 6 14 7 15 8 16 9 7 10 6 11 5 12
REMARK SMILES IDX 4 13 3 14 2 15 1 16
REMARK H PARENT
REMARK Flexibility Score: inf
ROOT
ATOM      1  C   UNL     1     -16.420   5.385  30.514  1.00  0.00     0.000 C 
ENDROOT
BRANCH   1   2
ATOM      2  C   UNL     1     -16.062   6.875  30.479  1.00  0.00     0.000 C 
BRANCH   2   3
ATOM      3  C   UNL     1     -14.837   7.127  29.592  1.00  0.00     0.000 C 
BRANCH   3   4
ATOM      4  C   UNL     1     -14.868   8.546  29.003  1.00  0.00     0.000 C 
BRANCH   4   5
ATOM      5  C   UNL     1     -13.697   8.812  28.043  1.00  0.00     0.006 C 
BRANCH   5   6
ATOM      6  C   UNL     1     -12.334   8.769  28.746  1.00  0.00     0.053 C 
BRANCH   6   7
ATOM      7  C   UNL     1     -11.516   7.630  28.227  1.00  0.00     0.041 C 
ATOM      8  O   UNL     1     -10.300   7.528  28.541  1.00  0.00    -0.550 OA
ATOM      9  O   UNL     1     -12.081   6.707  27.357  1.00  0.00    -0.550 OA
ENDBRANCH   6   7
ENDBRANCH   5   6
ENDBRANCH   4   5
ENDBRANCH   3   4
ENDBRANCH   2   3
ENDBRANCH   1   2
BRANCH   1  10
ATOM     10  C   UNL     1     -16.831   4.950  31.926  1.00  0.00     0.000 C 
BRANCH  10  11
ATOM     11  C   UNL     1     -16.055   3.698  32.364  1.00  0.00    -0.000 C 
BRANCH  11  12
ATOM     12  C   UNL     1     -14.530   3.898  32.327  1.00  0.00    -0.000 C 
BRANCH  12  13
ATOM     13  C   UNL     1     -13.757   2.860  31.489  1.00  0.00    -0.000 C 
BRANCH  13  14
ATOM     14  C   UNL     1     -12.742   3.450  30.490  1.00  0.00    -0.000 C 
BRANCH  14  15
ATOM     15  C   UNL     1     -12.298   4.892  30.794  1.00  0.00    -0.003 C 
ATOM     16  C   UNL     1     -10.861   4.977  31.304  1.00  0.00     0.004 C 
ENDBRANCH  14  15
ENDBRANCH  13  14
ENDBRANCH  12  13
ENDBRANCH  11  12
ENDBRANCH  10  11
ENDBRANCH   1  10
TORSDOF 12
ENDMDL
MODEL 5
REMARK VINA RESULT:    -3.764      3.946      7.067
REMARK INTER + INTRA:          -7.743
REMARK INTER:                  -7.312
REMARK INTRA:                  -0.431
REMARK UNBOUND:                -1.338
REMARK SMILES CCCCCCCCCCCCCC(=O)[O-]
REMARK SMILES IDX 8 1 9 2 10 3 11 4 12 5 13 6 14 7 15 8 16 9 7 10 6 11 5 12
REMARK SMILES IDX 4 13 3 14 2 15 1 16
REMARK H PARENT
REMARK Flexibility Score: inf
ROOT
ATOM      1  C   UNL     1     -14.859   7.092  29.659  1.00  0.00     0.000 C 
ENDROOT
BRANCH   1   2
ATOM      2  C   UNL     1     -14.989   8.503  29.073  1.00  0.00     0.000 C 
BRANCH   2   3
ATOM      3  C   UNL     1     -13.778   8.851  28.200  1.00  0.00     0.000 C 
BRANCH   3   4
ATOM      4  C   UNL     1     -12.509   8.159  28.719  1.00  0.00     0.000 C 
BRANCH   4   5
ATOM      5  C   UNL     1     -11.322   9.125  28.855  1.00  0.00     0.006 C 
BRANCH   5   6
ATOM      6  C   UNL     1     -10.271   8.634  29.860  1.00  0.00     0.053 C 
BRANCH   6   7
ATOM      7  C   UNL     1      -9.175   7.901  29.153  1.00  0.00     0.041 C 
ATOM      8  O   UNL     1      -8.228   7.391  29.808  1.00  0.00    -0.550 OA
ATOM      9  O   UNL     1      -9.173   7.823  27.766  1.00  0.00    -0.550 OA
ENDBRANCH   6   7
ENDBRANCH   5   6
ENDBRANCH   4   5
ENDBRANCH   3   4
ENDBRANCH   2   3
ENDBRANCH   1   2
BRANCH   1  10
ATOM     10  C   UNL     1     -16.101   6.718  30.477  1.00  0.00     0.000 C 
BRANCH  10  11
ATOM     11  C   UNL     1     -16.304   5.195  30.504  1.00  0.00    -0.000 C 
BRANCH  11  12
ATOM     12  C   UNL     1     -16.603   4.657  31.914  1.00  0.00    -0.000 C 
BRANCH  12  13
ATOM     13  C   UNL     1     -15.627   3.577  32.421  1.00  0.00    -0.000 C 
BRANCH  13  14
ATOM     14  C   UNL     1     -15.776   3.204  33.909  1.00  0.00    -0.000 C 
BRANCH  14  15
ATOM     15  C   UNL     1     -16.648   1.966  34.181  1.00  0.00    -0.003 C 
ATOM     16  C   UNL     1     -16.100   1.087  35.304  1.00  0.00     0.004 C 
ENDBRANCH  14  15
ENDBRANCH  13  14
ENDBRANCH  12  13
ENDBRANCH  11  12
ENDBRANCH  10  11
ENDBRANCH   1  10
TORSDOF 12
ENDMDL
MODEL 6
REMARK VINA RESULT:    -3.727     20.961     23.163
REMARK INTER + INTRA:          -7.679
REMARK INTER:                  -5.691
REMARK INTRA:                  -1.988
REMARK UNBOUND:                -1.338
REMARK SMILES CCCCCCCCCCCCCC(=O)[O-]
REMARK SMILES IDX 8 1 9 2 10 3 11 4 12 5 13 6 14 7 15 8 16 9 7 10 6 11 5 12
REMARK SMILES IDX 4 13 3 14 2 15 1 16
REMARK H PARENT
REMARK Flexibility Score: inf
ROOT
ATOM      1  C   UNL     1      -0.034  -7.887  22.842  1.00  0.00     0.000 C 
ENDROOT
BRANCH   1   2
ATOM      2  C   UNL     1       0.749  -8.623  21.748  1.00  0.00     0.000 C 
BRANCH   2   3
ATOM      3  C   UNL     1       2.211  -8.828  22.159  1.00  0.00     0.000 C 
BRANCH   3   4
ATOM      4  C   UNL     1       3.125  -8.897  20.926  1.00  0.00     0.000 C 
BRANCH   4   5
ATOM      5  C   UNL     1       2.337  -8.923  19.607  1.00  0.00     0.006 C 
BRANCH   5   6
ATOM      6  C   UNL     1       2.416 -10.282  18.899  1.00  0.00     0.053 C 
BRANCH   6   7
ATOM      7  C   UNL     1       1.359 -10.384  17.845  1.00  0.00     0.041 C 
ATOM      8  O   UNL     1       1.665 -10.724  16.671  1.00  0.00    -0.550 OA
ATOM      9  O   UNL     1       0.044 -10.054  18.145  1.00  0.00    -0.550 OA
ENDBRANCH   6   7
ENDBRANCH   5   6
ENDBRANCH   4   5
ENDBRANCH   3   4
ENDBRANCH   2   3
ENDBRANCH   1   2
BRANCH   1  10
ATOM     10  C   UNL     1       0.801  -6.752  23.447  1.00  0.00     0.000 C 
BRANCH  10  11
ATOM     11  C   UNL     1       0.692  -5.476  22.598  1.00  0.00    -0.000 C 
BRANCH  11  12
ATOM     12  C   UNL     1       2.024  -5.087  21.931  1.00  0.00    -0.000 C 
BRANCH  12  13
ATOM     13  C   UNL     1       2.013  -5.115  20.390  1.00  0.00    -0.000 C 
BRANCH  13  14
ATOM     14  C   UNL     1       0.619  -5.004  19.742  1.00  0.00    -0.000 C 
BRANCH  14  15
ATOM     15  C   UNL     1       0.202  -6.218  18.894  1.00  0.00    -0.003 C 
ATOM     16  C   UNL     1      -1.251  -6.631  19.120  1.00  0.00     0.004 C 
ENDBRANCH  14  15
ENDBRANCH  13  14
ENDBRANCH  12  13
ENDBRANCH  11  12
ENDBRANCH  10  11
ENDBRANCH   1  10
TORSDOF 12
ENDMDL
MODEL 7
REMARK VINA RESULT:    -3.717      2.712      5.328
REMARK INTER + INTRA:          -7.662
REMARK INTER:                  -6.509
REMARK INTRA:                  -1.153
REMARK UNBOUND:                -1.338
REMARK SMILES CCCCCCCCCCCCCC(=O)[O-]
REMARK SMILES IDX 8 1 9 2 10 3 11 4 12 5 13 6 14 7 15 8 16 9 7 10 6 11 5 12
REMARK SMILES IDX 4 13 3 14 2 15 1 16
REMARK H PARENT
REMARK Flexibility Score: inf
ROOT
ATOM      1  C   UNL     1     -13.971   8.105  28.411  1.00  0.00     0.000 C 
ENDROOT
BRANCH   1   2
ATOM      2  C   UNL     1     -12.440   8.062  28.338  1.00  0.00     0.000 C 
BRANCH   2   3
ATOM      3  C   UNL     1     -11.895   6.770  28.957  1.00  0.00     0.000 C 
BRANCH   3   4
ATOM      4  C   UNL     1     -10.595   7.037  29.732  1.00  0.00     0.000 C 
BRANCH   4   5
ATOM      5  C   UNL     1     -10.377   6.039  30.881  1.00  0.00     0.006 C 
BRANCH   5   6
ATOM      6  C   UNL     1      -9.003   5.358  30.818  1.00  0.00     0.053 C 
BRANCH   6   7
ATOM      7  C   UNL     1      -8.949   4.204  31.768  1.00  0.00     0.041 C 
ATOM      8  O   UNL     1      -8.051   4.150  32.650  1.00  0.00    -0.550 OA
ATOM      9  O   UNL     1      -9.861   3.163  31.650  1.00  0.00    -0.550 OA
ENDBRANCH   6   7
ENDBRANCH   5   6
ENDBRANCH   4   5
ENDBRANCH   3   4
ENDBRANCH   2   3
ENDBRANCH   1   2
BRANCH   1  10
ATOM     10  C   UNL     1     -14.515   6.944  29.253  1.00  0.00     0.000 C 
BRANCH  10  11
ATOM     11  C   UNL     1     -15.694   7.403  30.125  1.00  0.00    -0.000 C 
BRANCH  11  12
ATOM     12  C   UNL     1     -16.375   6.240  30.869  1.00  0.00    -0.000 C 
BRANCH  12  13
ATOM     13  C   UNL     1     -16.168   4.850  30.235  1.00  0.00    -0.000 C 
BRANCH  13  14
ATOM     14  C   UNL     1     -15.877   3.712  31.232  1.00  0.00    -0.000 C 
BRANCH  14  15
ATOM     15  C   UNL     1     -14.577   3.875  32.039  1.00  0.00    -0.003 C 
ATOM     16  C   UNL     1     -13.330   3.907  31.158  1.00  0.00     0.004 C 
ENDBRANCH  14  15
ENDBRANCH  13  14
ENDBRANCH  12  13
ENDBRANCH  11  12
ENDBRANCH  10  11
ENDBRANCH   1  10
TORSDOF 12
ENDMDL
MODEL 8
REMARK VINA RESULT:    -3.707      1.676      3.310
REMARK INTER + INTRA:          -7.646
REMARK INTER:                  -6.279
REMARK INTRA:                  -1.366
REMARK UNBOUND:                -1.338
REMARK SMILES CCCCCCCCCCCCCC(=O)[O-]
REMARK SMILES IDX 8 1 9 2 10 3 11 4 12 5 13 6 14 7 15 8 16 9 7 10 6 11 5 12
REMARK SMILES IDX 4 13 3 14 2 15 1 16
REMARK H PARENT
REMARK Flexibility Score: inf
ROOT
ATOM      1  C   UNL     1     -12.005   7.984  28.291  1.00  0.00     0.000 C 
ENDROOT
BRANCH   1   2
ATOM      2  C   UNL     1     -13.470   8.387  28.496  1.00  0.00     0.000 C 
BRANCH   2   3
ATOM      3  C   UNL     1     -14.309   7.193  28.966  1.00  0.00     0.000 C 
BRANCH   3   4
ATOM      4  C   UNL     1     -15.481   7.657  29.845  1.00  0.00     0.000 C 
BRANCH   4   5
ATOM      5  C   UNL     1     -16.152   6.496  30.596  1.00  0.00     0.006 C 
BRANCH   5   6
ATOM      6  C   UNL     1     -15.672   5.122  30.112  1.00  0.00     0.053 C 
BRANCH   6   7
ATOM      7  C   UNL     1     -15.857   4.097  31.185  1.00  0.00     0.041 C 
ATOM      8  O   UNL     1     -16.735   3.202  31.062  1.00  0.00    -0.550 OA
ATOM      9  O   UNL     1     -15.093   4.156  32.343  1.00  0.00    -0.550 OA
ENDBRANCH   6   7
ENDBRANCH   5   6
ENDBRANCH   4   5
ENDBRANCH   3   4
ENDBRANCH   2   3
ENDBRANCH   1   2
BRANCH   1  10
ATOM     10  C   UNL     1     -11.060   8.979  28.976  1.00  0.00     0.000 C 
BRANCH  10  11
ATOM     11  C   UNL     1     -10.016   8.245  29.831  1.00  0.00    -0.000 C 
BRANCH  11  12
ATOM     12  C   UNL     1     -10.034   6.720  29.620  1.00  0.00    -0.000 C 
BRANCH  12  13
ATOM     13  C   UNL     1     -10.417   5.894  30.864  1.00  0.00    -0.000 C 
BRANCH  13  14
ATOM     14  C   UNL     1     -11.837   5.295  30.841  1.00  0.00    -0.000 C 
BRANCH  14  15
ATOM     15  C   UNL     1     -11.940   3.902  30.196  1.00  0.00    -0.003 C 
ATOM     16  C   UNL     1     -12.073   2.779  31.223  1.00  0.00     0.004 C 
ENDBRANCH  14  15
ENDBRANCH  13  14
ENDBRANCH  12  13
ENDBRANCH  11  12
ENDBRANCH  10  11
ENDBRANCH   1  10
TORSDOF 12
ENDMDL
MODEL 9
REMARK VINA RESULT:    -3.679     20.588     23.076
REMARK INTER + INTRA:          -7.597
REMARK INTER:                  -6.311
REMARK INTRA:                  -1.287
REMARK UNBOUND:                -1.338
REMARK SMILES CCCCCCCCCCCCCC(=O)[O-]
REMARK SMILES IDX 8 1 9 2 10 3 11 4 12 5 13 6 14 7 15 8 16 9 7 10 6 11 5 12
REMARK SMILES IDX 4 13 3 14 2 15 1 16
REMARK H PARENT
REMARK Flexibility Score: inf
ROOT
ATOM      1  C   UNL     1      -0.727  -7.534  17.812  1.00  0.00     0.000 C 
ENDROOT
BRANCH   1   2
ATOM      2  C   UNL     1       0.566  -6.823  18.229  1.00  0.00     0.000 C 
BRANCH   2   3
ATOM      3  C   UNL     1       0.282  -5.723  19.259  1.00  0.00     0.000 C 
BRANCH   3   4
ATOM      4  C   UNL     1       1.569  -5.311  19.991  1.00  0.00     0.000 C 
BRANCH   4   5
ATOM      5  C   UNL     1       1.725  -3.785  20.097  1.00  0.00     0.006 C 
BRANCH   5   6
ATOM      6  C   UNL     1       0.483  -3.028  19.610  1.00  0.00     0.053 C 
BRANCH   6   7
ATOM      7  C   UNL     1       0.643  -1.559  19.841  1.00  0.00     0.041 C 
ATOM      8  O   UNL     1      -0.127  -0.954  20.633  1.00  0.00    -0.550 OA
ATOM      9  O   UNL     1       1.611  -0.848  19.144  1.00  0.00    -0.550 OA
ENDBRANCH   6   7
ENDBRANCH   5   6
ENDBRANCH   4   5
ENDBRANCH   3   4
ENDBRANCH   2   3
ENDBRANCH   1   2
BRANCH   1  10
ATOM     10  C   UNL     1      -0.558  -9.058  17.865  1.00  0.00     0.000 C 
BRANCH  10  11
ATOM     11  C   UNL     1       0.897  -9.460  17.576  1.00  0.00    -0.000 C 
BRANCH  11  12
ATOM     12  C   UNL     1       1.441 -10.493  18.579  1.00  0.00    -0.000 C 
BRANCH  12  13
ATOM     13  C   UNL     1       2.797 -10.130  19.216  1.00  0.00    -0.000 C 
BRANCH  13  14
ATOM     14  C   UNL     1       2.769  -8.920  20.172  1.00  0.00    -0.000 C 
BRANCH  14  15
ATOM     15  C   UNL     1       1.605  -8.919  21.179  1.00  0.00    -0.003 C 
ATOM     16  C   UNL     1       2.077  -8.928  22.632  1.00  0.00     0.004 C 
ENDBRANCH  14  15
ENDBRANCH  13  14
ENDBRANCH  12  13
ENDBRANCH  11  12
ENDBRANCH  10  11
ENDBRANCH   1  10
TORSDOF 12
ENDMDL
