MODEL 1
REMARK VINA RESULT:    -7.947      0.000      0.000
REMARK INTER + INTRA:          -8.500
REMARK INTER:                  -8.412
REMARK INTRA:                  -0.088
REMARK UNBOUND:                -0.088
REMARK SMILES CC1=CC[C@@H]2[C@H]3[C@H](C(C)C)CC[C@]2(C)[C@@H]13
REMARK SMILES IDX 1 1 2 2 3 3 4 4 5 5 6 6 15 7 13 8 12 9 11 10 7 11 14 12 8 13
REMARK SMILES IDX 9 14 10 15
REMARK H PARENT
REMARK Flexibility Score: inf
ROOT
ATOM      1  C   UNL     1      -2.039 -12.740  10.069  1.00  0.00     0.039 C 
ATOM      2  C   UNL     1      -1.983 -14.107   9.457  1.00  0.00    -0.073 C 
ATOM      3  C   UNL     1      -0.804 -14.653   9.058  1.00  0.00    -0.027 C 
ATOM      4  C   UNL     1      -0.806 -16.065   8.459  1.00  0.00     0.031 C 
ATOM      5  C   UNL     1      -2.266 -16.622   8.387  1.00  0.00     0.003 C 
ATOM      6  C   UNL     1      -3.163 -15.508   7.799  1.00  0.00     0.004 C 
ATOM      7  C   UNL     1      -3.248 -14.943   9.238  1.00  0.00     0.024 C 
ATOM      8  C   UNL     1      -3.020 -16.399   9.717  1.00  0.00    -0.022 C 
ATOM      9  C   UNL     1      -4.345 -17.213   9.678  1.00  0.00     0.008 C 
ATOM     10  C   UNL     1      -5.278 -16.766   8.524  1.00  0.00     0.005 C 
ATOM     11  C   UNL     1      -4.524 -16.108   7.322  1.00  0.00    -0.005 C 
ATOM     12  C   UNL     1      -2.267 -16.639  11.048  1.00  0.00     0.012 C 
ENDROOT
BRANCH  11  13
ATOM     13  C   UNL     1      -5.423 -15.057   6.593  1.00  0.00    -0.014 C 
ATOM     14  C   UNL     1      -4.988 -13.609   6.885  1.00  0.00     0.007 C 
ATOM     15  C   UNL     1      -5.412 -15.277   5.068  1.00  0.00     0.007 C 
ENDBRANCH  11  13
TORSDOF 1
ENDMDL
MODEL 2
REMARK VINA RESULT:    -7.794      1.602      4.906
REMARK INTER + INTRA:          -8.338
REMARK INTER:                  -8.111
REMARK INTRA:                  -0.227
REMARK UNBOUND:                -0.088
REMARK SMILES CC1=CC[C@@H]2[C@H]3[C@H](C(C)C)CC[C@]2(C)[C@@H]13
REMARK SMILES IDX 1 1 2 2 3 3 4 4 5 5 6 6 15 7 13 8 12 9 11 10 7 11 14 12 8 13
REMARK SMILES IDX 9 14 10 15
REMARK H PARENT
REMARK Flexibility Score: inf
ROOT
ATOM      1  C   UNL     1      -6.134 -16.787   9.050  1.00  0.00     0.039 C 
ATOM      2  C   UNL     1      -4.636 -16.768   9.007  1.00  0.00    -0.073 C 
ATOM      3  C   UNL     1      -3.936 -17.767   8.410  1.00  0.00    -0.027 C 
ATOM      4  C   UNL     1      -2.404 -17.682   8.377  1.00  0.00     0.031 C 
ATOM      5  C   UNL     1      -1.916 -16.395   9.119  1.00  0.00     0.003 C 
ATOM      6  C   UNL     1      -2.689 -16.304  10.455  1.00  0.00     0.004 C 
ATOM      7  C   UNL     1      -3.827 -15.635   9.647  1.00  0.00     0.024 C 
ATOM      8  C   UNL     1      -2.720 -15.151   8.676  1.00  0.00    -0.022 C 
ATOM      9  C   UNL     1      -2.011 -13.881   9.229  1.00  0.00     0.008 C 
ATOM     10  C   UNL     1      -1.937 -13.872  10.776  1.00  0.00     0.005 C 
ATOM     11  C   UNL     1      -1.983 -15.297  11.419  1.00  0.00    -0.005 C 
ATOM     12  C   UNL     1      -3.061 -14.982   7.177  1.00  0.00     0.012 C 
ENDROOT
BRANCH  11  13
ATOM     13  C   UNL     1      -2.637 -15.262  12.838  1.00  0.00    -0.014 C 
ATOM     14  C   UNL     1      -1.991 -16.270  13.807  1.00  0.00     0.007 C 
ATOM     15  C   UNL     1      -2.546 -13.854  13.458  1.00  0.00     0.007 C 
ENDBRANCH  11  13
TORSDOF 1
ENDMDL
MODEL 3
REMARK VINA RESULT:    -7.079      1.129      2.969
REMARK INTER + INTRA:          -7.581
REMARK INTER:                  -7.543
REMARK INTRA:                  -0.038
REMARK UNBOUND:                -0.088
REMARK SMILES CC1=CC[C@@H]2[C@H]3[C@H](C(C)C)CC[C@]2(C)[C@@H]13
REMARK SMILES IDX 1 1 2 2 3 3 4 4 5 5 6 6 15 7 13 8 12 9 11 10 7 11 14 12 8 13
REMARK SMILES IDX 9 14 10 15
REMARK H PARENT
REMARK Flexibility Score: inf
ROOT
ATOM      1  C   UNL     1      -2.458 -16.512  12.091  1.00  0.00     0.039 C 
ATOM      2  C   UNL     1      -2.344 -15.365  11.133  1.00  0.00    -0.073 C 
ATOM      3  C   UNL     1      -2.099 -14.102  11.571  1.00  0.00    -0.027 C 
ATOM      4  C   UNL     1      -1.970 -12.973  10.541  1.00  0.00     0.031 C 
ATOM      5  C   UNL     1      -2.197 -13.526   9.096  1.00  0.00     0.003 C 
ATOM      6  C   UNL     1      -3.453 -14.429   9.134  1.00  0.00     0.004 C 
ATOM      7  C   UNL     1      -2.515 -15.559   9.623  1.00  0.00     0.024 C 
ATOM      8  C   UNL     1      -1.388 -14.821   8.856  1.00  0.00    -0.022 C 
ATOM      9  C   UNL     1      -1.434 -15.159   7.338  1.00  0.00     0.008 C 
ATOM     10  C   UNL     1      -2.877 -15.401   6.830  1.00  0.00     0.005 C 
ATOM     11  C   UNL     1      -3.975 -14.685   7.683  1.00  0.00    -0.005 C 
ATOM     12  C   UNL     1       0.060 -14.903   9.394  1.00  0.00     0.012 C 
ENDROOT
BRANCH  11  13
ATOM     13  C   UNL     1      -5.322 -15.478   7.660  1.00  0.00    -0.014 C 
ATOM     14  C   UNL     1      -5.616 -16.096   6.280  1.00  0.00     0.007 C 
ATOM     15  C   UNL     1      -5.325 -16.602   8.714  1.00  0.00     0.007 C 
ENDBRANCH  11  13
TORSDOF 1
ENDMDL
MODEL 4
REMARK VINA RESULT:    -6.971      1.598      4.114
REMARK INTER + INTRA:          -7.467
REMARK INTER:                  -7.041
REMARK INTRA:                  -0.426
REMARK UNBOUND:                -0.088
REMARK SMILES CC1=CC[C@@H]2[C@H]3[C@H](C(C)C)CC[C@]2(C)[C@@H]13
REMARK SMILES IDX 1 1 2 2 3 3 4 4 5 5 6 6 15 7 13 8 12 9 11 10 7 11 14 12 8 13
REMARK SMILES IDX 9 14 10 15
REMARK H PARENT
REMARK Flexibility Score: inf
ROOT
ATOM      1  C   UNL     1      -0.202 -15.438   8.006  1.00  0.00     0.039 C 
ATOM      2  C   UNL     1      -1.680 -15.585   8.207  1.00  0.00    -0.073 C 
ATOM      3  C   UNL     1      -2.568 -15.015   7.352  1.00  0.00    -0.027 C 
ATOM      4  C   UNL     1      -4.069 -15.219   7.597  1.00  0.00     0.031 C 
ATOM      5  C   UNL     1      -4.298 -16.068   8.890  1.00  0.00     0.003 C 
ATOM      6  C   UNL     1      -3.382 -15.492   9.995  1.00  0.00     0.004 C 
ATOM      7  C   UNL     1      -2.256 -16.366   9.393  1.00  0.00     0.024 C 
ATOM      8  C   UNL     1      -3.384 -17.315   8.913  1.00  0.00    -0.022 C 
ATOM      9  C   UNL     1      -3.853 -18.251  10.065  1.00  0.00     0.008 C 
ATOM     10  C   UNL     1      -3.760 -17.570  11.453  1.00  0.00     0.005 C 
ATOM     11  C   UNL     1      -3.840 -16.009  11.397  1.00  0.00    -0.005 C 
ATOM     12  C   UNL     1      -3.183 -18.114   7.603  1.00  0.00     0.012 C 
ENDROOT
BRANCH  11  13
ATOM     13  C   UNL     1      -3.041 -15.355  12.570  1.00  0.00    -0.014 C 
ATOM     14  C   UNL     1      -1.983 -16.306  13.162  1.00  0.00     0.007 C 
ATOM     15  C   UNL     1      -2.341 -14.061  12.114  1.00  0.00     0.007 C 
ENDBRANCH  11  13
TORSDOF 1
ENDMDL
MODEL 5
REMARK VINA RESULT:    -6.858      1.351      4.253
REMARK INTER + INTRA:          -7.348
REMARK INTER:                  -7.139
REMARK INTRA:                  -0.209
REMARK UNBOUND:                -0.088
REMARK SMILES CC1=CC[C@@H]2[C@H]3[C@H](C(C)C)CC[C@]2(C)[C@@H]13
REMARK SMILES IDX 1 1 2 2 3 3 4 4 5 5 6 6 15 7 13 8 12 9 11 10 7 11 14 12 8 13
REMARK SMILES IDX 9 14 10 15
REMARK H PARENT
REMARK Flexibility Score: inf
ROOT
ATOM      1  C   UNL     1      -5.801 -16.873  11.141  1.00  0.00     0.039 C 
ATOM      2  C   UNL     1      -4.710 -17.069  10.133  1.00  0.00    -0.073 C 
ATOM      3  C   UNL     1      -4.273 -18.311   9.799  1.00  0.00    -0.027 C 
ATOM      4  C   UNL     1      -3.169 -18.450   8.743  1.00  0.00     0.031 C 
ATOM      5  C   UNL     1      -2.706 -17.039   8.253  1.00  0.00     0.003 C 
ATOM      6  C   UNL     1      -2.503 -16.152   9.504  1.00  0.00     0.004 C 
ATOM      7  C   UNL     1      -4.026 -15.881   9.447  1.00  0.00     0.024 C 
ATOM      8  C   UNL     1      -3.914 -16.134   7.921  1.00  0.00    -0.022 C 
ATOM      9  C   UNL     1      -3.396 -14.866   7.184  1.00  0.00     0.008 C 
ATOM     10  C   UNL     1      -2.410 -14.042   8.048  1.00  0.00     0.005 C 
ATOM     11  C   UNL     1      -1.667 -14.885   9.136  1.00  0.00    -0.005 C 
ATOM     12  C   UNL     1      -5.122 -16.749   7.175  1.00  0.00     0.012 C 
ENDROOT
BRANCH  11  13
ATOM     13  C   UNL     1      -1.310 -14.016  10.385  1.00  0.00    -0.014 C 
ATOM     14  C   UNL     1      -1.628 -12.523  10.173  1.00  0.00     0.007 C 
ATOM     15  C   UNL     1      -2.061 -14.506  11.638  1.00  0.00     0.007 C 
ENDBRANCH  11  13
TORSDOF 1
ENDMDL
MODEL 6
REMARK VINA RESULT:    -6.843      1.437      2.216
REMARK INTER + INTRA:          -7.331
REMARK INTER:                  -7.169
REMARK INTRA:                  -0.162
REMARK UNBOUND:                -0.088
REMARK SMILES CC1=CC[C@@H]2[C@H]3[C@H](C(C)C)CC[C@]2(C)[C@@H]13
REMARK SMILES IDX 1 1 2 2 3 3 4 4 5 5 6 6 15 7 13 8 12 9 11 10 7 11 14 12 8 13
REMARK SMILES IDX 9 14 10 15
REMARK H PARENT
REMARK Flexibility Score: inf
ROOT
ATOM      1  C   UNL     1      -2.017 -13.656  11.013  1.00  0.00     0.039 C 
ATOM      2  C   UNL     1      -2.494 -15.070  10.870  1.00  0.00    -0.073 C 
ATOM      3  C   UNL     1      -1.869 -16.092  11.510  1.00  0.00    -0.027 C 
ATOM      4  C   UNL     1      -2.417 -17.515  11.344  1.00  0.00     0.031 C 
ATOM      5  C   UNL     1      -3.647 -17.515  10.378  1.00  0.00     0.003 C 
ATOM      6  C   UNL     1      -3.273 -16.658   9.146  1.00  0.00     0.004 C 
ATOM      7  C   UNL     1      -3.693 -15.428   9.987  1.00  0.00     0.024 C 
ATOM      8  C   UNL     1      -4.646 -16.392  10.740  1.00  0.00    -0.022 C 
ATOM      9  C   UNL     1      -5.958 -16.619   9.935  1.00  0.00     0.008 C 
ATOM     10  C   UNL     1      -5.728 -16.573   8.404  1.00  0.00     0.005 C 
ATOM     11  C   UNL     1      -4.269 -16.936   7.974  1.00  0.00    -0.005 C 
ATOM     12  C   UNL     1      -4.955 -16.124  12.232  1.00  0.00     0.012 C 
ENDROOT
BRANCH  11  13
ATOM     13  C   UNL     1      -3.865 -16.204   6.654  1.00  0.00    -0.014 C 
ATOM     14  C   UNL     1      -5.073 -15.562   5.946  1.00  0.00     0.007 C 
ATOM     15  C   UNL     1      -2.813 -15.110   6.923  1.00  0.00     0.007 C 
ENDBRANCH  11  13
TORSDOF 1
ENDMDL
MODEL 7
REMARK VINA RESULT:    -6.753      1.316      3.718
REMARK INTER + INTRA:          -7.237
REMARK INTER:                  -6.934
REMARK INTRA:                  -0.302
REMARK UNBOUND:                -0.088
REMARK SMILES CC1=CC[C@@H]2[C@H]3[C@H](C(C)C)CC[C@]2(C)[C@@H]13
REMARK SMILES IDX 1 1 2 2 3 3 4 4 5 5 6 6 15 7 13 8 12 9 11 10 7 11 14 12 8 13
REMARK SMILES IDX 9 14 10 15
REMARK H PARENT
REMARK Flexibility Score: inf
ROOT
ATOM      1  C   UNL     1      -4.433 -14.331   6.991  1.00  0.00     0.039 C 
ATOM      2  C   UNL     1      -3.254 -14.714   7.834  1.00  0.00    -0.073 C 
ATOM      3  C   UNL     1      -2.025 -14.896   7.284  1.00  0.00    -0.027 C 
ATOM      4  C   UNL     1      -0.851 -15.265   8.201  1.00  0.00     0.031 C 
ATOM      5  C   UNL     1      -1.339 -15.403   9.680  1.00  0.00     0.003 C 
ATOM      6  C   UNL     1      -2.634 -16.249   9.668  1.00  0.00     0.004 C 
ATOM      7  C   UNL     1      -3.383 -14.933   9.345  1.00  0.00     0.024 C 
ATOM      8  C   UNL     1      -2.232 -14.211  10.092  1.00  0.00    -0.022 C 
ATOM      9  C   UNL     1      -2.449 -14.263  11.632  1.00  0.00     0.008 C 
ATOM     10  C   UNL     1      -3.158 -15.564  12.085  1.00  0.00     0.005 C 
ATOM     11  C   UNL     1      -2.953 -16.767  11.107  1.00  0.00    -0.005 C 
ATOM     12  C   UNL     1      -1.826 -12.787   9.642  1.00  0.00     0.012 C 
ENDROOT
BRANCH  11  13
ATOM     13  C   UNL     1      -4.174 -17.742  11.139  1.00  0.00    -0.014 C 
ATOM     14  C   UNL     1      -5.520 -17.000  11.036  1.00  0.00     0.007 C 
ATOM     15  C   UNL     1      -4.093 -18.775   9.999  1.00  0.00     0.007 C 
ENDBRANCH  11  13
TORSDOF 1
ENDMDL
MODEL 8
REMARK VINA RESULT:    -6.654      1.254      3.330
REMARK INTER + INTRA:          -7.131
REMARK INTER:                  -6.859
REMARK INTRA:                  -0.272
REMARK UNBOUND:                -0.088
REMARK SMILES CC1=CC[C@@H]2[C@H]3[C@H](C(C)C)CC[C@]2(C)[C@@H]13
REMARK SMILES IDX 1 1 2 2 3 3 4 4 5 5 6 6 15 7 13 8 12 9 11 10 7 11 14 12 8 13
REMARK SMILES IDX 9 14 10 15
REMARK H PARENT
REMARK Flexibility Score: inf
ROOT
ATOM      1  C   UNL     1      -2.467 -19.084   7.992  1.00  0.00     0.039 C 
ATOM      2  C   UNL     1      -3.154 -18.082   8.870  1.00  0.00    -0.073 C 
ATOM      3  C   UNL     1      -4.014 -18.474   9.846  1.00  0.00    -0.027 C 
ATOM      4  C   UNL     1      -4.671 -17.403  10.728  1.00  0.00     0.031 C 
ATOM      5  C   UNL     1      -4.219 -15.975  10.277  1.00  0.00     0.003 C 
ATOM      6  C   UNL     1      -4.333 -15.915   8.735  1.00  0.00     0.004 C 
ATOM      7  C   UNL     1      -2.934 -16.576   8.697  1.00  0.00     0.024 C 
ATOM      8  C   UNL     1      -2.689 -15.907  10.074  1.00  0.00    -0.022 C 
ATOM      9  C   UNL     1      -2.277 -14.416   9.903  1.00  0.00     0.008 C 
ATOM     10  C   UNL     1      -2.949 -13.756   8.673  1.00  0.00     0.005 C 
ATOM     11  C   UNL     1      -4.295 -14.430   8.250  1.00  0.00    -0.005 C 
ATOM     12  C   UNL     1      -1.770 -16.617  11.097  1.00  0.00     0.012 C 
ENDROOT
BRANCH  11  13
ATOM     13  C   UNL     1      -4.543 -14.292   6.714  1.00  0.00    -0.014 C 
ATOM     14  C   UNL     1      -5.076 -15.594   6.086  1.00  0.00     0.007 C 
ATOM     15  C   UNL     1      -5.538 -13.156   6.409  1.00  0.00     0.007 C 
ENDBRANCH  11  13
TORSDOF 1
ENDMDL
MODEL 9
REMARK VINA RESULT:    -6.429      1.417      2.383
REMARK INTER + INTRA:          -6.894
REMARK INTER:                  -6.659
REMARK INTRA:                  -0.234
REMARK UNBOUND:                -0.088
REMARK SMILES CC1=CC[C@@H]2[C@H]3[C@H](C(C)C)CC[C@]2(C)[C@@H]13
REMARK SMILES IDX 1 1 2 2 3 3 4 4 5 5 6 6 15 7 13 8 12 9 11 10 7 11 14 12 8 13
REMARK SMILES IDX 9 14 10 15
REMARK H PARENT
REMARK Flexibility Score: inf
ROOT
ATOM      1  C   UNL     1      -5.642 -16.123  12.110  1.00  0.00     0.039 C 
ATOM      2  C   UNL     1      -4.411 -16.126  11.255  1.00  0.00    -0.073 C 
ATOM      3  C   UNL     1      -3.227 -15.653  11.723  1.00  0.00    -0.027 C 
ATOM      4  C   UNL     1      -1.996 -15.702  10.809  1.00  0.00     0.031 C 
ATOM      5  C   UNL     1      -2.380 -16.292   9.412  1.00  0.00     0.003 C 
ATOM      6  C   UNL     1      -3.683 -15.598   8.954  1.00  0.00     0.004 C 
ATOM      7  C   UNL     1      -4.435 -16.643   9.813  1.00  0.00     0.024 C 
ATOM      8  C   UNL     1      -3.225 -17.578   9.558  1.00  0.00    -0.022 C 
ATOM      9  C   UNL     1      -3.333 -18.260   8.164  1.00  0.00     0.008 C 
ATOM     10  C   UNL     1      -4.025 -17.354   7.115  1.00  0.00     0.005 C 
ATOM     11  C   UNL     1      -3.906 -15.826   7.424  1.00  0.00    -0.005 C 
ATOM     12  C   UNL     1      -2.833 -18.607  10.645  1.00  0.00     0.012 C 
ENDROOT
BRANCH  11  13
ATOM     13  C   UNL     1      -5.134 -15.035   6.870  1.00  0.00    -0.014 C 
ATOM     14  C   UNL     1      -4.990 -13.513   7.064  1.00  0.00     0.007 C 
ATOM     15  C   UNL     1      -5.352 -15.322   5.372  1.00  0.00     0.007 C 
ENDBRANCH  11  13
TORSDOF 1
ENDMDL
