MODEL 1
REMARK VINA RESULT:    -5.719      0.000      0.000
REMARK INTER + INTRA:          -7.014
REMARK INTER:                  -6.722
REMARK INTRA:                  -0.293
REMARK UNBOUND:                -0.293
REMARK SMILES O=c1cc(-c2ccc(O)c(O)c2)oc2cc(O)cc(O)c12
REMARK SMILES IDX 4 1 3 2 2 3 1 4 21 5 19 6 18 7 16 8 15 9 14 10 13 11 5 12
REMARK SMILES IDX 6 13 7 14 8 15 12 16 10 17 9 18 11 20 20 22 17 24
REMARK H PARENT 9 19 11 21 20 23 17 25
REMARK Flexibility Score: inf
ROOT
ATOM      1  C   UNL     1       1.193  -6.547   5.285  1.00  0.00     0.138 A 
ATOM      2  C   UNL     1       0.822  -7.746   4.662  1.00  0.00     0.100 A 
ATOM      3  C   UNL     1       1.807  -8.591   4.148  1.00  0.00     0.197 A 
ATOM      4  O   UNL     1       1.447  -9.690   3.650  1.00  0.00    -0.289 OA
ATOM      5  C   UNL     1       3.169  -8.216   4.231  1.00  0.00     0.107 A 
ATOM      6  C   UNL     1       4.255  -8.978   3.706  1.00  0.00     0.134 A 
ATOM      7  C   UNL     1       5.570  -8.564   3.950  1.00  0.00     0.093 A 
ATOM      8  C   UNL     1       5.836  -7.383   4.650  1.00  0.00     0.123 A 
ATOM      9  C   UNL     1       4.781  -6.605   5.120  1.00  0.00     0.094 A 
ATOM     10  C   UNL     1       3.459  -7.009   4.922  1.00  0.00     0.146 A 
ATOM     11  O   UNL     1       2.483  -6.245   5.399  1.00  0.00    -0.456 OA
ENDROOT
BRANCH   1  12
ATOM     12  C   UNL     1       0.187  -5.611   5.848  1.00  0.00     0.021 A 
ATOM     13  C   UNL     1       0.538  -4.271   6.070  1.00  0.00     0.016 A 
ATOM     14  C   UNL     1      -0.393  -3.371   6.593  1.00  0.00     0.051 A 
ATOM     15  C   UNL     1      -1.694  -3.784   6.895  1.00  0.00     0.157 A 
ATOM     16  C   UNL     1      -1.127  -6.025   6.139  1.00  0.00     0.062 A 
ATOM     17  C   UNL     1      -2.068  -5.128   6.661  1.00  0.00     0.158 A 
BRANCH  15  18
ATOM     18  O   UNL     1      -2.574  -2.837   7.421  1.00  0.00    -0.504 OA
ATOM     19  H   UNL     1      -2.360  -1.854   7.510  1.00  0.00     0.293 HD
ENDBRANCH  15  18
BRANCH  17  20
ATOM     20  O   UNL     1      -3.352  -5.609   6.924  1.00  0.00    -0.504 OA
ATOM     21  H   UNL     1      -3.561  -6.575   7.134  1.00  0.00     0.293 HD
ENDBRANCH  17  20
ENDBRANCH   1  12
BRANCH   6  22
ATOM     22  O   UNL     1       4.098 -10.125   2.923  1.00  0.00    -0.507 OA
ATOM     23  H   UNL     1       4.037 -11.065   3.282  1.00  0.00     0.293 HD
ENDBRANCH   6  22
BRANCH   8  24
ATOM     24  O   UNL     1       7.148  -6.972   4.875  1.00  0.00    -0.508 OA
ATOM     25  H   UNL     1       7.828  -7.584   5.311  1.00  0.00     0.293 HD
ENDBRANCH   8  24
TORSDOF 5
ENDMDL
MODEL 2
REMARK VINA RESULT:    -5.621      2.458      3.603
REMARK INTER + INTRA:          -6.899
REMARK INTER:                  -6.601
REMARK INTRA:                  -0.298
REMARK UNBOUND:                -0.293
REMARK SMILES O=c1cc(-c2ccc(O)c(O)c2)oc2cc(O)cc(O)c12
REMARK SMILES IDX 4 1 3 2 2 3 1 4 21 5 19 6 18 7 16 8 15 9 14 10 13 11 5 12
REMARK SMILES IDX 6 13 7 14 8 15 12 16 10 17 9 18 11 20 20 22 17 24
REMARK H PARENT 9 19 11 21 20 23 17 25
REMARK Flexibility Score: inf
ROOT
ATOM      1  C   UNL     1       2.291  -5.639   5.593  1.00  0.00     0.138 A 
ATOM      2  C   UNL     1       1.053  -6.247   5.346  1.00  0.00     0.100 A 
ATOM      3  C   UNL     1       1.010  -7.508   4.750  1.00  0.00     0.197 A 
ATOM      4  O   UNL     1      -0.113  -8.056   4.598  1.00  0.00    -0.289 OA
ATOM      5  C   UNL     1       2.214  -8.148   4.370  1.00  0.00     0.107 A 
ATOM      6  C   UNL     1       2.290  -9.416   3.719  1.00  0.00     0.134 A 
ATOM      7  C   UNL     1       3.541 -10.004   3.497  1.00  0.00     0.093 A 
ATOM      8  C   UNL     1       4.721  -9.342   3.849  1.00  0.00     0.123 A 
ATOM      9  C   UNL     1       4.658  -8.081   4.436  1.00  0.00     0.094 A 
ATOM     10  C   UNL     1       3.424  -7.483   4.702  1.00  0.00     0.146 A 
ATOM     11  O   UNL     1       3.409  -6.286   5.277  1.00  0.00    -0.456 OA
ENDROOT
BRANCH   1  12
ATOM     12  C   UNL     1       2.395  -4.299   6.224  1.00  0.00     0.021 A 
ATOM     13  C   UNL     1       1.530  -3.961   7.277  1.00  0.00     0.016 A 
ATOM     14  C   UNL     1       1.614  -2.710   7.889  1.00  0.00     0.051 A 
ATOM     15  C   UNL     1       2.565  -1.773   7.475  1.00  0.00     0.157 A 
ATOM     16  C   UNL     1       3.363  -3.362   5.815  1.00  0.00     0.062 A 
ATOM     17  C   UNL     1       3.455  -2.105   6.426  1.00  0.00     0.158 A 
BRANCH  15  18
ATOM     18  O   UNL     1       2.592  -0.538   8.125  1.00  0.00    -0.504 OA
ATOM     19  H   UNL     1       3.407   0.056   8.177  1.00  0.00     0.293 HD
ENDBRANCH  15  18
BRANCH  17  20
ATOM     20  O   UNL     1       4.440  -1.228   5.969  1.00  0.00    -0.504 OA
ATOM     21  H   UNL     1       4.458  -0.240   6.177  1.00  0.00     0.293 HD
ENDBRANCH  17  20
ENDBRANCH   1  12
BRANCH   6  22
ATOM     22  O   UNL     1       1.177 -10.121   3.251  1.00  0.00    -0.507 OA
ATOM     23  H   UNL     1       1.098 -11.126   3.232  1.00  0.00     0.293 HD
ENDBRANCH   6  22
BRANCH   8  24
ATOM     24  O   UNL     1       5.962  -9.929   3.610  1.00  0.00    -0.508 OA
ATOM     25  H   UNL     1       6.414 -10.512   4.304  1.00  0.00     0.293 HD
ENDBRANCH   8  24
TORSDOF 5
ENDMDL
MODEL 3
REMARK VINA RESULT:    -5.552      2.067      4.343
REMARK INTER + INTRA:          -6.819
REMARK INTER:                  -6.539
REMARK INTRA:                  -0.280
REMARK UNBOUND:                -0.293
REMARK SMILES O=c1cc(-c2ccc(O)c(O)c2)oc2cc(O)cc(O)c12
REMARK SMILES IDX 4 1 3 2 2 3 1 4 21 5 19 6 18 7 16 8 15 9 14 10 13 11 5 12
REMARK SMILES IDX 6 13 7 14 8 15 12 16 10 17 9 18 11 20 20 22 17 24
REMARK H PARENT 9 19 11 21 20 23 17 25
REMARK Flexibility Score: inf
ROOT
ATOM      1  C   UNL     1      -1.131  -4.599   6.339  1.00  0.00     0.138 A 
ATOM      2  C   UNL     1       0.091  -3.915   6.381  1.00  0.00     0.100 A 
ATOM      3  C   UNL     1       1.257  -4.558   5.962  1.00  0.00     0.197 A 
ATOM      4  O   UNL     1       2.329  -3.899   5.953  1.00  0.00    -0.289 OA
ATOM      5  C   UNL     1       1.201  -5.905   5.528  1.00  0.00     0.107 A 
ATOM      6  C   UNL     1       2.330  -6.673   5.117  1.00  0.00     0.134 A 
ATOM      7  C   UNL     1       2.137  -7.959   4.596  1.00  0.00     0.093 A 
ATOM      8  C   UNL     1       0.861  -8.525   4.529  1.00  0.00     0.123 A 
ATOM      9  C   UNL     1      -0.241  -7.802   4.978  1.00  0.00     0.094 A 
ATOM     10  C   UNL     1      -0.086  -6.504   5.470  1.00  0.00     0.146 A 
ATOM     11  O   UNL     1      -1.165  -5.844   5.875  1.00  0.00    -0.456 OA
ENDROOT
BRANCH   1  12
ATOM     12  C   UNL     1      -2.401  -3.964   6.773  1.00  0.00     0.021 A 
ATOM     13  C   UNL     1      -3.315  -4.700   7.543  1.00  0.00     0.016 A 
ATOM     14  C   UNL     1      -4.512  -4.122   7.968  1.00  0.00     0.051 A 
ATOM     15  C   UNL     1      -4.820  -2.797   7.646  1.00  0.00     0.157 A 
ATOM     16  C   UNL     1      -2.703  -2.625   6.460  1.00  0.00     0.062 A 
ATOM     17  C   UNL     1      -3.901  -2.036   6.886  1.00  0.00     0.158 A 
BRANCH  15  18
ATOM     18  O   UNL     1      -6.036  -2.281   8.097  1.00  0.00    -0.504 OA
ATOM     19  H   UNL     1      -6.597  -1.621   7.578  1.00  0.00     0.293 HD
ENDBRANCH  15  18
BRANCH  17  20
ATOM     20  O   UNL     1      -4.133  -0.704   6.538  1.00  0.00    -0.504 OA
ATOM     21  H   UNL     1      -4.307   0.032   7.206  1.00  0.00     0.293 HD
ENDBRANCH  17  20
ENDBRANCH   1  12
BRANCH   6  22
ATOM     22  O   UNL     1       3.653  -6.235   5.221  1.00  0.00    -0.507 OA
ATOM     23  H   UNL     1       4.436  -6.819   5.472  1.00  0.00     0.293 HD
ENDBRANCH   6  22
BRANCH   8  24
ATOM     24  O   UNL     1       0.681  -9.811   4.023  1.00  0.00    -0.508 OA
ATOM     25  H   UNL     1       0.828 -10.020   3.043  1.00  0.00     0.293 HD
ENDBRANCH   8  24
TORSDOF 5
ENDMDL
MODEL 4
REMARK VINA RESULT:    -5.456      1.321      7.427
REMARK INTER + INTRA:          -6.706
REMARK INTER:                  -6.411
REMARK INTRA:                  -0.295
REMARK UNBOUND:                -0.293
REMARK SMILES O=c1cc(-c2ccc(O)c(O)c2)oc2cc(O)cc(O)c12
REMARK SMILES IDX 4 1 3 2 2 3 1 4 21 5 19 6 18 7 16 8 15 9 14 10 13 11 5 12
REMARK SMILES IDX 6 13 7 14 8 15 12 16 10 17 9 18 11 20 20 22 17 24
REMARK H PARENT 9 19 11 21 20 23 17 25
REMARK Flexibility Score: inf
ROOT
ATOM      1  C   UNL     1       2.040  -6.453   5.495  1.00  0.00     0.138 A 
ATOM      2  C   UNL     1       2.408  -5.153   5.864  1.00  0.00     0.100 A 
ATOM      3  C   UNL     1       1.469  -4.312   6.462  1.00  0.00     0.197 A 
ATOM      4  O   UNL     1       1.846  -3.172   6.839  1.00  0.00    -0.289 OA
ATOM      5  C   UNL     1       0.143  -4.768   6.661  1.00  0.00     0.107 A 
ATOM      6  C   UNL     1      -0.909  -3.985   7.224  1.00  0.00     0.134 A 
ATOM      7  C   UNL     1      -2.150  -4.580   7.481  1.00  0.00     0.093 A 
ATOM      8  C   UNL     1      -2.395  -5.913   7.140  1.00  0.00     0.123 A 
ATOM      9  C   UNL     1      -1.390  -6.670   6.542  1.00  0.00     0.094 A 
ATOM     10  C   UNL     1      -0.130  -6.115   6.304  1.00  0.00     0.146 A 
ATOM     11  O   UNL     1       0.804  -6.875   5.744  1.00  0.00    -0.456 OA
ENDROOT
BRANCH   1  12
ATOM     12  C   UNL     1       2.999  -7.389   4.855  1.00  0.00     0.021 A 
ATOM     13  C   UNL     1       2.519  -8.550   4.229  1.00  0.00     0.016 A 
ATOM     14  C   UNL     1       3.401  -9.441   3.616  1.00  0.00     0.051 A 
ATOM     15  C   UNL     1       4.776  -9.191   3.603  1.00  0.00     0.157 A 
ATOM     16  C   UNL     1       4.382  -7.128   4.830  1.00  0.00     0.062 A 
ATOM     17  C   UNL     1       5.273  -8.016   4.214  1.00  0.00     0.158 A 
BRANCH  15  18
ATOM     18  O   UNL     1       5.604 -10.125   2.978  1.00  0.00    -0.504 OA
ATOM     19  H   UNL     1       6.537  -9.923   2.650  1.00  0.00     0.293 HD
ENDBRANCH  15  18
BRANCH  17  20
ATOM     20  O   UNL     1       6.631  -7.691   4.228  1.00  0.00    -0.504 OA
ATOM     21  H   UNL     1       7.104  -7.272   5.015  1.00  0.00     0.293 HD
ENDBRANCH  17  20
ENDBRANCH   1  12
BRANCH   6  22
ATOM     22  O   UNL     1      -0.796  -2.624   7.523  1.00  0.00    -0.507 OA
ATOM     23  H   UNL     1      -1.319  -1.889   7.072  1.00  0.00     0.293 HD
ENDBRANCH   6  22
BRANCH   8  24
ATOM     24  O   UNL     1      -3.638  -6.493   7.386  1.00  0.00    -0.508 OA
ATOM     25  H   UNL     1      -4.500  -6.000   7.188  1.00  0.00     0.293 HD
ENDBRANCH   8  24
TORSDOF 5
ENDMDL
MODEL 5
REMARK VINA RESULT:    -5.430      8.526     10.308
REMARK INTER + INTRA:          -6.675
REMARK INTER:                  -6.383
REMARK INTRA:                  -0.293
REMARK UNBOUND:                -0.293
REMARK SMILES O=c1cc(-c2ccc(O)c(O)c2)oc2cc(O)cc(O)c12
REMARK SMILES IDX 4 1 3 2 2 3 1 4 21 5 19 6 18 7 16 8 15 9 14 10 13 11 5 12
REMARK SMILES IDX 6 13 7 14 8 15 12 16 10 17 9 18 11 20 20 22 17 24
REMARK H PARENT 9 19 11 21 20 23 17 25
REMARK Flexibility Score: inf
ROOT
ATOM      1  C   UNL     1       5.694   2.479   5.590  1.00  0.00     0.138 A 
ATOM      2  C   UNL     1       6.961   2.109   5.121  1.00  0.00     0.100 A 
ATOM      3  C   UNL     1       7.295   0.757   5.025  1.00  0.00     0.197 A 
ATOM      4  O   UNL     1       8.417   0.455   4.542  1.00  0.00    -0.289 OA
ATOM      5  C   UNL     1       6.364  -0.228   5.431  1.00  0.00     0.107 A 
ATOM      6  C   UNL     1       6.609  -1.634   5.415  1.00  0.00     0.134 A 
ATOM      7  C   UNL     1       5.570  -2.519   5.730  1.00  0.00     0.093 A 
ATOM      8  C   UNL     1       4.313  -2.046   6.118  1.00  0.00     0.123 A 
ATOM      9  C   UNL     1       4.081  -0.675   6.187  1.00  0.00     0.094 A 
ATOM     10  C   UNL     1       5.086   0.233   5.847  1.00  0.00     0.146 A 
ATOM     11  O   UNL     1       4.818   1.532   5.913  1.00  0.00    -0.456 OA
ENDROOT
BRANCH   1  12
ATOM     12  C   UNL     1       5.287   3.901   5.714  1.00  0.00     0.021 A 
ATOM     13  C   UNL     1       3.923   4.229   5.751  1.00  0.00     0.016 A 
ATOM     14  C   UNL     1       3.517   5.559   5.873  1.00  0.00     0.051 A 
ATOM     15  C   UNL     1       4.458   6.588   5.972  1.00  0.00     0.157 A 
ATOM     16  C   UNL     1       6.236   4.935   5.827  1.00  0.00     0.062 A 
ATOM     17  C   UNL     1       5.836   6.272   5.953  1.00  0.00     0.158 A 
BRANCH  15  18
ATOM     18  O   UNL     1       3.986   7.897   6.085  1.00  0.00    -0.504 OA
ATOM     19  H   UNL     1       4.480   8.708   5.745  1.00  0.00     0.293 HD
ENDBRANCH  15  18
BRANCH  17  20
ATOM     20  O   UNL     1       6.834   7.243   6.062  1.00  0.00    -0.504 OA
ATOM     21  H   UNL     1       7.273   7.692   5.271  1.00  0.00     0.293 HD
ENDBRANCH  17  20
ENDBRANCH   1  12
BRANCH   6  22
ATOM     22  O   UNL     1       7.850  -2.207   5.125  1.00  0.00    -0.507 OA
ATOM     23  H   UNL     1       8.372  -2.799   5.752  1.00  0.00     0.293 HD
ENDBRANCH   6  22
BRANCH   8  24
ATOM     24  O   UNL     1       3.290  -2.935   6.443  1.00  0.00    -0.508 OA
ATOM     25  H   UNL     1       2.627  -2.732   7.181  1.00  0.00     0.293 HD
ENDBRANCH   8  24
TORSDOF 5
ENDMDL
MODEL 6
REMARK VINA RESULT:    -5.417      1.358      7.011
REMARK INTER + INTRA:          -6.660
REMARK INTER:                  -6.345
REMARK INTRA:                  -0.315
REMARK UNBOUND:                -0.293
REMARK SMILES O=c1cc(-c2ccc(O)c(O)c2)oc2cc(O)cc(O)c12
REMARK SMILES IDX 4 1 3 2 2 3 1 4 21 5 19 6 18 7 16 8 15 9 14 10 13 11 5 12
REMARK SMILES IDX 6 13 7 14 8 15 12 16 10 17 9 18 11 20 20 22 17 24
REMARK H PARENT 9 19 11 21 20 23 17 25
REMARK Flexibility Score: inf
ROOT
ATOM      1  C   UNL     1       0.938  -7.723   5.140  1.00  0.00     0.138 A 
ATOM      2  C   UNL     1      -0.235  -8.483   5.247  1.00  0.00     0.100 A 
ATOM      3  C   UNL     1      -1.377  -7.914   5.812  1.00  0.00     0.197 A 
ATOM      4  O   UNL     1      -2.432  -8.600   5.837  1.00  0.00    -0.289 OA
ATOM      5  C   UNL     1      -1.334  -6.587   6.302  1.00  0.00     0.107 A 
ATOM      6  C   UNL     1      -2.425  -5.918   6.933  1.00  0.00     0.134 A 
ATOM      7  C   UNL     1      -2.302  -4.565   7.272  1.00  0.00     0.093 A 
ATOM      8  C   UNL     1      -1.106  -3.874   7.056  1.00  0.00     0.123 A 
ATOM      9  C   UNL     1      -0.019  -4.533   6.488  1.00  0.00     0.094 A 
ATOM     10  C   UNL     1      -0.122  -5.873   6.108  1.00  0.00     0.146 A 
ATOM     11  O   UNL     1       0.935  -6.460   5.557  1.00  0.00    -0.456 OA
ENDROOT
BRANCH   1  12
ATOM     12  C   UNL     1       2.181  -8.277   4.548  1.00  0.00     0.021 A 
ATOM     13  C   UNL     1       2.121  -9.461   3.797  1.00  0.00     0.016 A 
ATOM     14  C   UNL     1       3.276  -9.998   3.225  1.00  0.00     0.051 A 
ATOM     15  C   UNL     1       4.511  -9.363   3.381  1.00  0.00     0.157 A 
ATOM     16  C   UNL     1       3.422  -7.629   4.693  1.00  0.00     0.062 A 
ATOM     17  C   UNL     1       4.586  -8.160   4.121  1.00  0.00     0.158 A 
BRANCH  15  18
ATOM     18  O   UNL     1       5.629  -9.955   2.789  1.00  0.00    -0.504 OA
ATOM     19  H   UNL     1       6.107 -10.761   3.164  1.00  0.00     0.293 HD
ENDBRANCH  15  18
BRANCH  17  20
ATOM     20  O   UNL     1       5.780  -7.461   4.306  1.00  0.00    -0.504 OA
ATOM     21  H   UNL     1       5.835  -6.524   4.677  1.00  0.00     0.293 HD
ENDBRANCH  17  20
ENDBRANCH   1  12
BRANCH   6  22
ATOM     22  O   UNL     1      -3.631  -6.538   7.271  1.00  0.00    -0.507 OA
ATOM     23  H   UNL     1      -4.314  -6.870   6.608  1.00  0.00     0.293 HD
ENDBRANCH   6  22
BRANCH   8  24
ATOM     24  O   UNL     1      -0.988  -2.531   7.410  1.00  0.00    -0.508 OA
ATOM     25  H   UNL     1      -0.087  -2.070   7.446  1.00  0.00     0.293 HD
ENDBRANCH   8  24
TORSDOF 5
ENDMDL
MODEL 7
REMARK VINA RESULT:    -5.308      2.705      3.995
REMARK INTER + INTRA:          -6.532
REMARK INTER:                  -6.218
REMARK INTRA:                  -0.314
REMARK UNBOUND:                -0.293
REMARK SMILES O=c1cc(-c2ccc(O)c(O)c2)oc2cc(O)cc(O)c12
REMARK SMILES IDX 4 1 3 2 2 3 1 4 21 5 19 6 18 7 16 8 15 9 14 10 13 11 5 12
REMARK SMILES IDX 6 13 7 14 8 15 12 16 10 17 9 18 11 20 20 22 17 24
REMARK H PARENT 9 19 11 21 20 23 17 25
REMARK Flexibility Score: inf
ROOT
ATOM      1  C   UNL     1       1.818  -4.558   6.004  1.00  0.00     0.138 A 
ATOM      2  C   UNL     1       2.615  -5.704   6.124  1.00  0.00     0.100 A 
ATOM      3  C   UNL     1       3.990  -5.616   5.903  1.00  0.00     0.197 A 
ATOM      4  O   UNL     1       4.689  -6.648   6.078  1.00  0.00    -0.289 OA
ATOM      5  C   UNL     1       4.564  -4.378   5.527  1.00  0.00     0.107 A 
ATOM      6  C   UNL     1       5.947  -4.178   5.236  1.00  0.00     0.134 A 
ATOM      7  C   UNL     1       6.420  -2.883   4.989  1.00  0.00     0.093 A 
ATOM      8  C   UNL     1       5.549  -1.790   4.963  1.00  0.00     0.123 A 
ATOM      9  C   UNL     1       4.189  -1.983   5.194  1.00  0.00     0.094 A 
ATOM     10  C   UNL     1       3.692  -3.258   5.477  1.00  0.00     0.146 A 
ATOM     11  O   UNL     1       2.391  -3.396   5.705  1.00  0.00    -0.456 OA
ENDROOT
BRANCH   1  12
ATOM     12  C   UNL     1       0.351  -4.595   6.228  1.00  0.00     0.021 A 
ATOM     13  C   UNL     1      -0.320  -5.828   6.211  1.00  0.00     0.016 A 
ATOM     14  C   UNL     1      -1.698  -5.889   6.425  1.00  0.00     0.051 A 
ATOM     15  C   UNL     1      -2.434  -4.726   6.672  1.00  0.00     0.157 A 
ATOM     16  C   UNL     1      -0.387  -3.426   6.491  1.00  0.00     0.062 A 
ATOM     17  C   UNL     1      -1.769  -3.478   6.711  1.00  0.00     0.158 A 
BRANCH  15  18
ATOM     18  O   UNL     1      -3.810  -4.855   6.873  1.00  0.00    -0.504 OA
ATOM     19  H   UNL     1      -4.327  -4.356   7.581  1.00  0.00     0.293 HD
ENDBRANCH  15  18
BRANCH  17  20
ATOM     20  O   UNL     1      -2.435  -2.278   6.966  1.00  0.00    -0.504 OA
ATOM     21  H   UNL     1      -3.268  -1.979   6.480  1.00  0.00     0.293 HD
ENDBRANCH  17  20
ENDBRANCH   1  12
BRANCH   6  22
ATOM     22  O   UNL     1       6.885  -5.211   5.152  1.00  0.00    -0.507 OA
ATOM     23  H   UNL     1       7.076  -5.751   4.323  1.00  0.00     0.293 HD
ENDBRANCH   6  22
BRANCH   8  24
ATOM     24  O   UNL     1       6.027  -0.508   4.702  1.00  0.00    -0.508 OA
ATOM     25  H   UNL     1       5.820  -0.032   3.832  1.00  0.00     0.293 HD
ENDBRANCH   8  24
TORSDOF 5
ENDMDL
MODEL 8
REMARK VINA RESULT:    -5.287      2.248      6.407
REMARK INTER + INTRA:          -6.507
REMARK INTER:                  -6.243
REMARK INTRA:                  -0.264
REMARK UNBOUND:                -0.293
REMARK SMILES O=c1cc(-c2ccc(O)c(O)c2)oc2cc(O)cc(O)c12
REMARK SMILES IDX 4 1 3 2 2 3 1 4 21 5 19 6 18 7 16 8 15 9 14 10 13 11 5 12
REMARK SMILES IDX 6 13 7 14 8 15 12 16 10 17 9 18 11 20 20 22 17 24
REMARK H PARENT 9 19 11 21 20 23 17 25
REMARK Flexibility Score: inf
ROOT
ATOM      1  C   UNL     1       4.557  -6.645   5.156  1.00  0.00     0.138 A 
ATOM      2  C   UNL     1       4.757  -7.809   4.401  1.00  0.00     0.100 A 
ATOM      3  C   UNL     1       3.657  -8.559   3.984  1.00  0.00     0.197 A 
ATOM      4  O   UNL     1       3.865  -9.565   3.255  1.00  0.00    -0.289 OA
ATOM      5  C   UNL     1       2.351  -8.158   4.353  1.00  0.00     0.107 A 
ATOM      6  C   UNL     1       1.158  -8.867   4.019  1.00  0.00     0.134 A 
ATOM      7  C   UNL     1      -0.086  -8.312   4.339  1.00  0.00     0.093 A 
ATOM      8  C   UNL     1      -0.180  -7.102   5.033  1.00  0.00     0.123 A 
ATOM      9  C   UNL     1       0.980  -6.430   5.410  1.00  0.00     0.094 A 
ATOM     10  C   UNL     1       2.236  -6.941   5.075  1.00  0.00     0.146 A 
ATOM     11  O   UNL     1       3.317  -6.260   5.441  1.00  0.00    -0.456 OA
ENDROOT
BRANCH   1  12
ATOM     12  C   UNL     1       5.691  -5.810   5.626  1.00  0.00     0.021 A 
ATOM     13  C   UNL     1       6.090  -5.878   6.970  1.00  0.00     0.016 A 
ATOM     14  C   UNL     1       7.157  -5.107   7.433  1.00  0.00     0.051 A 
ATOM     15  C   UNL     1       7.856  -4.261   6.567  1.00  0.00     0.157 A 
ATOM     16  C   UNL     1       6.403  -4.969   4.750  1.00  0.00     0.062 A 
ATOM     17  C   UNL     1       7.477  -4.194   5.206  1.00  0.00     0.158 A 
BRANCH  15  18
ATOM     18  O   UNL     1       8.909  -3.512   7.095  1.00  0.00    -0.504 OA
ATOM     19  H   UNL     1       9.813  -3.419   6.655  1.00  0.00     0.293 HD
ENDBRANCH  15  18
BRANCH  17  20
ATOM     20  O   UNL     1       8.136  -3.383   4.279  1.00  0.00    -0.504 OA
ATOM     21  H   UNL     1       8.036  -2.380   4.234  1.00  0.00     0.293 HD
ENDBRANCH  17  20
ENDBRANCH   1  12
BRANCH   6  22
ATOM     22  O   UNL     1       1.142 -10.121   3.403  1.00  0.00    -0.507 OA
ATOM     23  H   UNL     1       0.634 -10.344   2.561  1.00  0.00     0.293 HD
ENDBRANCH   6  22
BRANCH   8  24
ATOM     24  O   UNL     1      -1.423  -6.565   5.360  1.00  0.00    -0.508 OA
ATOM     25  H   UNL     1      -1.526  -5.875   6.094  1.00  0.00     0.293 HD
ENDBRANCH   8  24
TORSDOF 5
ENDMDL
