MODEL 1
REMARK VINA RESULT:    -4.005      0.000      0.000
REMARK INTER + INTRA:          -5.620
REMARK INTER:                  -5.409
REMARK INTRA:                  -0.211
REMARK UNBOUND:                -0.211
REMARK SMILES [NH3+]CCCC[C@H]([NH3+])C(=O)[O-]
REMARK SMILES IDX 4 1 3 2 2 3 1 4 5 8 6 9 7 10 8 14 9 15 10 16
REMARK H PARENT 1 5 1 6 1 7 7 11 7 12 7 13
REMARK Flexibility Score: inf
ROOT
ATOM      1  C   UNL     1    -477.908 296.160  -1.371  1.00  0.00     0.012 C 
ENDROOT
BRANCH   1   2
ATOM      2  C   UNL     1    -477.864 296.121  -2.909  1.00  0.00     0.061 C 
BRANCH   2   3
ATOM      3  C   UNL     1    -477.074 294.940  -3.503  1.00  0.00     0.258 C 
BRANCH   3   4
ATOM      4  N   UNL     1    -475.679 295.287  -3.781  1.00  0.00    -0.358 N 
ATOM      5  H   UNL     1    -475.162 294.421  -4.056  1.00  0.00     0.344 HD
ATOM      6  H   UNL     1    -475.226 295.681  -2.926  1.00  0.00     0.344 HD
ATOM      7  H   UNL     1    -475.623 295.975  -4.566  1.00  0.00     0.344 HD
ENDBRANCH   3   4
ENDBRANCH   2   3
ENDBRANCH   1   2
BRANCH   1   8
ATOM      8  C   UNL     1    -478.111 294.770  -0.742  1.00  0.00     0.072 C 
BRANCH   8   9
ATOM      9  C   UNL     1    -477.103 294.490   0.393  1.00  0.00     0.227 C 
BRANCH   9  10
ATOM     10  N   UNL     1    -475.776 295.010   0.042  1.00  0.00    -0.350 N 
ATOM     11  H   UNL     1    -475.097 294.218  -0.048  1.00  0.00     0.345 HD
ATOM     12  H   UNL     1    -475.821 295.506  -0.878  1.00  0.00     0.345 HD
ATOM     13  H   UNL     1    -475.432 295.672   0.775  1.00  0.00     0.345 HD
ENDBRANCH   9  10
BRANCH   9  14
ATOM     14  C   UNL     1    -477.013 293.014   0.686  1.00  0.00     0.099 C 
ATOM     15  O   UNL     1    -477.925 292.236   0.301  1.00  0.00    -0.544 OA
ATOM     16  O   UNL     1    -475.923 292.501   1.381  1.00  0.00    -0.544 OA
ENDBRANCH   9  14
ENDBRANCH   8   9
ENDBRANCH   1   8
TORSDOF 7
ENDMDL
MODEL 2
REMARK VINA RESULT:    -3.891      0.418      1.081
REMARK INTER + INTRA:          -5.467
REMARK INTER:                  -5.265
REMARK INTRA:                  -0.202
REMARK UNBOUND:                -0.211
REMARK SMILES [NH3+]CCCC[C@H]([NH3+])C(=O)[O-]
REMARK SMILES IDX 4 1 3 2 2 3 1 4 5 8 6 9 7 10 8 14 9 15 10 16
REMARK H PARENT 1 5 1 6 1 7 7 11 7 12 7 13
REMARK Flexibility Score: inf
ROOT
ATOM      1  C   UNL     1    -478.060 296.354  -1.630  1.00  0.00     0.012 C 
ENDROOT
BRANCH   1   2
ATOM      2  C   UNL     1    -477.607 296.527  -3.091  1.00  0.00     0.061 C 
BRANCH   2   3
ATOM      3  C   UNL     1    -477.074 295.245  -3.759  1.00  0.00     0.258 C 
BRANCH   3   4
ATOM      4  N   UNL     1    -475.626 295.290  -3.977  1.00  0.00    -0.358 N 
ATOM      5  H   UNL     1    -475.425 295.917  -4.789  1.00  0.00     0.344 HD
ATOM      6  H   UNL     1    -475.264 294.336  -4.202  1.00  0.00     0.344 HD
ATOM      7  H   UNL     1    -475.141 295.668  -3.131  1.00  0.00     0.344 HD
ENDBRANCH   3   4
ENDBRANCH   2   3
ENDBRANCH   1   2
BRANCH   1   8
ATOM      8  C   UNL     1    -478.033 294.887  -1.165  1.00  0.00     0.072 C 
BRANCH   8   9
ATOM      9  C   UNL     1    -477.235 294.705   0.145  1.00  0.00     0.227 C 
BRANCH   9  10
ATOM     10  N   UNL     1    -475.852 295.168  -0.027  1.00  0.00    -0.350 N 
ATOM     11  H   UNL     1    -475.833 296.213  -0.086  1.00  0.00     0.345 HD
ATOM     12  H   UNL     1    -475.275 294.878   0.796  1.00  0.00     0.345 HD
ATOM     13  H   UNL     1    -475.435 294.769  -0.899  1.00  0.00     0.345 HD
ENDBRANCH   9  10
BRANCH   9  14
ATOM     14  C   UNL     1    -477.241 293.264   0.587  1.00  0.00     0.099 C 
ATOM     15  O   UNL     1    -476.508 292.893   1.542  1.00  0.00    -0.544 OA
ATOM     16  O   UNL     1    -478.054 292.337  -0.053  1.00  0.00    -0.544 OA
ENDBRANCH   9  14
ENDBRANCH   8   9
ENDBRANCH   1   8
TORSDOF 7
ENDMDL
MODEL 3
REMARK VINA RESULT:    -3.803      2.785      4.729
REMARK INTER + INTRA:          -5.347
REMARK INTER:                  -5.229
REMARK INTRA:                  -0.118
REMARK UNBOUND:                -0.211
REMARK SMILES [NH3+]CCCC[C@H]([NH3+])C(=O)[O-]
REMARK SMILES IDX 4 1 3 2 2 3 1 4 5 8 6 9 7 10 8 14 9 15 10 16
REMARK H PARENT 1 5 1 6 1 7 7 11 7 12 7 13
REMARK Flexibility Score: inf
ROOT
ATOM      1  C   UNL     1    -477.193 292.433   0.603  1.00  0.00     0.012 C 
ENDROOT
BRANCH   1   2
ATOM      2  C   UNL     1    -475.891 292.395   1.422  1.00  0.00     0.061 C 
BRANCH   2   3
ATOM      3  C   UNL     1    -475.355 290.982   1.720  1.00  0.00     0.258 C 
BRANCH   3   4
ATOM      4  N   UNL     1    -474.401 290.970   2.831  1.00  0.00    -0.358 N 
ATOM      5  H   UNL     1    -473.734 290.175   2.698  1.00  0.00     0.344 HD
ATOM      6  H   UNL     1    -474.902 290.828   3.737  1.00  0.00     0.344 HD
ATOM      7  H   UNL     1    -473.859 291.863   2.857  1.00  0.00     0.344 HD
ENDBRANCH   3   4
ENDBRANCH   2   3
ENDBRANCH   1   2
BRANCH   1   8
ATOM      8  C   UNL     1    -477.716 293.862   0.376  1.00  0.00     0.072 C 
BRANCH   8   9
ATOM      9  C   UNL     1    -476.724 294.724  -0.436  1.00  0.00     0.227 C 
BRANCH   9  10
ATOM     10  N   UNL     1    -476.256 295.860   0.368  1.00  0.00    -0.350 N 
ATOM     11  H   UNL     1    -476.881 295.990   1.196  1.00  0.00     0.345 HD
ATOM     12  H   UNL     1    -475.288 295.673   0.717  1.00  0.00     0.345 HD
ATOM     13  H   UNL     1    -476.253 296.738  -0.201  1.00  0.00     0.345 HD
ENDBRANCH   9  10
BRANCH   9  14
ATOM     14  C   UNL     1    -477.357 295.224  -1.709  1.00  0.00     0.099 C 
ATOM     15  O   UNL     1    -477.500 294.449  -2.691  1.00  0.00    -0.544 OA
ATOM     16  O   UNL     1    -477.786 296.543  -1.809  1.00  0.00    -0.544 OA
ENDBRANCH   9  14
ENDBRANCH   8   9
ENDBRANCH   1   8
TORSDOF 7
ENDMDL
MODEL 4
REMARK VINA RESULT:    -3.659      3.761      5.220
REMARK INTER + INTRA:          -5.153
REMARK INTER:                  -4.943
REMARK INTRA:                  -0.210
REMARK UNBOUND:                -0.211
REMARK SMILES [NH3+]CCCC[C@H]([NH3+])C(=O)[O-]
REMARK SMILES IDX 4 1 3 2 2 3 1 4 5 8 6 9 7 10 8 14 9 15 10 16
REMARK H PARENT 1 5 1 6 1 7 7 11 7 12 7 13
REMARK Flexibility Score: inf
ROOT
ATOM      1  C   UNL     1    -477.666 296.342  -1.941  1.00  0.00     0.012 C 
ENDROOT
BRANCH   1   2
ATOM      2  C   UNL     1    -478.107 295.308  -0.889  1.00  0.00     0.061 C 
BRANCH   2   3
ATOM      3  C   UNL     1    -476.953 294.610  -0.145  1.00  0.00     0.258 C 
BRANCH   3   4
ATOM      4  N   UNL     1    -475.771 295.466  -0.021  1.00  0.00    -0.358 N 
ATOM      5  H   UNL     1    -475.746 296.129  -0.829  1.00  0.00     0.344 HD
ATOM      6  H   UNL     1    -474.901 294.888  -0.044  1.00  0.00     0.344 HD
ATOM      7  H   UNL     1    -475.812 296.018   0.866  1.00  0.00     0.344 HD
ENDBRANCH   3   4
ENDBRANCH   2   3
ENDBRANCH   1   2
BRANCH   1   8
ATOM      8  C   UNL     1    -478.124 295.980  -3.365  1.00  0.00     0.072 C 
BRANCH   8   9
ATOM      9  C   UNL     1    -476.967 296.054  -4.386  1.00  0.00     0.227 C 
BRANCH   9  10
ATOM     10  N   UNL     1    -475.755 295.435  -3.834  1.00  0.00    -0.350 N 
ATOM     11  H   UNL     1    -475.968 295.008  -2.903  1.00  0.00     0.345 HD
ATOM     12  H   UNL     1    -475.422 294.675  -4.472  1.00  0.00     0.345 HD
ATOM     13  H   UNL     1    -474.997 296.146  -3.719  1.00  0.00     0.345 HD
ENDBRANCH   9  10
BRANCH   9  14
ATOM     14  C   UNL     1    -476.680 297.481  -4.777  1.00  0.00     0.099 C 
ATOM     15  O   UNL     1    -475.498 297.846  -5.012  1.00  0.00    -0.544 OA
ATOM     16  O   UNL     1    -477.716 298.402  -4.883  1.00  0.00    -0.544 OA
ENDBRANCH   9  14
ENDBRANCH   8   9
ENDBRANCH   1   8
TORSDOF 7
ENDMDL
MODEL 5
REMARK VINA RESULT:    -3.529      2.668      4.363
REMARK INTER + INTRA:          -4.977
REMARK INTER:                  -4.777
REMARK INTRA:                  -0.200
REMARK UNBOUND:                -0.211
REMARK SMILES [NH3+]CCCC[C@H]([NH3+])C(=O)[O-]
REMARK SMILES IDX 4 1 3 2 2 3 1 4 5 8 6 9 7 10 8 14 9 15 10 16
REMARK H PARENT 1 5 1 6 1 7 7 11 7 12 7 13
REMARK Flexibility Score: inf
ROOT
ATOM      1  C   UNL     1    -477.767 296.136  -1.496  1.00  0.00     0.012 C 
ENDROOT
BRANCH   1   2
ATOM      2  C   UNL     1    -478.003 294.831  -0.714  1.00  0.00     0.061 C 
BRANCH   2   3
ATOM      3  C   UNL     1    -476.875 294.452   0.264  1.00  0.00     0.258 C 
BRANCH   3   4
ATOM      4  N   UNL     1    -475.773 295.417   0.247  1.00  0.00    -0.358 N 
ATOM      5  H   UNL     1    -474.966 295.021   0.779  1.00  0.00     0.344 HD
ATOM      6  H   UNL     1    -476.065 296.308   0.709  1.00  0.00     0.344 HD
ATOM      7  H   UNL     1    -475.468 295.606  -0.736  1.00  0.00     0.344 HD
ENDBRANCH   3   4
ENDBRANCH   2   3
ENDBRANCH   1   2
BRANCH   1   8
ATOM      8  C   UNL     1    -477.866 295.947  -3.020  1.00  0.00     0.072 C 
BRANCH   8   9
ATOM      9  C   UNL     1    -476.933 294.828  -3.531  1.00  0.00     0.227 C 
BRANCH   9  10
ATOM     10  N   UNL     1    -475.617 295.376  -3.882  1.00  0.00    -0.350 N 
ATOM     11  H   UNL     1    -474.927 295.150  -3.129  1.00  0.00     0.345 HD
ATOM     12  H   UNL     1    -475.279 294.945  -4.773  1.00  0.00     0.345 HD
ATOM     13  H   UNL     1    -475.669 296.414  -3.999  1.00  0.00     0.345 HD
ENDBRANCH   9  10
BRANCH   9  14
ATOM     14  C   UNL     1    -477.531 294.128  -4.725  1.00  0.00     0.099 C 
ATOM     15  O   UNL     1    -477.499 294.673  -5.859  1.00  0.00    -0.544 OA
ATOM     16  O   UNL     1    -478.120 292.876  -4.583  1.00  0.00    -0.544 OA
ENDBRANCH   9  14
ENDBRANCH   8   9
ENDBRANCH   1   8
TORSDOF 7
ENDMDL
MODEL 6
REMARK VINA RESULT:    -3.323     10.829     12.065
REMARK INTER + INTRA:          -4.699
REMARK INTER:                  -4.475
REMARK INTRA:                  -0.225
REMARK UNBOUND:                -0.211
REMARK SMILES [NH3+]CCCC[C@H]([NH3+])C(=O)[O-]
REMARK SMILES IDX 4 1 3 2 2 3 1 4 5 8 6 9 7 10 8 14 9 15 10 16
REMARK H PARENT 1 5 1 6 1 7 7 11 7 12 7 13
REMARK Flexibility Score: inf
ROOT
ATOM      1  C   UNL     1    -476.823 284.119  -1.357  1.00  0.00     0.012 C 
ENDROOT
BRANCH   1   2
ATOM      2  C   UNL     1    -476.868 284.913  -0.040  1.00  0.00     0.061 C 
BRANCH   2   3
ATOM      3  C   UNL     1    -476.792 284.053   1.236  1.00  0.00     0.258 C 
BRANCH   3   4
ATOM      4  N   UNL     1    -475.426 283.938   1.751  1.00  0.00    -0.358 N 
ATOM      5  H   UNL     1    -474.945 284.860   1.646  1.00  0.00     0.344 HD
ATOM      6  H   UNL     1    -474.891 283.226   1.203  1.00  0.00     0.344 HD
ATOM      7  H   UNL     1    -475.437 283.678   2.763  1.00  0.00     0.344 HD
ENDBRANCH   3   4
ENDBRANCH   2   3
ENDBRANCH   1   2
BRANCH   1   8
ATOM      8  C   UNL     1    -475.396 283.962  -1.913  1.00  0.00     0.072 C 
BRANCH   8   9
ATOM      9  C   UNL     1    -474.884 282.509  -1.802  1.00  0.00     0.227 C 
BRANCH   9  10
ATOM     10  N   UNL     1    -473.607 282.468  -1.079  1.00  0.00    -0.350 N 
ATOM     11  H   UNL     1    -473.753 282.066  -0.124  1.00  0.00     0.345 HD
ATOM     12  H   UNL     1    -472.929 281.857  -1.589  1.00  0.00     0.345 HD
ATOM     13  H   UNL     1    -473.204 283.429  -0.987  1.00  0.00     0.345 HD
ENDBRANCH   9  10
BRANCH   9  14
ATOM     14  C   UNL     1    -474.720 281.886  -3.165  1.00  0.00     0.099 C 
ATOM     15  O   UNL     1    -474.704 280.633  -3.290  1.00  0.00    -0.544 OA
ATOM     16  O   UNL     1    -474.587 282.690  -4.292  1.00  0.00    -0.544 OA
ENDBRANCH   9  14
ENDBRANCH   8   9
ENDBRANCH   1   8
TORSDOF 7
ENDMDL
MODEL 7
REMARK VINA RESULT:    -3.312     10.639     11.503
REMARK INTER + INTRA:          -4.685
REMARK INTER:                  -4.229
REMARK INTRA:                  -0.456
REMARK UNBOUND:                -0.211
REMARK SMILES [NH3+]CCCC[C@H]([NH3+])C(=O)[O-]
REMARK SMILES IDX 4 1 3 2 2 3 1 4 5 8 6 9 7 10 8 14 9 15 10 16
REMARK H PARENT 1 5 1 6 1 7 7 11 7 12 7 13
REMARK Flexibility Score: inf
ROOT
ATOM      1  C   UNL     1    -474.290 282.489  -1.459  1.00  0.00     0.012 C 
ENDROOT
BRANCH   1   2
ATOM      2  C   UNL     1    -474.522 281.765  -2.797  1.00  0.00     0.061 C 
BRANCH   2   3
ATOM      3  C   UNL     1    -474.976 282.675  -3.954  1.00  0.00     0.258 C 
BRANCH   3   4
ATOM      4  N   UNL     1    -476.409 282.552  -4.230  1.00  0.00    -0.358 N 
ATOM      5  H   UNL     1    -476.932 283.211  -3.609  1.00  0.00     0.344 HD
ATOM      6  H   UNL     1    -476.736 281.581  -4.025  1.00  0.00     0.344 HD
ATOM      7  H   UNL     1    -476.612 282.797  -5.226  1.00  0.00     0.344 HD
ENDBRANCH   3   4
ENDBRANCH   2   3
ENDBRANCH   1   2
BRANCH   1   8
ATOM      8  C   UNL     1    -474.624 283.990  -1.524  1.00  0.00     0.072 C 
BRANCH   8   9
ATOM      9  C   UNL     1    -475.428 284.463  -0.293  1.00  0.00     0.227 C 
BRANCH   9  10
ATOM     10  N   UNL     1    -474.959 283.782   0.920  1.00  0.00    -0.350 N 
ATOM     11  H   UNL     1    -474.825 282.762   0.724  1.00  0.00     0.345 HD
ATOM     12  H   UNL     1    -474.038 284.179   1.217  1.00  0.00     0.345 HD
ATOM     13  H   UNL     1    -475.650 283.893   1.697  1.00  0.00     0.345 HD
ENDBRANCH   9  10
BRANCH   9  14
ATOM     14  C   UNL     1    -476.903 284.215  -0.481  1.00  0.00     0.099 C 
ATOM     15  O   UNL     1    -477.658 284.103   0.521  1.00  0.00    -0.544 OA
ATOM     16  O   UNL     1    -477.439 284.109  -1.759  1.00  0.00    -0.544 OA
ENDBRANCH   9  14
ENDBRANCH   8   9
ENDBRANCH   1   8
TORSDOF 7
ENDMDL
MODEL 8
REMARK VINA RESULT:    -3.293     10.594     11.676
REMARK INTER + INTRA:          -4.659
REMARK INTER:                  -4.258
REMARK INTRA:                  -0.400
REMARK UNBOUND:                -0.211
REMARK SMILES [NH3+]CCCC[C@H]([NH3+])C(=O)[O-]
REMARK SMILES IDX 4 1 3 2 2 3 1 4 5 8 6 9 7 10 8 14 9 15 10 16
REMARK H PARENT 1 5 1 6 1 7 7 11 7 12 7 13
REMARK Flexibility Score: inf
ROOT
ATOM      1  C   UNL     1    -476.709 284.836  -0.600  1.00  0.00     0.012 C 
ENDROOT
BRANCH   1   2
ATOM      2  C   UNL     1    -477.272 284.193   0.680  1.00  0.00     0.061 C 
BRANCH   2   3
ATOM      3  C   UNL     1    -476.209 283.777   1.715  1.00  0.00     0.258 C 
BRANCH   3   4
ATOM      4  N   UNL     1    -474.845 283.915   1.199  1.00  0.00    -0.358 N 
ATOM      5  H   UNL     1    -474.236 284.308   1.953  1.00  0.00     0.344 HD
ATOM      6  H   UNL     1    -474.829 284.575   0.389  1.00  0.00     0.344 HD
ATOM      7  H   UNL     1    -474.467 282.984   0.912  1.00  0.00     0.344 HD
ENDBRANCH   3   4
ENDBRANCH   2   3
ENDBRANCH   1   2
BRANCH   1   8
ATOM      8  C   UNL     1    -476.633 283.851  -1.780  1.00  0.00     0.072 C 
BRANCH   8   9
ATOM      9  C   UNL     1    -475.221 283.796  -2.404  1.00  0.00     0.227 C 
BRANCH   9  10
ATOM     10  N   UNL     1    -475.288 284.046  -3.849  1.00  0.00    -0.350 N 
ATOM     11  H   UNL     1    -476.180 284.541  -4.082  1.00  0.00     0.345 HD
ATOM     12  H   UNL     1    -474.491 284.657  -4.142  1.00  0.00     0.345 HD
ATOM     13  H   UNL     1    -475.248 283.147  -4.382  1.00  0.00     0.345 HD
ENDBRANCH   9  10
BRANCH   9  14
ATOM     14  C   UNL     1    -474.565 282.464  -2.146  1.00  0.00     0.099 C 
ATOM     15  O   UNL     1    -473.969 282.253  -1.057  1.00  0.00    -0.544 OA
ATOM     16  O   UNL     1    -474.614 281.459  -3.106  1.00  0.00    -0.544 OA
ENDBRANCH   9  14
ENDBRANCH   8   9
ENDBRANCH   1   8
TORSDOF 7
ENDMDL
