MODEL 1
REMARK VINA RESULT:    -6.487      0.000      0.000
REMARK INTER + INTRA:         -10.339
REMARK INTER:                  -9.142
REMARK INTRA:                  -1.197
REMARK UNBOUND:                -1.197
REMARK SMILES COc1c(O[C@H]2O[C@H](C(=O)[O-])[C@H](O)[C@@H](O)[C@@H]2O)cc(O)c2c(=O)cc(-c3ccccc3)oc12
REMARK SMILES IDX 5 1 6 2 8 3 12 4 7 5 14 6 16 7 9 8 10 9 11 10 13 11 15 13
REMARK SMILES IDX 17 15 4 17 3 18 18 19 33 20 19 21 21 22 32 23 22 24 25 25
REMARK SMILES IDX 24 26 23 27 2 28 1 29 20 30 26 32 27 33 31 34 28 35 30 36
REMARK SMILES IDX 29 37
REMARK H PARENT 13 12 15 14 17 16 20 31
REMARK Flexibility Score: inf
ROOT
ATOM      1  O   UNL     1      14.606   9.871  28.469  1.00  0.00    -0.458 OA
ENDROOT
BRANCH   1   2
ATOM      2  C   UNL     1      13.676   8.812  28.201  1.00  0.00     0.339 C 
ATOM      3  C   UNL     1      11.950  10.306  27.675  1.00  0.00     0.199 C 
ATOM      4  C   UNL     1      11.813   9.846  26.208  1.00  0.00     0.180 C 
ATOM      5  O   UNL     1      12.356   9.227  28.501  1.00  0.00    -0.328 OA
ATOM      6  C   UNL     1      13.146   9.252  25.705  1.00  0.00     0.181 C 
ATOM      7  C   UNL     1      13.803   8.301  26.740  1.00  0.00     0.214 C 
BRANCH   3   8
ATOM      8  C   UNL     1      10.657  10.856  28.192  1.00  0.00     0.073 C 
ATOM      9  O   UNL     1      10.537  11.124  29.423  1.00  0.00    -0.547 OA
ATOM     10  O   UNL     1       9.609  11.125  27.316  1.00  0.00    -0.547 OA
ENDBRANCH   3   8
BRANCH   4  11
ATOM     11  O   UNL     1      10.803   8.874  26.081  1.00  0.00    -0.387 OA
ATOM     12  H   UNL     1       9.966   9.268  26.449  1.00  0.00     0.211 HD
ENDBRANCH   4  11
BRANCH   6  13
ATOM     13  O   UNL     1      14.039  10.264  25.312  1.00  0.00    -0.387 OA
ATOM     14  H   UNL     1      14.258  10.815  26.099  1.00  0.00     0.211 HD
ENDBRANCH   6  13
BRANCH   7  15
ATOM     15  O   UNL     1      13.275   7.003  26.622  1.00  0.00    -0.384 OA
ATOM     16  H   UNL     1      13.384   6.712  25.681  1.00  0.00     0.211 HD
ENDBRANCH   7  15
ENDBRANCH   1   2
BRANCH   1  17
ATOM     17  C   UNL     1      16.000   9.741  28.520  1.00  0.00     0.172 A 
ATOM     18  C   UNL     1      16.592   9.452  29.755  1.00  0.00     0.205 A 
ATOM     19  C   UNL     1      16.796   9.881  27.374  1.00  0.00     0.097 A 
ATOM     20  C   UNL     1      17.998   9.299  29.839  1.00  0.00     0.188 A 
ATOM     21  C   UNL     1      18.182   9.725  27.442  1.00  0.00     0.134 A 
ATOM     22  C   UNL     1      18.798   9.421  28.677  1.00  0.00     0.111 A 
ATOM     23  O   UNL     1      18.574   9.030  31.009  1.00  0.00    -0.452 OA
ATOM     24  C   UNL     1      20.190   9.231  28.807  1.00  0.00     0.197 A 
ATOM     25  C   UNL     1      19.885   8.860  31.170  1.00  0.00     0.138 A 
ATOM     26  C   UNL     1      20.734   8.952  30.061  1.00  0.00     0.100 A 
ATOM     27  O   UNL     1      20.958   9.305  27.816  1.00  0.00    -0.289 OA
BRANCH  18  28
ATOM     28  O   UNL     1      15.728   9.336  30.866  1.00  0.00    -0.490 OA
ATOM     29  C   UNL     1      15.252   8.132  31.448  1.00  0.00     0.278 C 
ENDBRANCH  18  28
BRANCH  21  30
ATOM     30  O   UNL     1      18.940   9.872  26.281  1.00  0.00    -0.507 OA
ATOM     31  H   UNL     1      18.534   9.773  25.355  1.00  0.00     0.293 HD
ENDBRANCH  21  30
BRANCH  25  32
ATOM     32  C   UNL     1      20.410   8.586  32.530  1.00  0.00     0.017 A 
ATOM     33  C   UNL     1      19.548   8.463  33.635  1.00  0.00     0.012 A 
ATOM     34  C   UNL     1      21.797   8.462  32.732  1.00  0.00     0.012 A 
ATOM     35  C   UNL     1      20.064   8.208  34.909  1.00  0.00     0.001 A 
ATOM     36  C   UNL     1      22.308   8.207  34.007  1.00  0.00     0.001 A 
ATOM     37  C   UNL     1      21.442   8.083  35.095  1.00  0.00     0.000 A 
ENDBRANCH  25  32
ENDBRANCH   1  17
TORSDOF 9
ENDMDL
MODEL 2
REMARK VINA RESULT:    -5.956      1.939      8.657
REMARK INTER + INTRA:          -9.591
REMARK INTER:                  -8.416
REMARK INTRA:                  -1.175
REMARK UNBOUND:                -1.197
REMARK SMILES COc1c(O[C@H]2O[C@H](C(=O)[O-])[C@H](O)[C@@H](O)[C@@H]2O)cc(O)c2c(=O)cc(-c3ccccc3)oc12
REMARK SMILES IDX 5 1 6 2 8 3 12 4 7 5 14 6 16 7 9 8 10 9 11 10 13 11 15 13
REMARK SMILES IDX 17 15 4 17 3 18 18 19 33 20 19 21 21 22 32 23 22 24 25 25
REMARK SMILES IDX 24 26 23 27 2 28 1 29 20 30 26 32 27 33 31 34 28 35 30 36
REMARK SMILES IDX 29 37
REMARK H PARENT 13 12 15 14 17 16 20 31
REMARK Flexibility Score: inf
ROOT
ATOM      1  O   UNL     1      18.492   9.920  30.847  1.00  0.00    -0.458 OA
ENDROOT
BRANCH   1   2
ATOM      2  C   UNL     1      18.924   8.771  31.588  1.00  0.00     0.339 C 
ATOM      3  C   UNL     1      21.013   8.730  30.528  1.00  0.00     0.199 C 
ATOM      4  C   UNL     1      21.824   8.988  31.815  1.00  0.00     0.180 C 
ATOM      5  O   UNL     1      19.832   8.001  30.821  1.00  0.00    -0.328 OA
ATOM      6  C   UNL     1      20.964   9.746  32.849  1.00  0.00     0.181 C 
ATOM      7  C   UNL     1      19.526   9.174  32.961  1.00  0.00     0.214 C 
BRANCH   3   8
ATOM      8  C   UNL     1      21.821   7.967  29.524  1.00  0.00     0.073 C 
ATOM      9  O   UNL     1      22.002   8.451  28.369  1.00  0.00    -0.547 OA
ATOM     10  O   UNL     1      22.417   6.760  29.875  1.00  0.00    -0.547 OA
ENDBRANCH   3   8
BRANCH   4  11
ATOM     11  O   UNL     1      22.261   7.777  32.384  1.00  0.00    -0.387 OA
ATOM     12  H   UNL     1      21.618   7.071  32.101  1.00  0.00     0.211 HD
ENDBRANCH   4  11
BRANCH   6  13
ATOM     13  O   UNL     1      20.939  11.125  32.579  1.00  0.00    -0.387 OA
ATOM     14  H   UNL     1      21.423  11.291  31.737  1.00  0.00     0.211 HD
ENDBRANCH   6  13
BRANCH   7  15
ATOM     15  O   UNL     1      19.495   8.088  33.854  1.00  0.00    -0.384 OA
ATOM     16  H   UNL     1      20.077   8.308  34.625  1.00  0.00     0.211 HD
ENDBRANCH   7  15
ENDBRANCH   1   2
BRANCH   1  17
ATOM     17  C   UNL     1      17.703   9.897  29.690  1.00  0.00     0.172 A 
ATOM     18  C   UNL     1      16.311   9.871  29.840  1.00  0.00     0.205 A 
ATOM     19  C   UNL     1      18.271   9.914  28.408  1.00  0.00     0.097 A 
ATOM     20  C   UNL     1      15.482   9.863  28.690  1.00  0.00     0.188 A 
ATOM     21  C   UNL     1      17.466   9.914  27.267  1.00  0.00     0.134 A 
ATOM     22  C   UNL     1      16.058   9.899  27.398  1.00  0.00     0.111 A 
ATOM     23  O   UNL     1      14.157   9.830  28.820  1.00  0.00    -0.452 OA
ATOM     24  C   UNL     1      15.191   9.920  26.285  1.00  0.00     0.197 A 
ATOM     25  C   UNL     1      13.311   9.833  27.792  1.00  0.00     0.138 A 
ATOM     26  C   UNL     1      13.811   9.884  26.485  1.00  0.00     0.100 A 
ATOM     27  O   UNL     1      15.632   9.971  25.109  1.00  0.00    -0.289 OA
BRANCH  18  28
ATOM     28  O   UNL     1      15.812   9.844  31.160  1.00  0.00    -0.490 OA
ATOM     29  C   UNL     1      15.326   8.708  31.861  1.00  0.00     0.278 C 
ENDBRANCH  18  28
BRANCH  21  30
ATOM     30  O   UNL     1      18.068   9.930  26.010  1.00  0.00    -0.507 OA
ATOM     31  H   UNL     1      19.024   9.617  25.865  1.00  0.00     0.293 HD
ENDBRANCH  21  30
BRANCH  25  32
ATOM     32  C   UNL     1      11.854   9.772  28.065  1.00  0.00     0.017 A 
ATOM     33  C   UNL     1      11.329  10.138  29.317  1.00  0.00     0.012 A 
ATOM     34  C   UNL     1      10.973   9.325  27.062  1.00  0.00     0.012 A 
ATOM     35  C   UNL     1       9.952  10.070  29.553  1.00  0.00     0.001 A 
ATOM     36  C   UNL     1       9.599   9.259  27.303  1.00  0.00     0.001 A 
ATOM     37  C   UNL     1       9.089   9.629  28.549  1.00  0.00     0.000 A 
ENDBRANCH  25  32
ENDBRANCH   1  17
TORSDOF 9
ENDMDL
MODEL 3
REMARK VINA RESULT:    -5.888      1.736      3.432
REMARK INTER + INTRA:          -9.494
REMARK INTER:                  -8.177
REMARK INTRA:                  -1.317
REMARK UNBOUND:                -1.197
REMARK SMILES COc1c(O[C@H]2O[C@H](C(=O)[O-])[C@H](O)[C@@H](O)[C@@H]2O)cc(O)c2c(=O)cc(-c3ccccc3)oc12
REMARK SMILES IDX 5 1 6 2 8 3 12 4 7 5 14 6 16 7 9 8 10 9 11 10 13 11 15 13
REMARK SMILES IDX 17 15 4 17 3 18 18 19 33 20 19 21 21 22 32 23 22 24 25 25
REMARK SMILES IDX 24 26 23 27 2 28 1 29 20 30 26 32 27 33 31 34 28 35 30 36
REMARK SMILES IDX 29 37
REMARK H PARENT 13 12 15 14 17 16 20 31
REMARK Flexibility Score: inf
ROOT
ATOM      1  O   UNL     1      14.668   9.459  29.504  1.00  0.00    -0.458 OA
ENDROOT
BRANCH   1   2
ATOM      2  C   UNL     1      13.855   8.530  28.773  1.00  0.00     0.339 C 
ATOM      3  C   UNL     1      12.480  10.225  27.924  1.00  0.00     0.199 C 
ATOM      4  C   UNL     1      12.853   9.977  26.446  1.00  0.00     0.180 C 
ATOM      5  O   UNL     1      12.530   9.016  28.661  1.00  0.00    -0.328 OA
ATOM      6  C   UNL     1      14.255   9.341  26.347  1.00  0.00     0.181 C 
ATOM      7  C   UNL     1      14.471   8.208  27.385  1.00  0.00     0.214 C 
BRANCH   3   8
ATOM      8  C   UNL     1      11.108  10.813  28.043  1.00  0.00     0.073 C 
ATOM      9  O   UNL     1      10.635  11.074  29.188  1.00  0.00    -0.547 OA
ATOM     10  O   UNL     1      10.376  11.125  26.900  1.00  0.00    -0.547 OA
ENDBRANCH   3   8
BRANCH   4  11
ATOM     11  O   UNL     1      11.919   9.122  25.831  1.00  0.00    -0.387 OA
ATOM     12  H   UNL     1      11.570   8.512  26.536  1.00  0.00     0.211 HD
ENDBRANCH   4  11
BRANCH   6  13
ATOM     13  O   UNL     1      15.265  10.314  26.446  1.00  0.00    -0.387 OA
ATOM     14  H   UNL     1      14.880  11.193  26.220  1.00  0.00     0.211 HD
ENDBRANCH   6  13
BRANCH   7  15
ATOM     15  O   UNL     1      13.973   6.988  26.893  1.00  0.00    -0.384 OA
ATOM     16  H   UNL     1      13.015   6.927  27.137  1.00  0.00     0.211 HD
ENDBRANCH   7  15
ENDBRANCH   1   2
BRANCH   1  17
ATOM     17  C   UNL     1      15.592   9.127  30.502  1.00  0.00     0.172 A 
ATOM     18  C   UNL     1      16.956   9.249  30.208  1.00  0.00     0.205 A 
ATOM     19  C   UNL     1      15.184   8.695  31.772  1.00  0.00     0.097 A 
ATOM     20  C   UNL     1      17.918   8.937  31.201  1.00  0.00     0.188 A 
ATOM     21  C   UNL     1      16.121   8.391  32.762  1.00  0.00     0.134 A 
ATOM     22  C   UNL     1      17.502   8.519  32.488  1.00  0.00     0.111 A 
ATOM     23  O   UNL     1      19.217   9.042  30.931  1.00  0.00    -0.452 OA
ATOM     24  C   UNL     1      18.496   8.248  33.451  1.00  0.00     0.197 A 
ATOM     25  C   UNL     1      20.182   8.779  31.811  1.00  0.00     0.138 A 
ATOM     26  C   UNL     1      19.842   8.376  33.108  1.00  0.00     0.100 A 
ATOM     27  O   UNL     1      18.200   7.891  34.619  1.00  0.00    -0.289 OA
BRANCH  18  28
ATOM     28  O   UNL     1      17.292   9.680  28.906  1.00  0.00    -0.490 OA
ATOM     29  C   UNL     1      17.896  10.915  28.550  1.00  0.00     0.278 C 
ENDBRANCH  18  28
BRANCH  21  30
ATOM     30  O   UNL     1      15.675   7.964  34.011  1.00  0.00    -0.507 OA
ATOM     31  H   UNL     1      15.343   7.017  34.172  1.00  0.00     0.293 HD
ENDBRANCH  21  30
BRANCH  25  32
ATOM     32  C   UNL     1      21.596   8.913  31.384  1.00  0.00     0.017 A 
ATOM     33  C   UNL     1      22.446   7.795  31.310  1.00  0.00     0.012 A 
ATOM     34  C   UNL     1      22.111  10.182  31.059  1.00  0.00     0.012 A 
ATOM     35  C   UNL     1      23.776   7.943  30.907  1.00  0.00     0.001 A 
ATOM     36  C   UNL     1      23.442  10.325  30.657  1.00  0.00     0.001 A 
ATOM     37  C   UNL     1      24.274   9.206  30.584  1.00  0.00     0.000 A 
ENDBRANCH  25  32
ENDBRANCH   1  17
TORSDOF 9
ENDMDL
MODEL 4
REMARK VINA RESULT:    -5.734      3.125      9.388
REMARK INTER + INTRA:          -9.278
REMARK INTER:                  -7.922
REMARK INTRA:                  -1.356
REMARK UNBOUND:                -1.197
REMARK SMILES COc1c(O[C@H]2O[C@H](C(=O)[O-])[C@H](O)[C@@H](O)[C@@H]2O)cc(O)c2c(=O)cc(-c3ccccc3)oc12
REMARK SMILES IDX 5 1 6 2 8 3 12 4 7 5 14 6 16 7 9 8 10 9 11 10 13 11 15 13
REMARK SMILES IDX 17 15 4 17 3 18 18 19 33 20 19 21 21 22 32 23 22 24 25 25
REMARK SMILES IDX 24 26 23 27 2 28 1 29 20 30 26 32 27 33 31 34 28 35 30 36
REMARK SMILES IDX 29 37
REMARK H PARENT 13 12 15 14 17 16 20 31
REMARK Flexibility Score: inf
ROOT
ATOM      1  O   UNL     1      21.055   9.918  31.517  1.00  0.00    -0.458 OA
ENDROOT
BRANCH   1   2
ATOM      2  C   UNL     1      22.085   9.268  32.274  1.00  0.00     0.339 C 
ATOM      3  C   UNL     1      22.879   8.098  30.406  1.00  0.00     0.199 C 
ATOM      4  C   UNL     1      24.272   8.762  30.411  1.00  0.00     0.180 C 
ATOM      5  O   UNL     1      22.371   7.994  31.726  1.00  0.00    -0.328 OA
ATOM      6  C   UNL     1      24.201  10.154  31.074  1.00  0.00     0.181 C 
ATOM      7  C   UNL     1      23.357  10.151  32.376  1.00  0.00     0.214 C 
BRANCH   3   8
ATOM      8  C   UNL     1      22.933   6.732  29.795  1.00  0.00     0.073 C 
ATOM      9  O   UNL     1      23.797   6.479  28.904  1.00  0.00    -0.547 OA
ATOM     10  O   UNL     1      22.078   5.729  30.240  1.00  0.00    -0.547 OA
ENDBRANCH   3   8
BRANCH   4  11
ATOM     11  O   UNL     1      25.202   7.970  31.110  1.00  0.00    -0.387 OA
ATOM     12  H   UNL     1      25.709   7.445  30.433  1.00  0.00     0.211 HD
ENDBRANCH   4  11
BRANCH   6  13
ATOM     13  O   UNL     1      23.733  11.125  30.172  1.00  0.00    -0.387 OA
ATOM     14  H   UNL     1      22.914  10.787  29.742  1.00  0.00     0.211 HD
ENDBRANCH   6  13
BRANCH   7  15
ATOM     15  O   UNL     1      24.145   9.759  33.474  1.00  0.00    -0.384 OA
ATOM     16  H   UNL     1      24.070   8.776  33.570  1.00  0.00     0.211 HD
ENDBRANCH   7  15
ENDBRANCH   1   2
BRANCH   1  17
ATOM     17  C   UNL     1      19.698   9.570  31.516  1.00  0.00     0.172 A 
ATOM     18  C   UNL     1      19.000   9.634  30.303  1.00  0.00     0.205 A 
ATOM     19  C   UNL     1      19.042   9.154  32.683  1.00  0.00     0.097 A 
ATOM     20  C   UNL     1      17.630   9.274  30.264  1.00  0.00     0.188 A 
ATOM     21  C   UNL     1      17.694   8.789  32.656  1.00  0.00     0.134 A 
ATOM     22  C   UNL     1      16.975   8.836  31.440  1.00  0.00     0.111 A 
ATOM     23  O   UNL     1      16.953   9.338  29.119  1.00  0.00    -0.452 OA
ATOM     24  C   UNL     1      15.619   8.460  31.343  1.00  0.00     0.197 A 
ATOM     25  C   UNL     1      15.670   9.006  28.995  1.00  0.00     0.138 A 
ATOM     26  C   UNL     1      14.964   8.550  30.115  1.00  0.00     0.100 A 
ATOM     27  O   UNL     1      14.980   8.043  32.342  1.00  0.00    -0.289 OA
BRANCH  18  28
ATOM     28  O   UNL     1      19.723  10.073  29.173  1.00  0.00    -0.490 OA
ATOM     29  C   UNL     1      20.284   9.256  28.155  1.00  0.00     0.278 C 
ENDBRANCH  18  28
BRANCH  21  30
ATOM     30  O   UNL     1      17.077   8.381  33.837  1.00  0.00    -0.507 OA
ATOM     31  H   UNL     1      17.134   8.927  34.693  1.00  0.00     0.293 HD
ENDBRANCH  21  30
BRANCH  25  32
ATOM     32  C   UNL     1      15.020   9.142  27.669  1.00  0.00     0.017 A 
ATOM     33  C   UNL     1      13.999   8.264  27.262  1.00  0.00     0.012 A 
ATOM     34  C   UNL     1      15.437  10.155  26.786  1.00  0.00     0.012 A 
ATOM     35  C   UNL     1      13.402   8.408  26.006  1.00  0.00     0.001 A 
ATOM     36  C   UNL     1      14.837  10.295  25.532  1.00  0.00     0.001 A 
ATOM     37  C   UNL     1      13.821   9.420  25.142  1.00  0.00     0.000 A 
ENDBRANCH  25  32
ENDBRANCH   1  17
TORSDOF 9
ENDMDL
MODEL 5
REMARK VINA RESULT:    -5.601      2.005      8.496
REMARK INTER + INTRA:          -9.089
REMARK INTER:                  -7.907
REMARK INTRA:                  -1.182
REMARK UNBOUND:                -1.197
REMARK SMILES COc1c(O[C@H]2O[C@H](C(=O)[O-])[C@H](O)[C@@H](O)[C@@H]2O)cc(O)c2c(=O)cc(-c3ccccc3)oc12
REMARK SMILES IDX 5 1 6 2 8 3 12 4 7 5 14 6 16 7 9 8 10 9 11 10 13 11 15 13
REMARK SMILES IDX 17 15 4 17 3 18 18 19 33 20 19 21 21 22 32 23 22 24 25 25
REMARK SMILES IDX 24 26 23 27 2 28 1 29 20 30 26 32 27 33 31 34 28 35 30 36
REMARK SMILES IDX 29 37
REMARK H PARENT 13 12 15 14 17 16 20 31
REMARK Flexibility Score: inf
ROOT
ATOM      1  O   UNL     1      18.198   9.715  29.570  1.00  0.00    -0.458 OA
ENDROOT
BRANCH   1   2
ATOM      2  C   UNL     1      19.285  10.647  29.658  1.00  0.00     0.339 C 
ATOM      3  C   UNL     1      19.781  10.035  31.864  1.00  0.00     0.199 C 
ATOM      4  C   UNL     1      21.193   9.499  31.543  1.00  0.00     0.180 C 
ATOM      5  O   UNL     1      19.441  11.099  30.990  1.00  0.00    -0.328 OA
ATOM      6  C   UNL     1      21.270   9.036  30.073  1.00  0.00     0.181 C 
ATOM      7  C   UNL     1      20.599  10.039  29.097  1.00  0.00     0.214 C 
BRANCH   3   8
ATOM      8  C   UNL     1      19.696  10.519  33.278  1.00  0.00     0.073 C 
ATOM      9  O   UNL     1      18.654  11.120  33.673  1.00  0.00    -0.547 OA
ATOM     10  O   UNL     1      20.732  10.261  34.172  1.00  0.00    -0.547 OA
ENDBRANCH   3   8
BRANCH   4  11
ATOM     11  O   UNL     1      22.167  10.491  31.761  1.00  0.00    -0.387 OA
ATOM     12  H   UNL     1      21.705  11.372  31.713  1.00  0.00     0.211 HD
ENDBRANCH   4  11
BRANCH   6  13
ATOM     13  O   UNL     1      20.736   7.746  29.916  1.00  0.00    -0.387 OA
ATOM     14  H   UNL     1      19.861   7.709  30.368  1.00  0.00     0.211 HD
ENDBRANCH   6  13
BRANCH   7  15
ATOM     15  O   UNL     1      21.501  11.057  28.737  1.00  0.00    -0.384 OA
ATOM     16  H   UNL     1      21.821  10.872  27.818  1.00  0.00     0.211 HD
ENDBRANCH   7  15
ENDBRANCH   1   2
BRANCH   1  17
ATOM     17  C   UNL     1      17.144   9.773  28.649  1.00  0.00     0.172 A 
ATOM     18  C   UNL     1      15.834   9.775  29.142  1.00  0.00     0.205 A 
ATOM     19  C   UNL     1      17.375   9.842  27.268  1.00  0.00     0.097 A 
ATOM     20  C   UNL     1      14.745   9.848  28.239  1.00  0.00     0.188 A 
ATOM     21  C   UNL     1      16.311   9.923  26.367  1.00  0.00     0.134 A 
ATOM     22  C   UNL     1      14.981   9.937  26.846  1.00  0.00     0.111 A 
ATOM     23  O   UNL     1      13.494   9.843  28.695  1.00  0.00    -0.452 OA
ATOM     24  C   UNL     1      13.865  10.038  25.989  1.00  0.00     0.197 A 
ATOM     25  C   UNL     1      12.418   9.921  27.914  1.00  0.00     0.138 A 
ATOM     26  C   UNL     1      12.578  10.027  26.527  1.00  0.00     0.100 A 
ATOM     27  O   UNL     1      13.999  10.140  24.744  1.00  0.00    -0.289 OA
BRANCH  18  28
ATOM     28  O   UNL     1      15.679   9.692  30.543  1.00  0.00    -0.490 OA
ATOM     29  C   UNL     1      15.594   8.505  31.319  1.00  0.00     0.278 C 
ENDBRANCH  18  28
BRANCH  21  30
ATOM     30  O   UNL     1      16.581   9.989  25.001  1.00  0.00    -0.507 OA
ATOM     31  H   UNL     1      17.471   9.693  24.611  1.00  0.00     0.293 HD
ENDBRANCH  21  30
BRANCH  25  32
ATOM     32  C   UNL     1      11.074   9.884  28.541  1.00  0.00     0.017 A 
ATOM     33  C   UNL     1      10.910  10.047  29.928  1.00  0.00     0.012 A 
ATOM     34  C   UNL     1       9.936   9.664  27.742  1.00  0.00     0.012 A 
ATOM     35  C   UNL     1       9.634  10.006  30.499  1.00  0.00     0.001 A 
ATOM     36  C   UNL     1       8.664   9.623  28.317  1.00  0.00     0.001 A 
ATOM     37  C   UNL     1       8.513   9.791  29.695  1.00  0.00     0.000 A 
ENDBRANCH  25  32
ENDBRANCH   1  17
TORSDOF 9
ENDMDL
MODEL 6
REMARK VINA RESULT:    -5.478      2.370      9.223
REMARK INTER + INTRA:          -8.917
REMARK INTER:                  -7.714
REMARK INTRA:                  -1.203
REMARK UNBOUND:                -1.197
REMARK SMILES COc1c(O[C@H]2O[C@H](C(=O)[O-])[C@H](O)[C@@H](O)[C@@H]2O)cc(O)c2c(=O)cc(-c3ccccc3)oc12
REMARK SMILES IDX 5 1 6 2 8 3 12 4 7 5 14 6 16 7 9 8 10 9 11 10 13 11 15 13
REMARK SMILES IDX 17 15 4 17 3 18 18 19 33 20 19 21 21 22 32 23 22 24 25 25
REMARK SMILES IDX 24 26 23 27 2 28 1 29 20 30 26 32 27 33 31 34 28 35 30 36
REMARK SMILES IDX 29 37
REMARK H PARENT 13 12 15 14 17 16 20 31
REMARK Flexibility Score: inf
ROOT
ATOM      1  O   UNL     1      14.822   9.116  31.912  1.00  0.00    -0.458 OA
ENDROOT
BRANCH   1   2
ATOM      2  C   UNL     1      15.331   7.818  32.251  1.00  0.00     0.339 C 
ATOM      3  C   UNL     1      17.362   8.692  33.024  1.00  0.00     0.199 C 
ATOM      4  C   UNL     1      17.169   8.220  34.481  1.00  0.00     0.180 C 
ATOM      5  O   UNL     1      16.741   7.792  32.121  1.00  0.00    -0.328 OA
ATOM      6  C   UNL     1      15.667   8.081  34.805  1.00  0.00     0.181 C 
ATOM      7  C   UNL     1      14.874   7.382  33.669  1.00  0.00     0.214 C 
BRANCH   3   8
ATOM      8  C   UNL     1      18.816   8.801  32.680  1.00  0.00     0.073 C 
ATOM      9  O   UNL     1      19.663   9.005  33.599  1.00  0.00    -0.547 OA
ATOM     10  O   UNL     1      19.242   8.625  31.367  1.00  0.00    -0.547 OA
ENDBRANCH   3   8
BRANCH   4  11
ATOM     11  O   UNL     1      17.798   6.979  34.693  1.00  0.00    -0.387 OA
ATOM     12  H   UNL     1      18.262   7.030  35.573  1.00  0.00     0.211 HD
ENDBRANCH   4  11
BRANCH   6  13
ATOM     13  O   UNL     1      15.097   9.326  35.125  1.00  0.00    -0.387 OA
ATOM     14  H   UNL     1      15.818   9.945  35.389  1.00  0.00     0.211 HD
ENDBRANCH   6  13
BRANCH   7  15
ATOM     15  O   UNL     1      14.947   5.984  33.805  1.00  0.00    -0.384 OA
ATOM     16  H   UNL     1      14.154   5.684  34.319  1.00  0.00     0.211 HD
ENDBRANCH   7  15
ENDBRANCH   1   2
BRANCH   1  17
ATOM     17  C   UNL     1      13.716   9.371  31.091  1.00  0.00     0.172 A 
ATOM     18  C   UNL     1      13.909   9.370  29.704  1.00  0.00     0.205 A 
ATOM     19  C   UNL     1      12.441   9.609  31.623  1.00  0.00     0.097 A 
ATOM     20  C   UNL     1      12.808   9.609  28.844  1.00  0.00     0.188 A 
ATOM     21  C   UNL     1      11.346   9.838  30.786  1.00  0.00     0.134 A 
ATOM     22  C   UNL     1      11.518   9.830  29.383  1.00  0.00     0.111 A 
ATOM     23  O   UNL     1      12.980   9.619  27.523  1.00  0.00    -0.452 OA
ATOM     24  C   UNL     1      10.450  10.034  28.485  1.00  0.00     0.197 A 
ATOM     25  C   UNL     1      11.997   9.823  26.648  1.00  0.00     0.138 A 
ATOM     26  C   UNL     1      10.693  10.033  27.111  1.00  0.00     0.100 A 
ATOM     27  O   UNL     1       9.275  10.217  28.892  1.00  0.00    -0.289 OA
BRANCH  18  28
ATOM     28  O   UNL     1      15.222   9.134  29.242  1.00  0.00    -0.490 OA
ATOM     29  C   UNL     1      16.204  10.114  28.941  1.00  0.00     0.278 C 
ENDBRANCH  18  28
BRANCH  21  30
ATOM     30  O   UNL     1      10.095  10.072  31.353  1.00  0.00    -0.507 OA
ATOM     31  H   UNL     1       9.332  10.489  30.827  1.00  0.00     0.293 HD
ENDBRANCH  21  30
BRANCH  25  32
ATOM     32  C   UNL     1      12.319   9.832  25.200  1.00  0.00     0.017 A 
ATOM     33  C   UNL     1      12.699   8.656  24.528  1.00  0.00     0.012 A 
ATOM     34  C   UNL     1      12.261  11.039  24.479  1.00  0.00     0.012 A 
ATOM     35  C   UNL     1      13.000   8.688  23.163  1.00  0.00     0.001 A 
ATOM     36  C   UNL     1      12.563  11.066  23.115  1.00  0.00     0.001 A 
ATOM     37  C   UNL     1      12.935   9.891  22.459  1.00  0.00     0.000 A 
ENDBRANCH  25  32
ENDBRANCH   1  17
TORSDOF 9
ENDMDL
MODEL 7
REMARK VINA RESULT:    -5.400      1.870      3.830
REMARK INTER + INTRA:          -8.806
REMARK INTER:                  -8.152
REMARK INTRA:                  -0.654
REMARK UNBOUND:                -1.197
REMARK SMILES COc1c(O[C@H]2O[C@H](C(=O)[O-])[C@H](O)[C@@H](O)[C@@H]2O)cc(O)c2c(=O)cc(-c3ccccc3)oc12
REMARK SMILES IDX 5 1 6 2 8 3 12 4 7 5 14 6 16 7 9 8 10 9 11 10 13 11 15 13
REMARK SMILES IDX 17 15 4 17 3 18 18 19 33 20 19 21 21 22 32 23 22 24 25 25
REMARK SMILES IDX 24 26 23 27 2 28 1 29 20 30 26 32 27 33 31 34 28 35 30 36
REMARK SMILES IDX 29 37
REMARK H PARENT 13 12 15 14 17 16 20 31
REMARK Flexibility Score: inf
ROOT
ATOM      1  O   UNL     1      14.930  10.976  27.986  1.00  0.00    -0.458 OA
ENDROOT
BRANCH   1   2
ATOM      2  C   UNL     1      13.501  10.879  27.908  1.00  0.00     0.339 C 
ATOM      3  C   UNL     1      13.575   9.769  25.847  1.00  0.00     0.199 C 
ATOM      4  C   UNL     1      12.929   8.467  26.368  1.00  0.00     0.180 C 
ATOM      5  O   UNL     1      13.079  10.891  26.556  1.00  0.00    -0.328 OA
ATOM      6  C   UNL     1      13.190   8.308  27.881  1.00  0.00     0.181 C 
ATOM      7  C   UNL     1      12.975   9.630  28.665  1.00  0.00     0.214 C 
BRANCH   3   8
ATOM      8  C   UNL     1      13.305   9.956  24.385  1.00  0.00     0.073 C 
ATOM      9  O   UNL     1      13.161  11.125  23.920  1.00  0.00    -0.547 OA
ATOM     10  O   UNL     1      13.268   8.858  23.532  1.00  0.00    -0.547 OA
ENDBRANCH   3   8
BRANCH   4  11
ATOM     11  O   UNL     1      11.540   8.471  26.143  1.00  0.00    -0.387 OA
ATOM     12  H   UNL     1      11.385   8.934  25.274  1.00  0.00     0.211 HD
ENDBRANCH   4  11
BRANCH   6  13
ATOM     13  O   UNL     1      14.470   7.781  28.125  1.00  0.00    -0.387 OA
ATOM     14  H   UNL     1      15.007   7.862  27.303  1.00  0.00     0.211 HD
ENDBRANCH   6  13
BRANCH   7  15
ATOM     15  O   UNL     1      11.617   9.789  29.000  1.00  0.00    -0.384 OA
ATOM     16  H   UNL     1      11.350  10.714  28.766  1.00  0.00     0.211 HD
ENDBRANCH   7  15
ENDBRANCH   1   2
BRANCH   1  17
ATOM     17  C   UNL     1      15.708  10.680  29.112  1.00  0.00     0.172 A 
ATOM     18  C   UNL     1      16.937  10.037  28.916  1.00  0.00     0.205 A 
ATOM     19  C   UNL     1      15.293  11.021  30.407  1.00  0.00     0.097 A 
ATOM     20  C   UNL     1      17.757   9.737  30.032  1.00  0.00     0.188 A 
ATOM     21  C   UNL     1      16.095  10.739  31.515  1.00  0.00     0.134 A 
ATOM     22  C   UNL     1      17.344  10.101  31.336  1.00  0.00     0.111 A 
ATOM     23  O   UNL     1      18.924   9.120  29.860  1.00  0.00    -0.452 OA
ATOM     24  C   UNL     1      18.208   9.808  32.412  1.00  0.00     0.197 A 
ATOM     25  C   UNL     1      19.756   8.815  30.853  1.00  0.00     0.138 A 
ATOM     26  C   UNL     1      19.418   9.158  32.168  1.00  0.00     0.100 A 
ATOM     27  O   UNL     1      17.915  10.118  33.594  1.00  0.00    -0.289 OA
BRANCH  18  28
ATOM     28  O   UNL     1      17.283   9.714  27.586  1.00  0.00    -0.490 OA
ATOM     29  C   UNL     1      18.593   9.659  27.040  1.00  0.00     0.278 C 
ENDBRANCH  18  28
BRANCH  21  30
ATOM     30  O   UNL     1      15.647  11.094  32.786  1.00  0.00    -0.507 OA
ATOM     31  H   UNL     1      15.385  12.048  33.019  1.00  0.00     0.293 HD
ENDBRANCH  21  30
BRANCH  25  32
ATOM     32  C   UNL     1      21.020   8.105  30.536  1.00  0.00     0.017 A 
ATOM     33  C   UNL     1      21.651   7.278  31.482  1.00  0.00     0.012 A 
ATOM     34  C   UNL     1      21.614   8.269  29.271  1.00  0.00     0.012 A 
ATOM     35  C   UNL     1      22.843   6.621  31.163  1.00  0.00     0.001 A 
ATOM     36  C   UNL     1      22.805   7.610  28.956  1.00  0.00     0.001 A 
ATOM     37  C   UNL     1      23.421   6.788  29.903  1.00  0.00     0.000 A 
ENDBRANCH  25  32
ENDBRANCH   1  17
TORSDOF 9
ENDMDL
MODEL 8
REMARK VINA RESULT:    -5.284      2.460      3.966
REMARK INTER + INTRA:          -8.644
REMARK INTER:                  -7.345
REMARK INTRA:                  -1.299
REMARK UNBOUND:                -1.197
REMARK SMILES COc1c(O[C@H]2O[C@H](C(=O)[O-])[C@H](O)[C@@H](O)[C@@H]2O)cc(O)c2c(=O)cc(-c3ccccc3)oc12
REMARK SMILES IDX 5 1 6 2 8 3 12 4 7 5 14 6 16 7 9 8 10 9 11 10 13 11 15 13
REMARK SMILES IDX 17 15 4 17 3 18 18 19 33 20 19 21 21 22 32 23 22 24 25 25
REMARK SMILES IDX 24 26 23 27 2 28 1 29 20 30 26 32 27 33 31 34 28 35 30 36
REMARK SMILES IDX 29 37
REMARK H PARENT 13 12 15 14 17 16 20 31
REMARK Flexibility Score: inf
ROOT
ATOM      1  O   UNL     1      13.703   8.914  31.314  1.00  0.00    -0.458 OA
ENDROOT
BRANCH   1   2
ATOM      2  C   UNL     1      13.038   9.840  32.184  1.00  0.00     0.339 C 
ATOM      3  C   UNL     1      11.007   9.637  31.035  1.00  0.00     0.199 C 
ATOM      4  C   UNL     1      10.232   9.044  32.231  1.00  0.00     0.180 C 
ATOM      5  O   UNL     1      12.015  10.526  31.485  1.00  0.00    -0.328 OA
ATOM      6  C   UNL     1      11.199   8.322  33.193  1.00  0.00     0.181 C 
ATOM      7  C   UNL     1      12.494   9.134  33.456  1.00  0.00     0.214 C 
BRANCH   3   8
ATOM      8  C   UNL     1      10.089  10.369  30.106  1.00  0.00     0.073 C 
ATOM      9  O   UNL     1       8.839  10.340  30.308  1.00  0.00    -0.547 OA
ATOM     10  O   UNL     1      10.607  11.125  29.058  1.00  0.00    -0.547 OA
ENDBRANCH   3   8
BRANCH   4  11
ATOM     11  O   UNL     1       9.554  10.054  32.939  1.00  0.00    -0.387 OA
ATOM     12  H   UNL     1       9.239  10.722  32.270  1.00  0.00     0.211 HD
ENDBRANCH   4  11
BRANCH   6  13
ATOM     13  O   UNL     1      11.499   7.027  32.736  1.00  0.00    -0.387 OA
ATOM     14  H   UNL     1      10.973   6.849  31.923  1.00  0.00     0.211 HD
ENDBRANCH   6  13
BRANCH   7  15
ATOM     15  O   UNL     1      12.291  10.065  34.491  1.00  0.00    -0.384 OA
ATOM     16  H   UNL     1      11.319  10.241  34.558  1.00  0.00     0.211 HD
ENDBRANCH   7  15
ENDBRANCH   1   2
BRANCH   1  17
ATOM     17  C   UNL     1      14.888   9.162  30.609  1.00  0.00     0.172 A 
ATOM     18  C   UNL     1      16.081   8.629  31.112  1.00  0.00     0.205 A 
ATOM     19  C   UNL     1      14.898   9.910  29.423  1.00  0.00     0.097 A 
ATOM     20  C   UNL     1      17.295   8.848  30.415  1.00  0.00     0.188 A 
ATOM     21  C   UNL     1      16.086  10.127  28.722  1.00  0.00     0.134 A 
ATOM     22  C   UNL     1      17.299   9.586  29.208  1.00  0.00     0.111 A 
ATOM     23  O   UNL     1      18.437   8.352  30.887  1.00  0.00    -0.452 OA
ATOM     24  C   UNL     1      18.528   9.752  28.535  1.00  0.00     0.197 A 
ATOM     25  C   UNL     1      19.616   8.502  30.286  1.00  0.00     0.138 A 
ATOM     26  C   UNL     1      19.691   9.209  29.080  1.00  0.00     0.100 A 
ATOM     27  O   UNL     1      18.603  10.380  27.449  1.00  0.00    -0.289 OA
BRANCH  18  28
ATOM     28  O   UNL     1      15.995   7.897  32.316  1.00  0.00    -0.490 OA
ATOM     29  C   UNL     1      16.290   8.373  33.622  1.00  0.00     0.278 C 
ENDBRANCH  18  28
BRANCH  21  30
ATOM     30  O   UNL     1      16.055  10.876  27.547  1.00  0.00    -0.507 OA
ATOM     31  H   UNL     1      15.611  11.789  27.500  1.00  0.00     0.293 HD
ENDBRANCH  21  30
BRANCH  25  32
ATOM     32  C   UNL     1      20.823   7.921  30.923  1.00  0.00     0.017 A 
ATOM     33  C   UNL     1      21.192   8.261  32.237  1.00  0.00     0.012 A 
ATOM     34  C   UNL     1      21.631   7.022  30.201  1.00  0.00     0.012 A 
ATOM     35  C   UNL     1      22.335   7.704  32.817  1.00  0.00     0.001 A 
ATOM     36  C   UNL     1      22.772   6.468  30.785  1.00  0.00     0.001 A 
ATOM     37  C   UNL     1      23.125   6.810  32.092  1.00  0.00     0.000 A 
ENDBRANCH  25  32
ENDBRANCH   1  17
TORSDOF 9
ENDMDL
MODEL 9
REMARK VINA RESULT:    -4.724      2.659      7.992
REMARK INTER + INTRA:          -7.854
REMARK INTER:                  -6.683
REMARK INTRA:                  -1.171
REMARK UNBOUND:                -1.197
REMARK SMILES COc1c(O[C@H]2O[C@H](C(=O)[O-])[C@H](O)[C@@H](O)[C@@H]2O)cc(O)c2c(=O)cc(-c3ccccc3)oc12
REMARK SMILES IDX 5 1 6 2 8 3 12 4 7 5 14 6 16 7 9 8 10 9 11 10 13 11 15 13
REMARK SMILES IDX 17 15 4 17 3 18 18 19 33 20 19 21 21 22 32 23 22 24 25 25
REMARK SMILES IDX 24 26 23 27 2 28 1 29 20 30 26 32 27 33 31 34 28 35 30 36
REMARK SMILES IDX 29 37
REMARK H PARENT 13 12 15 14 17 16 20 31
REMARK Flexibility Score: inf
ROOT
ATOM      1  O   UNL     1      18.407   9.236  29.277  1.00  0.00    -0.458 OA
ENDROOT
BRANCH   1   2
ATOM      2  C   UNL     1      19.449  10.222  29.247  1.00  0.00     0.339 C 
ATOM      3  C   UNL     1      20.024   9.847  31.487  1.00  0.00     0.199 C 
ATOM      4  C   UNL     1      21.452   9.349  31.180  1.00  0.00     0.180 C 
ATOM      5  O   UNL     1      19.612  10.806  30.527  1.00  0.00    -0.328 OA
ATOM      6  C   UNL     1      21.519   8.753  29.758  1.00  0.00     0.181 C 
ATOM      7  C   UNL     1      20.778   9.625  28.711  1.00  0.00     0.214 C 
BRANCH   3   8
ATOM      8  C   UNL     1      19.947  10.459  32.851  1.00  0.00     0.073 C 
ATOM      9  O   UNL     1      18.922  11.125  33.183  1.00  0.00    -0.547 OA
ATOM     10  O   UNL     1      20.969  10.252  33.772  1.00  0.00    -0.547 OA
ENDBRANCH   3   8
BRANCH   4  11
ATOM     11  O   UNL     1      22.381  10.402  31.277  1.00  0.00    -0.387 OA
ATOM     12  H   UNL     1      23.161  10.060  31.794  1.00  0.00     0.211 HD
ENDBRANCH   4  11
BRANCH   6  13
ATOM     13  O   UNL     1      21.045   7.430  29.738  1.00  0.00    -0.387 OA
ATOM     14  H   UNL     1      21.686   6.857  30.221  1.00  0.00     0.211 HD
ENDBRANCH   6  13
BRANCH   7  15
ATOM     15  O   UNL     1      21.621  10.645  28.233  1.00  0.00    -0.384 OA
ATOM     16  H   UNL     1      21.082  11.242  27.655  1.00  0.00     0.211 HD
ENDBRANCH   7  15
ENDBRANCH   1   2
BRANCH   1  17
ATOM     17  C   UNL     1      17.039   9.488  29.105  1.00  0.00     0.172 A 
ATOM     18  C   UNL     1      16.168   9.149  30.148  1.00  0.00     0.205 A 
ATOM     19  C   UNL     1      16.538  10.073  27.934  1.00  0.00     0.097 A 
ATOM     20  C   UNL     1      14.781   9.404  30.013  1.00  0.00     0.188 A 
ATOM     21  C   UNL     1      15.174  10.337  27.791  1.00  0.00     0.134 A 
ATOM     22  C   UNL     1      14.281  10.013  28.838  1.00  0.00     0.111 A 
ATOM     23  O   UNL     1      13.942   9.079  30.995  1.00  0.00    -0.452 OA
ATOM     24  C   UNL     1      12.896  10.273  28.763  1.00  0.00     0.197 A 
ATOM     25  C   UNL     1      12.629   9.297  30.951  1.00  0.00     0.138 A 
ATOM     26  C   UNL     1      12.068   9.910  29.825  1.00  0.00     0.100 A 
ATOM     27  O   UNL     1      12.385  10.829  27.758  1.00  0.00    -0.289 OA
BRANCH  18  28
ATOM     28  O   UNL     1      16.744   8.553  31.291  1.00  0.00    -0.490 OA
ATOM     29  C   UNL     1      16.512   8.916  32.645  1.00  0.00     0.278 C 
ENDBRANCH  18  28
BRANCH  21  30
ATOM     30  O   UNL     1      14.715  10.920  26.612  1.00  0.00    -0.507 OA
ATOM     31  H   UNL     1      15.202  11.692  26.165  1.00  0.00     0.293 HD
ENDBRANCH  21  30
BRANCH  25  32
ATOM     32  C   UNL     1      11.794   8.870  32.101  1.00  0.00     0.017 A 
ATOM     33  C   UNL     1      12.291   7.987  33.077  1.00  0.00     0.012 A 
ATOM     34  C   UNL     1      10.472   9.339  32.217  1.00  0.00     0.012 A 
ATOM     35  C   UNL     1      11.486   7.596  34.151  1.00  0.00     0.001 A 
ATOM     36  C   UNL     1       9.672   8.945  33.293  1.00  0.00     0.001 A 
ATOM     37  C   UNL     1      10.178   8.072  34.257  1.00  0.00     0.000 A 
ENDBRANCH  25  32
ENDBRANCH   1  17
TORSDOF 9
ENDMDL
