MODEL 1
REMARK VINA RESULT:    -3.840      0.000      0.000
REMARK INTER + INTRA:          -6.510
REMARK INTER:                  -5.187
REMARK INTRA:                  -1.324
REMARK UNBOUND:                -1.324
REMARK SMILES CC(=O)CCC=C(C)CCC=C(C)C
REMARK SMILES IDX 7 1 6 2 8 3 9 4 10 5 11 6 13 7 12 8 14 9 5 10 4 11 2 12 3 13
REMARK SMILES IDX 1 14
REMARK H PARENT
REMARK Flexibility Score: inf
ROOT
ATOM      1  C   UNL     1     152.631 161.000 200.075  1.00  0.00    -0.077 C 
ATOM      2  C   UNL     1     153.929 160.623 200.026  1.00  0.00    -0.028 C 
ATOM      3  C   UNL     1     151.865 161.096 198.782  1.00  0.00     0.039 C 
ENDROOT
BRANCH   1   4
ATOM      4  C   UNL     1     151.935 161.399 201.361  1.00  0.00     0.034 C 
BRANCH   4   5
ATOM      5  C   UNL     1     150.917 160.331 201.776  1.00  0.00     0.032 C 
BRANCH   5   6
ATOM      6  C   UNL     1     151.463 159.479 202.895  1.00  0.00    -0.028 C 
ATOM      7  C   UNL     1     152.577 157.550 203.931  1.00  0.00     0.039 C 
ATOM      8  C   UNL     1     152.038 158.268 202.722  1.00  0.00    -0.080 C 
ATOM      9  C   UNL     1     152.140 157.617 201.362  1.00  0.00     0.039 C 
ENDBRANCH   5   6
ENDBRANCH   4   5
ENDBRANCH   1   4
BRANCH   2  10
ATOM     10  C   UNL     1     154.827 160.455 201.228  1.00  0.00     0.035 C 
BRANCH  10  11
ATOM     11  C   UNL     1     156.268 160.124 200.816  1.00  0.00     0.079 C 
BRANCH  11  12
ATOM     12  C   UNL     1     156.703 158.783 201.351  1.00  0.00     0.130 C 
ATOM     13  O   UNL     1     157.837 158.386 201.131  1.00  0.00    -0.300 OA
ATOM     14  C   UNL     1     155.770 157.925 202.154  1.00  0.00     0.087 C 
ENDBRANCH  11  12
ENDBRANCH  10  11
ENDBRANCH   2  10
TORSDOF 6
ENDMDL
MODEL 2
REMARK VINA RESULT:    -3.813     10.418     12.452
REMARK INTER + INTRA:          -6.475
REMARK INTER:                  -5.702
REMARK INTRA:                  -0.772
REMARK UNBOUND:                -1.324
REMARK SMILES CC(=O)CCC=C(C)CCC=C(C)C
REMARK SMILES IDX 7 1 6 2 8 3 9 4 10 5 11 6 13 7 12 8 14 9 5 10 4 11 2 12 3 13
REMARK SMILES IDX 1 14
REMARK H PARENT
REMARK Flexibility Score: inf
ROOT
ATOM      1  C   UNL     1     142.242 153.557 201.367  1.00  0.00    -0.077 C 
ATOM      2  C   UNL     1     141.785 154.824 201.235  1.00  0.00    -0.028 C 
ATOM      3  C   UNL     1     141.649 152.488 200.487  1.00  0.00     0.039 C 
ENDROOT
BRANCH   1   4
ATOM      4  C   UNL     1     143.267 153.154 202.408  1.00  0.00     0.034 C 
BRANCH   4   5
ATOM      5  C   UNL     1     143.791 151.742 202.128  1.00  0.00     0.032 C 
BRANCH   5   6
ATOM      6  C   UNL     1     145.300 151.729 202.095  1.00  0.00    -0.028 C 
ATOM      7  C   UNL     1     147.542 151.901 201.105  1.00  0.00     0.039 C 
ATOM      8  C   UNL     1     146.041 151.896 200.977  1.00  0.00    -0.080 C 
ATOM      9  C   UNL     1     145.409 152.061 199.614  1.00  0.00     0.039 C 
ENDBRANCH   5   6
ENDBRANCH   4   5
ENDBRANCH   1   4
BRANCH   2  10
ATOM     10  C   UNL     1     142.288 156.011 202.020  1.00  0.00     0.035 C 
BRANCH  10  11
ATOM     11  C   UNL     1     141.553 156.156 203.359  1.00  0.00     0.079 C 
BRANCH  11  12
ATOM     12  C   UNL     1     142.474 156.649 204.446  1.00  0.00     0.130 C 
ATOM     13  O   UNL     1     143.166 157.635 204.248  1.00  0.00    -0.300 OA
ATOM     14  C   UNL     1     142.556 155.953 205.772  1.00  0.00     0.087 C 
ENDBRANCH  11  12
ENDBRANCH  10  11
ENDBRANCH   2  10
TORSDOF 6
ENDMDL
MODEL 3
REMARK VINA RESULT:    -3.783      2.742      4.478
REMARK INTER + INTRA:          -6.434
REMARK INTER:                  -4.668
REMARK INTRA:                  -1.766
REMARK UNBOUND:                -1.324
REMARK SMILES CC(=O)CCC=C(C)CCC=C(C)C
REMARK SMILES IDX 7 1 6 2 8 3 9 4 10 5 11 6 13 7 12 8 14 9 5 10 4 11 2 12 3 13
REMARK SMILES IDX 1 14
REMARK H PARENT
REMARK Flexibility Score: inf
ROOT
ATOM      1  C   UNL     1     154.338 159.798 199.301  1.00  0.00    -0.077 C 
ATOM      2  C   UNL     1     154.392 160.755 200.254  1.00  0.00    -0.028 C 
ATOM      3  C   UNL     1     155.011 160.064 197.980  1.00  0.00     0.039 C 
ENDROOT
BRANCH   1   4
ATOM      4  C   UNL     1     153.570 158.503 199.474  1.00  0.00     0.034 C 
BRANCH   4   5
ATOM      5  C   UNL     1     152.450 158.397 198.433  1.00  0.00     0.032 C 
BRANCH   5   6
ATOM      6  C   UNL     1     151.133 158.844 199.017  1.00  0.00    -0.028 C 
ATOM      7  C   UNL     1     149.210 160.328 199.386  1.00  0.00     0.039 C 
ATOM      8  C   UNL     1     150.550 160.036 198.762  1.00  0.00    -0.080 C 
ATOM      9  C   UNL     1     151.209 161.080 197.890  1.00  0.00     0.039 C 
ENDBRANCH   5   6
ENDBRANCH   4   5
ENDBRANCH   1   4
BRANCH   2  10
ATOM     10  C   UNL     1     153.792 160.638 201.634  1.00  0.00     0.035 C 
BRANCH  10  11
ATOM     11  C   UNL     1     152.367 161.205 201.682  1.00  0.00     0.079 C 
BRANCH  11  12
ATOM     12  C   UNL     1     151.428 160.283 202.417  1.00  0.00     0.130 C 
ATOM     13  O   UNL     1     150.317 160.681 202.733  1.00  0.00    -0.300 OA
ATOM     14  C   UNL     1     151.829 158.881 202.768  1.00  0.00     0.087 C 
ENDBRANCH  11  12
ENDBRANCH  10  11
ENDBRANCH   2  10
TORSDOF 6
ENDMDL
MODEL 4
REMARK VINA RESULT:    -3.778      2.017      3.933
REMARK INTER + INTRA:          -6.427
REMARK INTER:                  -4.949
REMARK INTRA:                  -1.477
REMARK UNBOUND:                -1.324
REMARK SMILES CC(=O)CCC=C(C)CCC=C(C)C
REMARK SMILES IDX 7 1 6 2 8 3 9 4 10 5 11 6 13 7 12 8 14 9 5 10 4 11 2 12 3 13
REMARK SMILES IDX 1 14
REMARK H PARENT
REMARK Flexibility Score: inf
ROOT
ATOM      1  C   UNL     1     152.215 161.207 202.212  1.00  0.00    -0.077 C 
ATOM      2  C   UNL     1     151.399 160.278 202.760  1.00  0.00    -0.028 C 
ATOM      3  C   UNL     1     152.080 162.636 202.668  1.00  0.00     0.039 C 
ENDROOT
BRANCH   1   4
ATOM      4  C   UNL     1     153.206 160.888 201.111  1.00  0.00     0.034 C 
BRANCH   4   5
ATOM      5  C   UNL     1     152.619 161.241 199.740  1.00  0.00     0.032 C 
BRANCH   5   6
ATOM      6  C   UNL     1     152.333 159.991 198.944  1.00  0.00    -0.028 C 
ATOM      7  C   UNL     1     150.962 158.277 197.840  1.00  0.00     0.039 C 
ATOM      8  C   UNL     1     151.095 159.517 198.685  1.00  0.00    -0.080 C 
ATOM      9  C   UNL     1     149.852 160.182 199.231  1.00  0.00     0.039 C 
ENDBRANCH   5   6
ENDBRANCH   4   5
ENDBRANCH   1   4
BRANCH   2  10
ATOM     10  C   UNL     1     151.421 158.805 202.432  1.00  0.00     0.035 C 
BRANCH  10  11
ATOM     11  C   UNL     1     152.366 158.032 203.361  1.00  0.00     0.079 C 
BRANCH  11  12
ATOM     12  C   UNL     1     153.539 157.459 202.607  1.00  0.00     0.130 C 
ATOM     13  O   UNL     1     154.575 157.209 203.204  1.00  0.00    -0.300 OA
ATOM     14  C   UNL     1     153.459 157.186 201.134  1.00  0.00     0.087 C 
ENDBRANCH  11  12
ENDBRANCH  10  11
ENDBRANCH   2  10
TORSDOF 6
ENDMDL
MODEL 5
REMARK VINA RESULT:    -3.742      2.849      4.595
REMARK INTER + INTRA:          -6.378
REMARK INTER:                  -5.102
REMARK INTRA:                  -1.275
REMARK UNBOUND:                -1.324
REMARK SMILES CC(=O)CCC=C(C)CCC=C(C)C
REMARK SMILES IDX 7 1 6 2 8 3 9 4 10 5 11 6 13 7 12 8 14 9 5 10 4 11 2 12 3 13
REMARK SMILES IDX 1 14
REMARK H PARENT
REMARK Flexibility Score: inf
ROOT
ATOM      1  C   UNL     1     151.847 161.217 201.777  1.00  0.00    -0.077 C 
ATOM      2  C   UNL     1     152.392 161.173 200.540  1.00  0.00    -0.028 C 
ATOM      3  C   UNL     1     152.234 162.351 202.689  1.00  0.00     0.039 C 
ENDROOT
BRANCH   1   4
ATOM      4  C   UNL     1     150.924 160.140 202.311  1.00  0.00     0.034 C 
BRANCH   4   5
ATOM      5  C   UNL     1     151.702 159.148 203.183  1.00  0.00     0.032 C 
BRANCH   5   6
ATOM      6  C   UNL     1     151.914 157.845 202.451  1.00  0.00    -0.028 C 
ATOM      7  C   UNL     1     153.165 156.096 201.264  1.00  0.00     0.039 C 
ATOM      8  C   UNL     1     153.096 157.444 201.933  1.00  0.00    -0.080 C 
ATOM      9  C   UNL     1     154.332 158.311 201.991  1.00  0.00     0.039 C 
ENDBRANCH   5   6
ENDBRANCH   4   5
ENDBRANCH   1   4
BRANCH   2  10
ATOM     10  C   UNL     1     152.094 160.121 199.499  1.00  0.00     0.035 C 
BRANCH  10  11
ATOM     11  C   UNL     1     151.182 160.664 198.391  1.00  0.00     0.079 C 
BRANCH  11  12
ATOM     12  C   UNL     1     149.819 160.021 198.430  1.00  0.00     0.130 C 
ATOM     13  O   UNL     1     149.524 159.182 197.593  1.00  0.00    -0.300 OA
ATOM     14  C   UNL     1     148.814 160.390 199.481  1.00  0.00     0.087 C 
ENDBRANCH  11  12
ENDBRANCH  10  11
ENDBRANCH   2  10
TORSDOF 6
ENDMDL
MODEL 6
REMARK VINA RESULT:    -3.663      1.687      3.531
REMARK INTER + INTRA:          -6.272
REMARK INTER:                  -4.512
REMARK INTRA:                  -1.759
REMARK UNBOUND:                -1.324
REMARK SMILES CC(=O)CCC=C(C)CCC=C(C)C
REMARK SMILES IDX 7 1 6 2 8 3 9 4 10 5 11 6 13 7 12 8 14 9 5 10 4 11 2 12 3 13
REMARK SMILES IDX 1 14
REMARK H PARENT
REMARK Flexibility Score: inf
ROOT
ATOM      1  C   UNL     1     151.327 159.956 199.256  1.00  0.00    -0.077 C 
ATOM      2  C   UNL     1     151.528 158.658 198.934  1.00  0.00    -0.028 C 
ATOM      3  C   UNL     1     151.291 160.972 198.145  1.00  0.00     0.039 C 
ENDROOT
BRANCH   1   4
ATOM      4  C   UNL     1     151.209 160.443 200.687  1.00  0.00     0.034 C 
BRANCH   4   5
ATOM      5  C   UNL     1     152.341 161.421 201.018  1.00  0.00     0.032 C 
BRANCH   5   6
ATOM      6  C   UNL     1     153.529 160.689 201.592  1.00  0.00    -0.028 C 
ATOM      7  C   UNL     1     155.780 159.705 201.624  1.00  0.00     0.039 C 
ATOM      8  C   UNL     1     154.657 160.407 200.905  1.00  0.00    -0.080 C 
ATOM      9  C   UNL     1     154.815 160.759 199.444  1.00  0.00     0.039 C 
ENDBRANCH   5   6
ENDBRANCH   4   5
ENDBRANCH   1   4
BRANCH   2  10
ATOM     10  C   UNL     1     151.568 157.517 199.921  1.00  0.00     0.035 C 
BRANCH  10  11
ATOM     11  C   UNL     1     153.002 157.209 200.373  1.00  0.00     0.079 C 
BRANCH  11  12
ATOM     12  C   UNL     1     153.088 157.040 201.868  1.00  0.00     0.130 C 
ATOM     13  O   UNL     1     154.088 156.543 202.362  1.00  0.00    -0.300 OA
ATOM     14  C   UNL     1     151.967 157.475 202.766  1.00  0.00     0.087 C 
ENDBRANCH  11  12
ENDBRANCH  10  11
ENDBRANCH   2  10
TORSDOF 6
ENDMDL
MODEL 7
REMARK VINA RESULT:    -3.650      1.858      4.013
REMARK INTER + INTRA:          -6.255
REMARK INTER:                  -4.491
REMARK INTRA:                  -1.763
REMARK UNBOUND:                -1.324
REMARK SMILES CC(=O)CCC=C(C)CCC=C(C)C
REMARK SMILES IDX 7 1 6 2 8 3 9 4 10 5 11 6 13 7 12 8 14 9 5 10 4 11 2 12 3 13
REMARK SMILES IDX 1 14
REMARK H PARENT
REMARK Flexibility Score: inf
ROOT
ATOM      1  C   UNL     1     151.816 160.835 201.926  1.00  0.00    -0.077 C 
ATOM      2  C   UNL     1     151.882 159.850 202.851  1.00  0.00    -0.028 C 
ATOM      3  C   UNL     1     152.109 162.247 202.362  1.00  0.00     0.039 C 
ENDROOT
BRANCH   1   4
ATOM      4  C   UNL     1     151.389 160.593 200.492  1.00  0.00     0.034 C 
BRANCH   4   5
ATOM      5  C   UNL     1     152.475 161.068 199.520  1.00  0.00     0.032 C 
BRANCH   5   6
ATOM      6  C   UNL     1     153.369 159.922 199.115  1.00  0.00    -0.028 C 
ATOM      7  C   UNL     1     155.335 158.452 199.191  1.00  0.00     0.039 C 
ATOM      8  C   UNL     1     154.572 159.659 199.671  1.00  0.00    -0.080 C 
ATOM      9  C   UNL     1     155.172 160.543 200.738  1.00  0.00     0.039 C 
ENDBRANCH   5   6
ENDBRANCH   4   5
ENDBRANCH   1   4
BRANCH   2  10
ATOM     10  C   UNL     1     151.641 158.386 202.576  1.00  0.00     0.035 C 
BRANCH  10  11
ATOM     11  C   UNL     1     152.958 157.620 202.393  1.00  0.00     0.079 C 
BRANCH  11  12
ATOM     12  C   UNL     1     152.884 156.658 201.235  1.00  0.00     0.130 C 
ATOM     13  O   UNL     1     153.723 155.777 201.128  1.00  0.00    -0.300 OA
ATOM     14  C   UNL     1     151.795 156.759 200.208  1.00  0.00     0.087 C 
ENDBRANCH  11  12
ENDBRANCH  10  11
ENDBRANCH   2  10
TORSDOF 6
ENDMDL
MODEL 8
REMARK VINA RESULT:    -3.600      2.956      4.559
REMARK INTER + INTRA:          -6.186
REMARK INTER:                  -4.622
REMARK INTRA:                  -1.564
REMARK UNBOUND:                -1.324
REMARK SMILES CC(=O)CCC=C(C)CCC=C(C)C
REMARK SMILES IDX 7 1 6 2 8 3 9 4 10 5 11 6 13 7 12 8 14 9 5 10 4 11 2 12 3 13
REMARK SMILES IDX 1 14
REMARK H PARENT
REMARK Flexibility Score: inf
ROOT
ATOM      1  C   UNL     1     152.496 161.173 201.030  1.00  0.00    -0.077 C 
ATOM      2  C   UNL     1     151.470 161.153 200.149  1.00  0.00    -0.028 C 
ATOM      3  C   UNL     1     152.282 161.840 202.363  1.00  0.00     0.039 C 
ENDROOT
BRANCH   1   4
ATOM      4  C   UNL     1     153.871 160.621 200.708  1.00  0.00     0.034 C 
BRANCH   4   5
ATOM      5  C   UNL     1     154.148 159.357 201.528  1.00  0.00     0.032 C 
BRANCH   5   6
ATOM      6  C   UNL     1     153.447 158.164 200.926  1.00  0.00    -0.028 C 
ATOM      7  C   UNL     1     151.745 156.403 200.730  1.00  0.00     0.039 C 
ATOM      8  C   UNL     1     152.365 157.561 201.467  1.00  0.00    -0.080 C 
ATOM      9  C   UNL     1     151.778 158.004 202.787  1.00  0.00     0.039 C 
ENDBRANCH   5   6
ENDBRANCH   4   5
ENDBRANCH   1   4
BRANCH   2  10
ATOM     10  C   UNL     1     151.511 160.508 198.785  1.00  0.00     0.035 C 
BRANCH  10  11
ATOM     11  C   UNL     1     150.522 159.339 198.682  1.00  0.00     0.079 C 
BRANCH  11  12
ATOM     12  C   UNL     1     150.758 158.522 197.437  1.00  0.00     0.130 C 
ATOM     13  O   UNL     1     149.921 158.523 196.547  1.00  0.00    -0.300 OA
ATOM     14  C   UNL     1     152.006 157.706 197.266  1.00  0.00     0.087 C 
ENDBRANCH  11  12
ENDBRANCH  10  11
ENDBRANCH   2  10
TORSDOF 6
ENDMDL
MODEL 9
REMARK VINA RESULT:    -3.576      1.346      2.241
REMARK INTER + INTRA:          -6.155
REMARK INTER:                  -4.572
REMARK INTRA:                  -1.583
REMARK UNBOUND:                -1.324
REMARK SMILES CC(=O)CCC=C(C)CCC=C(C)C
REMARK SMILES IDX 7 1 6 2 8 3 9 4 10 5 11 6 13 7 12 8 14 9 5 10 4 11 2 12 3 13
REMARK SMILES IDX 1 14
REMARK H PARENT
REMARK Flexibility Score: inf
ROOT
ATOM      1  C   UNL     1     152.879 161.182 201.082  1.00  0.00    -0.077 C 
ATOM      2  C   UNL     1     154.166 160.780 201.191  1.00  0.00    -0.028 C 
ATOM      3  C   UNL     1     152.174 161.666 202.322  1.00  0.00     0.039 C 
ENDROOT
BRANCH   1   4
ATOM      4  C   UNL     1     152.095 161.100 199.787  1.00  0.00     0.034 C 
BRANCH   4   5
ATOM      5  C   UNL     1     150.999 160.034 199.889  1.00  0.00     0.032 C 
BRANCH   5   6
ATOM      6  C   UNL     1     151.494 158.708 199.363  1.00  0.00    -0.028 C 
ATOM      7  C   UNL     1     152.294 156.388 199.474  1.00  0.00     0.039 C 
ATOM      8  C   UNL     1     151.859 157.666 200.142  1.00  0.00    -0.080 C 
ATOM      9  C   UNL     1     151.859 157.755 201.651  1.00  0.00     0.039 C 
ENDBRANCH   5   6
ENDBRANCH   4   5
ENDBRANCH   1   4
BRANCH   2  10
ATOM     10  C   UNL     1     155.020 160.291 200.046  1.00  0.00     0.035 C 
BRANCH  10  11
ATOM     11  C   UNL     1     155.276 158.781 200.135  1.00  0.00     0.079 C 
BRANCH  11  12
ATOM     12  C   UNL     1     155.980 158.413 201.416  1.00  0.00     0.130 C 
ATOM     13  O   UNL     1     157.066 158.912 201.672  1.00  0.00    -0.300 OA
ATOM     14  C   UNL     1     155.373 157.446 202.389  1.00  0.00     0.087 C 
ENDBRANCH  11  12
ENDBRANCH  10  11
ENDBRANCH   2  10
TORSDOF 6
ENDMDL
