MODEL 1
REMARK VINA RESULT:    -6.265      0.000      0.000
REMARK INTER + INTRA:         -11.498
REMARK INTER:                  -9.562
REMARK INTRA:                  -1.936
REMARK UNBOUND:                -1.936
REMARK SMILES OC[C@@H]1O[C@@](CO)(O[C@@H]2O[C@H](CO)[C@H](O)[C@H](O)[C@@H]2O)[C@@H](O)[C@@H]1O
REMARK SMILES IDX 8 1 9 2 11 3 14 4 10 5 16 6 18 7 12 8 13 9 15 11 17 13 19 15
REMARK SMILES IDX 5 17 20 18 4 19 22 20 3 21 6 22 7 23 21 25 23 27 2 29 1 30
REMARK H PARENT 13 10 15 12 17 14 19 16 7 24 21 26 23 28 1 31
REMARK Flexibility Score: inf
ROOT
ATOM      1  O   UNL     1     -49.191 -49.017  18.829  1.00  0.00    -0.313 OA
ENDROOT
BRANCH   1   2
ATOM      2  C   UNL     1     -48.156 -49.985  18.720  1.00  0.00     0.285 C 
ATOM      3  C   UNL     1     -47.291 -49.500  16.506  1.00  0.00     0.178 C 
ATOM      4  C   UNL     1     -47.972 -50.782  15.944  1.00  0.00     0.177 C 
ATOM      5  O   UNL     1     -47.067 -49.520  17.926  1.00  0.00    -0.341 OA
ATOM      6  C   UNL     1     -49.181 -51.226  16.768  1.00  0.00     0.179 C 
ATOM      7  C   UNL     1     -48.722 -51.333  18.220  1.00  0.00     0.202 C 
BRANCH   3   8
ATOM      8  C   UNL     1     -47.917 -48.168  16.045  1.00  0.00     0.191 C 
BRANCH   8   9
ATOM      9  O   UNL     1     -47.500 -47.099  16.866  1.00  0.00    -0.394 OA
ATOM     10  H   UNL     1     -48.320 -46.570  17.079  1.00  0.00     0.210 HD
ENDBRANCH   8   9
ENDBRANCH   3   8
BRANCH   4  11
ATOM     11  O   UNL     1     -48.344 -50.649  14.600  1.00  0.00    -0.387 OA
ATOM     12  H   UNL     1     -48.247 -51.547  14.188  1.00  0.00     0.211 HD
ENDBRANCH   4  11
BRANCH   6  13
ATOM     13  O   UNL     1     -50.253 -50.317  16.628  1.00  0.00    -0.387 OA
ATOM     14  H   UNL     1     -50.958 -50.594  17.272  1.00  0.00     0.211 HD
ENDBRANCH   6  13
BRANCH   7  15
ATOM     15  O   UNL     1     -49.726 -51.858  19.057  1.00  0.00    -0.385 OA
ATOM     16  H   UNL     1     -50.283 -51.112  19.386  1.00  0.00     0.211 HD
ENDBRANCH   7  15
ENDBRANCH   1   2
BRANCH   1  17
ATOM     17  C   UNL     1     -49.693 -48.814  20.154  1.00  0.00     0.224 C 
ATOM     18  C   UNL     1     -51.234 -48.854  20.203  1.00  0.00     0.208 C 
ATOM     19  O   UNL     1     -49.222 -49.781  21.079  1.00  0.00    -0.337 OA
ATOM     20  C   UNL     1     -51.497 -49.187  21.680  1.00  0.00     0.180 C 
ATOM     21  C   UNL     1     -50.265 -50.057  22.008  1.00  0.00     0.179 C 
BRANCH  17  22
ATOM     22  C   UNL     1     -49.158 -47.434  20.614  1.00  0.00     0.225 C 
BRANCH  22  23
ATOM     23  O   UNL     1     -48.617 -46.718  19.530  1.00  0.00    -0.391 OA
ATOM     24  H   UNL     1     -48.997 -45.802  19.595  1.00  0.00     0.210 HD
ENDBRANCH  22  23
ENDBRANCH  17  22
BRANCH  18  25
ATOM     25  O   UNL     1     -51.757 -49.858  19.342  1.00  0.00    -0.385 OA
ATOM     26  H   UNL     1     -52.675 -49.605  19.055  1.00  0.00     0.211 HD
ENDBRANCH  18  25
BRANCH  20  27
ATOM     27  O   UNL     1     -51.547 -48.038  22.507  1.00  0.00    -0.387 OA
ATOM     28  H   UNL     1     -52.395 -47.542  22.334  1.00  0.00     0.211 HD
ENDBRANCH  20  27
BRANCH  21  29
ATOM     29  C   UNL     1     -49.729 -49.895  23.438  1.00  0.00     0.191 C 
BRANCH  29  30
ATOM     30  O   UNL     1     -50.750 -50.136  24.372  1.00  0.00    -0.394 OA
ATOM     31  H   UNL     1     -51.274 -50.900  24.003  1.00  0.00     0.210 HD
ENDBRANCH  29  30
ENDBRANCH  21  29
ENDBRANCH   1  17
TORSDOF 13
ENDMDL
MODEL 2
REMARK VINA RESULT:    -6.204      1.459      5.924
REMARK INTER + INTRA:         -11.404
REMARK INTER:                 -10.421
REMARK INTRA:                  -0.983
REMARK UNBOUND:                -1.936
REMARK SMILES OC[C@@H]1O[C@@](CO)(O[C@@H]2O[C@H](CO)[C@H](O)[C@H](O)[C@@H]2O)[C@@H](O)[C@@H]1O
REMARK SMILES IDX 8 1 9 2 11 3 14 4 10 5 16 6 18 7 12 8 13 9 15 11 17 13 19 15
REMARK SMILES IDX 5 17 20 18 4 19 22 20 3 21 6 22 7 23 21 25 23 27 2 29 1 30
REMARK H PARENT 13 10 15 12 17 14 19 16 7 24 21 26 23 28 1 31
REMARK Flexibility Score: inf
ROOT
ATOM      1  O   UNL     1     -49.770 -49.982  19.363  1.00  0.00    -0.313 OA
ENDROOT
BRANCH   1   2
ATOM      2  C   UNL     1     -50.675 -48.894  19.499  1.00  0.00     0.285 C 
ATOM      3  C   UNL     1     -50.311 -48.267  21.814  1.00  0.00     0.178 C 
ATOM      4  C   UNL     1     -51.674 -48.902  22.215  1.00  0.00     0.177 C 
ATOM      5  O   UNL     1     -50.205 -47.916  20.424  1.00  0.00    -0.341 OA
ATOM      6  C   UNL     1     -52.129 -49.998  21.251  1.00  0.00     0.179 C 
ATOM      7  C   UNL     1     -52.092 -49.405  19.844  1.00  0.00     0.202 C 
BRANCH   3   8
ATOM      8  C   UNL     1     -49.062 -49.025  22.309  1.00  0.00     0.191 C 
BRANCH   8   9
ATOM      9  O   UNL     1     -49.343 -50.393  22.510  1.00  0.00    -0.394 OA
ATOM     10  H   UNL     1     -49.668 -50.479  23.451  1.00  0.00     0.210 HD
ENDBRANCH   8   9
ENDBRANCH   3   8
BRANCH   4  11
ATOM     11  O   UNL     1     -51.672 -49.401  23.524  1.00  0.00    -0.387 OA
ATOM     12  H   UNL     1     -52.076 -48.699  24.097  1.00  0.00     0.211 HD
ENDBRANCH   4  11
BRANCH   6  13
ATOM     13  O   UNL     1     -51.305 -51.140  21.354  1.00  0.00    -0.387 OA
ATOM     14  H   UNL     1     -51.624 -51.793  20.676  1.00  0.00     0.211 HD
ENDBRANCH   6  13
BRANCH   7  15
ATOM     15  O   UNL     1     -52.613 -50.289  18.880  1.00  0.00    -0.385 OA
ATOM     16  H   UNL     1     -52.284 -50.014  17.990  1.00  0.00     0.211 HD
ENDBRANCH   7  15
ENDBRANCH   1   2
BRANCH   1  17
ATOM     17  C   UNL     1     -49.248 -50.174  18.044  1.00  0.00     0.224 C 
ATOM     18  C   UNL     1     -48.325 -51.406  17.960  1.00  0.00     0.208 C 
ATOM     19  O   UNL     1     -50.262 -50.346  17.067  1.00  0.00    -0.337 OA
ATOM     20  C   UNL     1     -48.366 -51.732  16.458  1.00  0.00     0.180 C 
ATOM     21  C   UNL     1     -49.798 -51.281  16.100  1.00  0.00     0.179 C 
BRANCH  17  22
ATOM     22  C   UNL     1     -48.478 -48.876  17.689  1.00  0.00     0.225 C 
BRANCH  22  23
ATOM     23  O   UNL     1     -47.120 -48.986  18.041  1.00  0.00    -0.391 OA
ATOM     24  H   UNL     1     -46.956 -49.954  18.186  1.00  0.00     0.210 HD
ENDBRANCH  22  23
ENDBRANCH  17  22
BRANCH  18  25
ATOM     25  O   UNL     1     -48.823 -52.486  18.740  1.00  0.00    -0.385 OA
ATOM     26  H   UNL     1     -48.225 -53.274  18.638  1.00  0.00     0.211 HD
ENDBRANCH  18  25
BRANCH  20  27
ATOM     27  O   UNL     1     -47.400 -51.015  15.709  1.00  0.00    -0.387 OA
ATOM     28  H   UNL     1     -47.863 -50.412  15.064  1.00  0.00     0.211 HD
ENDBRANCH  20  27
BRANCH  21  29
ATOM     29  C   UNL     1     -49.945 -50.677  14.695  1.00  0.00     0.191 C 
BRANCH  29  30
ATOM     30  O   UNL     1     -50.859 -51.426  13.935  1.00  0.00    -0.394 OA
ATOM     31  H   UNL     1     -51.635 -50.821  13.779  1.00  0.00     0.210 HD
ENDBRANCH  29  30
ENDBRANCH  21  29
ENDBRANCH   1  17
TORSDOF 13
ENDMDL
MODEL 3
REMARK VINA RESULT:    -6.132      1.722      2.829
REMARK INTER + INTRA:         -11.295
REMARK INTER:                  -9.905
REMARK INTRA:                  -1.390
REMARK UNBOUND:                -1.936
REMARK SMILES OC[C@@H]1O[C@@](CO)(O[C@@H]2O[C@H](CO)[C@H](O)[C@H](O)[C@@H]2O)[C@@H](O)[C@@H]1O
REMARK SMILES IDX 8 1 9 2 11 3 14 4 10 5 16 6 18 7 12 8 13 9 15 11 17 13 19 15
REMARK SMILES IDX 5 17 20 18 4 19 22 20 3 21 6 22 7 23 21 25 23 27 2 29 1 30
REMARK H PARENT 13 10 15 12 17 14 19 16 7 24 21 26 23 28 1 31
REMARK Flexibility Score: inf
ROOT
ATOM      1  O   UNL     1     -50.344 -49.282  19.484  1.00  0.00    -0.313 OA
ENDROOT
BRANCH   1   2
ATOM      2  C   UNL     1     -49.061 -49.805  19.804  1.00  0.00     0.285 C 
ATOM      3  C   UNL     1     -47.619 -48.310  18.551  1.00  0.00     0.178 C 
ATOM      4  C   UNL     1     -47.347 -49.426  17.503  1.00  0.00     0.177 C 
ATOM      5  O   UNL     1     -48.060 -48.791  19.833  1.00  0.00    -0.341 OA
ATOM      6  C   UNL     1     -48.466 -50.467  17.435  1.00  0.00     0.179 C 
ATOM      7  C   UNL     1     -48.698 -50.972  18.858  1.00  0.00     0.202 C 
BRANCH   3   8
ATOM      8  C   UNL     1     -48.488 -47.137  18.052  1.00  0.00     0.191 C 
BRANCH   8   9
ATOM      9  O   UNL     1     -47.750 -46.278  17.211  1.00  0.00    -0.394 OA
ATOM     10  H   UNL     1     -47.926 -45.348  17.532  1.00  0.00     0.210 HD
ENDBRANCH   8   9
ENDBRANCH   3   8
BRANCH   4  11
ATOM     11  O   UNL     1     -47.106 -48.915  16.221  1.00  0.00    -0.387 OA
ATOM     12  H   UNL     1     -46.582 -48.080  16.342  1.00  0.00     0.211 HD
ENDBRANCH   4  11
BRANCH   6  13
ATOM     13  O   UNL     1     -49.642 -49.915  16.882  1.00  0.00    -0.387 OA
ATOM     14  H   UNL     1     -49.516 -48.929  16.851  1.00  0.00     0.211 HD
ENDBRANCH   6  13
BRANCH   7  15
ATOM     15  O   UNL     1     -49.626 -52.031  18.901  1.00  0.00    -0.385 OA
ATOM     16  H   UNL     1     -50.507 -51.667  19.161  1.00  0.00     0.211 HD
ENDBRANCH   7  15
ENDBRANCH   1   2
BRANCH   1  17
ATOM     17  C   UNL     1     -51.278 -49.261  20.569  1.00  0.00     0.224 C 
ATOM     18  C   UNL     1     -50.894 -48.223  21.643  1.00  0.00     0.208 C 
ATOM     19  O   UNL     1     -52.602 -48.965  20.156  1.00  0.00    -0.337 OA
ATOM     20  C   UNL     1     -52.241 -47.980  22.344  1.00  0.00     0.180 C 
ATOM     21  C   UNL     1     -53.223 -48.185  21.172  1.00  0.00     0.179 C 
BRANCH  17  22
ATOM     22  C   UNL     1     -51.286 -50.695  21.160  1.00  0.00     0.225 C 
BRANCH  22  23
ATOM     23  O   UNL     1     -52.237 -51.501  20.507  1.00  0.00    -0.391 OA
ATOM     24  H   UNL     1     -52.988 -51.605  21.149  1.00  0.00     0.210 HD
ENDBRANCH  22  23
ENDBRANCH  17  22
BRANCH  18  25
ATOM     25  O   UNL     1     -50.391 -47.028  21.057  1.00  0.00    -0.385 OA
ATOM     26  H   UNL     1     -51.030 -46.283  21.220  1.00  0.00     0.211 HD
ENDBRANCH  18  25
BRANCH  20  27
ATOM     27  O   UNL     1     -52.493 -48.900  23.392  1.00  0.00    -0.387 OA
ATOM     28  H   UNL     1     -53.193 -49.549  23.101  1.00  0.00     0.211 HD
ENDBRANCH  20  27
BRANCH  21  29
ATOM     29  C   UNL     1     -54.561 -48.831  21.564  1.00  0.00     0.191 C 
BRANCH  29  30
ATOM     30  O   UNL     1     -54.368 -50.177  21.917  1.00  0.00    -0.394 OA
ATOM     31  H   UNL     1     -54.975 -50.698  21.323  1.00  0.00     0.210 HD
ENDBRANCH  29  30
ENDBRANCH  21  29
ENDBRANCH   1  17
TORSDOF 13
ENDMDL
MODEL 4
REMARK VINA RESULT:    -5.959      9.700     12.895
REMARK INTER + INTRA:         -11.030
REMARK INTER:                  -9.735
REMARK INTRA:                  -1.295
REMARK UNBOUND:                -1.936
REMARK SMILES OC[C@@H]1O[C@@](CO)(O[C@@H]2O[C@H](CO)[C@H](O)[C@H](O)[C@@H]2O)[C@@H](O)[C@@H]1O
REMARK SMILES IDX 8 1 9 2 11 3 14 4 10 5 16 6 18 7 12 8 13 9 15 11 17 13 19 15
REMARK SMILES IDX 5 17 20 18 4 19 22 20 3 21 6 22 7 23 21 25 23 27 2 29 1 30
REMARK H PARENT 13 10 15 12 17 14 19 16 7 24 21 26 23 28 1 31
REMARK Flexibility Score: inf
ROOT
ATOM      1  O   UNL     1     -43.264 -50.646  30.267  1.00  0.00    -0.313 OA
ENDROOT
BRANCH   1   2
ATOM      2  C   UNL     1     -42.926 -49.270  30.143  1.00  0.00     0.285 C 
ATOM      3  C   UNL     1     -43.305 -48.906  27.775  1.00  0.00     0.178 C 
ATOM      4  C   UNL     1     -41.771 -48.872  27.519  1.00  0.00     0.177 C 
ATOM      5  O   UNL     1     -43.689 -48.619  29.131  1.00  0.00    -0.341 OA
ATOM      6  C   UNL     1     -40.972 -49.636  28.577  1.00  0.00     0.179 C 
ATOM      7  C   UNL     1     -41.403 -49.101  29.940  1.00  0.00     0.202 C 
BRANCH   3   8
ATOM      8  C   UNL     1     -44.036 -50.149  27.225  1.00  0.00     0.191 C 
BRANCH   8   9
ATOM      9  O   UNL     1     -43.940 -50.216  25.819  1.00  0.00    -0.394 OA
ATOM     10  H   UNL     1     -43.562 -49.340  25.521  1.00  0.00     0.210 HD
ENDBRANCH   8   9
ENDBRANCH   3   8
BRANCH   4  11
ATOM     11  O   UNL     1     -41.426 -49.339  26.245  1.00  0.00    -0.387 OA
ATOM     12  H   UNL     1     -41.456 -50.331  26.287  1.00  0.00     0.211 HD
ENDBRANCH   4  11
BRANCH   6  13
ATOM     13  O   UNL     1     -41.191 -51.027  28.472  1.00  0.00    -0.387 OA
ATOM     14  H   UNL     1     -40.332 -51.437  28.187  1.00  0.00     0.211 HD
ENDBRANCH   6  13
BRANCH   7  15
ATOM     15  O   UNL     1     -40.639 -49.645  30.991  1.00  0.00    -0.385 OA
ATOM     16  H   UNL     1     -39.682 -49.570  30.755  1.00  0.00     0.211 HD
ENDBRANCH   7  15
ENDBRANCH   1   2
BRANCH   1  17
ATOM     17  C   UNL     1     -44.320 -50.928  31.191  1.00  0.00     0.224 C 
ATOM     18  C   UNL     1     -43.812 -51.672  32.443  1.00  0.00     0.208 C 
ATOM     19  O   UNL     1     -44.988 -49.761  31.642  1.00  0.00    -0.337 OA
ATOM     20  C   UNL     1     -44.913 -51.358  33.468  1.00  0.00     0.180 C 
ATOM     21  C   UNL     1     -45.353 -49.953  33.005  1.00  0.00     0.179 C 
BRANCH  17  22
ATOM     22  C   UNL     1     -45.355 -51.785  30.418  1.00  0.00     0.225 C 
BRANCH  22  23
ATOM     23  O   UNL     1     -45.131 -53.158  30.631  1.00  0.00    -0.391 OA
ATOM     24  H   UNL     1     -44.326 -53.213  31.210  1.00  0.00     0.210 HD
ENDBRANCH  22  23
ENDBRANCH  17  22
BRANCH  18  25
ATOM     25  O   UNL     1     -42.549 -51.174  32.868  1.00  0.00    -0.385 OA
ATOM     26  H   UNL     1     -42.143 -50.631  32.140  1.00  0.00     0.211 HD
ENDBRANCH  18  25
BRANCH  20  27
ATOM     27  O   UNL     1     -45.992 -52.275  33.420  1.00  0.00    -0.387 OA
ATOM     28  H   UNL     1     -45.793 -53.052  34.012  1.00  0.00     0.211 HD
ENDBRANCH  20  27
BRANCH  21  29
ATOM     29  C   UNL     1     -46.851 -49.663  33.177  1.00  0.00     0.191 C 
BRANCH  29  30
ATOM     30  O   UNL     1     -47.303 -48.807  32.159  1.00  0.00    -0.394 OA
ATOM     31  H   UNL     1     -48.148 -49.215  31.823  1.00  0.00     0.210 HD
ENDBRANCH  29  30
ENDBRANCH  21  29
ENDBRANCH   1  17
TORSDOF 13
ENDMDL
MODEL 5
REMARK VINA RESULT:    -5.877      8.756     12.337
REMARK INTER + INTRA:         -10.906
REMARK INTER:                  -9.318
REMARK INTRA:                  -1.588
REMARK UNBOUND:                -1.936
REMARK SMILES OC[C@@H]1O[C@@](CO)(O[C@@H]2O[C@H](CO)[C@H](O)[C@H](O)[C@@H]2O)[C@@H](O)[C@@H]1O
REMARK SMILES IDX 8 1 9 2 11 3 14 4 10 5 16 6 18 7 12 8 13 9 15 11 17 13 19 15
REMARK SMILES IDX 5 17 20 18 4 19 22 20 3 21 6 22 7 23 21 25 23 27 2 29 1 30
REMARK H PARENT 13 10 15 12 17 14 19 16 7 24 21 26 23 28 1 31
REMARK Flexibility Score: inf
ROOT
ATOM      1  O   UNL     1     -43.129 -49.090  28.670  1.00  0.00    -0.313 OA
ENDROOT
BRANCH   1   2
ATOM      2  C   UNL     1     -43.664 -50.406  28.738  1.00  0.00     0.285 C 
ATOM      3  C   UNL     1     -45.057 -50.244  30.717  1.00  0.00     0.178 C 
ATOM      4  C   UNL     1     -44.024 -51.077  31.530  1.00  0.00     0.177 C 
ATOM      5  O   UNL     1     -44.977 -50.424  29.293  1.00  0.00    -0.341 OA
ATOM      6  C   UNL     1     -42.607 -50.989  30.961  1.00  0.00     0.179 C 
ATOM      7  C   UNL     1     -42.693 -51.351  29.480  1.00  0.00     0.202 C 
BRANCH   3   8
ATOM      8  C   UNL     1     -45.146 -48.752  31.101  1.00  0.00     0.191 C 
BRANCH   8   9
ATOM      9  O   UNL     1     -45.824 -48.582  32.327  1.00  0.00    -0.394 OA
ATOM     10  H   UNL     1     -45.169 -48.812  33.045  1.00  0.00     0.210 HD
ENDBRANCH   8   9
ENDBRANCH   3   8
BRANCH   4  11
ATOM     11  O   UNL     1     -44.005 -50.735  32.888  1.00  0.00    -0.387 OA
ATOM     12  H   UNL     1     -44.940 -50.811  33.214  1.00  0.00     0.211 HD
ENDBRANCH   4  11
BRANCH   6  13
ATOM     13  O   UNL     1     -42.062 -49.701  31.151  1.00  0.00    -0.387 OA
ATOM     14  H   UNL     1     -41.580 -49.712  32.020  1.00  0.00     0.211 HD
ENDBRANCH   6  13
BRANCH   7  15
ATOM     15  O   UNL     1     -41.422 -51.427  28.877  1.00  0.00    -0.385 OA
ATOM     16  H   UNL     1     -40.866 -50.686  29.222  1.00  0.00     0.211 HD
ENDBRANCH   7  15
ENDBRANCH   1   2
BRANCH   1  17
ATOM     17  C   UNL     1     -43.219 -48.466  27.385  1.00  0.00     0.224 C 
ATOM     18  C   UNL     1     -41.831 -48.247  26.749  1.00  0.00     0.208 C 
ATOM     19  O   UNL     1     -43.990 -49.213  26.459  1.00  0.00    -0.337 OA
ATOM     20  C   UNL     1     -42.182 -48.130  25.256  1.00  0.00     0.180 C 
ATOM     21  C   UNL     1     -43.407 -49.064  25.168  1.00  0.00     0.179 C 
BRANCH  17  22
ATOM     22  C   UNL     1     -43.946 -47.115  27.610  1.00  0.00     0.225 C 
BRANCH  22  23
ATOM     23  O   UNL     1     -43.022 -46.066  27.768  1.00  0.00    -0.391 OA
ATOM     24  H   UNL     1     -42.163 -46.406  27.402  1.00  0.00     0.210 HD
ENDBRANCH  22  23
ENDBRANCH  17  22
BRANCH  18  25
ATOM     25  O   UNL     1     -40.966 -49.349  26.994  1.00  0.00    -0.385 OA
ATOM     26  H   UNL     1     -40.155 -49.034  27.475  1.00  0.00     0.211 HD
ENDBRANCH  18  25
BRANCH  20  27
ATOM     27  O   UNL     1     -42.516 -46.809  24.868  1.00  0.00    -0.387 OA
ATOM     28  H   UNL     1     -41.840 -46.175  25.236  1.00  0.00     0.211 HD
ENDBRANCH  20  27
BRANCH  21  29
ATOM     29  C   UNL     1     -44.485 -48.613  24.172  1.00  0.00     0.191 C 
BRANCH  29  30
ATOM     30  O   UNL     1     -43.939 -48.494  22.883  1.00  0.00    -0.394 OA
ATOM     31  H   UNL     1     -44.328 -49.247  22.357  1.00  0.00     0.210 HD
ENDBRANCH  29  30
ENDBRANCH  21  29
ENDBRANCH   1  17
TORSDOF 13
ENDMDL
MODEL 6
REMARK VINA RESULT:    -5.827      1.875      2.766
REMARK INTER + INTRA:         -10.830
REMARK INTER:                  -9.178
REMARK INTRA:                  -1.652
REMARK UNBOUND:                -1.936
REMARK SMILES OC[C@@H]1O[C@@](CO)(O[C@@H]2O[C@H](CO)[C@H](O)[C@H](O)[C@@H]2O)[C@@H](O)[C@@H]1O
REMARK SMILES IDX 8 1 9 2 11 3 14 4 10 5 16 6 18 7 12 8 13 9 15 11 17 13 19 15
REMARK SMILES IDX 5 17 20 18 4 19 22 20 3 21 6 22 7 23 21 25 23 27 2 29 1 30
REMARK H PARENT 13 10 15 12 17 14 19 16 7 24 21 26 23 28 1 31
REMARK Flexibility Score: inf
ROOT
ATOM      1  O   UNL     1     -50.983 -49.056  20.908  1.00  0.00    -0.313 OA
ENDROOT
BRANCH   1   2
ATOM      2  C   UNL     1     -50.410 -50.342  20.703  1.00  0.00     0.285 C 
ATOM      3  C   UNL     1     -49.110 -49.960  18.691  1.00  0.00     0.178 C 
ATOM      4  C   UNL     1     -50.150 -50.754  17.850  1.00  0.00     0.177 C 
ATOM      5  O   UNL     1     -49.122 -50.265  20.097  1.00  0.00    -0.341 OA
ATOM      6  C   UNL     1     -51.544 -50.766  18.481  1.00  0.00     0.179 C 
ATOM      7  C   UNL     1     -51.382 -51.252  19.920  1.00  0.00     0.202 C 
BRANCH   3   8
ATOM      8  C   UNL     1     -49.083 -48.438  18.438  1.00  0.00     0.191 C 
BRANCH   8   9
ATOM      9  O   UNL     1     -48.406 -48.134  17.238  1.00  0.00    -0.394 OA
ATOM     10  H   UNL     1     -48.886 -48.624  16.511  1.00  0.00     0.210 HD
ENDBRANCH   8   9
ENDBRANCH   3   8
BRANCH   4  11
ATOM     11  O   UNL     1     -50.238 -50.297  16.530  1.00  0.00    -0.387 OA
ATOM     12  H   UNL     1     -49.310 -50.256  16.180  1.00  0.00     0.211 HD
ENDBRANCH   4  11
BRANCH   6  13
ATOM     13  O   UNL     1     -52.136 -49.486  18.429  1.00  0.00    -0.387 OA
ATOM     14  H   UNL     1     -53.082 -49.589  18.716  1.00  0.00     0.211 HD
ENDBRANCH   6  13
BRANCH   7  15
ATOM     15  O   UNL     1     -52.623 -51.424  20.565  1.00  0.00    -0.385 OA
ATOM     16  H   UNL     1     -52.537 -51.113  21.499  1.00  0.00     0.211 HD
ENDBRANCH   7  15
ENDBRANCH   1   2
BRANCH   1  17
ATOM     17  C   UNL     1     -50.873 -48.551  22.243  1.00  0.00     0.224 C 
ATOM     18  C   UNL     1     -52.252 -48.242  22.861  1.00  0.00     0.208 C 
ATOM     19  O   UNL     1     -50.214 -49.448  23.122  1.00  0.00    -0.337 OA
ATOM     20  C   UNL     1     -51.943 -48.284  24.366  1.00  0.00     0.180 C 
ATOM     21  C   UNL     1     -50.822 -49.345  24.406  1.00  0.00     0.179 C 
BRANCH  17  22
ATOM     22  C   UNL     1     -50.006 -47.270  22.152  1.00  0.00     0.225 C 
BRANCH  22  23
ATOM     23  O   UNL     1     -50.808 -46.133  21.940  1.00  0.00    -0.391 OA
ATOM     24  H   UNL     1     -50.648 -45.541  22.721  1.00  0.00     0.210 HD
ENDBRANCH  22  23
ENDBRANCH  17  22
BRANCH  18  25
ATOM     25  O   UNL     1     -53.216 -49.225  22.502  1.00  0.00    -0.385 OA
ATOM     26  H   UNL     1     -53.155 -49.411  21.526  1.00  0.00     0.211 HD
ENDBRANCH  18  25
BRANCH  20  27
ATOM     27  O   UNL     1     -51.490 -47.041  24.873  1.00  0.00    -0.387 OA
ATOM     28  H   UNL     1     -51.960 -46.299  24.400  1.00  0.00     0.211 HD
ENDBRANCH  20  27
BRANCH  21  29
ATOM     29  C   UNL     1     -49.738 -49.091  25.464  1.00  0.00     0.191 C 
BRANCH  29  30
ATOM     30  O   UNL     1     -50.317 -48.988  26.740  1.00  0.00    -0.394 OA
ATOM     31  H   UNL     1     -49.687 -49.452  27.357  1.00  0.00     0.210 HD
ENDBRANCH  29  30
ENDBRANCH  21  29
ENDBRANCH   1  17
TORSDOF 13
ENDMDL
MODEL 7
REMARK VINA RESULT:    -5.825     10.698     12.698
REMARK INTER + INTRA:         -10.826
REMARK INTER:                  -9.067
REMARK INTRA:                  -1.759
REMARK UNBOUND:                -1.936
REMARK SMILES OC[C@@H]1O[C@@](CO)(O[C@@H]2O[C@H](CO)[C@H](O)[C@H](O)[C@@H]2O)[C@@H](O)[C@@H]1O
REMARK SMILES IDX 8 1 9 2 11 3 14 4 10 5 16 6 18 7 12 8 13 9 15 11 17 13 19 15
REMARK SMILES IDX 5 17 20 18 4 19 22 20 3 21 6 22 7 23 21 25 23 27 2 29 1 30
REMARK H PARENT 13 10 15 12 17 14 19 16 7 24 21 26 23 28 1 31
REMARK Flexibility Score: inf
ROOT
ATOM      1  O   UNL     1     -42.942 -49.856  30.256  1.00  0.00    -0.313 OA
ENDROOT
BRANCH   1   2
ATOM      2  C   UNL     1     -42.680 -50.556  29.046  1.00  0.00     0.285 C 
ATOM      3  C   UNL     1     -40.688 -49.413  28.265  1.00  0.00     0.178 C 
ATOM      4  C   UNL     1     -41.519 -48.685  27.169  1.00  0.00     0.177 C 
ATOM      5  O   UNL     1     -41.286 -50.625  28.757  1.00  0.00    -0.341 OA
ATOM      6  C   UNL     1     -43.000 -48.558  27.528  1.00  0.00     0.179 C 
ATOM      7  C   UNL     1     -43.499 -49.957  27.882  1.00  0.00     0.202 C 
BRANCH   3   8
ATOM      8  C   UNL     1     -40.187 -48.515  29.415  1.00  0.00     0.191 C 
BRANCH   8   9
ATOM      9  O   UNL     1     -39.878 -49.280  30.560  1.00  0.00    -0.394 OA
ATOM     10  H   UNL     1     -40.536 -49.013  31.263  1.00  0.00     0.210 HD
ENDBRANCH   8   9
ENDBRANCH   3   8
BRANCH   4  11
ATOM     11  O   UNL     1     -41.003 -47.421  26.853  1.00  0.00    -0.387 OA
ATOM     12  H   UNL     1     -40.181 -47.575  26.318  1.00  0.00     0.211 HD
ENDBRANCH   4  11
BRANCH   6  13
ATOM     13  O   UNL     1     -43.188 -47.654  28.596  1.00  0.00    -0.387 OA
ATOM     14  H   UNL     1     -44.149 -47.402  28.601  1.00  0.00     0.211 HD
ENDBRANCH   6  13
BRANCH   7  15
ATOM     15  O   UNL     1     -44.889 -49.983  28.109  1.00  0.00    -0.385 OA
ATOM     16  H   UNL     1     -45.096 -50.745  28.704  1.00  0.00     0.211 HD
ENDBRANCH   7  15
ENDBRANCH   1   2
BRANCH   1  17
ATOM     17  C   UNL     1     -43.857 -50.506  31.145  1.00  0.00     0.224 C 
ATOM     18  C   UNL     1     -44.941 -49.542  31.667  1.00  0.00     0.208 C 
ATOM     19  O   UNL     1     -44.527 -51.603  30.546  1.00  0.00    -0.337 OA
ATOM     20  C   UNL     1     -46.056 -50.514  32.084  1.00  0.00     0.180 C 
ATOM     21  C   UNL     1     -45.855 -51.649  31.057  1.00  0.00     0.179 C 
BRANCH  17  22
ATOM     22  C   UNL     1     -43.002 -51.066  32.311  1.00  0.00     0.225 C 
BRANCH  22  23
ATOM     23  O   UNL     1     -41.691 -50.559  32.262  1.00  0.00    -0.391 OA
ATOM     24  H   UNL     1     -41.330 -50.653  33.182  1.00  0.00     0.210 HD
ENDBRANCH  22  23
ENDBRANCH  17  22
BRANCH  18  25
ATOM     25  O   UNL     1     -45.382 -48.652  30.649  1.00  0.00    -0.385 OA
ATOM     26  H   UNL     1     -46.049 -49.111  30.071  1.00  0.00     0.211 HD
ENDBRANCH  18  25
BRANCH  20  27
ATOM     27  O   UNL     1     -45.909 -50.991  33.410  1.00  0.00    -0.387 OA
ATOM     28  H   UNL     1     -46.794 -51.297  33.753  1.00  0.00     0.211 HD
ENDBRANCH  20  27
BRANCH  21  29
ATOM     29  C   UNL     1     -46.145 -53.057  31.595  1.00  0.00     0.191 C 
BRANCH  29  30
ATOM     30  O   UNL     1     -45.720 -54.030  30.674  1.00  0.00    -0.394 OA
ATOM     31  H   UNL     1     -46.533 -54.563  30.456  1.00  0.00     0.210 HD
ENDBRANCH  29  30
ENDBRANCH  21  29
ENDBRANCH   1  17
TORSDOF 13
ENDMDL
MODEL 8
REMARK VINA RESULT:    -5.757     11.065     13.481
REMARK INTER + INTRA:         -10.723
REMARK INTER:                  -9.253
REMARK INTRA:                  -1.470
REMARK UNBOUND:                -1.936
REMARK SMILES OC[C@@H]1O[C@@](CO)(O[C@@H]2O[C@H](CO)[C@H](O)[C@H](O)[C@@H]2O)[C@@H](O)[C@@H]1O
REMARK SMILES IDX 8 1 9 2 11 3 14 4 10 5 16 6 18 7 12 8 13 9 15 11 17 13 19 15
REMARK SMILES IDX 5 17 20 18 4 19 22 20 3 21 6 22 7 23 21 25 23 27 2 29 1 30
REMARK H PARENT 13 10 15 12 17 14 19 16 7 24 21 26 23 28 1 31
REMARK Flexibility Score: inf
ROOT
ATOM      1  O   UNL     1     -43.828 -49.756  30.359  1.00  0.00    -0.313 OA
ENDROOT
BRANCH   1   2
ATOM      2  C   UNL     1     -45.103 -50.289  30.021  1.00  0.00     0.285 C 
ATOM      3  C   UNL     1     -46.530 -49.125  31.599  1.00  0.00     0.178 C 
ATOM      4  C   UNL     1     -46.681 -50.423  32.444  1.00  0.00     0.177 C 
ATOM      5  O   UNL     1     -46.151 -49.346  30.230  1.00  0.00    -0.341 OA
ATOM      6  C   UNL     1     -45.512 -51.392  32.261  1.00  0.00     0.179 C 
ATOM      7  C   UNL     1     -45.348 -51.623  30.761  1.00  0.00     0.202 C 
BRANCH   3   8
ATOM      8  C   UNL     1     -45.688 -48.010  32.253  1.00  0.00     0.191 C 
BRANCH   8   9
ATOM      9  O   UNL     1     -46.289 -47.548  33.442  1.00  0.00    -0.394 OA
ATOM     10  H   UNL     1     -46.671 -46.648  33.235  1.00  0.00     0.210 HD
ENDBRANCH   8   9
ENDBRANCH   3   8
BRANCH   4  11
ATOM     11  O   UNL     1     -46.863 -50.161  33.807  1.00  0.00    -0.387 OA
ATOM     12  H   UNL     1     -47.237 -49.244  33.873  1.00  0.00     0.211 HD
ENDBRANCH   4  11
BRANCH   6  13
ATOM     13  O   UNL     1     -44.331 -50.879  32.839  1.00  0.00    -0.387 OA
ATOM     14  H   UNL     1     -44.056 -51.512  33.555  1.00  0.00     0.211 HD
ENDBRANCH   6  13
BRANCH   7  15
ATOM     15  O   UNL     1     -44.376 -52.602  30.476  1.00  0.00    -0.385 OA
ATOM     16  H   UNL     1     -44.740 -53.217  29.793  1.00  0.00     0.211 HD
ENDBRANCH   7  15
ENDBRANCH   1   2
BRANCH   1  17
ATOM     17  C   UNL     1     -42.988 -49.443  29.243  1.00  0.00     0.224 C 
ATOM     18  C   UNL     1     -43.507 -48.226  28.451  1.00  0.00     0.208 C 
ATOM     19  O   UNL     1     -41.651 -49.157  29.619  1.00  0.00    -0.337 OA
ATOM     20  C   UNL     1     -42.235 -47.751  27.729  1.00  0.00     0.180 C 
ATOM     21  C   UNL     1     -41.152 -48.138  28.759  1.00  0.00     0.179 C 
BRANCH  17  22
ATOM     22  C   UNL     1     -42.958 -50.713  28.354  1.00  0.00     0.225 C 
BRANCH  22  23
ATOM     23  O   UNL     1     -42.005 -51.634  28.826  1.00  0.00    -0.391 OA
ATOM     24  H   UNL     1     -41.124 -51.295  28.516  1.00  0.00     0.210 HD
ENDBRANCH  22  23
ENDBRANCH  17  22
BRANCH  18  25
ATOM     25  O   UNL     1     -44.019 -47.220  29.317  1.00  0.00    -0.385 OA
ATOM     26  H   UNL     1     -44.019 -47.556  30.254  1.00  0.00     0.211 HD
ENDBRANCH  18  25
BRANCH  20  27
ATOM     27  O   UNL     1     -42.024 -48.407  26.491  1.00  0.00    -0.387 OA
ATOM     28  H   UNL     1     -42.791 -48.219  25.882  1.00  0.00     0.211 HD
ENDBRANCH  20  27
BRANCH  21  29
ATOM     29  C   UNL     1     -39.821 -48.597  28.144  1.00  0.00     0.191 C 
BRANCH  29  30
ATOM     30  O   UNL     1     -39.915 -49.932  27.718  1.00  0.00    -0.394 OA
ATOM     31  H   UNL     1     -39.011 -50.164  27.365  1.00  0.00     0.210 HD
ENDBRANCH  29  30
ENDBRANCH  21  29
ENDBRANCH   1  17
TORSDOF 13
ENDMDL
MODEL 9
REMARK VINA RESULT:    -3.353      9.521     13.172
REMARK INTER + INTRA:          -7.053
REMARK INTER:                  -5.499
REMARK INTRA:                  -1.554
REMARK UNBOUND:                -1.936
REMARK SMILES OC[C@@H]1O[C@@](CO)(O[C@@H]2O[C@H](CO)[C@H](O)[C@H](O)[C@@H]2O)[C@@H](O)[C@@H]1O
REMARK SMILES IDX 8 1 9 2 11 3 14 4 10 5 16 6 18 7 12 8 13 9 15 11 17 13 19 15
REMARK SMILES IDX 5 17 20 18 4 19 22 20 3 21 6 22 7 23 21 25 23 27 2 29 1 30
REMARK H PARENT 13 10 15 12 17 14 19 16 7 24 21 26 23 28 1 31
REMARK Flexibility Score: inf
ROOT
ATOM      1  O   UNL     1     -44.201 -49.245  30.347  1.00  0.00    -0.313 OA
ENDROOT
BRANCH   1   2
ATOM      2  C   UNL     1     -45.289 -50.137  30.139  1.00  0.00     0.285 C 
ATOM      3  C   UNL     1     -46.604 -49.746  32.140  1.00  0.00     0.178 C 
ATOM      4  C   UNL     1     -46.145 -51.113  32.726  1.00  0.00     0.177 C 
ATOM      5  O   UNL     1     -46.501 -49.648  30.709  1.00  0.00    -0.341 OA
ATOM      6  C   UNL     1     -44.808 -51.588  32.155  1.00  0.00     0.179 C 
ATOM      7  C   UNL     1     -44.931 -51.556  30.634  1.00  0.00     0.202 C 
BRANCH   3   8
ATOM      8  C   UNL     1     -46.022 -48.502  32.842  1.00  0.00     0.191 C 
BRANCH   8   9
ATOM      9  O   UNL     1     -45.647 -47.517  31.904  1.00  0.00    -0.394 OA
ATOM     10  H   UNL     1     -45.341 -48.007  31.088  1.00  0.00     0.210 HD
ENDBRANCH   8   9
ENDBRANCH   3   8
BRANCH   4  11
ATOM     11  O   UNL     1     -46.080 -51.105  34.125  1.00  0.00    -0.387 OA
ATOM     12  H   UNL     1     -45.143 -51.326  34.368  1.00  0.00     0.211 HD
ENDBRANCH   4  11
BRANCH   6  13
ATOM     13  O   UNL     1     -43.745 -50.777  32.607  1.00  0.00    -0.387 OA
ATOM     14  H   UNL     1     -43.011 -50.857  31.941  1.00  0.00     0.211 HD
ENDBRANCH   6  13
BRANCH   7  15
ATOM     15  O   UNL     1     -43.796 -52.096  29.997  1.00  0.00    -0.385 OA
ATOM     16  H   UNL     1     -42.994 -51.627  30.334  1.00  0.00     0.211 HD
ENDBRANCH   7  15
ENDBRANCH   1   2
BRANCH   1  17
ATOM     17  C   UNL     1     -43.558 -48.786  29.153  1.00  0.00     0.224 C 
ATOM     18  C   UNL     1     -42.023 -48.895  29.243  1.00  0.00     0.208 C 
ATOM     19  O   UNL     1     -43.960 -49.503  27.997  1.00  0.00    -0.337 OA
ATOM     20  C   UNL     1     -41.618 -48.913  27.760  1.00  0.00     0.180 C 
ATOM     21  C   UNL     1     -42.836 -49.626  27.133  1.00  0.00     0.179 C 
BRANCH  17  22
ATOM     22  C   UNL     1     -44.001 -47.313  28.962  1.00  0.00     0.225 C 
BRANCH  22  23
ATOM     23  O   UNL     1     -45.044 -47.219  28.021  1.00  0.00    -0.391 OA
ATOM     24  H   UNL     1     -45.570 -46.418  28.281  1.00  0.00     0.210 HD
ENDBRANCH  22  23
ENDBRANCH  17  22
BRANCH  18  25
ATOM     25  O   UNL     1     -41.622 -50.089  29.905  1.00  0.00    -0.385 OA
ATOM     26  H   UNL     1     -41.087 -50.651  29.283  1.00  0.00     0.211 HD
ENDBRANCH  18  25
BRANCH  20  27
ATOM     27  O   UNL     1     -41.447 -47.616  27.217  1.00  0.00    -0.387 OA
ATOM     28  H   UNL     1     -40.606 -47.216  27.573  1.00  0.00     0.211 HD
ENDBRANCH  20  27
BRANCH  21  29
ATOM     29  C   UNL     1     -43.214 -49.128  25.730  1.00  0.00     0.191 C 
BRANCH  29  30
ATOM     30  O   UNL     1     -42.121 -49.251  24.857  1.00  0.00    -0.394 OA
ATOM     31  H   UNL     1     -42.419 -48.844  23.997  1.00  0.00     0.210 HD
ENDBRANCH  29  30
ENDBRANCH  21  29
ENDBRANCH   1  17
TORSDOF 13
ENDMDL
