MODEL 1
REMARK VINA RESULT:    -4.644      0.000      0.000
REMARK INTER + INTRA:         -10.562
REMARK INTER:                  -8.988
REMARK INTRA:                  -1.574
REMARK UNBOUND:                -1.574
REMARK SMILES CCCCCCCCCCCCCCCCCC(=O)[O-]
REMARK SMILES IDX 10 1 11 2 12 3 13 4 14 5 15 6 16 7 17 8 18 9 19 10 20 11
REMARK SMILES IDX 9 12 8 13 7 14 6 15 5 16 4 17 3 18 2 19 1 20
REMARK H PARENT
REMARK Flexibility Score: inf
ROOT
ATOM      1  C   UNL     1      -1.297  61.807  23.179  1.00  0.00     0.000 C 
ENDROOT
BRANCH   1   2
ATOM      2  C   UNL     1      -0.024  61.543  24.002  1.00  0.00     0.000 C 
BRANCH   2   3
ATOM      3  C   UNL     1       0.476  60.096  23.862  1.00  0.00     0.000 C 
BRANCH   3   4
ATOM      4  C   UNL     1       0.157  59.241  25.099  1.00  0.00     0.000 C 
BRANCH   4   5
ATOM      5  C   UNL     1       0.538  57.764  24.910  1.00  0.00     0.000 C 
BRANCH   5   6
ATOM      6  C   UNL     1       0.350  57.290  23.458  1.00  0.00     0.000 C 
BRANCH   6   7
ATOM      7  C   UNL     1       1.571  56.524  22.925  1.00  0.00     0.006 C 
BRANCH   7   8
ATOM      8  C   UNL     1       2.263  57.253  21.766  1.00  0.00     0.053 C 
BRANCH   8   9
ATOM      9  C   UNL     1       3.272  58.227  22.290  1.00  0.00     0.041 C 
ATOM     10  O   UNL     1       3.676  59.173  21.565  1.00  0.00    -0.550 OA
ATOM     11  O   UNL     1       3.805  58.058  23.562  1.00  0.00    -0.550 OA
ENDBRANCH   8   9
ENDBRANCH   7   8
ENDBRANCH   6   7
ENDBRANCH   5   6
ENDBRANCH   4   5
ENDBRANCH   3   4
ENDBRANCH   2   3
ENDBRANCH   1   2
BRANCH   1  12
ATOM     12  C   UNL     1      -1.520  63.301  22.896  1.00  0.00     0.000 C 
BRANCH  12  13
ATOM     13  C   UNL     1      -0.522  64.199  23.650  1.00  0.00    -0.000 C 
BRANCH  13  14
ATOM     14  C   UNL     1      -0.949  65.675  23.670  1.00  0.00    -0.000 C 
BRANCH  14  15
ATOM     15  C   UNL     1      -0.237  66.513  22.593  1.00  0.00    -0.000 C 
BRANCH  15  16
ATOM     16  C   UNL     1      -1.130  66.791  21.371  1.00  0.00    -0.000 C 
BRANCH  16  17
ATOM     17  C   UNL     1      -2.622  67.014  21.690  1.00  0.00    -0.000 C 
BRANCH  17  18
ATOM     18  C   UNL     1      -3.555  65.942  21.086  1.00  0.00    -0.000 C 
BRANCH  18  19
ATOM     19  C   UNL     1      -4.794  65.692  21.959  1.00  0.00    -0.003 C 
ATOM     20  C   UNL     1      -4.439  65.726  23.442  1.00  0.00     0.004 C 
ENDBRANCH  18  19
ENDBRANCH  17  18
ENDBRANCH  16  17
ENDBRANCH  15  16
ENDBRANCH  14  15
ENDBRANCH  13  14
ENDBRANCH  12  13
ENDBRANCH   1  12
TORSDOF 16
ENDMDL
MODEL 2
REMARK VINA RESULT:    -4.642      3.352      8.877
REMARK INTER + INTRA:         -10.559
REMARK INTER:                  -9.062
REMARK INTRA:                  -1.497
REMARK UNBOUND:                -1.574
REMARK SMILES CCCCCCCCCCCCCCCCCC(=O)[O-]
REMARK SMILES IDX 10 1 11 2 12 3 13 4 14 5 15 6 16 7 17 8 18 9 19 10 20 11
REMARK SMILES IDX 9 12 8 13 7 14 6 15 5 16 4 17 3 18 2 19 1 20
REMARK H PARENT
REMARK Flexibility Score: inf
ROOT
ATOM      1  C   UNL     1      -1.188  61.694  22.995  1.00  0.00     0.000 C 
ENDROOT
BRANCH   1   2
ATOM      2  C   UNL     1      -1.586  63.180  22.964  1.00  0.00     0.000 C 
BRANCH   2   3
ATOM      3  C   UNL     1      -0.522  64.085  23.609  1.00  0.00     0.000 C 
BRANCH   3   4
ATOM      4  C   UNL     1      -0.944  65.564  23.633  1.00  0.00     0.000 C 
BRANCH   4   5
ATOM      5  C   UNL     1      -0.281  66.384  22.515  1.00  0.00     0.000 C 
BRANCH   5   6
ATOM      6  C   UNL     1      -1.271  66.768  21.401  1.00  0.00     0.000 C 
BRANCH   6   7
ATOM      7  C   UNL     1      -2.678  67.068  21.942  1.00  0.00     0.006 C 
BRANCH   7   8
ATOM      8  C   UNL     1      -3.729  66.074  21.429  1.00  0.00     0.053 C 
BRANCH   8   9
ATOM      9  C   UNL     1      -4.408  65.394  22.577  1.00  0.00     0.041 C 
ATOM     10  O   UNL     1      -4.934  64.261  22.421  1.00  0.00    -0.550 OA
ATOM     11  O   UNL     1      -4.503  66.034  23.807  1.00  0.00    -0.550 OA
ENDBRANCH   8   9
ENDBRANCH   7   8
ENDBRANCH   6   7
ENDBRANCH   5   6
ENDBRANCH   4   5
ENDBRANCH   3   4
ENDBRANCH   2   3
ENDBRANCH   1   2
BRANCH   1  12
ATOM     12  C   UNL     1      -0.227  61.363  24.149  1.00  0.00     0.000 C 
BRANCH  12  13
ATOM     13  C   UNL     1       0.465  60.000  23.965  1.00  0.00    -0.000 C 
BRANCH  13  14
ATOM     14  C   UNL     1       0.356  59.106  25.210  1.00  0.00    -0.000 C 
BRANCH  14  15
ATOM     15  C   UNL     1       0.239  57.612  24.859  1.00  0.00    -0.000 C 
BRANCH  15  16
ATOM     16  C   UNL     1       0.326  57.349  23.345  1.00  0.00    -0.000 C 
BRANCH  16  17
ATOM     17  C   UNL     1       1.579  56.574  22.889  1.00  0.00    -0.000 C 
BRANCH  17  18
ATOM     18  C   UNL     1       2.471  57.357  21.902  1.00  0.00    -0.000 C 
BRANCH  18  19
ATOM     19  C   UNL     1       3.420  58.328  22.621  1.00  0.00    -0.003 C 
ATOM     20  C   UNL     1       3.780  57.816  24.012  1.00  0.00     0.004 C 
ENDBRANCH  18  19
ENDBRANCH  17  18
ENDBRANCH  16  17
ENDBRANCH  15  16
ENDBRANCH  14  15
ENDBRANCH  13  14
ENDBRANCH  12  13
ENDBRANCH   1  12
TORSDOF 16
ENDMDL
MODEL 3
REMARK VINA RESULT:    -4.604      3.574      8.992
REMARK INTER + INTRA:         -10.484
REMARK INTER:                  -8.895
REMARK INTRA:                  -1.589
REMARK UNBOUND:                -1.574
REMARK SMILES CCCCCCCCCCCCCCCCCC(=O)[O-]
REMARK SMILES IDX 10 1 11 2 12 3 13 4 14 5 15 6 16 7 17 8 18 9 19 10 20 11
REMARK SMILES IDX 9 12 8 13 7 14 6 15 5 16 4 17 3 18 2 19 1 20
REMARK H PARENT
REMARK Flexibility Score: inf
ROOT
ATOM      1  C   UNL     1      -0.218  58.627  25.576  1.00  0.00     0.000 C 
ENDROOT
BRANCH   1   2
ATOM      2  C   UNL     1      -0.128  60.134  25.278  1.00  0.00     0.000 C 
BRANCH   2   3
ATOM      3  C   UNL     1       0.087  60.424  23.782  1.00  0.00     0.000 C 
BRANCH   3   4
ATOM      4  C   UNL     1      -0.948  61.414  23.221  1.00  0.00     0.000 C 
BRANCH   4   5
ATOM      5  C   UNL     1      -0.735  62.845  23.740  1.00  0.00     0.000 C 
BRANCH   5   6
ATOM      6  C   UNL     1      -1.350  63.906  22.809  1.00  0.00     0.000 C 
BRANCH   6   7
ATOM      7  C   UNL     1      -1.386  65.302  23.451  1.00  0.00     0.006 C 
BRANCH   7   8
ATOM      8  C   UNL     1      -2.225  66.299  22.640  1.00  0.00     0.053 C 
BRANCH   8   9
ATOM      9  C   UNL     1      -3.676  65.940  22.712  1.00  0.00     0.041 C 
ATOM     10  O   UNL     1      -4.304  65.623  21.668  1.00  0.00    -0.550 OA
ATOM     11  O   UNL     1      -4.348  66.005  23.927  1.00  0.00    -0.550 OA
ENDBRANCH   8   9
ENDBRANCH   7   8
ENDBRANCH   6   7
ENDBRANCH   5   6
ENDBRANCH   4   5
ENDBRANCH   3   4
ENDBRANCH   2   3
ENDBRANCH   1   2
BRANCH   1  12
ATOM     12  C   UNL     1       0.696  57.789  24.667  1.00  0.00     0.000 C 
BRANCH  12  13
ATOM     13  C   UNL     1       2.014  57.396  25.358  1.00  0.00    -0.000 C 
BRANCH  13  14
ATOM     14  C   UNL     1       3.252  57.743  24.516  1.00  0.00    -0.000 C 
BRANCH  14  15
ATOM     15  C   UNL     1       2.906  58.570  23.265  1.00  0.00    -0.000 C 
BRANCH  15  16
ATOM     16  C   UNL     1       3.201  57.818  21.955  1.00  0.00    -0.000 C 
BRANCH  16  17
ATOM     17  C   UNL     1       2.075  56.882  21.472  1.00  0.00    -0.000 C 
BRANCH  17  18
ATOM     18  C   UNL     1       2.466  55.389  21.463  1.00  0.00    -0.000 C 
BRANCH  18  19
ATOM     19  C   UNL     1       2.023  54.664  22.742  1.00  0.00    -0.003 C 
ATOM     20  C   UNL     1       3.223  54.283  23.603  1.00  0.00     0.004 C 
ENDBRANCH  18  19
ENDBRANCH  17  18
ENDBRANCH  16  17
ENDBRANCH  15  16
ENDBRANCH  14  15
ENDBRANCH  13  14
ENDBRANCH  12  13
ENDBRANCH   1  12
TORSDOF 16
ENDMDL
MODEL 4
REMARK VINA RESULT:    -4.525      3.476      8.895
REMARK INTER + INTRA:         -10.331
REMARK INTER:                  -8.984
REMARK INTRA:                  -1.347
REMARK UNBOUND:                -1.574
REMARK SMILES CCCCCCCCCCCCCCCCCC(=O)[O-]
REMARK SMILES IDX 10 1 11 2 12 3 13 4 14 5 15 6 16 7 17 8 18 9 19 10 20 11
REMARK SMILES IDX 9 12 8 13 7 14 6 15 5 16 4 17 3 18 2 19 1 20
REMARK H PARENT
REMARK Flexibility Score: inf
ROOT
ATOM      1  C   UNL     1      -0.136  61.535  24.177  1.00  0.00     0.000 C 
ENDROOT
BRANCH   1   2
ATOM      2  C   UNL     1      -1.289  61.748  23.181  1.00  0.00     0.000 C 
BRANCH   2   3
ATOM      3  C   UNL     1      -1.527  63.235  22.870  1.00  0.00     0.000 C 
BRANCH   3   4
ATOM      4  C   UNL     1      -0.540  64.156  23.607  1.00  0.00     0.000 C 
BRANCH   4   5
ATOM      5  C   UNL     1      -0.917  65.641  23.486  1.00  0.00     0.000 C 
BRANCH   5   6
ATOM      6  C   UNL     1      -1.033  66.101  22.022  1.00  0.00     0.000 C 
BRANCH   6   7
ATOM      7  C   UNL     1      -2.432  66.641  21.684  1.00  0.00     0.006 C 
BRANCH   7   8
ATOM      8  C   UNL     1      -3.441  66.407  22.815  1.00  0.00     0.053 C 
BRANCH   8   9
ATOM      9  C   UNL     1      -4.599  65.597  22.322  1.00  0.00     0.041 C 
ATOM     10  O   UNL     1      -5.505  66.138  21.636  1.00  0.00    -0.550 OA
ATOM     11  O   UNL     1      -4.703  64.254  22.663  1.00  0.00    -0.550 OA
ENDBRANCH   8   9
ENDBRANCH   7   8
ENDBRANCH   6   7
ENDBRANCH   5   6
ENDBRANCH   4   5
ENDBRANCH   3   4
ENDBRANCH   2   3
ENDBRANCH   1   2
BRANCH   1  12
ATOM     12  C   UNL     1       0.512  60.147  24.045  1.00  0.00     0.000 C 
BRANCH  12  13
ATOM     13  C   UNL     1       0.162  59.220  25.223  1.00  0.00    -0.000 C 
BRANCH  13  14
ATOM     14  C   UNL     1       0.576  57.761  24.973  1.00  0.00    -0.000 C 
BRANCH  14  15
ATOM     15  C   UNL     1       0.499  57.369  23.486  1.00  0.00    -0.000 C 
BRANCH  15  16
ATOM     16  C   UNL     1       1.679  56.487  23.042  1.00  0.00    -0.000 C 
BRANCH  16  17
ATOM     17  C   UNL     1       3.017  56.783  23.748  1.00  0.00    -0.000 C 
BRANCH  17  18
ATOM     18  C   UNL     1       3.541  58.216  23.517  1.00  0.00    -0.000 C 
BRANCH  18  19
ATOM     19  C   UNL     1       3.726  58.534  22.025  1.00  0.00    -0.003 C 
ATOM     20  C   UNL     1       3.457  60.008  21.739  1.00  0.00     0.004 C 
ENDBRANCH  18  19
ENDBRANCH  17  18
ENDBRANCH  16  17
ENDBRANCH  15  16
ENDBRANCH  14  15
ENDBRANCH  13  14
ENDBRANCH  12  13
ENDBRANCH   1  12
TORSDOF 16
ENDMDL
MODEL 5
REMARK VINA RESULT:    -4.522      3.662      9.279
REMARK INTER + INTRA:         -10.326
REMARK INTER:                  -9.011
REMARK INTRA:                  -1.315
REMARK UNBOUND:                -1.574
REMARK SMILES CCCCCCCCCCCCCCCCCC(=O)[O-]
REMARK SMILES IDX 10 1 11 2 12 3 13 4 14 5 15 6 16 7 17 8 18 9 19 10 20 11
REMARK SMILES IDX 9 12 8 13 7 14 6 15 5 16 4 17 3 18 2 19 1 20
REMARK H PARENT
REMARK Flexibility Score: inf
ROOT
ATOM      1  C   UNL     1      -0.012  61.180  23.542  1.00  0.00     0.000 C 
ENDROOT
BRANCH   1   2
ATOM      2  C   UNL     1      -1.386  61.483  22.921  1.00  0.00     0.000 C 
BRANCH   2   3
ATOM      3  C   UNL     1      -1.715  62.986  22.930  1.00  0.00     0.000 C 
BRANCH   3   4
ATOM      4  C   UNL     1      -0.618  63.823  23.610  1.00  0.00     0.000 C 
BRANCH   4   5
ATOM      5  C   UNL     1      -0.952  65.323  23.633  1.00  0.00     0.000 C 
BRANCH   5   6
ATOM      6  C   UNL     1      -1.046  65.927  22.220  1.00  0.00     0.000 C 
BRANCH   6   7
ATOM      7  C   UNL     1      -2.438  66.504  21.918  1.00  0.00     0.006 C 
BRANCH   7   8
ATOM      8  C   UNL     1      -3.466  66.158  23.004  1.00  0.00     0.053 C 
BRANCH   8   9
ATOM      9  C   UNL     1      -4.633  65.435  22.406  1.00  0.00     0.041 C 
ATOM     10  O   UNL     1      -4.722  64.184  22.503  1.00  0.00    -0.550 OA
ATOM     11  O   UNL     1      -5.597  66.141  21.697  1.00  0.00    -0.550 OA
ENDBRANCH   8   9
ENDBRANCH   7   8
ENDBRANCH   6   7
ENDBRANCH   5   6
ENDBRANCH   4   5
ENDBRANCH   3   4
ENDBRANCH   2   3
ENDBRANCH   1   2
BRANCH   1  12
ATOM     12  C   UNL     1      -0.117  60.391  24.857  1.00  0.00     0.000 C 
BRANCH  12  13
ATOM     13  C   UNL     1       0.435  58.959  24.730  1.00  0.00    -0.000 C 
BRANCH  13  14
ATOM     14  C   UNL     1       0.384  58.429  23.288  1.00  0.00    -0.000 C 
BRANCH  14  15
ATOM     15  C   UNL     1       1.743  57.892  22.806  1.00  0.00    -0.000 C 
BRANCH  15  16
ATOM     16  C   UNL     1       2.912  58.345  23.698  1.00  0.00    -0.000 C 
BRANCH  16  17
ATOM     17  C   UNL     1       3.789  57.205  24.254  1.00  0.00    -0.000 C 
BRANCH  17  18
ATOM     18  C   UNL     1       2.986  56.068  24.919  1.00  0.00    -0.000 C 
BRANCH  18  19
ATOM     19  C   UNL     1       3.381  54.685  24.380  1.00  0.00    -0.003 C 
ATOM     20  C   UNL     1       2.497  54.279  23.206  1.00  0.00     0.004 C 
ENDBRANCH  18  19
ENDBRANCH  17  18
ENDBRANCH  16  17
ENDBRANCH  15  16
ENDBRANCH  14  15
ENDBRANCH  13  14
ENDBRANCH  12  13
ENDBRANCH   1  12
TORSDOF 16
ENDMDL
MODEL 6
REMARK VINA RESULT:    -4.370      1.517      1.819
REMARK INTER + INTRA:         -10.031
REMARK INTER:                  -8.367
REMARK INTRA:                  -1.664
REMARK UNBOUND:                -1.574
REMARK SMILES CCCCCCCCCCCCCCCCCC(=O)[O-]
REMARK SMILES IDX 10 1 11 2 12 3 13 4 14 5 15 6 16 7 17 8 18 9 19 10 20 11
REMARK SMILES IDX 9 12 8 13 7 14 6 15 5 16 4 17 3 18 2 19 1 20
REMARK H PARENT
REMARK Flexibility Score: inf
ROOT
ATOM      1  C   UNL     1      -1.403  61.591  22.936  1.00  0.00     0.000 C 
ENDROOT
BRANCH   1   2
ATOM      2  C   UNL     1      -0.083  61.252  23.649  1.00  0.00     0.000 C 
BRANCH   2   3
ATOM      3  C   UNL     1      -0.307  60.490  24.966  1.00  0.00     0.000 C 
BRANCH   3   4
ATOM      4  C   UNL     1       0.470  59.164  25.017  1.00  0.00     0.000 C 
BRANCH   4   5
ATOM      5  C   UNL     1       0.236  58.295  23.771  1.00  0.00     0.000 C 
BRANCH   5   6
ATOM      6  C   UNL     1       1.517  58.103  22.939  1.00  0.00     0.000 C 
BRANCH   6   7
ATOM      7  C   UNL     1       2.776  58.581  23.679  1.00  0.00     0.006 C 
BRANCH   7   8
ATOM      8  C   UNL     1       3.773  57.443  23.936  1.00  0.00     0.053 C 
BRANCH   8   9
ATOM      9  C   UNL     1       3.117  56.338  24.705  1.00  0.00     0.041 C 
ATOM     10  O   UNL     1       2.688  56.545  25.870  1.00  0.00    -0.550 OA
ATOM     11  O   UNL     1       3.025  55.067  24.152  1.00  0.00    -0.550 OA
ENDBRANCH   8   9
ENDBRANCH   7   8
ENDBRANCH   6   7
ENDBRANCH   5   6
ENDBRANCH   4   5
ENDBRANCH   3   4
ENDBRANCH   2   3
ENDBRANCH   1   2
BRANCH   1  12
ATOM     12  C   UNL     1      -1.695  63.100  22.916  1.00  0.00     0.000 C 
BRANCH  12  13
ATOM     13  C   UNL     1      -0.580  63.923  23.586  1.00  0.00    -0.000 C 
BRANCH  13  14
ATOM     14  C   UNL     1      -0.947  65.409  23.733  1.00  0.00    -0.000 C 
BRANCH  14  15
ATOM     15  C   UNL     1      -0.227  66.301  22.706  1.00  0.00    -0.000 C 
BRANCH  15  16
ATOM     16  C   UNL     1      -1.166  66.809  21.598  1.00  0.00    -0.000 C 
BRANCH  16  17
ATOM     17  C   UNL     1      -2.637  66.993  22.023  1.00  0.00    -0.000 C 
BRANCH  17  18
ATOM     18  C   UNL     1      -3.614  66.021  21.328  1.00  0.00    -0.000 C 
BRANCH  18  19
ATOM     19  C   UNL     1      -4.712  65.522  22.279  1.00  0.00    -0.003 C 
ATOM     20  C   UNL     1      -4.438  65.959  23.715  1.00  0.00     0.004 C 
ENDBRANCH  18  19
ENDBRANCH  17  18
ENDBRANCH  16  17
ENDBRANCH  15  16
ENDBRANCH  14  15
ENDBRANCH  13  14
ENDBRANCH  12  13
ENDBRANCH   1  12
TORSDOF 16
ENDMDL
MODEL 7
REMARK VINA RESULT:    -4.370      1.892      3.148
REMARK INTER + INTRA:         -10.031
REMARK INTER:                  -9.155
REMARK INTRA:                  -0.876
REMARK UNBOUND:                -1.574
REMARK SMILES CCCCCCCCCCCCCCCCCC(=O)[O-]
REMARK SMILES IDX 10 1 11 2 12 3 13 4 14 5 15 6 16 7 17 8 18 9 19 10 20 11
REMARK SMILES IDX 9 12 8 13 7 14 6 15 5 16 4 17 3 18 2 19 1 20
REMARK H PARENT
REMARK Flexibility Score: inf
ROOT
ATOM      1  C   UNL     1       0.345  59.465  25.122  1.00  0.00     0.000 C 
ENDROOT
BRANCH   1   2
ATOM      2  C   UNL     1       0.584  57.985  24.774  1.00  0.00     0.000 C 
BRANCH   2   3
ATOM      3  C   UNL     1       1.839  57.417  25.459  1.00  0.00     0.000 C 
BRANCH   3   4
ATOM      4  C   UNL     1       2.905  56.963  24.448  1.00  0.00     0.000 C 
BRANCH   4   5
ATOM      5  C   UNL     1       3.413  58.117  23.569  1.00  0.00     0.000 C 
BRANCH   5   6
ATOM      6  C   UNL     1       3.004  57.956  22.094  1.00  0.00     0.000 C 
BRANCH   6   7
ATOM      7  C   UNL     1       1.909  56.895  21.899  1.00  0.00     0.006 C 
BRANCH   7   8
ATOM      8  C   UNL     1       2.309  55.819  20.881  1.00  0.00     0.053 C 
BRANCH   8   9
ATOM      9  C   UNL     1       2.364  54.475  21.538  1.00  0.00     0.041 C 
ATOM     10  O   UNL     1       2.745  53.467  20.888  1.00  0.00    -0.550 OA
ATOM     11  O   UNL     1       1.946  54.327  22.855  1.00  0.00    -0.550 OA
ENDBRANCH   8   9
ENDBRANCH   7   8
ENDBRANCH   6   7
ENDBRANCH   5   6
ENDBRANCH   4   5
ENDBRANCH   3   4
ENDBRANCH   2   3
ENDBRANCH   1   2
BRANCH   1  12
ATOM     12  C   UNL     1       0.605  60.402  23.931  1.00  0.00     0.000 C 
BRANCH  12  13
ATOM     13  C   UNL     1      -0.601  61.306  23.620  1.00  0.00    -0.000 C 
BRANCH  13  14
ATOM     14  C   UNL     1      -0.277  62.801  23.769  1.00  0.00    -0.000 C 
BRANCH  14  15
ATOM     15  C   UNL     1      -1.258  63.701  22.998  1.00  0.00    -0.000 C 
BRANCH  15  16
ATOM     16  C   UNL     1      -1.206  65.168  23.457  1.00  0.00    -0.000 C 
BRANCH  16  17
ATOM     17  C   UNL     1      -1.122  66.205  22.319  1.00  0.00    -0.000 C 
BRANCH  17  18
ATOM     18  C   UNL     1      -2.458  66.427  21.577  1.00  0.00    -0.000 C 
BRANCH  18  19
ATOM     19  C   UNL     1      -3.670  66.296  22.511  1.00  0.00    -0.003 C 
ATOM     20  C   UNL     1      -4.846  65.638  21.797  1.00  0.00     0.004 C 
ENDBRANCH  18  19
ENDBRANCH  17  18
ENDBRANCH  16  17
ENDBRANCH  15  16
ENDBRANCH  14  15
ENDBRANCH  13  14
ENDBRANCH  12  13
ENDBRANCH   1  12
TORSDOF 16
ENDMDL
MODEL 8
REMARK VINA RESULT:    -4.275      6.618     13.639
REMARK INTER + INTRA:          -9.848
REMARK INTER:                  -8.485
REMARK INTRA:                  -1.363
REMARK UNBOUND:                -1.574
REMARK SMILES CCCCCCCCCCCCCCCCCC(=O)[O-]
REMARK SMILES IDX 10 1 11 2 12 3 13 4 14 5 15 6 16 7 17 8 18 9 19 10 20 11
REMARK SMILES IDX 9 12 8 13 7 14 6 15 5 16 4 17 3 18 2 19 1 20
REMARK H PARENT
REMARK Flexibility Score: inf
ROOT
ATOM      1  C   UNL     1       2.533  50.828  22.872  1.00  0.00     0.000 C 
ENDROOT
BRANCH   1   2
ATOM      2  C   UNL     1       1.523  51.929  22.504  1.00  0.00     0.000 C 
BRANCH   2   3
ATOM      3  C   UNL     1       2.210  53.250  22.121  1.00  0.00     0.000 C 
BRANCH   3   4
ATOM      4  C   UNL     1       2.757  54.005  23.344  1.00  0.00     0.000 C 
BRANCH   4   5
ATOM      5  C   UNL     1       2.466  55.513  23.284  1.00  0.00     0.000 C 
BRANCH   5   6
ATOM      6  C   UNL     1       3.143  56.288  24.429  1.00  0.00     0.000 C 
BRANCH   6   7
ATOM      7  C   UNL     1       3.616  57.684  23.995  1.00  0.00     0.006 C 
BRANCH   7   8
ATOM      8  C   UNL     1       2.749  58.277  22.876  1.00  0.00     0.053 C 
BRANCH   8   9
ATOM      9  C   UNL     1       2.015  59.485  23.370  1.00  0.00     0.041 C 
ATOM     10  O   UNL     1       2.559  60.619  23.328  1.00  0.00    -0.550 OA
ATOM     11  O   UNL     1       0.748  59.349  23.924  1.00  0.00    -0.550 OA
ENDBRANCH   8   9
ENDBRANCH   7   8
ENDBRANCH   6   7
ENDBRANCH   5   6
ENDBRANCH   4   5
ENDBRANCH   3   4
ENDBRANCH   2   3
ENDBRANCH   1   2
BRANCH   1  12
ATOM     12  C   UNL     1       1.901  49.427  22.893  1.00  0.00     0.000 C 
BRANCH  12  13
ATOM     13  C   UNL     1       2.903  48.323  22.509  1.00  0.00    -0.000 C 
BRANCH  13  14
ATOM     14  C   UNL     1       2.832  47.106  23.445  1.00  0.00    -0.000 C 
BRANCH  14  15
ATOM     15  C   UNL     1       2.161  47.431  24.791  1.00  0.00    -0.000 C 
BRANCH  15  16
ATOM     16  C   UNL     1       3.177  47.647  25.926  1.00  0.00    -0.000 C 
BRANCH  16  17
ATOM     17  C   UNL     1       4.549  46.979  25.709  1.00  0.00    -0.000 C 
BRANCH  17  18
ATOM     18  C   UNL     1       5.747  47.929  25.922  1.00  0.00    -0.000 C 
BRANCH  18  19
ATOM     19  C   UNL     1       5.939  48.895  24.743  1.00  0.00    -0.003 C 
ATOM     20  C   UNL     1       6.542  48.179  23.538  1.00  0.00     0.004 C 
ENDBRANCH  18  19
ENDBRANCH  17  18
ENDBRANCH  16  17
ENDBRANCH  15  16
ENDBRANCH  14  15
ENDBRANCH  13  14
ENDBRANCH  12  13
ENDBRANCH   1  12
TORSDOF 16
ENDMDL
MODEL 9
REMARK VINA RESULT:    -4.211      1.983      2.732
REMARK INTER + INTRA:          -9.724
REMARK INTER:                  -8.433
REMARK INTRA:                  -1.291
REMARK UNBOUND:                -1.574
REMARK SMILES CCCCCCCCCCCCCCCCCC(=O)[O-]
REMARK SMILES IDX 10 1 11 2 12 3 13 4 14 5 15 6 16 7 17 8 18 9 19 10 20 11
REMARK SMILES IDX 9 12 8 13 7 14 6 15 5 16 4 17 3 18 2 19 1 20
REMARK H PARENT
REMARK Flexibility Score: inf
ROOT
ATOM      1  C   UNL     1      -0.138  61.181  24.094  1.00  0.00     0.000 C 
ENDROOT
BRANCH   1   2
ATOM      2  C   UNL     1       0.922  60.172  23.620  1.00  0.00     0.000 C 
BRANCH   2   3
ATOM      3  C   UNL     1       2.261  60.846  23.276  1.00  0.00     0.000 C 
BRANCH   3   4
ATOM      4  C   UNL     1       3.142  59.973  22.367  1.00  0.00     0.000 C 
BRANCH   4   5
ATOM      5  C   UNL     1       2.967  58.471  22.642  1.00  0.00     0.000 C 
BRANCH   5   6
ATOM      6  C   UNL     1       3.559  58.048  23.998  1.00  0.00     0.000 C 
BRANCH   6   7
ATOM      7  C   UNL     1       2.982  56.716  24.503  1.00  0.00     0.006 C 
BRANCH   7   8
ATOM      8  C   UNL     1       2.291  55.916  23.391  1.00  0.00     0.053 C 
BRANCH   8   9
ATOM      9  C   UNL     1       2.758  54.494  23.404  1.00  0.00     0.041 C 
ATOM     10  O   UNL     1       2.151  53.621  22.731  1.00  0.00    -0.550 OA
ATOM     11  O   UNL     1       3.834  54.123  24.202  1.00  0.00    -0.550 OA
ENDBRANCH   8   9
ENDBRANCH   7   8
ENDBRANCH   6   7
ENDBRANCH   5   6
ENDBRANCH   4   5
ENDBRANCH   3   4
ENDBRANCH   2   3
ENDBRANCH   1   2
BRANCH   1  12
ATOM     12  C   UNL     1      -1.236  61.422  23.045  1.00  0.00     0.000 C 
BRANCH  12  13
ATOM     13  C   UNL     1      -1.563  62.916  22.867  1.00  0.00    -0.000 C 
BRANCH  13  14
ATOM     14  C   UNL     1      -0.660  63.826  23.714  1.00  0.00    -0.000 C 
BRANCH  14  15
ATOM     15  C   UNL     1      -0.558  65.253  23.148  1.00  0.00    -0.000 C 
BRANCH  15  16
ATOM     16  C   UNL     1      -1.339  66.282  23.984  1.00  0.00    -0.000 C 
BRANCH  16  17
ATOM     17  C   UNL     1      -2.479  67.001  23.235  1.00  0.00    -0.000 C 
BRANCH  17  18
ATOM     18  C   UNL     1      -2.774  66.416  21.837  1.00  0.00    -0.000 C 
BRANCH  18  19
ATOM     19  C   UNL     1      -4.239  65.983  21.686  1.00  0.00    -0.003 C 
ATOM     20  C   UNL     1      -4.586  64.862  22.660  1.00  0.00     0.004 C 
ENDBRANCH  18  19
ENDBRANCH  17  18
ENDBRANCH  16  17
ENDBRANCH  15  16
ENDBRANCH  14  15
ENDBRANCH  13  14
ENDBRANCH  12  13
ENDBRANCH   1  12
TORSDOF 16
ENDMDL
