MODEL 1
REMARK VINA RESULT:    40.441      0.000      0.000
REMARK INTER + INTRA:          60.349
REMARK INTER:                  60.536
REMARK INTRA:                  -0.187
REMARK UNBOUND:                -0.187
REMARK SMILES COC(=O)C1=CO[C@H](O[C@@H]2O[C@H](CO)[C@H](O)[C@H](O)[C@@H]2O)[C@@H]2C(CO)=CC[C@H]12
REMARK SMILES IDX 9 1 8 2 5 3 6 4 27 5 7 6 21 7 26 8 22 9 25 10 3 11 4 12 2 13
REMARK SMILES IDX 1 14 23 15 24 16 10 18 19 19 11 20 17 21 12 22 15 23 20 24
REMARK SMILES IDX 18 26 13 28 14 29 16 31
REMARK H PARENT 24 17 20 25 18 27 14 30 16 32
REMARK Flexibility Score: inf
ROOT
ATOM      1  O   UNL     1      11.369   8.929  16.529  1.00  0.00    -0.310 OA
ENDROOT
BRANCH   1   2
ATOM      2  C   UNL     1      10.174   8.709  17.288  1.00  0.00     0.316 C 
ATOM      3  C   UNL     1       7.775   8.637  15.659  1.00  0.00     0.076 C 
ATOM      4  C   UNL     1       8.163   9.758  16.268  1.00  0.00     0.202 C 
ATOM      5  C   UNL     1       8.350   7.287  16.027  1.00  0.00     0.047 C 
ATOM      6  O   UNL     1       9.206   9.765  17.198  1.00  0.00    -0.471 OA
ATOM      7  C   UNL     1       9.538   7.317  17.033  1.00  0.00     0.094 C 
ATOM      8  C   UNL     1       8.860   6.512  14.799  1.00  0.00     0.037 C 
ATOM      9  C   UNL     1      10.514   6.334  16.440  1.00  0.00    -0.039 C 
ATOM     10  C   UNL     1      10.118   5.875  15.263  1.00  0.00    -0.024 C 
BRANCH   3  11
ATOM     11  C   UNL     1       6.649   8.711  14.720  1.00  0.00     0.337 C 
ATOM     12  O   UNL     1       6.250   7.664  14.138  1.00  0.00    -0.246 OA
BRANCH  11  13
ATOM     13  O   UNL     1       6.062   9.957  14.444  1.00  0.00    -0.466 OA
ATOM     14  C   UNL     1       6.081  10.546  13.143  1.00  0.00     0.282 C 
ENDBRANCH  11  13
ENDBRANCH   3  11
BRANCH   9  15
ATOM     15  C   UNL     1      11.792   5.875  17.090  1.00  0.00     0.187 C 
BRANCH  15  16
ATOM     16  O   UNL     1      11.960   6.472  18.347  1.00  0.00    -0.392 OA
ATOM     17  H   UNL     1      11.104   6.322  18.836  1.00  0.00     0.211 HD
ENDBRANCH  15  16
ENDBRANCH   9  15
ENDBRANCH   1   2
BRANCH   1  18
ATOM     18  C   UNL     1      12.518   9.307  17.272  1.00  0.00     0.286 C 
ATOM     19  C   UNL     1      13.731   9.281  16.319  1.00  0.00     0.202 C 
ATOM     20  O   UNL     1      12.264  10.574  17.885  1.00  0.00    -0.341 OA
ATOM     21  C   UNL     1      15.006   9.676  17.091  1.00  0.00     0.179 C 
ATOM     22  C   UNL     1      13.367  11.474  17.971  1.00  0.00     0.178 C 
ATOM     23  C   UNL     1      14.732  10.760  18.173  1.00  0.00     0.177 C 
BRANCH  19  24
ATOM     24  O   UNL     1      13.530  10.140  15.223  1.00  0.00    -0.385 OA
ATOM     25  H   UNL     1      13.680  11.069  15.535  1.00  0.00     0.211 HD
ENDBRANCH  19  24
BRANCH  21  26
ATOM     26  O   UNL     1      16.019  10.071  16.200  1.00  0.00    -0.387 OA
ATOM     27  H   UNL     1      16.485  10.852  16.607  1.00  0.00     0.211 HD
ENDBRANCH  21  26
BRANCH  22  28
ATOM     28  C   UNL     1      13.384  12.512  16.812  1.00  0.00     0.191 C 
BRANCH  28  29
ATOM     29  O   UNL     1      14.691  12.818  16.401  1.00  0.00    -0.394 OA
ATOM     30  H   UNL     1      14.934  12.129  15.733  1.00  0.00     0.210 HD
ENDBRANCH  28  29
ENDBRANCH  22  28
BRANCH  23  31
ATOM     31  O   UNL     1      15.771  11.705  18.242  1.00  0.00    -0.387 OA
ATOM     32  H   UNL     1      16.610  11.192  18.390  1.00  0.00     0.211 HD
ENDBRANCH  23  31
ENDBRANCH   1  18
TORSDOF 11
ENDMDL
MODEL 2
REMARK VINA RESULT:    42.967      0.887      1.852
REMARK INTER + INTRA:          64.131
REMARK INTER:                  65.096
REMARK INTRA:                  -0.965
REMARK UNBOUND:                -0.187
REMARK SMILES COC(=O)C1=CO[C@H](O[C@@H]2O[C@H](CO)[C@H](O)[C@H](O)[C@@H]2O)[C@@H]2C(CO)=CC[C@H]12
REMARK SMILES IDX 9 1 8 2 5 3 6 4 27 5 7 6 21 7 26 8 22 9 25 10 3 11 4 12 2 13
REMARK SMILES IDX 1 14 23 15 24 16 10 18 19 19 11 20 17 21 12 22 15 23 20 24
REMARK SMILES IDX 18 26 13 28 14 29 16 31
REMARK H PARENT 24 17 20 25 18 27 14 30 16 32
REMARK Flexibility Score: inf
ROOT
ATOM      1  O   UNL     1      11.472   8.906  16.352  1.00  0.00    -0.310 OA
ENDROOT
BRANCH   1   2
ATOM      2  C   UNL     1      10.295   8.829  17.165  1.00  0.00     0.316 C 
ATOM      3  C   UNL     1       7.835   8.825  15.628  1.00  0.00     0.076 C 
ATOM      4  C   UNL     1       8.326   9.953  16.143  1.00  0.00     0.202 C 
ATOM      5  C   UNL     1       8.325   7.464  16.071  1.00  0.00     0.047 C 
ATOM      6  O   UNL     1       9.403   9.946  17.033  1.00  0.00    -0.471 OA
ATOM      7  C   UNL     1       9.551   7.474  17.032  1.00  0.00     0.094 C 
ATOM      8  C   UNL     1       8.730   6.571  14.885  1.00  0.00     0.037 C 
ATOM      9  C   UNL     1      10.430   6.383  16.476  1.00  0.00    -0.039 C 
ATOM     10  C   UNL     1       9.956   5.876  15.350  1.00  0.00    -0.024 C 
BRANCH   3  11
ATOM     11  C   UNL     1       6.681   8.918  14.726  1.00  0.00     0.337 C 
ATOM     12  O   UNL     1       5.984   7.892  14.492  1.00  0.00    -0.246 OA
BRANCH  11  13
ATOM     13  O   UNL     1       6.397  10.141  14.094  1.00  0.00    -0.466 OA
ATOM     14  C   UNL     1       5.493  10.247  12.994  1.00  0.00     0.282 C 
ENDBRANCH  11  13
ENDBRANCH   3  11
BRANCH   9  15
ATOM     15  C   UNL     1      11.695   5.875  17.113  1.00  0.00     0.187 C 
BRANCH  15  16
ATOM     16  O   UNL     1      11.993   6.591  18.282  1.00  0.00    -0.392 OA
ATOM     17  H   UNL     1      12.448   5.943  18.889  1.00  0.00     0.211 HD
ENDBRANCH  15  16
ENDBRANCH   9  15
ENDBRANCH   1   2
BRANCH   1  18
ATOM     18  C   UNL     1      12.239  10.095  16.478  1.00  0.00     0.286 C 
ATOM     19  C   UNL     1      12.660  10.235  17.956  1.00  0.00     0.202 C 
ATOM     20  O   UNL     1      13.324  10.033  15.548  1.00  0.00    -0.341 OA
ATOM     21  C   UNL     1      13.488  11.522  18.140  1.00  0.00     0.179 C 
ATOM     22  C   UNL     1      14.564  10.595  15.977  1.00  0.00     0.178 C 
ATOM     23  C   UNL     1      14.394  11.824  16.911  1.00  0.00     0.177 C 
BRANCH  19  24
ATOM     24  O   UNL     1      13.391   9.111  18.381  1.00  0.00    -0.385 OA
ATOM     25  H   UNL     1      13.990   8.840  17.638  1.00  0.00     0.211 HD
ENDBRANCH  19  24
BRANCH  21  26
ATOM     26  O   UNL     1      14.227  11.466  19.334  1.00  0.00    -0.387 OA
ATOM     27  H   UNL     1      13.920  12.221  19.909  1.00  0.00     0.211 HD
ENDBRANCH  21  26
BRANCH  22  28
ATOM     28  C   UNL     1      15.541   9.526  16.544  1.00  0.00     0.191 C 
BRANCH  28  29
ATOM     29  O   UNL     1      15.285   8.249  16.020  1.00  0.00    -0.394 OA
ATOM     30  H   UNL     1      15.445   7.613  16.761  1.00  0.00     0.210 HD
ENDBRANCH  28  29
ENDBRANCH  22  28
BRANCH  23  31
ATOM     31  O   UNL     1      15.652  12.321  17.297  1.00  0.00    -0.387 OA
ATOM     32  H   UNL     1      15.759  12.099  18.261  1.00  0.00     0.211 HD
ENDBRANCH  23  31
ENDBRANCH   1  18
TORSDOF 11
ENDMDL
