MODEL 1
REMARK VINA RESULT:    -5.394      0.000      0.000
REMARK INTER + INTRA:          -5.887
REMARK INTER:                  -5.867
REMARK INTRA:                  -0.020
REMARK UNBOUND:                -0.020
REMARK SMILES OCc1ccccc1
REMARK SMILES IDX 2 1 3 2 6 3 5 4 7 5 4 6 8 7 1 8
REMARK H PARENT 1 9
REMARK Flexibility Score: inf
ROOT
ATOM      1  C   UNL     1      33.859 147.332 112.181  1.00  0.00     0.191 C 
ENDROOT
BRANCH   1   2
ATOM      2  C   UNL     1      33.002 148.564 112.267  1.00  0.00    -0.023 A 
ATOM      3  C   UNL     1      31.466 150.906 112.441  1.00  0.00     0.000 A 
ATOM      4  C   UNL     1      31.961 150.486 111.204  1.00  0.00     0.000 A 
ATOM      5  C   UNL     1      31.744 150.166 113.594  1.00  0.00     0.000 A 
ATOM      6  C   UNL     1      32.732 149.322 111.116  1.00  0.00     0.006 A 
ATOM      7  C   UNL     1      32.513 149.001 113.509  1.00  0.00     0.006 A 
ENDBRANCH   1   2
BRANCH   1   8
ATOM      8  O   UNL     1      33.893 146.682 113.423  1.00  0.00    -0.392 OA
ATOM      9  H   UNL     1      34.297 145.789 113.264  1.00  0.00     0.211 HD
ENDBRANCH   1   8
TORSDOF 2
ENDMDL
MODEL 2
REMARK VINA RESULT:    -5.385      2.447      2.457
REMARK INTER + INTRA:          -5.876
REMARK INTER:                  -5.858
REMARK INTRA:                  -0.018
REMARK UNBOUND:                -0.020
REMARK SMILES OCc1ccccc1
REMARK SMILES IDX 2 1 3 2 6 3 5 4 7 5 4 6 8 7 1 8
REMARK H PARENT 1 9
REMARK Flexibility Score: inf
ROOT
ATOM      1  C   UNL     1      35.987 149.879 112.341  1.00  0.00     0.191 C 
ENDROOT
BRANCH   1   2
ATOM      2  C   UNL     1      34.581 150.411 112.341  1.00  0.00    -0.023 A 
ATOM      3  C   UNL     1      31.985 151.475 112.353  1.00  0.00     0.000 A 
ATOM      4  C   UNL     1      32.691 151.371 111.151  1.00  0.00     0.000 A 
ATOM      5  C   UNL     1      32.575 151.059 113.550  1.00  0.00     0.000 A 
ATOM      6  C   UNL     1      33.988 150.846 111.144  1.00  0.00     0.006 A 
ATOM      7  C   UNL     1      33.871 150.533 113.546  1.00  0.00     0.006 A 
ENDBRANCH   1   2
BRANCH   1   8
ATOM      8  O   UNL     1      36.365 149.518 111.040  1.00  0.00    -0.392 OA
ATOM      9  H   UNL     1      37.124 150.108 110.791  1.00  0.00     0.211 HD
ENDBRANCH   1   8
TORSDOF 2
ENDMDL
MODEL 3
REMARK VINA RESULT:    -5.383      0.107      1.714
REMARK INTER + INTRA:          -5.875
REMARK INTER:                  -5.855
REMARK INTRA:                  -0.020
REMARK UNBOUND:                -0.020
REMARK SMILES OCc1ccccc1
REMARK SMILES IDX 2 1 3 2 6 3 5 4 7 5 4 6 8 7 1 8
REMARK H PARENT 1 9
REMARK Flexibility Score: inf
ROOT
ATOM      1  C   UNL     1      33.802 147.263 112.128  1.00  0.00     0.191 C 
ENDROOT
BRANCH   1   2
ATOM      2  C   UNL     1      33.008 148.537 112.207  1.00  0.00    -0.023 A 
ATOM      3  C   UNL     1      31.461 150.873 112.348  1.00  0.00     0.000 A 
ATOM      4  C   UNL     1      31.800 150.190 113.518  1.00  0.00     0.000 A 
ATOM      5  C   UNL     1      31.883 150.389 111.106  1.00  0.00     0.000 A 
ATOM      6  C   UNL     1      32.567 149.021 113.450  1.00  0.00     0.006 A 
ATOM      7  C   UNL     1      32.650 149.222 111.035  1.00  0.00     0.006 A 
ENDBRANCH   1   2
BRANCH   1   8
ATOM      8  O   UNL     1      33.877 146.664 113.394  1.00  0.00    -0.392 OA
ATOM      9  H   UNL     1      34.705 146.115 113.399  1.00  0.00     0.211 HD
ENDBRANCH   1   8
TORSDOF 2
ENDMDL
MODEL 4
REMARK VINA RESULT:    -5.376      2.373      2.937
REMARK INTER + INTRA:          -5.867
REMARK INTER:                  -5.847
REMARK INTRA:                  -0.020
REMARK UNBOUND:                -0.020
REMARK SMILES OCc1ccccc1
REMARK SMILES IDX 2 1 3 2 6 3 5 4 7 5 4 6 8 7 1 8
REMARK H PARENT 1 9
REMARK Flexibility Score: inf
ROOT
ATOM      1  C   UNL     1      35.889 149.884 112.328  1.00  0.00     0.191 C 
ENDROOT
BRANCH   1   2
ATOM      2  C   UNL     1      34.480 150.405 112.301  1.00  0.00    -0.023 A 
ATOM      3  C   UNL     1      31.822 151.304 112.244  1.00  0.00     0.000 A 
ATOM      4  C   UNL     1      32.433 151.007 113.466  1.00  0.00     0.000 A 
ATOM      5  C   UNL     1      32.531 151.143 111.050  1.00  0.00     0.000 A 
ATOM      6  C   UNL     1      33.756 150.553 113.496  1.00  0.00     0.006 A 
ATOM      7  C   UNL     1      33.854 150.691 111.076  1.00  0.00     0.006 A 
ENDBRANCH   1   2
BRANCH   1   8
ATOM      8  O   UNL     1      36.314 149.578 111.027  1.00  0.00    -0.392 OA
ATOM      9  H   UNL     1      35.570 149.080 110.596  1.00  0.00     0.211 HD
ENDBRANCH   1   8
TORSDOF 2
ENDMDL
MODEL 5
REMARK VINA RESULT:    -5.269      3.150      3.942
REMARK INTER + INTRA:          -5.751
REMARK INTER:                  -5.740
REMARK INTRA:                  -0.011
REMARK UNBOUND:                -0.020
REMARK SMILES OCc1ccccc1
REMARK SMILES IDX 2 1 3 2 6 3 5 4 7 5 4 6 8 7 1 8
REMARK H PARENT 1 9
REMARK Flexibility Score: inf
ROOT
ATOM      1  C   UNL     1      33.150 151.197 110.510  1.00  0.00     0.191 C 
ENDROOT
BRANCH   1   2
ATOM      2  C   UNL     1      33.615 150.916 111.911  1.00  0.00    -0.023 A 
ATOM      3  C   UNL     1      34.522 150.457 114.526  1.00  0.00     0.000 A 
ATOM      4  C   UNL     1      33.322 151.140 114.314  1.00  0.00     0.000 A 
ATOM      5  C   UNL     1      35.277 150.012 113.437  1.00  0.00     0.000 A 
ATOM      6  C   UNL     1      32.870 151.374 113.010  1.00  0.00     0.006 A 
ATOM      7  C   UNL     1      34.828 150.243 112.133  1.00  0.00     0.006 A 
ENDBRANCH   1   2
BRANCH   1   8
ATOM      8  O   UNL     1      33.361 152.546 110.194  1.00  0.00    -0.392 OA
ATOM      9  H   UNL     1      32.507 152.887 109.820  1.00  0.00     0.211 HD
ENDBRANCH   1   8
TORSDOF 2
ENDMDL
MODEL 6
REMARK VINA RESULT:    -5.246      3.166      3.815
REMARK INTER + INTRA:          -5.725
REMARK INTER:                  -5.715
REMARK INTRA:                  -0.010
REMARK UNBOUND:                -0.020
REMARK SMILES OCc1ccccc1
REMARK SMILES IDX 2 1 3 2 6 3 5 4 7 5 4 6 8 7 1 8
REMARK H PARENT 1 9
REMARK Flexibility Score: inf
ROOT
ATOM      1  C   UNL     1      33.204 151.177 110.498  1.00  0.00     0.191 C 
ENDROOT
BRANCH   1   2
ATOM      2  C   UNL     1      33.683 150.943 111.903  1.00  0.00    -0.023 A 
ATOM      3  C   UNL     1      34.537 150.441 114.529  1.00  0.00     0.000 A 
ATOM      4  C   UNL     1      35.302 149.993 113.448  1.00  0.00     0.000 A 
ATOM      5  C   UNL     1      33.342 151.130 114.303  1.00  0.00     0.000 A 
ATOM      6  C   UNL     1      34.875 150.238 112.139  1.00  0.00     0.006 A 
ATOM      7  C   UNL     1      32.913 151.377 112.995  1.00  0.00     0.006 A 
ENDBRANCH   1   2
BRANCH   1   8
ATOM      8  O   UNL     1      33.353 152.528 110.158  1.00  0.00    -0.392 OA
ATOM      9  H   UNL     1      34.196 152.837 110.583  1.00  0.00     0.211 HD
ENDBRANCH   1   8
TORSDOF 2
ENDMDL
MODEL 7
REMARK VINA RESULT:    -5.076      1.979      2.845
REMARK INTER + INTRA:          -5.541
REMARK INTER:                  -5.531
REMARK INTRA:                  -0.010
REMARK UNBOUND:                -0.020
REMARK SMILES OCc1ccccc1
REMARK SMILES IDX 2 1 3 2 6 3 5 4 7 5 4 6 8 7 1 8
REMARK H PARENT 1 9
REMARK Flexibility Score: inf
ROOT
ATOM      1  C   UNL     1      32.239 149.358 114.221  1.00  0.00     0.191 C 
ENDROOT
BRANCH   1   2
ATOM      2  C   UNL     1      32.609 150.011 112.919  1.00  0.00    -0.023 A 
ATOM      3  C   UNL     1      33.224 151.243 110.474  1.00  0.00     0.000 A 
ATOM      4  C   UNL     1      33.183 152.002 111.647  1.00  0.00     0.000 A 
ATOM      5  C   UNL     1      32.948 149.873 110.516  1.00  0.00     0.000 A 
ATOM      6  C   UNL     1      32.871 151.390 112.866  1.00  0.00     0.006 A 
ATOM      7  C   UNL     1      32.637 149.259 111.733  1.00  0.00     0.006 A 
ENDBRANCH   1   2
BRANCH   1   8
ATOM      8  O   UNL     1      30.879 149.562 114.492  1.00  0.00    -0.392 OA
ATOM      9  H   UNL     1      30.593 148.815 115.081  1.00  0.00     0.211 HD
ENDBRANCH   1   8
TORSDOF 2
ENDMDL
MODEL 8
REMARK VINA RESULT:    -4.916      2.579      2.938
REMARK INTER + INTRA:          -5.367
REMARK INTER:                  -5.353
REMARK INTRA:                  -0.014
REMARK UNBOUND:                -0.020
REMARK SMILES OCc1ccccc1
REMARK SMILES IDX 2 1 3 2 6 3 5 4 7 5 4 6 8 7 1 8
REMARK H PARENT 1 9
REMARK Flexibility Score: inf
ROOT
ATOM      1  C   UNL     1      34.478 150.630 114.610  1.00  0.00     0.191 C 
ENDROOT
BRANCH   1   2
ATOM      2  C   UNL     1      33.678 150.672 113.338  1.00  0.00    -0.023 A 
ATOM      3  C   UNL     1      32.191 150.826 110.963  1.00  0.00     0.000 A 
ATOM      4  C   UNL     1      33.579 150.673 110.909  1.00  0.00     0.000 A 
ATOM      5  C   UNL     1      31.544 150.913 112.200  1.00  0.00     0.000 A 
ATOM      6  C   UNL     1      34.323 150.601 112.092  1.00  0.00     0.006 A 
ATOM      7  C   UNL     1      32.284 150.841 113.384  1.00  0.00     0.006 A 
ENDBRANCH   1   2
BRANCH   1   8
ATOM      8  O   UNL     1      34.108 151.694 115.445  1.00  0.00    -0.392 OA
ATOM      9  H   UNL     1      34.613 151.577 116.293  1.00  0.00     0.211 HD
ENDBRANCH   1   8
TORSDOF 2
ENDMDL
MODEL 9
REMARK VINA RESULT:    -4.834      1.783      2.392
REMARK INTER + INTRA:          -5.278
REMARK INTER:                  -5.269
REMARK INTRA:                  -0.009
REMARK UNBOUND:                -0.020
REMARK SMILES OCc1ccccc1
REMARK SMILES IDX 2 1 3 2 6 3 5 4 7 5 4 6 8 7 1 8
REMARK H PARENT 1 9
REMARK Flexibility Score: inf
ROOT
ATOM      1  C   UNL     1      33.276 149.049 109.760  1.00  0.00     0.191 C 
ENDROOT
BRANCH   1   2
ATOM      2  C   UNL     1      32.732 149.355 111.127  1.00  0.00    -0.023 A 
ATOM      3  C   UNL     1      31.777 149.970 113.693  1.00  0.00     0.000 A 
ATOM      4  C   UNL     1      31.402 150.758 112.601  1.00  0.00     0.000 A 
ATOM      5  C   UNL     1      32.635 148.882 113.509  1.00  0.00     0.000 A 
ATOM      6  C   UNL     1      31.882 150.456 111.322  1.00  0.00     0.006 A 
ATOM      7  C   UNL     1      33.116 148.577 112.232  1.00  0.00     0.006 A 
ENDBRANCH   1   2
BRANCH   1   8
ATOM      8  O   UNL     1      32.427 148.155 109.093  1.00  0.00    -0.392 OA
ATOM      9  H   UNL     1      32.846 147.258 109.167  1.00  0.00     0.211 HD
ENDBRANCH   1   8
TORSDOF 2
ENDMDL
