MODEL 1
REMARK VINA RESULT:    -4.326      0.000      0.000
REMARK INTER + INTRA:          -7.449
REMARK INTER:                  -6.602
REMARK INTRA:                  -0.846
REMARK UNBOUND:                -0.846
REMARK SMILES O=C([O-])CCCCCCCCC(=O)[O-]
REMARK SMILES IDX 7 1 6 2 5 3 4 4 2 5 1 6 3 7 8 8 9 9 10 10 11 11 12 12 13 13
REMARK SMILES IDX 14 14
REMARK H PARENT
REMARK Flexibility Score: inf
ROOT
ATOM      1  C   UNL     1      13.140 -31.292  22.823  1.00  0.00     0.000 C 
ENDROOT
BRANCH   1   2
ATOM      2  C   UNL     1      13.042 -29.765  22.930  1.00  0.00     0.000 C 
BRANCH   2   3
ATOM      3  C   UNL     1      14.434 -29.132  23.067  1.00  0.00     0.006 C 
BRANCH   3   4
ATOM      4  C   UNL     1      15.330 -29.429  21.857  1.00  0.00     0.053 C 
BRANCH   4   5
ATOM      5  C   UNL     1      16.669 -29.959  22.272  1.00  0.00     0.041 C 
ATOM      6  O   UNL     1      16.894 -30.233  23.480  1.00  0.00    -0.550 OA
ATOM      7  O   UNL     1      17.677 -30.118  21.331  1.00  0.00    -0.550 OA
ENDBRANCH   4   5
ENDBRANCH   3   4
ENDBRANCH   2   3
ENDBRANCH   1   2
BRANCH   1   8
ATOM      8  C   UNL     1      13.776 -31.893  24.083  1.00  0.00     0.000 C 
BRANCH   8   9
ATOM      9  C   UNL     1      14.650 -33.106  23.733  1.00  0.00     0.000 C 
BRANCH   9  10
ATOM     10  C   UNL     1      14.895 -33.249  22.220  1.00  0.00     0.006 C 
BRANCH  10  11
ATOM     11  C   UNL     1      15.647 -34.528  21.820  1.00  0.00     0.053 C 
BRANCH  11  12
ATOM     12  C   UNL     1      15.550 -34.801  20.350  1.00  0.00     0.041 C 
ATOM     13  O   UNL     1      14.853 -34.056  19.611  1.00  0.00    -0.550 OA
ATOM     14  O   UNL     1      16.257 -35.858  19.792  1.00  0.00    -0.550 OA
ENDBRANCH  11  12
ENDBRANCH  10  11
ENDBRANCH   9  10
ENDBRANCH   8   9
ENDBRANCH   1   8
TORSDOF 9
ENDMDL
MODEL 2
REMARK VINA RESULT:    -4.315      2.341      6.010
REMARK INTER + INTRA:          -7.432
REMARK INTER:                  -6.965
REMARK INTRA:                  -0.467
REMARK UNBOUND:                -0.846
REMARK SMILES O=C([O-])CCCCCCCCC(=O)[O-]
REMARK SMILES IDX 7 1 6 2 5 3 4 4 2 5 1 6 3 7 8 8 9 9 10 10 11 11 12 12 13 13
REMARK SMILES IDX 14 14
REMARK H PARENT
REMARK Flexibility Score: inf
ROOT
ATOM      1  C   UNL     1      15.130 -32.942  23.761  1.00  0.00     0.000 C 
ENDROOT
BRANCH   1   2
ATOM      2  C   UNL     1      15.560 -33.031  22.292  1.00  0.00     0.000 C 
BRANCH   2   3
ATOM      3  C   UNL     1      15.556 -34.487  21.804  1.00  0.00     0.006 C 
BRANCH   3   4
ATOM      4  C   UNL     1      15.340 -34.592  20.289  1.00  0.00     0.053 C 
BRANCH   4   5
ATOM      5  C   UNL     1      16.513 -35.224  19.602  1.00  0.00     0.041 C 
ATOM      6  O   UNL     1      17.361 -34.506  19.010  1.00  0.00    -0.550 OA
ATOM      7  O   UNL     1      16.650 -36.606  19.587  1.00  0.00    -0.550 OA
ENDBRANCH   4   5
ENDBRANCH   3   4
ENDBRANCH   2   3
ENDBRANCH   1   2
BRANCH   1   8
ATOM      8  C   UNL     1      13.894 -32.049  23.921  1.00  0.00     0.000 C 
BRANCH   8   9
ATOM      9  C   UNL     1      13.393 -31.555  22.556  1.00  0.00     0.000 C 
BRANCH   9  10
ATOM     10  C   UNL     1      12.676 -30.195  22.639  1.00  0.00     0.006 C 
BRANCH  10  11
ATOM     11  C   UNL     1      13.509 -29.081  23.293  1.00  0.00     0.053 C 
BRANCH  11  12
ATOM     12  C   UNL     1      12.648 -28.060  23.971  1.00  0.00     0.041 C 
ATOM     13  O   UNL     1      11.423 -28.288  24.160  1.00  0.00    -0.550 OA
ATOM     14  O   UNL     1      13.205 -26.872  24.424  1.00  0.00    -0.550 OA
ENDBRANCH  11  12
ENDBRANCH  10  11
ENDBRANCH   9  10
ENDBRANCH   8   9
ENDBRANCH   1   8
TORSDOF 9
ENDMDL
MODEL 3
REMARK VINA RESULT:    -4.262      2.019      3.058
REMARK INTER + INTRA:          -7.350
REMARK INTER:                  -6.405
REMARK INTRA:                  -0.945
REMARK UNBOUND:                -0.846
REMARK SMILES O=C([O-])CCCCCCCCC(=O)[O-]
REMARK SMILES IDX 7 1 6 2 5 3 4 4 2 5 1 6 3 7 8 8 9 9 10 10 11 11 12 12 13 13
REMARK SMILES IDX 14 14
REMARK H PARENT
REMARK Flexibility Score: inf
ROOT
ATOM      1  C   UNL     1      16.329 -30.595  21.859  1.00  0.00     0.000 C 
ENDROOT
BRANCH   1   2
ATOM      2  C   UNL     1      15.295 -29.469  21.745  1.00  0.00     0.000 C 
BRANCH   2   3
ATOM      3  C   UNL     1      14.704 -29.123  23.120  1.00  0.00     0.006 C 
BRANCH   3   4
ATOM      4  C   UNL     1      13.175 -29.258  23.146  1.00  0.00     0.053 C 
BRANCH   4   5
ATOM      5  C   UNL     1      12.733 -30.644  22.786  1.00  0.00     0.041 C 
ATOM      6  O   UNL     1      11.901 -30.821  21.857  1.00  0.00    -0.550 OA
ATOM      7  O   UNL     1      13.213 -31.736  23.497  1.00  0.00    -0.550 OA
ENDBRANCH   4   5
ENDBRANCH   3   4
ENDBRANCH   2   3
ENDBRANCH   1   2
BRANCH   1   8
ATOM      8  C   UNL     1      16.801 -30.765  23.309  1.00  0.00     0.000 C 
BRANCH   8   9
ATOM      9  C   UNL     1      16.664 -32.225  23.764  1.00  0.00     0.000 C 
BRANCH   9  10
ATOM     10  C   UNL     1      16.848 -33.230  22.612  1.00  0.00     0.006 C 
BRANCH  10  11
ATOM     11  C   UNL     1      15.679 -34.212  22.438  1.00  0.00     0.053 C 
BRANCH  11  12
ATOM     12  C   UNL     1      15.137 -34.197  21.041  1.00  0.00     0.041 C 
ATOM     13  O   UNL     1      15.432 -35.120  20.237  1.00  0.00    -0.550 OA
ATOM     14  O   UNL     1      14.278 -33.182  20.640  1.00  0.00    -0.550 OA
ENDBRANCH  11  12
ENDBRANCH  10  11
ENDBRANCH   9  10
ENDBRANCH   8   9
ENDBRANCH   1   8
TORSDOF 9
ENDMDL
MODEL 4
REMARK VINA RESULT:    -4.215      2.246      3.194
REMARK INTER + INTRA:          -7.279
REMARK INTER:                  -6.371
REMARK INTRA:                  -0.908
REMARK UNBOUND:                -0.846
REMARK SMILES O=C([O-])CCCCCCCCC(=O)[O-]
REMARK SMILES IDX 7 1 6 2 5 3 4 4 2 5 1 6 3 7 8 8 9 9 10 10 11 11 12 12 13 13
REMARK SMILES IDX 14 14
REMARK H PARENT
REMARK Flexibility Score: inf
ROOT
ATOM      1  C   UNL     1      15.200 -32.200  23.601  1.00  0.00     0.000 C 
ENDROOT
BRANCH   1   2
ATOM      2  C   UNL     1      15.725 -30.961  22.865  1.00  0.00     0.000 C 
BRANCH   2   3
ATOM      3  C   UNL     1      14.677 -30.418  21.883  1.00  0.00     0.006 C 
BRANCH   3   4
ATOM      4  C   UNL     1      13.401 -31.270  21.865  1.00  0.00     0.053 C 
BRANCH   4   5
ATOM      5  C   UNL     1      12.196 -30.476  22.271  1.00  0.00     0.041 C 
ATOM      6  O   UNL     1      11.115 -30.599  21.638  1.00  0.00    -0.550 OA
ATOM      7  O   UNL     1      12.278 -29.575  23.325  1.00  0.00    -0.550 OA
ENDBRANCH   4   5
ENDBRANCH   3   4
ENDBRANCH   2   3
ENDBRANCH   1   2
BRANCH   1   8
ATOM      8  C   UNL     1      16.301 -33.255  23.759  1.00  0.00     0.000 C 
BRANCH   8   9
ATOM      9  C   UNL     1      16.590 -33.954  22.422  1.00  0.00     0.000 C 
BRANCH   9  10
ATOM     10  C   UNL     1      15.311 -34.430  21.708  1.00  0.00     0.006 C 
BRANCH  10  11
ATOM     11  C   UNL     1      15.308 -34.188  20.191  1.00  0.00     0.053 C 
BRANCH  11  12
ATOM     12  C   UNL     1      16.451 -34.875  19.510  1.00  0.00     0.041 C 
ATOM     13  O   UNL     1      17.318 -34.203  18.892  1.00  0.00    -0.550 OA
ATOM     14  O   UNL     1      16.576 -36.256  19.586  1.00  0.00    -0.550 OA
ENDBRANCH  11  12
ENDBRANCH  10  11
ENDBRANCH   9  10
ENDBRANCH   8   9
ENDBRANCH   1   8
TORSDOF 9
ENDMDL
MODEL 5
REMARK VINA RESULT:    -4.202      2.505      5.593
REMARK INTER + INTRA:          -7.260
REMARK INTER:                  -6.432
REMARK INTRA:                  -0.828
REMARK UNBOUND:                -0.846
REMARK SMILES O=C([O-])CCCCCCCCC(=O)[O-]
REMARK SMILES IDX 7 1 6 2 5 3 4 4 2 5 1 6 3 7 8 8 9 9 10 10 11 11 12 12 13 13
REMARK SMILES IDX 14 14
REMARK H PARENT
REMARK Flexibility Score: inf
ROOT
ATOM      1  C   UNL     1      16.774 -31.218  23.814  1.00  0.00     0.000 C 
ENDROOT
BRANCH   1   2
ATOM      2  C   UNL     1      17.392 -32.582  23.484  1.00  0.00     0.000 C 
BRANCH   2   3
ATOM      3  C   UNL     1      16.489 -33.727  23.966  1.00  0.00     0.006 C 
BRANCH   3   4
ATOM      4  C   UNL     1      15.096 -33.678  23.324  1.00  0.00     0.053 C 
BRANCH   4   5
ATOM      5  C   UNL     1      15.148 -33.983  21.858  1.00  0.00     0.041 C 
ATOM      6  O   UNL     1      15.859 -34.932  21.434  1.00  0.00    -0.550 OA
ATOM      7  O   UNL     1      14.439 -33.199  20.957  1.00  0.00    -0.550 OA
ENDBRANCH   4   5
ENDBRANCH   3   4
ENDBRANCH   2   3
ENDBRANCH   1   2
BRANCH   1   8
ATOM      8  C   UNL     1      16.550 -30.392  22.542  1.00  0.00     0.000 C 
BRANCH   8   9
ATOM      9  C   UNL     1      15.369 -29.424  22.716  1.00  0.00     0.000 C 
BRANCH   9  10
ATOM     10  C   UNL     1      14.002 -30.119  22.579  1.00  0.00     0.006 C 
BRANCH  10  11
ATOM     11  C   UNL     1      13.154 -30.100  23.860  1.00  0.00     0.053 C 
BRANCH  11  12
ATOM     12  C   UNL     1      12.329 -28.855  23.970  1.00  0.00     0.041 C 
ATOM     13  O   UNL     1      11.237 -28.761  23.350  1.00  0.00    -0.550 OA
ATOM     14  O   UNL     1      12.751 -27.812  24.784  1.00  0.00    -0.550 OA
ENDBRANCH  11  12
ENDBRANCH  10  11
ENDBRANCH   9  10
ENDBRANCH   8   9
ENDBRANCH   1   8
TORSDOF 9
ENDMDL
MODEL 6
REMARK VINA RESULT:    -4.159      2.555      5.811
REMARK INTER + INTRA:          -7.194
REMARK INTER:                  -6.271
REMARK INTRA:                  -0.922
REMARK UNBOUND:                -0.846
REMARK SMILES O=C([O-])CCCCCCCCC(=O)[O-]
REMARK SMILES IDX 7 1 6 2 5 3 4 4 2 5 1 6 3 7 8 8 9 9 10 10 11 11 12 12 13 13
REMARK SMILES IDX 14 14
REMARK H PARENT
REMARK Flexibility Score: inf
ROOT
ATOM      1  C   UNL     1      18.349 -33.268  20.855  1.00  0.00     0.000 C 
ENDROOT
BRANCH   1   2
ATOM      2  C   UNL     1      18.385 -34.080  19.554  1.00  0.00     0.000 C 
BRANCH   2   3
ATOM      3  C   UNL     1      16.975 -34.539  19.153  1.00  0.00     0.006 C 
BRANCH   3   4
ATOM      4  C   UNL     1      16.490 -35.727  19.994  1.00  0.00     0.053 C 
BRANCH   4   5
ATOM      5  C   UNL     1      17.450 -36.876  19.941  1.00  0.00     0.041 C 
ATOM      6  O   UNL     1      17.667 -37.470  18.852  1.00  0.00    -0.550 OA
ATOM      7  O   UNL     1      18.080 -37.311  21.100  1.00  0.00    -0.550 OA
ENDBRANCH   4   5
ENDBRANCH   3   4
ENDBRANCH   2   3
ENDBRANCH   1   2
BRANCH   1   8
ATOM      8  C   UNL     1      17.774 -31.867  20.614  1.00  0.00     0.000 C 
BRANCH   8   9
ATOM      9  C   UNL     1      16.735 -31.508  21.687  1.00  0.00     0.000 C 
BRANCH   9  10
ATOM     10  C   UNL     1      16.139 -32.747  22.380  1.00  0.00     0.006 C 
BRANCH  10  11
ATOM     11  C   UNL     1      14.755 -33.159  21.856  1.00  0.00     0.053 C 
BRANCH  11  12
ATOM     12  C   UNL     1      13.832 -31.986  21.725  1.00  0.00     0.041 C 
ATOM     13  O   UNL     1      13.444 -31.609  20.588  1.00  0.00    -0.550 OA
ATOM     14  O   UNL     1      13.374 -31.332  22.861  1.00  0.00    -0.550 OA
ENDBRANCH  11  12
ENDBRANCH  10  11
ENDBRANCH   9  10
ENDBRANCH   8   9
ENDBRANCH   1   8
TORSDOF 9
ENDMDL
MODEL 7
REMARK VINA RESULT:    -4.138      2.321      3.169
REMARK INTER + INTRA:          -7.162
REMARK INTER:                  -6.717
REMARK INTRA:                  -0.445
REMARK UNBOUND:                -0.846
REMARK SMILES O=C([O-])CCCCCCCCC(=O)[O-]
REMARK SMILES IDX 7 1 6 2 5 3 4 4 2 5 1 6 3 7 8 8 9 9 10 10 11 11 12 12 13 13
REMARK SMILES IDX 14 14
REMARK H PARENT
REMARK Flexibility Score: inf
ROOT
ATOM      1  C   UNL     1      14.465 -32.486  23.364  1.00  0.00     0.000 C 
ENDROOT
BRANCH   1   2
ATOM      2  C   UNL     1      13.661 -31.347  24.003  1.00  0.00     0.000 C 
BRANCH   2   3
ATOM      3  C   UNL     1      13.137 -30.377  22.934  1.00  0.00     0.006 C 
BRANCH   3   4
ATOM      4  C   UNL     1      13.697 -28.959  23.112  1.00  0.00     0.053 C 
BRANCH   4   5
ATOM      5  C   UNL     1      12.774 -28.094  23.916  1.00  0.00     0.041 C 
ATOM      6  O   UNL     1      11.549 -28.375  23.993  1.00  0.00    -0.550 OA
ATOM      7  O   UNL     1      13.261 -26.959  24.551  1.00  0.00    -0.550 OA
ENDBRANCH   4   5
ENDBRANCH   3   4
ENDBRANCH   2   3
ENDBRANCH   1   2
BRANCH   1   8
ATOM      8  C   UNL     1      15.743 -31.954  22.704  1.00  0.00     0.000 C 
BRANCH   8   9
ATOM      9  C   UNL     1      16.534 -33.092  22.041  1.00  0.00     0.000 C 
BRANCH   9  10
ATOM     10  C   UNL     1      15.675 -34.342  21.778  1.00  0.00     0.006 C 
BRANCH  10  11
ATOM     11  C   UNL     1      15.350 -34.584  20.296  1.00  0.00     0.053 C 
BRANCH  11  12
ATOM     12  C   UNL     1      16.526 -35.131  19.545  1.00  0.00     0.041 C 
ATOM     13  O   UNL     1      16.750 -36.370  19.533  1.00  0.00    -0.550 OA
ATOM     14  O   UNL     1      17.353 -34.274  18.832  1.00  0.00    -0.550 OA
ENDBRANCH  11  12
ENDBRANCH  10  11
ENDBRANCH   9  10
ENDBRANCH   8   9
ENDBRANCH   1   8
TORSDOF 9
ENDMDL
MODEL 8
REMARK VINA RESULT:    -4.126      2.593      4.638
REMARK INTER + INTRA:          -7.143
REMARK INTER:                  -6.325
REMARK INTRA:                  -0.817
REMARK UNBOUND:                -0.846
REMARK SMILES O=C([O-])CCCCCCCCC(=O)[O-]
REMARK SMILES IDX 7 1 6 2 5 3 4 4 2 5 1 6 3 7 8 8 9 9 10 10 11 11 12 12 13 13
REMARK SMILES IDX 14 14
REMARK H PARENT
REMARK Flexibility Score: inf
ROOT
ATOM      1  C   UNL     1      15.521 -34.825  20.634  1.00  0.00     0.000 C 
ENDROOT
BRANCH   1   2
ATOM      2  C   UNL     1      14.651 -33.619  20.259  1.00  0.00     0.000 C 
BRANCH   2   3
ATOM      3  C   UNL     1      14.282 -32.798  21.504  1.00  0.00     0.006 C 
BRANCH   3   4
ATOM      4  C   UNL     1      13.716 -31.418  21.143  1.00  0.00     0.053 C 
BRANCH   4   5
ATOM      5  C   UNL     1      12.742 -30.930  22.173  1.00  0.00     0.041 C 
ATOM      6  O   UNL     1      11.562 -30.643  21.842  1.00  0.00    -0.550 OA
ATOM      7  O   UNL     1      13.148 -30.761  23.490  1.00  0.00    -0.550 OA
ENDBRANCH   4   5
ENDBRANCH   3   4
ENDBRANCH   2   3
ENDBRANCH   1   2
BRANCH   1   8
ATOM      8  C   UNL     1      16.489 -35.179  19.499  1.00  0.00     0.000 C 
BRANCH   8   9
ATOM      9  C   UNL     1      17.470 -34.027  19.233  1.00  0.00     0.000 C 
BRANCH   9  10
ATOM     10  C   UNL     1      18.631 -33.986  20.244  1.00  0.00     0.006 C 
BRANCH  10  11
ATOM     11  C   UNL     1      19.002 -32.574  20.722  1.00  0.00     0.053 C 
BRANCH  11  12
ATOM     12  C   UNL     1      17.902 -31.944  21.520  1.00  0.00     0.041 C 
ATOM     13  O   UNL     1      17.280 -30.947  21.066  1.00  0.00    -0.550 OA
ATOM     14  O   UNL     1      17.541 -32.479  22.749  1.00  0.00    -0.550 OA
ENDBRANCH  11  12
ENDBRANCH  10  11
ENDBRANCH   9  10
ENDBRANCH   8   9
ENDBRANCH   1   8
TORSDOF 9
ENDMDL
MODEL 9
REMARK VINA RESULT:    -4.083      2.552      4.380
REMARK INTER + INTRA:          -7.077
REMARK INTER:                  -6.103
REMARK INTRA:                  -0.974
REMARK UNBOUND:                -0.846
REMARK SMILES O=C([O-])CCCCCCCCC(=O)[O-]
REMARK SMILES IDX 7 1 6 2 5 3 4 4 2 5 1 6 3 7 8 8 9 9 10 10 11 11 12 12 13 13
REMARK SMILES IDX 14 14
REMARK H PARENT
REMARK Flexibility Score: inf
ROOT
ATOM      1  C   UNL     1      15.179 -33.459  23.502  1.00  0.00     0.000 C 
ENDROOT
BRANCH   1   2
ATOM      2  C   UNL     1      14.104 -32.478  23.984  1.00  0.00     0.000 C 
BRANCH   2   3
ATOM      3  C   UNL     1      13.713 -31.498  22.867  1.00  0.00     0.006 C 
BRANCH   3   4
ATOM      4  C   UNL     1      13.678 -30.044  23.356  1.00  0.00     0.053 C 
BRANCH   4   5
ATOM      5  C   UNL     1      12.294 -29.471  23.298  1.00  0.00     0.041 C 
ATOM      6  O   UNL     1      11.499 -29.829  22.390  1.00  0.00    -0.550 OA
ATOM      7  O   UNL     1      11.896 -28.518  24.226  1.00  0.00    -0.550 OA
ENDBRANCH   4   5
ENDBRANCH   3   4
ENDBRANCH   2   3
ENDBRANCH   1   2
BRANCH   1   8
ATOM      8  C   UNL     1      15.029 -33.748  22.003  1.00  0.00     0.000 C 
BRANCH   8   9
ATOM      9  C   UNL     1      16.397 -33.755  21.304  1.00  0.00     0.000 C 
BRANCH   9  10
ATOM     10  C   UNL     1      17.376 -32.725  21.898  1.00  0.00     0.006 C 
BRANCH  10  11
ATOM     11  C   UNL     1      17.367 -31.363  21.186  1.00  0.00     0.053 C 
BRANCH  11  12
ATOM     12  C   UNL     1      17.170 -30.229  22.145  1.00  0.00     0.041 C 
ATOM     13  O   UNL     1      16.959 -29.064  21.715  1.00  0.00    -0.550 OA
ATOM     14  O   UNL     1      17.184 -30.466  23.513  1.00  0.00    -0.550 OA
ENDBRANCH  11  12
ENDBRANCH  10  11
ENDBRANCH   9  10
ENDBRANCH   8   9
ENDBRANCH   1   8
TORSDOF 9
ENDMDL
