MODEL 1
REMARK VINA RESULT:    -4.969      0.000      0.000
REMARK INTER + INTRA:          -5.748
REMARK INTER:                  -5.695
REMARK INTRA:                  -0.053
REMARK UNBOUND:                -0.053
REMARK SMILES O=C([O-])c1cc(O)c(O)c(O)c1
REMARK SMILES IDX 4 1 5 2 12 3 6 4 10 5 8 6 2 7 1 8 3 9 7 10 11 12 9 14
REMARK H PARENT 7 11 11 13 9 15
REMARK Flexibility Score: inf
ROOT
ATOM      1  C   UNL     1     100.811 112.232  93.939  1.00  0.00     0.005 A 
ATOM      2  C   UNL     1     100.535 113.605  94.030  1.00  0.00     0.060 A 
ATOM      3  C   UNL     1     102.148 111.809  93.893  1.00  0.00     0.060 A 
ATOM      4  C   UNL     1     101.569 114.548  94.072  1.00  0.00     0.162 A 
ATOM      5  C   UNL     1     103.193 112.736  93.936  1.00  0.00     0.162 A 
ATOM      6  C   UNL     1     102.915 114.112  94.026  1.00  0.00     0.200 A 
ENDROOT
BRANCH   1   7
ATOM      7  C   UNL     1      99.706 111.248  93.895  1.00  0.00     0.072 C 
ATOM      8  O   UNL     1      99.949 110.013  93.875  1.00  0.00    -0.545 OA
ATOM      9  O   UNL     1      98.383 111.675  93.875  1.00  0.00    -0.545 OA
ENDBRANCH   1   7
BRANCH   4  10
ATOM     10  O   UNL     1     101.214 115.895  94.161  1.00  0.00    -0.504 OA
ATOM     11  H   UNL     1     101.875 116.649  94.279  1.00  0.00     0.293 HD
ENDBRANCH   4  10
BRANCH   5  12
ATOM     12  O   UNL     1     104.506 112.269  93.887  1.00  0.00    -0.504 OA
ATOM     13  H   UNL     1     105.304 112.893  93.883  1.00  0.00     0.293 HD
ENDBRANCH   5  12
BRANCH   6  14
ATOM     14  O   UNL     1     103.990 115.007  94.065  1.00  0.00    -0.502 OA
ATOM     15  H   UNL     1     103.896 116.000  94.218  1.00  0.00     0.293 HD
ENDBRANCH   6  14
TORSDOF 4
ENDMDL
MODEL 2
REMARK VINA RESULT:    -4.863      0.108      2.617
REMARK INTER + INTRA:          -5.626
REMARK INTER:                  -5.573
REMARK INTRA:                  -0.053
REMARK UNBOUND:                -0.053
REMARK SMILES O=C([O-])c1cc(O)c(O)c(O)c1
REMARK SMILES IDX 4 1 5 2 12 3 6 4 10 5 8 6 2 7 1 8 3 9 7 10 11 12 9 14
REMARK H PARENT 7 11 11 13 9 15
REMARK Flexibility Score: inf
ROOT
ATOM      1  C   UNL     1     100.832 112.264  93.975  1.00  0.00     0.005 A 
ATOM      2  C   UNL     1     102.157 111.808  93.906  1.00  0.00     0.060 A 
ATOM      3  C   UNL     1     100.592 113.640  94.108  1.00  0.00     0.060 A 
ATOM      4  C   UNL     1     103.232 112.702  93.969  1.00  0.00     0.162 A 
ATOM      5  C   UNL     1     101.654 114.547  94.172  1.00  0.00     0.162 A 
ATOM      6  C   UNL     1     102.982 114.089  94.103  1.00  0.00     0.200 A 
ENDROOT
BRANCH   1   7
ATOM      7  C   UNL     1      99.706 111.305  93.906  1.00  0.00     0.072 C 
ATOM      8  O   UNL     1      98.516 111.715  93.875  1.00  0.00    -0.545 OA
ATOM      9  O   UNL     1      99.947 109.936  93.875  1.00  0.00    -0.545 OA
ENDBRANCH   1   7
BRANCH   4  10
ATOM     10  O   UNL     1     104.521 112.171  93.895  1.00  0.00    -0.504 OA
ATOM     11  H   UNL     1     105.187 112.189  94.653  1.00  0.00     0.293 HD
ENDBRANCH   4  10
BRANCH   5  12
ATOM     12  O   UNL     1     101.367 115.905  94.304  1.00  0.00    -0.504 OA
ATOM     13  H   UNL     1     100.604 116.350  93.807  1.00  0.00     0.293 HD
ENDBRANCH   5  12
BRANCH   6  14
ATOM     14  O   UNL     1     104.014 115.029  94.172  1.00  0.00    -0.502 OA
ATOM     15  H   UNL     1     104.179 115.635  94.963  1.00  0.00     0.293 HD
ENDBRANCH   6  14
TORSDOF 4
ENDMDL
MODEL 3
REMARK VINA RESULT:    -4.548     15.334     16.966
REMARK INTER + INTRA:          -5.265
REMARK INTER:                  -5.213
REMARK INTRA:                  -0.053
REMARK UNBOUND:                -0.053
REMARK SMILES O=C([O-])c1cc(O)c(O)c(O)c1
REMARK SMILES IDX 4 1 5 2 12 3 6 4 10 5 8 6 2 7 1 8 3 9 7 10 11 12 9 14
REMARK H PARENT 7 11 11 13 9 15
REMARK Flexibility Score: inf
ROOT
ATOM      1  C   UNL     1     109.418  98.428  94.015  1.00  0.00     0.005 A 
ATOM      2  C   UNL     1     110.433  97.458  94.025  1.00  0.00     0.060 A 
ATOM      3  C   UNL     1     109.774  99.784  93.964  1.00  0.00     0.060 A 
ATOM      4  C   UNL     1     111.783  97.826  93.987  1.00  0.00     0.162 A 
ATOM      5  C   UNL     1     111.118 100.169  93.925  1.00  0.00     0.162 A 
ATOM      6  C   UNL     1     112.134  99.196  93.935  1.00  0.00     0.200 A 
ENDROOT
BRANCH   1   7
ATOM      7  C   UNL     1     107.995  98.022  94.056  1.00  0.00     0.072 C 
ATOM      8  O   UNL     1     107.082  98.871  93.881  1.00  0.00    -0.545 OA
ATOM      9  O   UNL     1     107.647  96.697  94.289  1.00  0.00    -0.545 OA
ENDBRANCH   1   7
BRANCH   4  10
ATOM     10  O   UNL     1     112.733  96.803  94.000  1.00  0.00    -0.504 OA
ATOM     11  H   UNL     1     113.577  96.805  93.446  1.00  0.00     0.293 HD
ENDBRANCH   4  10
BRANCH   5  12
ATOM     12  O   UNL     1     111.424 101.529  93.875  1.00  0.00    -0.504 OA
ATOM     13  H   UNL     1     111.933 101.997  94.615  1.00  0.00     0.293 HD
ENDBRANCH   5  12
BRANCH   6  14
ATOM     14  O   UNL     1     113.464  99.624  93.895  1.00  0.00    -0.502 OA
ATOM     15  H   UNL     1     114.097  99.442  93.129  1.00  0.00     0.293 HD
ENDBRANCH   6  14
TORSDOF 4
ENDMDL
MODEL 4
REMARK VINA RESULT:    -4.510      1.055      4.115
REMARK INTER + INTRA:          -5.222
REMARK INTER:                  -5.169
REMARK INTRA:                  -0.053
REMARK UNBOUND:                -0.053
REMARK SMILES O=C([O-])c1cc(O)c(O)c(O)c1
REMARK SMILES IDX 4 1 5 2 12 3 6 4 10 5 8 6 2 7 1 8 3 9 7 10 11 12 9 14
REMARK H PARENT 7 11 11 13 9 15
REMARK Flexibility Score: inf
ROOT
ATOM      1  C   UNL     1     101.836 112.733  94.030  1.00  0.00     0.005 A 
ATOM      2  C   UNL     1     100.807 113.682  94.124  1.00  0.00     0.060 A 
ATOM      3  C   UNL     1     101.501 111.372  93.947  1.00  0.00     0.060 A 
ATOM      4  C   UNL     1      99.463 113.290  94.138  1.00  0.00     0.162 A 
ATOM      5  C   UNL     1     100.164 110.964  93.959  1.00  0.00     0.162 A 
ATOM      6  C   UNL     1      99.134 111.916  94.054  1.00  0.00     0.200 A 
ENDROOT
BRANCH   1   7
ATOM      7  C   UNL     1     103.252 113.163  94.016  1.00  0.00     0.072 C 
ATOM      8  O   UNL     1     104.179 112.316  93.928  1.00  0.00    -0.545 OA
ATOM      9  O   UNL     1     103.579 114.512  94.101  1.00  0.00    -0.545 OA
ENDBRANCH   1   7
BRANCH   4  10
ATOM     10  O   UNL     1      98.497 114.294  94.235  1.00  0.00    -0.504 OA
ATOM     11  H   UNL     1      97.740 114.418  93.578  1.00  0.00     0.293 HD
ENDBRANCH   4  10
BRANCH   5  12
ATOM     12  O   UNL     1      99.880 109.601  93.875  1.00  0.00    -0.504 OA
ATOM     13  H   UNL     1      98.967 109.223  94.099  1.00  0.00     0.293 HD
ENDBRANCH   5  12
BRANCH   6  14
ATOM     14  O   UNL     1      97.810 111.465  94.063  1.00  0.00    -0.502 OA
ATOM     15  H   UNL     1      97.007 112.064  94.191  1.00  0.00     0.293 HD
ENDBRANCH   6  14
TORSDOF 4
ENDMDL
MODEL 5
REMARK VINA RESULT:    -4.506     15.297     16.777
REMARK INTER + INTRA:          -5.217
REMARK INTER:                  -5.164
REMARK INTRA:                  -0.053
REMARK UNBOUND:                -0.053
REMARK SMILES O=C([O-])c1cc(O)c(O)c(O)c1
REMARK SMILES IDX 4 1 5 2 12 3 6 4 10 5 8 6 2 7 1 8 3 9 7 10 11 12 9 14
REMARK H PARENT 7 11 11 13 9 15
REMARK Flexibility Score: inf
ROOT
ATOM      1  C   UNL     1     109.426  98.438  93.958  1.00  0.00     0.005 A 
ATOM      2  C   UNL     1     109.749  99.802  93.914  1.00  0.00     0.060 A 
ATOM      3  C   UNL     1     110.463  97.494  94.012  1.00  0.00     0.060 A 
ATOM      4  C   UNL     1     111.082 100.228  93.921  1.00  0.00     0.162 A 
ATOM      5  C   UNL     1     111.800  97.902  94.021  1.00  0.00     0.162 A 
ATOM      6  C   UNL     1     112.123  99.270  93.976  1.00  0.00     0.200 A 
ENDROOT
BRANCH   1   7
ATOM      7  C   UNL     1     108.010  98.004  93.950  1.00  0.00     0.072 C 
ATOM      8  O   UNL     1     107.081  98.852  93.909  1.00  0.00    -0.545 OA
ATOM      9  O   UNL     1     107.687  96.652  93.988  1.00  0.00    -0.545 OA
ENDBRANCH   1   7
BRANCH   4  10
ATOM     10  O   UNL     1     111.324 101.603  93.875  1.00  0.00    -0.504 OA
ATOM     11  H   UNL     1     111.423 102.190  94.691  1.00  0.00     0.293 HD
ENDBRANCH   4  10
BRANCH   5  12
ATOM     12  O   UNL     1     112.797  96.928  94.074  1.00  0.00    -0.504 OA
ATOM     13  H   UNL     1     112.694  96.022  93.633  1.00  0.00     0.293 HD
ENDBRANCH   5  12
BRANCH   6  14
ATOM     14  O   UNL     1     113.473  99.635  93.986  1.00  0.00    -0.502 OA
ATOM     15  H   UNL     1     114.010  99.802  94.825  1.00  0.00     0.293 HD
ENDBRANCH   6  14
TORSDOF 4
ENDMDL
MODEL 6
REMARK VINA RESULT:    -4.466      1.040      4.714
REMARK INTER + INTRA:          -5.171
REMARK INTER:                  -5.119
REMARK INTRA:                  -0.053
REMARK UNBOUND:                -0.053
REMARK SMILES O=C([O-])c1cc(O)c(O)c(O)c1
REMARK SMILES IDX 4 1 5 2 12 3 6 4 10 5 8 6 2 7 1 8 3 9 7 10 11 12 9 14
REMARK H PARENT 7 11 11 13 9 15
REMARK Flexibility Score: inf
ROOT
ATOM      1  C   UNL     1     101.867 112.795  94.063  1.00  0.00     0.005 A 
ATOM      2  C   UNL     1     101.537 111.433  93.994  1.00  0.00     0.060 A 
ATOM      3  C   UNL     1     100.835 113.746  94.083  1.00  0.00     0.060 A 
ATOM      4  C   UNL     1     100.202 111.016  93.943  1.00  0.00     0.162 A 
ATOM      5  C   UNL     1      99.496 113.347  94.034  1.00  0.00     0.162 A 
ATOM      6  C   UNL     1      99.166 111.981  93.964  1.00  0.00     0.200 A 
ENDROOT
BRANCH   1   7
ATOM      7  C   UNL     1     103.284 113.220  94.115  1.00  0.00     0.072 C 
ATOM      8  O   UNL     1     104.209 112.365  94.120  1.00  0.00    -0.545 OA
ATOM      9  O   UNL     1     103.615 114.569  94.160  1.00  0.00    -0.545 OA
ENDBRANCH   1   7
BRANCH   4  10
ATOM     10  O   UNL     1      99.953 109.644  93.875  1.00  0.00    -0.504 OA
ATOM     11  H   UNL     1      99.870 109.041  94.681  1.00  0.00     0.293 HD
ENDBRANCH   4  10
BRANCH   5  12
ATOM     12  O   UNL     1      98.504 114.326  94.056  1.00  0.00    -0.504 OA
ATOM     13  H   UNL     1      97.584 114.158  94.447  1.00  0.00     0.293 HD
ENDBRANCH   5  12
BRANCH   6  14
ATOM     14  O   UNL     1      97.814 111.625  93.917  1.00  0.00    -0.502 OA
ATOM     15  H   UNL     1      97.464 110.779  93.490  1.00  0.00     0.293 HD
ENDBRANCH   6  14
TORSDOF 4
ENDMDL
MODEL 7
REMARK VINA RESULT:    -3.636      1.339      2.942
REMARK INTER + INTRA:          -4.220
REMARK INTER:                  -4.167
REMARK INTRA:                  -0.053
REMARK UNBOUND:                -0.053
REMARK SMILES O=C([O-])c1cc(O)c(O)c(O)c1
REMARK SMILES IDX 4 1 5 2 12 3 6 4 10 5 8 6 2 7 1 8 3 9 7 10 11 12 9 14
REMARK H PARENT 7 11 11 13 9 15
REMARK Flexibility Score: inf
ROOT
ATOM      1  C   UNL     1      99.729 111.774  93.918  1.00  0.00     0.005 A 
ATOM      2  C   UNL     1     101.122 111.944  93.928  1.00  0.00     0.060 A 
ATOM      3  C   UNL     1      98.905 112.909  93.910  1.00  0.00     0.060 A 
ATOM      4  C   UNL     1     101.693 113.222  93.932  1.00  0.00     0.162 A 
ATOM      5  C   UNL     1      99.458 114.193  93.913  1.00  0.00     0.162 A 
ATOM      6  C   UNL     1     100.854 114.363  93.924  1.00  0.00     0.200 A 
ENDROOT
BRANCH   1   7
ATOM      7  C   UNL     1      99.142 110.415  93.914  1.00  0.00     0.072 C 
ATOM      8  O   UNL     1      99.883 109.397  93.937  1.00  0.00    -0.545 OA
ATOM      9  O   UNL     1      97.763 110.243  93.884  1.00  0.00    -0.545 OA
ENDBRANCH   1   7
BRANCH   4  10
ATOM     10  O   UNL     1     103.086 113.310  93.943  1.00  0.00    -0.504 OA
ATOM     11  H   UNL     1     103.600 114.179  93.955  1.00  0.00     0.293 HD
ENDBRANCH   4  10
BRANCH   5  12
ATOM     12  O   UNL     1      98.600 115.292  93.905  1.00  0.00    -0.504 OA
ATOM     13  H   UNL     1      98.698 116.052  93.242  1.00  0.00     0.293 HD
ENDBRANCH   5  12
BRANCH   6  14
ATOM     14  O   UNL     1     101.366 115.665  93.927  1.00  0.00    -0.502 OA
ATOM     15  H   UNL     1     101.602 116.184  93.094  1.00  0.00     0.293 HD
ENDBRANCH   6  14
TORSDOF 4
ENDMDL
MODEL 8
REMARK VINA RESULT:    -3.526     16.067     17.328
REMARK INTER + INTRA:          -4.094
REMARK INTER:                  -4.047
REMARK INTRA:                  -0.047
REMARK UNBOUND:                -0.053
REMARK SMILES O=C([O-])c1cc(O)c(O)c(O)c1
REMARK SMILES IDX 4 1 5 2 12 3 6 4 10 5 8 6 2 7 1 8 3 9 7 10 11 12 9 14
REMARK H PARENT 7 11 11 13 9 15
REMARK Flexibility Score: inf
ROOT
ATOM      1  C   UNL     1     111.083  99.010  94.685  1.00  0.00     0.005 A 
ATOM      2  C   UNL     1     111.893  99.964  94.050  1.00  0.00     0.060 A 
ATOM      3  C   UNL     1     111.550  98.389  95.853  1.00  0.00     0.060 A 
ATOM      4  C   UNL     1     113.151 100.298  94.564  1.00  0.00     0.162 A 
ATOM      5  C   UNL     1     112.804  98.712  96.381  1.00  0.00     0.162 A 
ATOM      6  C   UNL     1     113.616  99.668  95.744  1.00  0.00     0.200 A 
ENDROOT
BRANCH   1   7
ATOM      7  C   UNL     1     109.755  98.667  94.128  1.00  0.00     0.072 C 
ATOM      8  O   UNL     1     109.455  97.470  93.875  1.00  0.00    -0.545 OA
ATOM      9  O   UNL     1     108.818  99.663  93.875  1.00  0.00    -0.545 OA
ENDBRANCH   1   7
BRANCH   4  10
ATOM     10  O   UNL     1     113.899 101.256  93.875  1.00  0.00    -0.504 OA
ATOM     11  H   UNL     1     113.522 101.867  93.166  1.00  0.00     0.293 HD
ENDBRANCH   4  10
BRANCH   5  12
ATOM     12  O   UNL     1     113.227  98.070  97.544  1.00  0.00    -0.504 OA
ATOM     13  H   UNL     1     112.586  97.818  98.288  1.00  0.00     0.293 HD
ENDBRANCH   5  12
BRANCH   6  14
ATOM     14  O   UNL     1     114.863  99.962  96.304  1.00  0.00    -0.502 OA
ATOM     15  H   UNL     1     114.997 100.548  97.115  1.00  0.00     0.293 HD
ENDBRANCH   6  14
TORSDOF 4
ENDMDL
