MODEL 1
REMARK VINA RESULT:    -3.977      0.000      0.000
REMARK INTER + INTRA:          -6.270
REMARK INTER:                  -5.604
REMARK INTRA:                  -0.666
REMARK UNBOUND:                -0.666
REMARK SMILES CCCCCCCCC(=O)[O-]
REMARK SMILES IDX 6 1 7 2 8 3 9 4 10 5 11 6 5 7 4 8 3 9 2 10 1 11
REMARK H PARENT
REMARK Flexibility Score: inf
ROOT
ATOM      1  C   UNL     1     113.433 110.248 121.012  1.00  0.00     0.000 C 
ENDROOT
BRANCH   1   2
ATOM      2  C   UNL     1     112.067 110.171 121.709  1.00  0.00     0.006 C 
BRANCH   2   3
ATOM      3  C   UNL     1     111.770 111.422 122.546  1.00  0.00     0.053 C 
BRANCH   3   4
ATOM      4  C   UNL     1     111.575 112.634 121.685  1.00  0.00     0.041 C 
ATOM      5  O   UNL     1     110.723 112.623 120.759  1.00  0.00    -0.550 OA
ATOM      6  O   UNL     1     112.313 113.786 121.928  1.00  0.00    -0.550 OA
ENDBRANCH   3   4
ENDBRANCH   2   3
ENDBRANCH   1   2
BRANCH   1   7
ATOM      7  C   UNL     1     114.430 109.273 121.648  1.00  0.00     0.000 C 
BRANCH   7   8
ATOM      8  C   UNL     1     115.742 109.982 122.008  1.00  0.00    -0.000 C 
BRANCH   8   9
ATOM      9  C   UNL     1     115.476 111.221 122.877  1.00  0.00    -0.000 C 
BRANCH   9  10
ATOM     10  C   UNL     1     116.320 112.432 122.453  1.00  0.00    -0.003 C 
ATOM     11  C   UNL     1     115.744 113.159 121.238  1.00  0.00     0.004 C 
ENDBRANCH   9  10
ENDBRANCH   8   9
ENDBRANCH   7   8
ENDBRANCH   1   7
TORSDOF 7
ENDMDL
MODEL 2
REMARK VINA RESULT:    -3.925      1.921      4.006
REMARK INTER + INTRA:          -6.197
REMARK INTER:                  -5.565
REMARK INTRA:                  -0.632
REMARK UNBOUND:                -0.666
REMARK SMILES CCCCCCCCC(=O)[O-]
REMARK SMILES IDX 6 1 7 2 8 3 9 4 10 5 11 6 5 7 4 8 3 9 2 10 1 11
REMARK H PARENT
REMARK Flexibility Score: inf
ROOT
ATOM      1  C   UNL     1     114.454 109.261 121.633  1.00  0.00     0.000 C 
ENDROOT
BRANCH   1   2
ATOM      2  C   UNL     1     115.719 110.067 121.965  1.00  0.00     0.006 C 
BRANCH   2   3
ATOM      3  C   UNL     1     115.407 111.333 122.774  1.00  0.00     0.053 C 
BRANCH   3   4
ATOM      4  C   UNL     1     116.147 112.525 122.248  1.00  0.00     0.041 C 
ATOM      5  O   UNL     1     117.139 112.981 122.873  1.00  0.00    -0.550 OA
ATOM      6  O   UNL     1     115.759 113.112 121.050  1.00  0.00    -0.550 OA
ENDBRANCH   3   4
ENDBRANCH   2   3
ENDBRANCH   1   2
BRANCH   1   7
ATOM      7  C   UNL     1     113.361 110.168 121.057  1.00  0.00     0.000 C 
BRANCH   7   8
ATOM      8  C   UNL     1     112.057 110.034 121.854  1.00  0.00    -0.000 C 
BRANCH   8   9
ATOM      9  C   UNL     1     111.696 111.359 122.543  1.00  0.00    -0.000 C 
BRANCH   9  10
ATOM     10  C   UNL     1     111.469 112.502 121.542  1.00  0.00    -0.003 C 
ATOM     11  C   UNL     1     112.298 113.745 121.864  1.00  0.00     0.004 C 
ENDBRANCH   9  10
ENDBRANCH   8   9
ENDBRANCH   7   8
ENDBRANCH   1   7
TORSDOF 7
ENDMDL
MODEL 3
REMARK VINA RESULT:    -3.819      0.459      1.233
REMARK INTER + INTRA:          -6.048
REMARK INTER:                  -5.482
REMARK INTRA:                  -0.566
REMARK UNBOUND:                -0.666
REMARK SMILES CCCCCCCCC(=O)[O-]
REMARK SMILES IDX 6 1 7 2 8 3 9 4 10 5 11 6 5 7 4 8 3 9 2 10 1 11
REMARK H PARENT
REMARK Flexibility Score: inf
ROOT
ATOM      1  C   UNL     1     113.213 110.071 120.892  1.00  0.00     0.000 C 
ENDROOT
BRANCH   1   2
ATOM      2  C   UNL     1     111.916 110.139 121.712  1.00  0.00     0.006 C 
BRANCH   2   3
ATOM      3  C   UNL     1     111.806 111.440 122.518  1.00  0.00     0.053 C 
BRANCH   3   4
ATOM      4  C   UNL     1     111.767 112.645 121.626  1.00  0.00     0.041 C 
ATOM      5  O   UNL     1     112.643 113.542 121.734  1.00  0.00    -0.550 OA
ATOM      6  O   UNL     1     110.781 112.759 120.653  1.00  0.00    -0.550 OA
ENDBRANCH   3   4
ENDBRANCH   2   3
ENDBRANCH   1   2
BRANCH   1   7
ATOM      7  C   UNL     1     114.278 109.239 121.616  1.00  0.00     0.000 C 
BRANCH   7   8
ATOM      8  C   UNL     1     115.586 110.027 121.762  1.00  0.00    -0.000 C 
BRANCH   8   9
ATOM      9  C   UNL     1     115.433 111.161 122.788  1.00  0.00    -0.000 C 
BRANCH   9  10
ATOM     10  C   UNL     1     116.053 112.480 122.306  1.00  0.00    -0.003 C 
ATOM     11  C   UNL     1     117.425 112.750 122.923  1.00  0.00     0.004 C 
ENDBRANCH   9  10
ENDBRANCH   8   9
ENDBRANCH   7   8
ENDBRANCH   1   7
TORSDOF 7
ENDMDL
MODEL 4
REMARK VINA RESULT:    -3.804      1.893      3.985
REMARK INTER + INTRA:          -6.027
REMARK INTER:                  -5.422
REMARK INTRA:                  -0.604
REMARK UNBOUND:                -0.666
REMARK SMILES CCCCCCCCC(=O)[O-]
REMARK SMILES IDX 6 1 7 2 8 3 9 4 10 5 11 6 5 7 4 8 3 9 2 10 1 11
REMARK H PARENT
REMARK Flexibility Score: inf
ROOT
ATOM      1  C   UNL     1     114.454 109.202 121.625  1.00  0.00     0.000 C 
ENDROOT
BRANCH   1   2
ATOM      2  C   UNL     1     115.728 109.960 122.030  1.00  0.00     0.006 C 
BRANCH   2   3
ATOM      3  C   UNL     1     115.419 111.208 122.868  1.00  0.00     0.053 C 
BRANCH   3   4
ATOM      4  C   UNL     1     116.091 112.429 122.316  1.00  0.00     0.041 C 
ATOM      5  O   UNL     1     115.526 113.113 121.423  1.00  0.00    -0.550 OA
ATOM      6  O   UNL     1     117.326 112.828 122.811  1.00  0.00    -0.550 OA
ENDBRANCH   3   4
ENDBRANCH   2   3
ENDBRANCH   1   2
BRANCH   1   7
ATOM      7  C   UNL     1     113.434 110.146 120.980  1.00  0.00     0.000 C 
BRANCH   7   8
ATOM      8  C   UNL     1     112.046 109.972 121.610  1.00  0.00    -0.000 C 
BRANCH   8   9
ATOM      9  C   UNL     1     111.772 111.072 122.647  1.00  0.00    -0.000 C 
BRANCH   9  10
ATOM     10  C   UNL     1     111.913 112.485 122.059  1.00  0.00    -0.003 C 
ATOM     11  C   UNL     1     110.829 112.811 121.033  1.00  0.00     0.004 C 
ENDBRANCH   9  10
ENDBRANCH   8   9
ENDBRANCH   7   8
ENDBRANCH   1   7
TORSDOF 7
ENDMDL
MODEL 5
REMARK VINA RESULT:    -3.725      1.308      1.735
REMARK INTER + INTRA:          -5.915
REMARK INTER:                  -5.029
REMARK INTRA:                  -0.887
REMARK UNBOUND:                -0.666
REMARK SMILES CCCCCCCCC(=O)[O-]
REMARK SMILES IDX 6 1 7 2 8 3 9 4 10 5 11 6 5 7 4 8 3 9 2 10 1 11
REMARK H PARENT
REMARK Flexibility Score: inf
ROOT
ATOM      1  C   UNL     1     114.180 110.601 119.445  1.00  0.00     0.000 C 
ENDROOT
BRANCH   1   2
ATOM      2  C   UNL     1     112.872 111.214 119.968  1.00  0.00     0.006 C 
BRANCH   2   3
ATOM      3  C   UNL     1     113.029 112.696 120.333  1.00  0.00     0.053 C 
BRANCH   3   4
ATOM      4  C   UNL     1     112.428 113.005 121.671  1.00  0.00     0.041 C 
ATOM      5  O   UNL     1     112.143 112.074 122.468  1.00  0.00    -0.550 OA
ATOM      6  O   UNL     1     112.214 114.325 122.049  1.00  0.00    -0.550 OA
ENDBRANCH   3   4
ENDBRANCH   2   3
ENDBRANCH   1   2
BRANCH   1   7
ATOM      7  C   UNL     1     114.454 109.245 120.105  1.00  0.00     0.000 C 
BRANCH   7   8
ATOM      8  C   UNL     1     114.432 109.362 121.635  1.00  0.00    -0.000 C 
BRANCH   8   9
ATOM      9  C   UNL     1     115.762 109.925 122.161  1.00  0.00    -0.000 C 
BRANCH   9  10
ATOM     10  C   UNL     1     115.584 111.252 122.914  1.00  0.00    -0.003 C 
ATOM     11  C   UNL     1     116.215 112.437 122.184  1.00  0.00     0.004 C 
ENDBRANCH   9  10
ENDBRANCH   8   9
ENDBRANCH   7   8
ENDBRANCH   1   7
TORSDOF 7
ENDMDL
MODEL 6
REMARK VINA RESULT:    -3.524      2.565      4.818
REMARK INTER + INTRA:          -5.632
REMARK INTER:                  -5.136
REMARK INTRA:                  -0.496
REMARK UNBOUND:                -0.666
REMARK SMILES CCCCCCCCC(=O)[O-]
REMARK SMILES IDX 6 1 7 2 8 3 9 4 10 5 11 6 5 7 4 8 3 9 2 10 1 11
REMARK H PARENT
REMARK Flexibility Score: inf
ROOT
ATOM      1  C   UNL     1     111.989 110.061 121.899  1.00  0.00     0.000 C 
ENDROOT
BRANCH   1   2
ATOM      2  C   UNL     1     113.200 109.996 120.956  1.00  0.00     0.006 C 
BRANCH   2   3
ATOM      3  C   UNL     1     114.389 109.260 121.587  1.00  0.00     0.053 C 
BRANCH   3   4
ATOM      4  C   UNL     1     115.436 110.212 122.079  1.00  0.00     0.041 C 
ATOM      5  O   UNL     1     116.467 109.778 122.656  1.00  0.00    -0.550 OA
ATOM      6  O   UNL     1     115.287 111.578 121.871  1.00  0.00    -0.550 OA
ENDBRANCH   3   4
ENDBRANCH   2   3
ENDBRANCH   1   2
BRANCH   1   7
ATOM      7  C   UNL     1     111.821 111.468 122.483  1.00  0.00     0.000 C 
BRANCH   7   8
ATOM      8  C   UNL     1     111.934 112.536 121.388  1.00  0.00    -0.000 C 
BRANCH   8   9
ATOM      9  C   UNL     1     110.572 112.788 120.723  1.00  0.00    -0.000 C 
BRANCH   9  10
ATOM     10  C   UNL     1     110.490 112.199 119.307  1.00  0.00    -0.003 C 
ATOM     11  C   UNL     1     109.222 112.618 118.564  1.00  0.00     0.004 C 
ENDBRANCH   9  10
ENDBRANCH   8   9
ENDBRANCH   7   8
ENDBRANCH   1   7
TORSDOF 7
ENDMDL
MODEL 7
REMARK VINA RESULT:    -3.476      2.247      3.543
REMARK INTER + INTRA:          -5.565
REMARK INTER:                  -5.063
REMARK INTRA:                  -0.501
REMARK UNBOUND:                -0.666
REMARK SMILES CCCCCCCCC(=O)[O-]
REMARK SMILES IDX 6 1 7 2 8 3 9 4 10 5 11 6 5 7 4 8 3 9 2 10 1 11
REMARK H PARENT
REMARK Flexibility Score: inf
ROOT
ATOM      1  C   UNL     1     111.131 112.500 121.597  1.00  0.00     0.000 C 
ENDROOT
BRANCH   1   2
ATOM      2  C   UNL     1     111.307 112.266 120.089  1.00  0.00     0.006 C 
BRANCH   2   3
ATOM      3  C   UNL     1     110.028 112.577 119.300  1.00  0.00     0.053 C 
BRANCH   3   4
ATOM      4  C   UNL     1     109.232 111.338 119.021  1.00  0.00     0.041 C 
ATOM      5  O   UNL     1     108.005 111.420 118.752  1.00  0.00    -0.550 OA
ATOM      6  O   UNL     1     109.854 110.095 119.027  1.00  0.00    -0.550 OA
ENDBRANCH   3   4
ENDBRANCH   2   3
ENDBRANCH   1   2
BRANCH   1   7
ATOM      7  C   UNL     1     112.035 111.564 122.407  1.00  0.00     0.000 C 
BRANCH   7   8
ATOM      8  C   UNL     1     112.069 110.160 121.791  1.00  0.00    -0.000 C 
BRANCH   8   9
ATOM      9  C   UNL     1     113.513 109.656 121.650  1.00  0.00    -0.000 C 
BRANCH   9  10
ATOM     10  C   UNL     1     114.550 110.727 122.023  1.00  0.00    -0.003 C 
ATOM     11  C   UNL     1     115.913 110.133 122.379  1.00  0.00     0.004 C 
ENDBRANCH   9  10
ENDBRANCH   8   9
ENDBRANCH   7   8
ENDBRANCH   1   7
TORSDOF 7
ENDMDL
MODEL 8
REMARK VINA RESULT:    -3.380     10.011     11.878
REMARK INTER + INTRA:          -5.430
REMARK INTER:                  -5.150
REMARK INTRA:                  -0.279
REMARK UNBOUND:                -0.666
REMARK SMILES CCCCCCCCC(=O)[O-]
REMARK SMILES IDX 6 1 7 2 8 3 9 4 10 5 11 6 5 7 4 8 3 9 2 10 1 11
REMARK H PARENT
REMARK Flexibility Score: inf
ROOT
ATOM      1  C   UNL     1     103.145 109.645 116.775  1.00  0.00     0.000 C 
ENDROOT
BRANCH   1   2
ATOM      2  C   UNL     1     101.824 110.364 116.459  1.00  0.00     0.006 C 
BRANCH   2   3
ATOM      3  C   UNL     1     101.824 110.989 115.057  1.00  0.00     0.053 C 
BRANCH   3   4
ATOM      4  C   UNL     1     101.838 112.486 115.116  1.00  0.00     0.041 C 
ATOM      5  O   UNL     1     102.875 113.097 115.484  1.00  0.00    -0.550 OA
ATOM      6  O   UNL     1     100.714 113.208 114.733  1.00  0.00    -0.550 OA
ENDBRANCH   3   4
ENDBRANCH   2   3
ENDBRANCH   1   2
BRANCH   1   7
ATOM      7  C   UNL     1     102.954 108.125 116.784  1.00  0.00     0.000 C 
BRANCH   7   8
ATOM      8  C   UNL     1     104.306 107.400 116.782  1.00  0.00    -0.000 C 
BRANCH   8   9
ATOM      9  C   UNL     1     105.311 108.110 117.702  1.00  0.00    -0.000 C 
BRANCH   9  10
ATOM     10  C   UNL     1     105.604 107.313 118.982  1.00  0.00    -0.003 C 
ATOM     11  C   UNL     1     106.638 107.992 119.879  1.00  0.00     0.004 C 
ENDBRANCH   9  10
ENDBRANCH   8   9
ENDBRANCH   7   8
ENDBRANCH   1   7
TORSDOF 7
ENDMDL
MODEL 9
REMARK VINA RESULT:    -3.368      1.394      2.830
REMARK INTER + INTRA:          -5.412
REMARK INTER:                  -4.785
REMARK INTRA:                  -0.627
REMARK UNBOUND:                -0.666
REMARK SMILES CCCCCCCCC(=O)[O-]
REMARK SMILES IDX 6 1 7 2 8 3 9 4 10 5 11 6 5 7 4 8 3 9 2 10 1 11
REMARK H PARENT
REMARK Flexibility Score: inf
ROOT
ATOM      1  C   UNL     1     115.163 112.620 121.474  1.00  0.00     0.000 C 
ENDROOT
BRANCH   1   2
ATOM      2  C   UNL     1     113.834 112.979 120.793  1.00  0.00     0.006 C 
BRANCH   2   3
ATOM      3  C   UNL     1     112.751 113.374 121.805  1.00  0.00     0.053 C 
BRANCH   3   4
ATOM      4  C   UNL     1     111.586 112.432 121.769  1.00  0.00     0.041 C 
ATOM      5  O   UNL     1     110.710 112.541 120.872  1.00  0.00    -0.550 OA
ATOM      6  O   UNL     1     111.487 111.412 122.707  1.00  0.00    -0.550 OA
ENDBRANCH   3   4
ENDBRANCH   2   3
ENDBRANCH   1   2
BRANCH   1   7
ATOM      7  C   UNL     1     114.965 111.515 122.518  1.00  0.00     0.000 C 
BRANCH   7   8
ATOM      8  C   UNL     1     115.415 110.154 121.973  1.00  0.00    -0.000 C 
BRANCH   8   9
ATOM      9  C   UNL     1     114.254 109.433 121.270  1.00  0.00    -0.000 C 
BRANCH   9  10
ATOM     10  C   UNL     1     114.511 109.229 119.769  1.00  0.00    -0.003 C 
ATOM     11  C   UNL     1     113.490 109.952 118.890  1.00  0.00     0.004 C 
ENDBRANCH   9  10
ENDBRANCH   8   9
ENDBRANCH   7   8
ENDBRANCH   1   7
TORSDOF 7
ENDMDL
