MODEL 1
REMARK VINA RESULT:    -4.679      0.000      0.000
REMARK INTER + INTRA:          -4.864
REMARK INTER:                  -4.952
REMARK INTRA:                   0.088
REMARK UNBOUND:                 0.088
REMARK SMILES C=C(C)[C@H]1CC=C(C)C(=O)C1
REMARK SMILES IDX 8 1 7 2 6 3 5 4 4 5 11 6 9 7 10 8 2 9 1 10 3 11
REMARK H PARENT
REMARK Flexibility Score: inf
ROOT
ATOM      1  C   UNL     1       5.042  -1.560   1.844  1.00  0.00     0.048 C 
ATOM      2  C   UNL     1       5.444  -1.606   0.395  1.00  0.00    -0.012 C 
ATOM      3  C   UNL     1       4.869  -0.767  -0.481  1.00  0.00    -0.019 C 
ATOM      4  C   UNL     1       5.245  -0.737  -1.937  1.00  0.00     0.036 C 
ATOM      5  C   UNL     1       5.736  -2.098  -2.476  1.00  0.00     0.025 C 
ATOM      6  C   UNL     1       6.761  -2.753  -1.528  1.00  0.00     0.089 C 
ATOM      7  C   UNL     1       6.353  -2.673  -0.084  1.00  0.00     0.158 C 
ATOM      8  O   UNL     1       6.827  -3.510   0.731  1.00  0.00    -0.295 OA
ENDROOT
BRANCH   5   9
ATOM      9  C   UNL     1       4.589  -3.034  -2.859  1.00  0.00    -0.077 C 
ATOM     10  C   UNL     1       4.071  -3.925  -1.997  1.00  0.00     0.008 C 
ATOM     11  C   UNL     1       4.004  -2.973  -4.248  1.00  0.00     0.039 C 
ENDBRANCH   5   9
TORSDOF 1
ENDMDL
MODEL 2
REMARK VINA RESULT:    -4.598      1.401      3.154
REMARK INTER + INTRA:          -4.779
REMARK INTER:                  -4.558
REMARK INTRA:                  -0.221
REMARK UNBOUND:                 0.088
REMARK SMILES C=C(C)[C@H]1CC=C(C)C(=O)C1
REMARK SMILES IDX 8 1 7 2 6 3 5 4 4 5 11 6 9 7 10 8 2 9 1 10 3 11
REMARK H PARENT
REMARK Flexibility Score: inf
ROOT
ATOM      1  C   UNL     1       9.349  -2.542  -1.544  1.00  0.00     0.048 C 
ATOM      2  C   UNL     1       7.849  -2.575  -1.634  1.00  0.00    -0.012 C 
ATOM      3  C   UNL     1       7.227  -1.905  -2.617  1.00  0.00    -0.019 C 
ATOM      4  C   UNL     1       5.732  -1.920  -2.786  1.00  0.00     0.036 C 
ATOM      5  C   UNL     1       4.963  -2.110  -1.461  1.00  0.00     0.025 C 
ATOM      6  C   UNL     1       5.558  -3.253  -0.613  1.00  0.00     0.089 C 
ATOM      7  C   UNL     1       7.060  -3.216  -0.557  1.00  0.00     0.158 C 
ATOM      8  O   UNL     1       7.648  -3.775   0.408  1.00  0.00    -0.295 OA
ENDROOT
BRANCH   5   9
ATOM      9  C   UNL     1       4.795  -0.807  -0.678  1.00  0.00    -0.077 C 
ATOM     10  C   UNL     1       4.722  -0.780   0.663  1.00  0.00     0.008 C 
ATOM     11  C   UNL     1       4.706   0.505  -1.417  1.00  0.00     0.039 C 
ENDBRANCH   5   9
TORSDOF 1
ENDMDL
MODEL 3
REMARK VINA RESULT:    -4.558     14.597     15.734
REMARK INTER + INTRA:          -4.736
REMARK INTER:                  -4.540
REMARK INTRA:                  -0.196
REMARK UNBOUND:                 0.088
REMARK SMILES C=C(C)[C@H]1CC=C(C)C(=O)C1
REMARK SMILES IDX 8 1 7 2 6 3 5 4 4 5 11 6 9 7 10 8 2 9 1 10 3 11
REMARK H PARENT
REMARK Flexibility Score: inf
ROOT
ATOM      1  C   UNL     1      -8.251   7.433  -2.052  1.00  0.00     0.048 C 
ATOM      2  C   UNL     1      -8.182   6.771  -0.703  1.00  0.00    -0.012 C 
ATOM      3  C   UNL     1      -7.224   7.130   0.165  1.00  0.00    -0.019 C 
ATOM      4  C   UNL     1      -7.115   6.533   1.542  1.00  0.00     0.036 C 
ATOM      5  C   UNL     1      -7.645   5.087   1.630  1.00  0.00     0.025 C 
ATOM      6  C   UNL     1      -9.014   4.935   0.936  1.00  0.00     0.089 C 
ATOM      7  C   UNL     1      -9.070   5.625  -0.398  1.00  0.00     0.158 C 
ATOM      8  O   UNL     1      -9.915   5.239  -1.250  1.00  0.00    -0.295 OA
ENDROOT
BRANCH   5   9
ATOM      9  C   UNL     1      -6.621   4.048   1.171  1.00  0.00    -0.077 C 
ATOM     10  C   UNL     1      -5.304   4.312   1.124  1.00  0.00     0.008 C 
ATOM     11  C   UNL     1      -7.082   2.675   0.751  1.00  0.00     0.039 C 
ENDBRANCH   5   9
TORSDOF 1
ENDMDL
MODEL 4
REMARK VINA RESULT:    -4.495      1.976      4.068
REMARK INTER + INTRA:          -4.669
REMARK INTER:                  -4.916
REMARK INTRA:                   0.247
REMARK UNBOUND:                 0.088
REMARK SMILES C=C(C)[C@H]1CC=C(C)C(=O)C1
REMARK SMILES IDX 8 1 7 2 6 3 5 4 4 5 11 6 9 7 10 8 2 9 1 10 3 11
REMARK H PARENT
REMARK Flexibility Score: inf
ROOT
ATOM      1  C   UNL     1       6.766  -3.538  -4.087  1.00  0.00     0.048 C 
ATOM      2  C   UNL     1       6.523  -2.481  -3.046  1.00  0.00    -0.012 C 
ATOM      3  C   UNL     1       7.512  -2.133  -2.208  1.00  0.00    -0.019 C 
ATOM      4  C   UNL     1       7.349  -1.061  -1.165  1.00  0.00     0.036 C 
ATOM      5  C   UNL     1       5.901  -0.917  -0.650  1.00  0.00     0.025 C 
ATOM      6  C   UNL     1       4.882  -0.892  -1.808  1.00  0.00     0.089 C 
ATOM      7  C   UNL     1       5.158  -1.940  -2.849  1.00  0.00     0.158 C 
ATOM      8  O   UNL     1       4.213  -2.330  -3.586  1.00  0.00    -0.295 OA
ENDROOT
BRANCH   5   9
ATOM      9  C   UNL     1       5.552  -1.936   0.436  1.00  0.00    -0.077 C 
ATOM     10  C   UNL     1       5.597  -3.261   0.218  1.00  0.00     0.008 C 
ATOM     11  C   UNL     1       5.140  -1.459   1.806  1.00  0.00     0.039 C 
ENDBRANCH   5   9
TORSDOF 1
ENDMDL
MODEL 5
REMARK VINA RESULT:    -4.470      1.995      3.920
REMARK INTER + INTRA:          -4.643
REMARK INTER:                  -4.543
REMARK INTRA:                  -0.099
REMARK UNBOUND:                 0.088
REMARK SMILES C=C(C)[C@H]1CC=C(C)C(=O)C1
REMARK SMILES IDX 8 1 7 2 6 3 5 4 4 5 11 6 9 7 10 8 2 9 1 10 3 11
REMARK H PARENT
REMARK Flexibility Score: inf
ROOT
ATOM      1  C   UNL     1       5.359  -4.374  -3.907  1.00  0.00     0.048 C 
ATOM      2  C   UNL     1       6.016  -3.626  -2.780  1.00  0.00    -0.012 C 
ATOM      3  C   UNL     1       5.875  -4.064  -1.520  1.00  0.00    -0.019 C 
ATOM      4  C   UNL     1       6.531  -3.385  -0.349  1.00  0.00     0.036 C 
ATOM      5  C   UNL     1       6.740  -1.869  -0.553  1.00  0.00     0.025 C 
ATOM      6  C   UNL     1       7.340  -1.555  -1.938  1.00  0.00     0.089 C 
ATOM      7  C   UNL     1       6.686  -2.331  -3.046  1.00  0.00     0.158 C 
ATOM      8  O   UNL     1       6.745  -1.882  -4.223  1.00  0.00    -0.295 OA
ENDROOT
BRANCH   5   9
ATOM      9  C   UNL     1       5.486  -1.049  -0.242  1.00  0.00    -0.077 C 
ATOM     10  C   UNL     1       4.874  -1.101   0.954  1.00  0.00     0.008 C 
ATOM     11  C   UNL     1       4.900  -0.146  -1.297  1.00  0.00     0.039 C 
ENDBRANCH   5   9
TORSDOF 1
ENDMDL
MODEL 6
REMARK VINA RESULT:    -4.458      2.142      3.190
REMARK INTER + INTRA:          -4.630
REMARK INTER:                  -4.564
REMARK INTRA:                  -0.067
REMARK UNBOUND:                 0.088
REMARK SMILES C=C(C)[C@H]1CC=C(C)C(=O)C1
REMARK SMILES IDX 8 1 7 2 6 3 5 4 4 5 11 6 9 7 10 8 2 9 1 10 3 11
REMARK H PARENT
REMARK Flexibility Score: inf
ROOT
ATOM      1  C   UNL     1       9.202  -1.504  -1.773  1.00  0.00     0.048 C 
ATOM      2  C   UNL     1       7.702  -1.493  -1.875  1.00  0.00    -0.012 C 
ATOM      3  C   UNL     1       6.963  -1.256  -0.781  1.00  0.00    -0.019 C 
ATOM      4  C   UNL     1       5.460  -1.198  -0.817  1.00  0.00     0.036 C 
ATOM      5  C   UNL     1       4.835  -2.083  -1.916  1.00  0.00     0.025 C 
ATOM      6  C   UNL     1       5.549  -1.904  -3.271  1.00  0.00     0.089 C 
ATOM      7  C   UNL     1       7.047  -1.892  -3.143  1.00  0.00     0.158 C 
ATOM      8  O   UNL     1       7.747  -2.194  -4.146  1.00  0.00    -0.295 OA
ENDROOT
BRANCH   5   9
ATOM      9  C   UNL     1       4.703  -3.548  -1.496  1.00  0.00    -0.077 C 
ATOM     10  C   UNL     1       4.168  -4.480  -2.303  1.00  0.00     0.008 C 
ATOM     11  C   UNL     1       5.182  -3.984  -0.134  1.00  0.00     0.039 C 
ENDBRANCH   5   9
TORSDOF 1
ENDMDL
MODEL 7
REMARK VINA RESULT:    -4.411      2.057      3.602
REMARK INTER + INTRA:          -4.580
REMARK INTER:                  -4.365
REMARK INTRA:                  -0.215
REMARK UNBOUND:                 0.088
REMARK SMILES C=C(C)[C@H]1CC=C(C)C(=O)C1
REMARK SMILES IDX 8 1 7 2 6 3 5 4 4 5 11 6 9 7 10 8 2 9 1 10 3 11
REMARK H PARENT
REMARK Flexibility Score: inf
ROOT
ATOM      1  C   UNL     1       5.062  -1.486   1.712  1.00  0.00     0.048 C 
ATOM      2  C   UNL     1       5.624  -2.049   0.436  1.00  0.00    -0.012 C 
ATOM      3  C   UNL     1       6.180  -3.270   0.437  1.00  0.00    -0.019 C 
ATOM      4  C   UNL     1       6.732  -3.908  -0.809  1.00  0.00     0.036 C 
ATOM      5  C   UNL     1       7.260  -2.890  -1.841  1.00  0.00     0.025 C 
ATOM      6  C   UNL     1       6.267  -1.730  -2.060  1.00  0.00     0.089 C 
ATOM      7  C   UNL     1       5.699  -1.198  -0.775  1.00  0.00     0.158 C 
ATOM      8  O   UNL     1       5.248  -0.022  -0.748  1.00  0.00    -0.295 OA
ENDROOT
BRANCH   5   9
ATOM      9  C   UNL     1       8.681  -2.414  -1.535  1.00  0.00    -0.077 C 
ATOM     10  C   UNL     1       9.097  -1.167  -1.817  1.00  0.00     0.008 C 
ATOM     11  C   UNL     1       9.666  -3.359  -0.894  1.00  0.00     0.039 C 
ENDBRANCH   5   9
TORSDOF 1
ENDMDL
MODEL 8
REMARK VINA RESULT:    -4.386      1.496      3.148
REMARK INTER + INTRA:          -4.554
REMARK INTER:                  -4.727
REMARK INTRA:                   0.173
REMARK UNBOUND:                 0.088
REMARK SMILES C=C(C)[C@H]1CC=C(C)C(=O)C1
REMARK SMILES IDX 8 1 7 2 6 3 5 4 4 5 11 6 9 7 10 8 2 9 1 10 3 11
REMARK H PARENT
REMARK Flexibility Score: inf
ROOT
ATOM      1  C   UNL     1       3.571  -4.175  -2.271  1.00  0.00     0.048 C 
ATOM      2  C   UNL     1       4.404  -3.046  -1.732  1.00  0.00    -0.012 C 
ATOM      3  C   UNL     1       4.452  -1.880  -2.395  1.00  0.00    -0.019 C 
ATOM      4  C   UNL     1       5.237  -0.698  -1.897  1.00  0.00     0.036 C 
ATOM      5  C   UNL     1       6.473  -1.087  -1.058  1.00  0.00     0.025 C 
ATOM      6  C   UNL     1       6.135  -2.164  -0.007  1.00  0.00     0.089 C 
ATOM      7  C   UNL     1       5.282  -3.271  -0.560  1.00  0.00     0.158 C 
ATOM      8  O   UNL     1       5.294  -4.394   0.012  1.00  0.00    -0.295 OA
ENDROOT
BRANCH   5   9
ATOM      9  C   UNL     1       7.686  -1.448  -1.918  1.00  0.00    -0.077 C 
ATOM     10  C   UNL     1       8.945  -1.181  -1.530  1.00  0.00     0.008 C 
ATOM     11  C   UNL     1       7.486  -2.126  -3.250  1.00  0.00     0.039 C 
ENDBRANCH   5   9
TORSDOF 1
ENDMDL
MODEL 9
REMARK VINA RESULT:    -4.363      1.959      3.361
REMARK INTER + INTRA:          -4.530
REMARK INTER:                  -4.319
REMARK INTRA:                  -0.211
REMARK UNBOUND:                 0.088
REMARK SMILES C=C(C)[C@H]1CC=C(C)C(=O)C1
REMARK SMILES IDX 8 1 7 2 6 3 5 4 4 5 11 6 9 7 10 8 2 9 1 10 3 11
REMARK H PARENT
REMARK Flexibility Score: inf
ROOT
ATOM      1  C   UNL     1       4.898   0.167  -1.138  1.00  0.00     0.048 C 
ATOM      2  C   UNL     1       5.049  -1.290  -0.797  1.00  0.00    -0.012 C 
ATOM      3  C   UNL     1       5.561  -1.645   0.391  1.00  0.00    -0.019 C 
ATOM      4  C   UNL     1       5.711  -3.082   0.811  1.00  0.00     0.036 C 
ATOM      5  C   UNL     1       5.926  -4.050  -0.371  1.00  0.00     0.025 C 
ATOM      6  C   UNL     1       4.930  -3.783  -1.518  1.00  0.00     0.089 C 
ATOM      7  C   UNL     1       4.775  -2.320  -1.826  1.00  0.00     0.158 C 
ATOM      8  O   UNL     1       4.370  -1.977  -2.969  1.00  0.00    -0.295 OA
ENDROOT
BRANCH   5   9
ATOM      9  C   UNL     1       7.381  -4.104  -0.839  1.00  0.00    -0.077 C 
ATOM     10  C   UNL     1       8.414  -4.008   0.016  1.00  0.00     0.008 C 
ATOM     11  C   UNL     1       7.691  -4.271  -2.306  1.00  0.00     0.039 C 
ENDBRANCH   5   9
TORSDOF 1
ENDMDL
