MODEL 1
REMARK VINA RESULT:    -4.450      0.000      0.000
REMARK INTER + INTRA:          -5.763
REMARK INTER:                  -5.490
REMARK INTRA:                  -0.273
REMARK UNBOUND:                -0.273
REMARK SMILES CCCCC=CC(C)=O
REMARK SMILES IDX 4 1 3 2 2 3 1 4 5 5 6 6 7 7 9 8 8 9
REMARK H PARENT
REMARK Flexibility Score: inf
ROOT
ATOM      1  C   UNL     1      88.202  38.599  27.027  1.00  0.00     0.027 C 
ENDROOT
BRANCH   1   2
ATOM      2  C   UNL     1      89.683  38.257  27.227  1.00  0.00     0.004 C 
BRANCH   2   3
ATOM      3  C   UNL     1      90.579  39.431  26.814  1.00  0.00    -0.003 C 
ATOM      4  C   UNL     1      89.762  40.548  26.172  1.00  0.00     0.004 C 
ENDBRANCH   2   3
ENDBRANCH   1   2
BRANCH   1   5
ATOM      5  C   UNL     1      87.497  37.525  26.249  1.00  0.00    -0.023 C 
ATOM      6  C   UNL     1      87.786  37.291  24.963  1.00  0.00     0.042 C 
BRANCH   6   7
ATOM      7  C   UNL     1      87.128  36.240  24.161  1.00  0.00     0.152 C 
ATOM      8  O   UNL     1      87.848  35.450  23.494  1.00  0.00    -0.295 OA
ATOM      9  C   UNL     1      85.638  36.079  24.114  1.00  0.00     0.093 C 
ENDBRANCH   6   7
ENDBRANCH   1   5
TORSDOF 4
ENDMDL
MODEL 2
REMARK VINA RESULT:    -4.448      2.209      4.976
REMARK INTER + INTRA:          -5.761
REMARK INTER:                  -5.595
REMARK INTRA:                  -0.166
REMARK UNBOUND:                -0.273
REMARK SMILES CCCCC=CC(C)=O
REMARK SMILES IDX 4 1 3 2 2 3 1 4 5 5 6 6 7 7 9 8 8 9
REMARK H PARENT
REMARK Flexibility Score: inf
ROOT
ATOM      1  C   UNL     1      86.555  36.730  25.658  1.00  0.00     0.027 C 
ENDROOT
BRANCH   1   2
ATOM      2  C   UNL     1      86.253  36.064  24.311  1.00  0.00     0.004 C 
BRANCH   2   3
ATOM      3  C   UNL     1      87.539  35.561  23.646  1.00  0.00    -0.003 C 
ATOM      4  C   UNL     1      87.304  34.243  22.916  1.00  0.00     0.004 C 
ENDBRANCH   2   3
ENDBRANCH   1   2
BRANCH   1   5
ATOM      5  C   UNL     1      87.744  37.642  25.560  1.00  0.00    -0.023 C 
ATOM      6  C   UNL     1      88.183  38.334  26.619  1.00  0.00     0.042 C 
BRANCH   6   7
ATOM      7  C   UNL     1      89.353  39.232  26.573  1.00  0.00     0.152 C 
ATOM      8  O   UNL     1      89.223  40.365  26.035  1.00  0.00    -0.295 OA
ATOM      9  C   UNL     1      90.686  38.848  27.140  1.00  0.00     0.093 C 
ENDBRANCH   6   7
ENDBRANCH   1   5
TORSDOF 4
ENDMDL
MODEL 3
REMARK VINA RESULT:    -4.411      3.135      4.807
REMARK INTER + INTRA:          -5.716
REMARK INTER:                  -5.524
REMARK INTRA:                  -0.192
REMARK UNBOUND:                -0.273
REMARK SMILES CCCCC=CC(C)=O
REMARK SMILES IDX 4 1 3 2 2 3 1 4 5 5 6 6 7 7 9 8 8 9
REMARK H PARENT
REMARK Flexibility Score: inf
ROOT
ATOM      1  C   UNL     1      86.515  36.863  27.691  1.00  0.00     0.027 C 
ENDROOT
BRANCH   1   2
ATOM      2  C   UNL     1      85.767  36.866  29.029  1.00  0.00     0.004 C 
BRANCH   2   3
ATOM      3  C   UNL     1      85.857  38.240  29.705  1.00  0.00    -0.003 C 
ATOM      4  C   UNL     1      84.522  38.636  30.327  1.00  0.00     0.004 C 
ENDBRANCH   2   3
ENDBRANCH   1   2
BRANCH   1   5
ATOM      5  C   UNL     1      87.666  37.829  27.709  1.00  0.00    -0.023 C 
ATOM      6  C   UNL     1      88.194  38.305  26.575  1.00  0.00     0.042 C 
BRANCH   6   7
ATOM      7  C   UNL     1      89.316  39.264  26.543  1.00  0.00     0.152 C 
ATOM      8  O   UNL     1      89.109  40.420  26.087  1.00  0.00    -0.295 OA
ATOM      9  C   UNL     1      90.689  38.913  27.033  1.00  0.00     0.093 C 
ENDBRANCH   6   7
ENDBRANCH   1   5
TORSDOF 4
ENDMDL
MODEL 4
REMARK VINA RESULT:    -4.390      2.931      3.692
REMARK INTER + INTRA:          -5.689
REMARK INTER:                  -5.473
REMARK INTRA:                  -0.216
REMARK UNBOUND:                -0.273
REMARK SMILES CCCCC=CC(C)=O
REMARK SMILES IDX 4 1 3 2 2 3 1 4 5 5 6 6 7 7 9 8 8 9
REMARK H PARENT
REMARK Flexibility Score: inf
ROOT
ATOM      1  C   UNL     1      88.330  38.191  26.470  1.00  0.00     0.027 C 
ENDROOT
BRANCH   1   2
ATOM      2  C   UNL     1      89.623  38.296  27.287  1.00  0.00     0.004 C 
BRANCH   2   3
ATOM      3  C   UNL     1      90.493  39.457  26.791  1.00  0.00    -0.003 C 
ATOM      4  C   UNL     1      89.645  40.537  26.128  1.00  0.00     0.004 C 
ENDBRANCH   2   3
ENDBRANCH   1   2
BRANCH   1   5
ATOM      5  C   UNL     1      87.247  37.503  27.252  1.00  0.00    -0.023 C 
ATOM      6  C   UNL     1      86.988  37.832  28.523  1.00  0.00     0.042 C 
BRANCH   6   7
ATOM      7  C   UNL     1      85.927  37.193  29.327  1.00  0.00     0.152 C 
ATOM      8  O   UNL     1      85.891  35.934  29.385  1.00  0.00    -0.295 OA
ATOM      9  C   UNL     1      84.895  37.983  30.073  1.00  0.00     0.093 C 
ENDBRANCH   6   7
ENDBRANCH   1   5
TORSDOF 4
ENDMDL
MODEL 5
REMARK VINA RESULT:    -4.382      3.250      4.962
REMARK INTER + INTRA:          -5.679
REMARK INTER:                  -5.541
REMARK INTRA:                  -0.139
REMARK UNBOUND:                -0.273
REMARK SMILES CCCCC=CC(C)=O
REMARK SMILES IDX 4 1 3 2 2 3 1 4 5 5 6 6 7 7 9 8 8 9
REMARK H PARENT
REMARK Flexibility Score: inf
ROOT
ATOM      1  C   UNL     1      86.505  37.104  27.931  1.00  0.00     0.027 C 
ENDROOT
BRANCH   1   2
ATOM      2  C   UNL     1      85.972  36.935  29.358  1.00  0.00     0.004 C 
BRANCH   2   3
ATOM      3  C   UNL     1      84.561  37.520  29.490  1.00  0.00    -0.003 C 
ATOM      4  C   UNL     1      84.519  38.625  30.541  1.00  0.00     0.004 C 
ENDBRANCH   2   3
ENDBRANCH   1   2
BRANCH   1   5
ATOM      5  C   UNL     1      87.758  37.934  27.914  1.00  0.00    -0.023 C 
ATOM      6  C   UNL     1      88.357  38.269  26.765  1.00  0.00     0.042 C 
BRANCH   6   7
ATOM      7  C   UNL     1      89.581  39.092  26.698  1.00  0.00     0.152 C 
ATOM      8  O   UNL     1      90.661  38.601  27.124  1.00  0.00    -0.295 OA
ATOM      9  C   UNL     1      89.586  40.485  26.145  1.00  0.00     0.093 C 
ENDBRANCH   6   7
ENDBRANCH   1   5
TORSDOF 4
ENDMDL
MODEL 6
REMARK VINA RESULT:    -4.253      2.761      4.869
REMARK INTER + INTRA:          -5.520
REMARK INTER:                  -5.277
REMARK INTRA:                  -0.244
REMARK UNBOUND:                -0.273
REMARK SMILES CCCCC=CC(C)=O
REMARK SMILES IDX 4 1 3 2 2 3 1 4 5 5 6 6 7 7 9 8 8 9
REMARK H PARENT
REMARK Flexibility Score: inf
ROOT
ATOM      1  C   UNL     1      86.510  36.833  26.794  1.00  0.00     0.027 C 
ENDROOT
BRANCH   1   2
ATOM      2  C   UNL     1      86.214  37.038  28.284  1.00  0.00     0.004 C 
BRANCH   2   3
ATOM      3  C   UNL     1      85.731  35.735  28.932  1.00  0.00    -0.003 C 
ATOM      4  C   UNL     1      86.072  34.528  28.065  1.00  0.00     0.004 C 
ENDBRANCH   2   3
ENDBRANCH   1   2
BRANCH   1   5
ATOM      5  C   UNL     1      87.650  37.700  26.342  1.00  0.00    -0.023 C 
ATOM      6  C   UNL     1      88.508  38.238  27.218  1.00  0.00     0.042 C 
BRANCH   6   7
ATOM      7  C   UNL     1      89.649  39.086  26.819  1.00  0.00     0.152 C 
ATOM      8  O   UNL     1      90.817  38.666  27.036  1.00  0.00    -0.295 OA
ATOM      9  C   UNL     1      89.468  40.424  26.167  1.00  0.00     0.093 C 
ENDBRANCH   6   7
ENDBRANCH   1   5
TORSDOF 4
ENDMDL
MODEL 7
REMARK VINA RESULT:    -4.152      3.083      4.962
REMARK INTER + INTRA:          -5.396
REMARK INTER:                  -5.241
REMARK INTRA:                  -0.154
REMARK UNBOUND:                -0.273
REMARK SMILES CCCCC=CC(C)=O
REMARK SMILES IDX 4 1 3 2 2 3 1 4 5 5 6 6 7 7 9 8 8 9
REMARK H PARENT
REMARK Flexibility Score: inf
ROOT
ATOM      1  C   UNL     1      86.493  36.847  26.922  1.00  0.00     0.027 C 
ENDROOT
BRANCH   1   2
ATOM      2  C   UNL     1      86.088  36.093  28.194  1.00  0.00     0.004 C 
BRANCH   2   3
ATOM      3  C   UNL     1      85.698  37.070  29.310  1.00  0.00    -0.003 C 
ATOM      4  C   UNL     1      84.679  36.445  30.258  1.00  0.00     0.004 C 
ENDBRANCH   2   3
ENDBRANCH   1   2
BRANCH   1   5
ATOM      5  C   UNL     1      87.557  37.867  27.209  1.00  0.00    -0.023 C 
ATOM      6  C   UNL     1      88.397  38.287  26.254  1.00  0.00     0.042 C 
BRANCH   6   7
ATOM      7  C   UNL     1      89.450  39.295  26.487  1.00  0.00     0.152 C 
ATOM      8  O   UNL     1      89.228  40.488  26.146  1.00  0.00    -0.295 OA
ATOM      9  C   UNL     1      90.768  38.953  27.112  1.00  0.00     0.093 C 
ENDBRANCH   6   7
ENDBRANCH   1   5
TORSDOF 4
ENDMDL
MODEL 8
REMARK VINA RESULT:    -4.014      1.650      1.906
REMARK INTER + INTRA:          -5.226
REMARK INTER:                  -5.014
REMARK INTRA:                  -0.212
REMARK UNBOUND:                -0.273
REMARK SMILES CCCCC=CC(C)=O
REMARK SMILES IDX 4 1 3 2 2 3 1 4 5 5 6 6 7 7 9 8 8 9
REMARK H PARENT
REMARK Flexibility Score: inf
ROOT
ATOM      1  C   UNL     1      88.341  38.357  27.363  1.00  0.00     0.027 C 
ENDROOT
BRANCH   1   2
ATOM      2  C   UNL     1      88.526  39.401  26.256  1.00  0.00     0.004 C 
BRANCH   2   3
ATOM      3  C   UNL     1      89.914  40.047  26.335  1.00  0.00    -0.003 C 
ATOM      4  C   UNL     1      90.895  39.154  27.089  1.00  0.00     0.004 C 
ENDBRANCH   2   3
ENDBRANCH   1   2
BRANCH   1   5
ATOM      5  C   UNL     1      87.207  37.425  27.048  1.00  0.00    -0.023 C 
ATOM      6  C   UNL     1      86.867  37.141  25.785  1.00  0.00     0.042 C 
BRANCH   6   7
ATOM      7  C   UNL     1      85.768  36.222  25.427  1.00  0.00     0.152 C 
ATOM      8  O   UNL     1      84.650  36.713  25.115  1.00  0.00    -0.295 OA
ATOM      9  C   UNL     1      85.933  34.733  25.422  1.00  0.00     0.093 C 
ENDBRANCH   6   7
ENDBRANCH   1   5
TORSDOF 4
ENDMDL
MODEL 9
REMARK VINA RESULT:    -3.999      4.053      4.770
REMARK INTER + INTRA:          -5.207
REMARK INTER:                  -5.041
REMARK INTRA:                  -0.166
REMARK UNBOUND:                -0.273
REMARK SMILES CCCCC=CC(C)=O
REMARK SMILES IDX 4 1 3 2 2 3 1 4 5 5 6 6 7 7 9 8 8 9
REMARK H PARENT
REMARK Flexibility Score: inf
ROOT
ATOM      1  C   UNL     1      88.116  38.147  28.094  1.00  0.00     0.027 C 
ENDROOT
BRANCH   1   2
ATOM      2  C   UNL     1      88.027  38.288  26.570  1.00  0.00     0.004 C 
BRANCH   2   3
ATOM      3  C   UNL     1      88.721  39.570  26.096  1.00  0.00    -0.003 C 
ATOM      4  C   UNL     1      90.142  39.662  26.642  1.00  0.00     0.004 C 
ENDBRANCH   2   3
ENDBRANCH   1   2
BRANCH   1   5
ATOM      5  C   UNL     1      86.789  37.757  28.682  1.00  0.00    -0.023 C 
ATOM      6  C   UNL     1      86.196  38.505  29.621  1.00  0.00     0.042 C 
BRANCH   6   7
ATOM      7  C   UNL     1      84.889  38.168  30.219  1.00  0.00     0.152 C 
ATOM      8  O   UNL     1      84.401  38.948  31.080  1.00  0.00    -0.295 OA
ATOM      9  C   UNL     1      84.123  36.936  29.839  1.00  0.00     0.093 C 
ENDBRANCH   6   7
ENDBRANCH   1   5
TORSDOF 4
ENDMDL
