MODEL 1
REMARK VINA RESULT:    -2.567      0.000      0.000
REMARK INTER + INTRA:          -3.210
REMARK INTER:                  -3.167
REMARK INTRA:                  -0.042
REMARK UNBOUND:                -0.042
REMARK SMILES CCCCCC(=O)[O-]
REMARK SMILES IDX 4 1 5 2 6 3 7 4 8 5 3 6 2 7 1 8
REMARK H PARENT
REMARK Flexibility Score: inf
ROOT
ATOM      1  C   UNL     1     -16.893   4.122 -19.055  1.00  0.00     0.006 C 
ENDROOT
BRANCH   1   2
ATOM      2  C   UNL     1     -15.636   3.905 -19.909  1.00  0.00     0.053 C 
BRANCH   2   3
ATOM      3  C   UNL     1     -14.417   4.487 -19.263  1.00  0.00     0.041 C 
ATOM      4  O   UNL     1     -13.875   5.517 -19.745  1.00  0.00    -0.550 OA
ATOM      5  O   UNL     1     -13.895   3.910 -18.111  1.00  0.00    -0.550 OA
ENDBRANCH   2   3
ENDBRANCH   1   2
BRANCH   1   6
ATOM      6  C   UNL     1     -18.185   3.999 -19.882  1.00  0.00     0.000 C 
BRANCH   6   7
ATOM      7  C   UNL     1     -19.356   4.779 -19.263  1.00  0.00    -0.003 C 
ATOM      8  C   UNL     1     -20.584   3.904 -19.012  1.00  0.00     0.004 C 
ENDBRANCH   6   7
ENDBRANCH   1   6
TORSDOF 4
ENDMDL
MODEL 2
REMARK VINA RESULT:    -2.478      0.324      1.176
REMARK INTER + INTRA:          -3.100
REMARK INTER:                  -3.051
REMARK INTRA:                  -0.049
REMARK UNBOUND:                -0.042
REMARK SMILES CCCCCC(=O)[O-]
REMARK SMILES IDX 4 1 5 2 6 3 7 4 8 5 3 6 2 7 1 8
REMARK H PARENT
REMARK Flexibility Score: inf
ROOT
ATOM      1  C   UNL     1     -16.976   4.248 -19.068  1.00  0.00     0.006 C 
ENDROOT
BRANCH   1   2
ATOM      2  C   UNL     1     -15.633   4.092 -19.794  1.00  0.00     0.053 C 
BRANCH   2   3
ATOM      3  C   UNL     1     -14.488   4.576 -18.958  1.00  0.00     0.041 C 
ATOM      4  O   UNL     1     -14.060   3.875 -18.003  1.00  0.00    -0.550 OA
ATOM      5  O   UNL     1     -13.875   5.789 -19.250  1.00  0.00    -0.550 OA
ENDBRANCH   2   3
ENDBRANCH   1   2
BRANCH   1   6
ATOM      6  C   UNL     1     -18.174   4.079 -20.020  1.00  0.00     0.000 C 
BRANCH   6   7
ATOM      7  C   UNL     1     -19.438   4.786 -19.506  1.00  0.00    -0.003 C 
ATOM      8  C   UNL     1     -20.312   3.880 -18.639  1.00  0.00     0.004 C 
ENDBRANCH   6   7
ENDBRANCH   1   6
TORSDOF 4
ENDMDL
MODEL 3
REMARK VINA RESULT:    -2.051     22.565     23.872
REMARK INTER + INTRA:          -2.572
REMARK INTER:                  -2.523
REMARK INTRA:                  -0.050
REMARK UNBOUND:                -0.042
REMARK SMILES CCCCCC(=O)[O-]
REMARK SMILES IDX 4 1 5 2 6 3 7 4 8 5 3 6 2 7 1 8
REMARK H PARENT
REMARK Flexibility Score: inf
ROOT
ATOM      1  C   UNL     1     -31.281  20.682 -10.375  1.00  0.00     0.006 C 
ENDROOT
BRANCH   1   2
ATOM      2  C   UNL     1     -31.985  19.318 -10.412  1.00  0.00     0.053 C 
BRANCH   2   3
ATOM      3  C   UNL     1     -31.009  18.191 -10.552  1.00  0.00     0.041 C 
ATOM      4  O   UNL     1     -31.403  16.997 -10.465  1.00  0.00    -0.550 OA
ATOM      5  O   UNL     1     -29.670  18.456 -10.809  1.00  0.00    -0.550 OA
ENDBRANCH   2   3
ENDBRANCH   1   2
BRANCH   1   6
ATOM      6  C   UNL     1     -32.254  21.846 -10.624  1.00  0.00     0.000 C 
BRANCH   6   7
ATOM      7  C   UNL     1     -31.794  23.151  -9.956  1.00  0.00    -0.003 C 
ATOM      8  C   UNL     1     -32.946  24.124  -9.700  1.00  0.00     0.004 C 
ENDBRANCH   6   7
ENDBRANCH   1   6
TORSDOF 4
ENDMDL
MODEL 4
REMARK VINA RESULT:    -1.935      3.356      4.983
REMARK INTER + INTRA:          -2.430
REMARK INTER:                  -2.382
REMARK INTRA:                  -0.048
REMARK UNBOUND:                -0.042
REMARK SMILES CCCCCC(=O)[O-]
REMARK SMILES IDX 4 1 5 2 6 3 7 4 8 5 3 6 2 7 1 8
REMARK H PARENT
REMARK Flexibility Score: inf
ROOT
ATOM      1  C   UNL     1     -17.452   4.149 -18.982  1.00  0.00     0.006 C 
ENDROOT
BRANCH   1   2
ATOM      2  C   UNL     1     -18.682   3.875 -19.859  1.00  0.00     0.053 C 
BRANCH   2   3
ATOM      3  C   UNL     1     -19.893   4.603 -19.363  1.00  0.00     0.041 C 
ATOM      4  O   UNL     1     -19.958   5.858 -19.451  1.00  0.00    -0.550 OA
ATOM      5  O   UNL     1     -20.964   3.894 -18.832  1.00  0.00    -0.550 OA
ENDBRANCH   2   3
ENDBRANCH   1   2
BRANCH   1   6
ATOM      6  C   UNL     1     -16.134   3.944 -19.748  1.00  0.00     0.000 C 
BRANCH   6   7
ATOM      7  C   UNL     1     -14.898   4.190 -18.869  1.00  0.00    -0.003 C 
ATOM      8  C   UNL     1     -13.876   5.115 -19.530  1.00  0.00     0.004 C 
ENDBRANCH   6   7
ENDBRANCH   1   6
TORSDOF 4
ENDMDL
MODEL 5
REMARK VINA RESULT:    -1.923     20.713     22.046
REMARK INTER + INTRA:          -2.415
REMARK INTER:                  -2.315
REMARK INTRA:                  -0.100
REMARK UNBOUND:                -0.042
REMARK SMILES CCCCCC(=O)[O-]
REMARK SMILES IDX 4 1 5 2 6 3 7 4 8 5 3 6 2 7 1 8
REMARK H PARENT
REMARK Flexibility Score: inf
ROOT
ATOM      1  C   UNL     1     -31.492  18.394 -10.399  1.00  0.00     0.006 C 
ENDROOT
BRANCH   1   2
ATOM      2  C   UNL     1     -30.002  18.569 -10.725  1.00  0.00     0.053 C 
BRANCH   2   3
ATOM      3  C   UNL     1     -29.451  17.388 -11.463  1.00  0.00     0.041 C 
ATOM      4  O   UNL     1     -29.601  16.226 -11.002  1.00  0.00    -0.550 OA
ATOM      5  O   UNL     1     -28.798  17.568 -12.677  1.00  0.00    -0.550 OA
ENDBRANCH   2   3
ENDBRANCH   1   2
BRANCH   1   6
ATOM      6  C   UNL     1     -32.251  19.732 -10.411  1.00  0.00     0.000 C 
BRANCH   6   7
ATOM      7  C   UNL     1     -31.307  20.945 -10.403  1.00  0.00    -0.003 C 
ATOM      8  C   UNL     1     -32.054  22.278 -10.421  1.00  0.00     0.004 C 
ENDBRANCH   6   7
ENDBRANCH   1   6
TORSDOF 4
ENDMDL
MODEL 6
REMARK VINA RESULT:    -1.607     22.199     23.608
REMARK INTER + INTRA:          -2.025
REMARK INTER:                  -1.942
REMARK INTRA:                  -0.084
REMARK UNBOUND:                -0.042
REMARK SMILES CCCCCC(=O)[O-]
REMARK SMILES IDX 4 1 5 2 6 3 7 4 8 5 3 6 2 7 1 8
REMARK H PARENT
REMARK Flexibility Score: inf
ROOT
ATOM      1  C   UNL     1     -31.294  19.573 -10.357  1.00  0.00     0.006 C 
ENDROOT
BRANCH   1   2
ATOM      2  C   UNL     1     -32.413  20.622 -10.304  1.00  0.00     0.053 C 
BRANCH   2   3
ATOM      3  C   UNL     1     -31.873  22.017 -10.386  1.00  0.00     0.041 C 
ATOM      4  O   UNL     1     -30.649  22.210 -10.615  1.00  0.00    -0.550 OA
ATOM      5  O   UNL     1     -32.726  23.104 -10.240  1.00  0.00    -0.550 OA
ENDBRANCH   2   3
ENDBRANCH   1   2
BRANCH   1   6
ATOM      6  C   UNL     1     -31.844  18.136 -10.376  1.00  0.00     0.000 C 
BRANCH   6   7
ATOM      7  C   UNL     1     -30.754  17.091 -10.660  1.00  0.00    -0.003 C 
ATOM      8  C   UNL     1     -29.411  17.722 -11.029  1.00  0.00     0.004 C 
ENDBRANCH   6   7
ENDBRANCH   1   6
TORSDOF 4
ENDMDL
MODEL 7
REMARK VINA RESULT:    -1.479     22.276     23.684
REMARK INTER + INTRA:          -1.867
REMARK INTER:                  -1.787
REMARK INTRA:                  -0.081
REMARK UNBOUND:                -0.042
REMARK SMILES CCCCCC(=O)[O-]
REMARK SMILES IDX 4 1 5 2 6 3 7 4 8 5 3 6 2 7 1 8
REMARK H PARENT
REMARK Flexibility Score: inf
ROOT
ATOM      1  C   UNL     1     -31.351  19.660 -10.421  1.00  0.00     0.006 C 
ENDROOT
BRANCH   1   2
ATOM      2  C   UNL     1     -32.452  20.693 -10.143  1.00  0.00     0.053 C 
BRANCH   2   3
ATOM      3  C   UNL     1     -31.968  22.094 -10.356  1.00  0.00     0.041 C 
ATOM      4  O   UNL     1     -32.766  23.063 -10.252  1.00  0.00    -0.550 OA
ATOM      5  O   UNL     1     -30.629  22.333 -10.640  1.00  0.00    -0.550 OA
ENDBRANCH   2   3
ENDBRANCH   1   2
BRANCH   1   6
ATOM      6  C   UNL     1     -31.883  18.217 -10.373  1.00  0.00     0.000 C 
BRANCH   6   7
ATOM      7  C   UNL     1     -30.797  17.179 -10.698  1.00  0.00    -0.003 C 
ATOM      8  C   UNL     1     -29.420  17.808 -10.908  1.00  0.00     0.004 C 
ENDBRANCH   6   7
ENDBRANCH   1   6
TORSDOF 4
ENDMDL
MODEL 8
REMARK VINA RESULT:    -0.565     21.479     22.806
REMARK INTER + INTRA:          -0.739
REMARK INTER:                  -0.657
REMARK INTRA:                  -0.082
REMARK UNBOUND:                -0.042
REMARK SMILES CCCCCC(=O)[O-]
REMARK SMILES IDX 4 1 5 2 6 3 7 4 8 5 3 6 2 7 1 8
REMARK H PARENT
REMARK Flexibility Score: inf
ROOT
ATOM      1  C   UNL     1     -30.479  19.052 -10.630  1.00  0.00     0.006 C 
ENDROOT
BRANCH   1   2
ATOM      2  C   UNL     1     -30.340  20.580 -10.585  1.00  0.00     0.053 C 
BRANCH   2   3
ATOM      3  C   UNL     1     -31.653  21.252 -10.322  1.00  0.00     0.041 C 
ATOM      4  O   UNL     1     -32.638  20.580  -9.915  1.00  0.00    -0.550 OA
ATOM      5  O   UNL     1     -31.781  22.624 -10.497  1.00  0.00    -0.550 OA
ENDBRANCH   2   3
ENDBRANCH   1   2
BRANCH   1   6
ATOM      6  C   UNL     1     -29.145  18.356 -10.951  1.00  0.00     0.000 C 
BRANCH   6   7
ATOM      7  C   UNL     1     -29.315  16.851 -11.213  1.00  0.00    -0.003 C 
ATOM      8  C   UNL     1     -30.706  16.338 -10.843  1.00  0.00     0.004 C 
ENDBRANCH   6   7
ENDBRANCH   1   6
TORSDOF 4
ENDMDL
