MODEL 1
REMARK VINA RESULT:    17.957      0.000      0.000
REMARK INTER + INTRA:          37.857
REMARK INTER:                  38.953
REMARK INTRA:                  -1.096
REMARK UNBOUND:                -1.096
REMARK SMILES CCCCCCCCCCCCCCCCCCCCCC(=O)[O-]
REMARK SMILES IDX 12 1 11 2 10 3 9 4 8 5 7 6 6 7 5 8 4 9 3 10 2 11 1 12 13 13
REMARK SMILES IDX 14 14 15 15 16 16 17 17 18 18 19 19 20 20 21 21 22 22 23 23
REMARK SMILES IDX 24 24
REMARK H PARENT
REMARK Flexibility Score: inf
ROOT
ATOM      1  C   UNL     1      15.515  16.851  19.465  1.00  0.00     0.000 C 
ENDROOT
BRANCH   1   2
ATOM      2  C   UNL     1      16.741  17.771  19.361  1.00  0.00     0.000 C 
BRANCH   2   3
ATOM      3  C   UNL     1      18.022  17.116  19.907  1.00  0.00     0.000 C 
BRANCH   3   4
ATOM      4  C   UNL     1      18.584  17.868  21.131  1.00  0.00    -0.000 C 
BRANCH   4   5
ATOM      5  C   UNL     1      20.008  18.414  20.922  1.00  0.00    -0.000 C 
BRANCH   5   6
ATOM      6  C   UNL     1      20.682  17.855  19.659  1.00  0.00    -0.000 C 
BRANCH   6   7
ATOM      7  C   UNL     1      22.219  17.890  19.730  1.00  0.00    -0.000 C 
BRANCH   7   8
ATOM      8  C   UNL     1      22.822  18.083  21.138  1.00  0.00    -0.000 C 
BRANCH   8   9
ATOM      9  C   UNL     1      24.364  18.063  21.207  1.00  0.00    -0.000 C 
BRANCH   9  10
ATOM     10  C   UNL     1      24.966  19.176  22.092  1.00  0.00    -0.000 C 
BRANCH  10  11
ATOM     11  C   UNL     1      25.512  18.664  23.434  1.00  0.00    -0.003 C 
ATOM     12  C   UNL     1      25.717  17.151  23.456  1.00  0.00     0.004 C 
ENDBRANCH  10  11
ENDBRANCH   9  10
ENDBRANCH   8   9
ENDBRANCH   7   8
ENDBRANCH   6   7
ENDBRANCH   5   6
ENDBRANCH   4   5
ENDBRANCH   3   4
ENDBRANCH   2   3
ENDBRANCH   1   2
BRANCH   1  13
ATOM     13  C   UNL     1      15.883  15.416  19.873  1.00  0.00     0.000 C 
BRANCH  13  14
ATOM     14  C   UNL     1      14.710  14.736  20.594  1.00  0.00     0.000 C 
BRANCH  14  15
ATOM     15  C   UNL     1      14.916  13.223  20.773  1.00  0.00     0.000 C 
BRANCH  15  16
ATOM     16  C   UNL     1      14.091  12.393  19.774  1.00  0.00     0.000 C 
BRANCH  16  17
ATOM     17  C   UNL     1      14.894  11.241  19.143  1.00  0.00     0.000 C 
BRANCH  17  18
ATOM     18  C   UNL     1      15.522  10.252  20.144  1.00  0.00     0.000 C 
BRANCH  18  19
ATOM     19  C   UNL     1      16.472   9.242  19.474  1.00  0.00     0.000 C 
BRANCH  19  20
ATOM     20  C   UNL     1      17.853   9.190  20.159  1.00  0.00     0.006 C 
BRANCH  20  21
ATOM     21  C   UNL     1      19.021   9.507  19.209  1.00  0.00     0.053 C 
BRANCH  21  22
ATOM     22  C   UNL     1      20.055  10.378  19.852  1.00  0.00     0.041 C 
ATOM     23  O   UNL     1      21.232  10.399  19.406  1.00  0.00    -0.550 OA
ATOM     24  O   UNL     1      19.709  11.191  20.925  1.00  0.00    -0.550 OA
ENDBRANCH  21  22
ENDBRANCH  20  21
ENDBRANCH  19  20
ENDBRANCH  18  19
ENDBRANCH  17  18
ENDBRANCH  16  17
ENDBRANCH  15  16
ENDBRANCH  14  15
ENDBRANCH  13  14
ENDBRANCH   1  13
TORSDOF 20
ENDMDL
MODEL 2
REMARK VINA RESULT:    18.346      2.828      8.491
REMARK INTER + INTRA:          38.701
REMARK INTER:                  39.866
REMARK INTRA:                  -1.165
REMARK UNBOUND:                -1.096
REMARK SMILES CCCCCCCCCCCCCCCCCCCCCC(=O)[O-]
REMARK SMILES IDX 12 1 11 2 10 3 9 4 8 5 7 6 6 7 5 8 4 9 3 10 2 11 1 12 13 13
REMARK SMILES IDX 14 14 15 15 16 16 17 17 18 18 19 19 20 20 21 21 22 22 23 23
REMARK SMILES IDX 24 24
REMARK H PARENT
REMARK Flexibility Score: inf
ROOT
ATOM      1  C   UNL     1      16.077  15.649  20.235  1.00  0.00     0.000 C 
ENDROOT
BRANCH   1   2
ATOM      2  C   UNL     1      14.791  14.867  20.543  1.00  0.00     0.000 C 
BRANCH   2   3
ATOM      3  C   UNL     1      15.040  13.359  20.718  1.00  0.00     0.000 C 
BRANCH   3   4
ATOM      4  C   UNL     1      14.069  12.507  19.873  1.00  0.00    -0.000 C 
BRANCH   4   5
ATOM      5  C   UNL     1      14.736  11.295  19.198  1.00  0.00    -0.000 C 
BRANCH   5   6
ATOM      6  C   UNL     1      15.507  10.409  20.190  1.00  0.00    -0.000 C 
BRANCH   6   7
ATOM      7  C   UNL     1      16.310   9.291  19.502  1.00  0.00    -0.000 C 
BRANCH   7   8
ATOM      8  C   UNL     1      17.770   9.122  19.977  1.00  0.00    -0.000 C 
BRANCH   8   9
ATOM      9  C   UNL     1      18.849   9.390  18.907  1.00  0.00    -0.000 C 
BRANCH   9  10
ATOM     10  C   UNL     1      20.211   9.830  19.488  1.00  0.00    -0.000 C 
BRANCH  10  11
ATOM     11  C   UNL     1      20.093  10.599  20.814  1.00  0.00    -0.003 C 
ATOM     12  C   UNL     1      20.015  12.111  20.621  1.00  0.00     0.004 C 
ENDBRANCH  10  11
ENDBRANCH   9  10
ENDBRANCH   8   9
ENDBRANCH   7   8
ENDBRANCH   6   7
ENDBRANCH   5   6
ENDBRANCH   4   5
ENDBRANCH   3   4
ENDBRANCH   2   3
ENDBRANCH   1   2
BRANCH   1  13
ATOM     13  C   UNL     1      15.851  16.790  19.231  1.00  0.00     0.000 C 
BRANCH  13  14
ATOM     14  C   UNL     1      17.166  17.528  18.939  1.00  0.00     0.000 C 
BRANCH  14  15
ATOM     15  C   UNL     1      18.311  17.097  19.872  1.00  0.00     0.000 C 
BRANCH  15  16
ATOM     16  C   UNL     1      18.675  18.184  20.899  1.00  0.00     0.000 C 
BRANCH  16  17
ATOM     17  C   UNL     1      20.194  18.348  21.087  1.00  0.00     0.000 C 
BRANCH  17  18
ATOM     18  C   UNL     1      21.036  18.185  19.806  1.00  0.00     0.000 C 
BRANCH  18  19
ATOM     19  C   UNL     1      22.341  17.405  20.042  1.00  0.00     0.000 C 
BRANCH  19  20
ATOM     20  C   UNL     1      23.332  18.173  20.941  1.00  0.00     0.006 C 
BRANCH  20  21
ATOM     21  C   UNL     1      24.063  17.277  21.955  1.00  0.00     0.053 C 
BRANCH  21  22
ATOM     22  C   UNL     1      25.093  18.029  22.739  1.00  0.00     0.041 C 
ATOM     23  O   UNL     1      25.172  19.282  22.642  1.00  0.00    -0.550 OA
ATOM     24  O   UNL     1      25.944  17.349  23.601  1.00  0.00    -0.550 OA
ENDBRANCH  21  22
ENDBRANCH  20  21
ENDBRANCH  19  20
ENDBRANCH  18  19
ENDBRANCH  17  18
ENDBRANCH  16  17
ENDBRANCH  15  16
ENDBRANCH  14  15
ENDBRANCH  13  14
ENDBRANCH   1  13
TORSDOF 20
ENDMDL
MODEL 3
REMARK VINA RESULT:    18.378      1.091      1.663
REMARK INTER + INTRA:          38.770
REMARK INTER:                  39.784
REMARK INTRA:                  -1.015
REMARK UNBOUND:                -1.096
REMARK SMILES CCCCCCCCCCCCCCCCCCCCCC(=O)[O-]
REMARK SMILES IDX 12 1 11 2 10 3 9 4 8 5 7 6 6 7 5 8 4 9 3 10 2 11 1 12 13 13
REMARK SMILES IDX 14 14 15 15 16 16 17 17 18 18 19 19 20 20 21 21 22 22 23 23
REMARK SMILES IDX 24 24
REMARK H PARENT
REMARK Flexibility Score: inf
ROOT
ATOM      1  C   UNL     1      16.523  17.101  19.233  1.00  0.00     0.000 C 
ENDROOT
BRANCH   1   2
ATOM      2  C   UNL     1      17.746  18.000  19.476  1.00  0.00     0.000 C 
BRANCH   2   3
ATOM      3  C   UNL     1      18.477  17.665  20.788  1.00  0.00     0.000 C 
BRANCH   3   4
ATOM      4  C   UNL     1      19.900  18.260  20.830  1.00  0.00    -0.000 C 
BRANCH   4   5
ATOM      5  C   UNL     1      20.868  17.621  19.819  1.00  0.00    -0.000 C 
BRANCH   5   6
ATOM      6  C   UNL     1      22.293  18.190  19.914  1.00  0.00    -0.000 C 
BRANCH   6   7
ATOM      7  C   UNL     1      22.935  17.979  21.297  1.00  0.00    -0.000 C 
BRANCH   7   8
ATOM      8  C   UNL     1      24.473  18.112  21.351  1.00  0.00    -0.000 C 
BRANCH   8   9
ATOM      9  C   UNL     1      25.005  19.310  22.165  1.00  0.00    -0.000 C 
BRANCH   9  10
ATOM     10  C   UNL     1      24.464  19.375  23.610  1.00  0.00    -0.000 C 
BRANCH  10  11
ATOM     11  C   UNL     1      23.824  20.727  23.965  1.00  0.00    -0.003 C 
ATOM     12  C   UNL     1      22.423  20.585  24.555  1.00  0.00     0.004 C 
ENDBRANCH  10  11
ENDBRANCH   9  10
ENDBRANCH   8   9
ENDBRANCH   7   8
ENDBRANCH   6   7
ENDBRANCH   5   6
ENDBRANCH   4   5
ENDBRANCH   3   4
ENDBRANCH   2   3
ENDBRANCH   1   2
BRANCH   1  13
ATOM     13  C   UNL     1      16.426  15.946  20.242  1.00  0.00     0.000 C 
BRANCH  13  14
ATOM     14  C   UNL     1      15.129  15.150  20.036  1.00  0.00     0.000 C 
BRANCH  14  15
ATOM     15  C   UNL     1      15.193  13.739  20.645  1.00  0.00     0.000 C 
BRANCH  15  16
ATOM     16  C   UNL     1      14.090  12.812  20.102  1.00  0.00     0.000 C 
BRANCH  16  17
ATOM     17  C   UNL     1      14.648  11.565  19.394  1.00  0.00     0.000 C 
BRANCH  17  18
ATOM     18  C   UNL     1      15.417  10.583  20.300  1.00  0.00     0.000 C 
BRANCH  18  19
ATOM     19  C   UNL     1      16.289   9.594  19.507  1.00  0.00     0.000 C 
BRANCH  19  20
ATOM     20  C   UNL     1      17.604   9.250  20.238  1.00  0.00     0.006 C 
BRANCH  20  21
ATOM     21  C   UNL     1      18.845   9.314  19.332  1.00  0.00     0.053 C 
BRANCH  21  22
ATOM     22  C   UNL     1      19.899  10.226  19.877  1.00  0.00     0.041 C 
ATOM     23  O   UNL     1      19.774  10.725  21.026  1.00  0.00    -0.550 OA
ATOM     24  O   UNL     1      21.038  10.498  19.128  1.00  0.00    -0.550 OA
ENDBRANCH  21  22
ENDBRANCH  20  21
ENDBRANCH  19  20
ENDBRANCH  18  19
ENDBRANCH  17  18
ENDBRANCH  16  17
ENDBRANCH  15  16
ENDBRANCH  14  15
ENDBRANCH  13  14
ENDBRANCH   1  13
TORSDOF 20
ENDMDL
MODEL 4
REMARK VINA RESULT:    18.592      1.611      2.135
REMARK INTER + INTRA:          39.233
REMARK INTER:                  40.341
REMARK INTRA:                  -1.108
REMARK UNBOUND:                -1.096
REMARK SMILES CCCCCCCCCCCCCCCCCCCCCC(=O)[O-]
REMARK SMILES IDX 12 1 11 2 10 3 9 4 8 5 7 6 6 7 5 8 4 9 3 10 2 11 1 12 13 13
REMARK SMILES IDX 14 14 15 15 16 16 17 17 18 18 19 19 20 20 21 21 22 22 23 23
REMARK SMILES IDX 24 24
REMARK H PARENT
REMARK Flexibility Score: inf
ROOT
ATOM      1  C   UNL     1      16.450  16.903  19.577  1.00  0.00     0.000 C 
ENDROOT
BRANCH   1   2
ATOM      2  C   UNL     1      17.546  17.799  20.175  1.00  0.00     0.000 C 
BRANCH   2   3
ATOM      3  C   UNL     1      18.958  17.395  19.715  1.00  0.00     0.000 C 
BRANCH   3   4
ATOM      4  C   UNL     1      20.056  18.229  20.408  1.00  0.00    -0.000 C 
BRANCH   4   5
ATOM      5  C   UNL     1      19.728  18.595  21.866  1.00  0.00    -0.000 C 
BRANCH   5   6
ATOM      6  C   UNL     1      20.978  18.948  22.689  1.00  0.00    -0.000 C 
BRANCH   6   7
ATOM      7  C   UNL     1      20.647  19.661  24.013  1.00  0.00    -0.000 C 
BRANCH   7   8
ATOM      8  C   UNL     1      21.559  20.852  24.380  1.00  0.00    -0.000 C 
BRANCH   8   9
ATOM      9  C   UNL     1      22.991  20.479  24.817  1.00  0.00    -0.000 C 
BRANCH   9  10
ATOM     10  C   UNL     1      24.038  20.581  23.686  1.00  0.00    -0.000 C 
BRANCH  10  11
ATOM     11  C   UNL     1      24.800  19.270  23.436  1.00  0.00    -0.003 C 
ATOM     12  C   UNL     1      24.769  18.832  21.974  1.00  0.00     0.004 C 
ENDBRANCH  10  11
ENDBRANCH   9  10
ENDBRANCH   8   9
ENDBRANCH   7   8
ENDBRANCH   6   7
ENDBRANCH   5   6
ENDBRANCH   4   5
ENDBRANCH   3   4
ENDBRANCH   2   3
ENDBRANCH   1   2
BRANCH   1  13
ATOM     13  C   UNL     1      16.404  15.510  20.223  1.00  0.00     0.000 C 
BRANCH  13  14
ATOM     14  C   UNL     1      14.977  14.942  20.195  1.00  0.00     0.000 C 
BRANCH  14  15
ATOM     15  C   UNL     1      14.867  13.573  20.886  1.00  0.00     0.000 C 
BRANCH  15  16
ATOM     16  C   UNL     1      14.030  12.568  20.074  1.00  0.00     0.000 C 
BRANCH  16  17
ATOM     17  C   UNL     1      14.892  11.567  19.285  1.00  0.00     0.000 C 
BRANCH  17  18
ATOM     18  C   UNL     1      15.626  10.514  20.140  1.00  0.00     0.000 C 
BRANCH  18  19
ATOM     19  C   UNL     1      15.998   9.250  19.345  1.00  0.00     0.000 C 
BRANCH  19  20
ATOM     20  C   UNL     1      17.484   8.868  19.510  1.00  0.00     0.006 C 
BRANCH  20  21
ATOM     21  C   UNL     1      18.188   9.618  20.653  1.00  0.00     0.053 C 
BRANCH  21  22
ATOM     22  C   UNL     1      19.481  10.233  20.216  1.00  0.00     0.041 C 
ATOM     23  O   UNL     1      19.988  11.179  20.874  1.00  0.00    -0.550 OA
ATOM     24  O   UNL     1      20.144   9.739  19.098  1.00  0.00    -0.550 OA
ENDBRANCH  21  22
ENDBRANCH  20  21
ENDBRANCH  19  20
ENDBRANCH  18  19
ENDBRANCH  17  18
ENDBRANCH  16  17
ENDBRANCH  15  16
ENDBRANCH  14  15
ENDBRANCH  13  14
ENDBRANCH   1  13
TORSDOF 20
ENDMDL
MODEL 5
REMARK VINA RESULT:    18.627      3.173      9.428
REMARK INTER + INTRA:          39.310
REMARK INTER:                  40.273
REMARK INTRA:                  -0.963
REMARK UNBOUND:                -1.096
REMARK SMILES CCCCCCCCCCCCCCCCCCCCCC(=O)[O-]
REMARK SMILES IDX 12 1 11 2 10 3 9 4 8 5 7 6 6 7 5 8 4 9 3 10 2 11 1 12 13 13
REMARK SMILES IDX 14 14 15 15 16 16 17 17 18 18 19 19 20 20 21 21 22 22 23 23
REMARK SMILES IDX 24 24
REMARK H PARENT
REMARK Flexibility Score: inf
ROOT
ATOM      1  C   UNL     1      17.068  17.600  19.098  1.00  0.00     0.000 C 
ENDROOT
BRANCH   1   2
ATOM      2  C   UNL     1      15.795  16.752  18.962  1.00  0.00     0.000 C 
BRANCH   2   3
ATOM      3  C   UNL     1      15.402  16.055  20.277  1.00  0.00     0.000 C 
BRANCH   3   4
ATOM      4  C   UNL     1      15.651  14.533  20.226  1.00  0.00    -0.000 C 
BRANCH   4   5
ATOM      5  C   UNL     1      14.418  13.692  20.603  1.00  0.00    -0.000 C 
BRANCH   5   6
ATOM      6  C   UNL     1      14.411  12.310  19.931  1.00  0.00    -0.000 C 
BRANCH   6   7
ATOM      7  C   UNL     1      15.650  11.464  20.275  1.00  0.00    -0.000 C 
BRANCH   7   8
ATOM      8  C   UNL     1      15.680  10.041  19.677  1.00  0.00    -0.000 C 
BRANCH   8   9
ATOM      9  C   UNL     1      16.750   9.098  20.265  1.00  0.00    -0.000 C 
BRANCH   9  10
ATOM     10  C   UNL     1      18.130   9.211  19.581  1.00  0.00    -0.000 C 
BRANCH  10  11
ATOM     11  C   UNL     1      19.168   9.978  20.416  1.00  0.00    -0.003 C 
ATOM     12  C   UNL     1      20.367  10.444  19.594  1.00  0.00     0.004 C 
ENDBRANCH  10  11
ENDBRANCH   9  10
ENDBRANCH   8   9
ENDBRANCH   7   8
ENDBRANCH   6   7
ENDBRANCH   5   6
ENDBRANCH   4   5
ENDBRANCH   3   4
ENDBRANCH   2   3
ENDBRANCH   1   2
BRANCH   1  13
ATOM     13  C   UNL     1      17.959  17.149  20.266  1.00  0.00     0.000 C 
BRANCH  13  14
ATOM     14  C   UNL     1      19.290  17.915  20.264  1.00  0.00     0.000 C 
BRANCH  14  15
ATOM     15  C   UNL     1      19.419  18.888  21.448  1.00  0.00     0.000 C 
BRANCH  15  16
ATOM     16  C   UNL     1      20.722  18.681  22.242  1.00  0.00     0.000 C 
BRANCH  16  17
ATOM     17  C   UNL     1      20.621  19.170  23.698  1.00  0.00     0.000 C 
BRANCH  17  18
ATOM     18  C   UNL     1      21.182  20.583  23.957  1.00  0.00     0.000 C 
BRANCH  18  19
ATOM     19  C   UNL     1      22.444  20.574  24.838  1.00  0.00     0.000 C 
BRANCH  19  20
ATOM     20  C   UNL     1      23.738  20.741  24.015  1.00  0.00     0.006 C 
BRANCH  20  21
ATOM     21  C   UNL     1      24.501  19.424  23.797  1.00  0.00     0.053 C 
BRANCH  21  22
ATOM     22  C   UNL     1      24.822  19.185  22.355  1.00  0.00     0.041 C 
ATOM     23  O   UNL     1      25.498  20.027  21.708  1.00  0.00    -0.550 OA
ATOM     24  O   UNL     1      24.400  18.016  21.733  1.00  0.00    -0.550 OA
ENDBRANCH  21  22
ENDBRANCH  20  21
ENDBRANCH  19  20
ENDBRANCH  18  19
ENDBRANCH  17  18
ENDBRANCH  16  17
ENDBRANCH  15  16
ENDBRANCH  14  15
ENDBRANCH  13  14
ENDBRANCH   1  13
TORSDOF 20
ENDMDL
MODEL 6
REMARK VINA RESULT:    18.706      1.827      2.351
REMARK INTER + INTRA:          39.481
REMARK INTER:                  40.581
REMARK INTRA:                  -1.099
REMARK UNBOUND:                -1.096
REMARK SMILES CCCCCCCCCCCCCCCCCCCCCC(=O)[O-]
REMARK SMILES IDX 12 1 11 2 10 3 9 4 8 5 7 6 6 7 5 8 4 9 3 10 2 11 1 12 13 13
REMARK SMILES IDX 14 14 15 15 16 16 17 17 18 18 19 19 20 20 21 21 22 22 23 23
REMARK SMILES IDX 24 24
REMARK H PARENT
REMARK Flexibility Score: inf
ROOT
ATOM      1  C   UNL     1      15.964  15.529  20.070  1.00  0.00     0.000 C 
ENDROOT
BRANCH   1   2
ATOM      2  C   UNL     1      15.696  16.664  19.071  1.00  0.00     0.000 C 
BRANCH   2   3
ATOM      3  C   UNL     1      16.528  17.924  19.369  1.00  0.00     0.000 C 
BRANCH   3   4
ATOM      4  C   UNL     1      17.713  17.629  20.312  1.00  0.00    -0.000 C 
BRANCH   4   5
ATOM      5  C   UNL     1      19.062  17.489  19.585  1.00  0.00    -0.000 C 
BRANCH   5   6
ATOM      6  C   UNL     1      20.219  18.169  20.336  1.00  0.00    -0.000 C 
BRANCH   6   7
ATOM      7  C   UNL     1      19.802  18.723  21.711  1.00  0.00    -0.000 C 
BRANCH   7   8
ATOM      8  C   UNL     1      20.930  18.829  22.761  1.00  0.00    -0.000 C 
BRANCH   8   9
ATOM      9  C   UNL     1      20.556  19.572  24.061  1.00  0.00    -0.000 C 
BRANCH   9  10
ATOM     10  C   UNL     1      21.357  20.872  24.292  1.00  0.00    -0.000 C 
BRANCH  10  11
ATOM     11  C   UNL     1      22.805  20.628  24.745  1.00  0.00    -0.003 C 
ATOM     12  C   UNL     1      23.785  21.658  24.189  1.00  0.00     0.004 C 
ENDBRANCH  10  11
ENDBRANCH   9  10
ENDBRANCH   8   9
ENDBRANCH   7   8
ENDBRANCH   6   7
ENDBRANCH   5   6
ENDBRANCH   4   5
ENDBRANCH   3   4
ENDBRANCH   2   3
ENDBRANCH   1   2
BRANCH   1  13
ATOM     13  C   UNL     1      14.675  14.833  20.536  1.00  0.00     0.000 C 
BRANCH  13  14
ATOM     14  C   UNL     1      14.910  13.328  20.738  1.00  0.00     0.000 C 
BRANCH  14  15
ATOM     15  C   UNL     1      13.987  12.459  19.868  1.00  0.00     0.000 C 
BRANCH  15  16
ATOM     16  C   UNL     1      14.712  11.236  19.277  1.00  0.00     0.000 C 
BRANCH  16  17
ATOM     17  C   UNL     1      15.532  10.461  20.324  1.00  0.00     0.000 C 
BRANCH  17  18
ATOM     18  C   UNL     1      16.084   9.101  19.852  1.00  0.00     0.000 C 
BRANCH  18  19
ATOM     19  C   UNL     1      17.300   9.240  18.919  1.00  0.00     0.000 C 
BRANCH  19  20
ATOM     20  C   UNL     1      18.618   8.819  19.603  1.00  0.00     0.006 C 
BRANCH  20  21
ATOM     21  C   UNL     1      19.064   9.778  20.719  1.00  0.00     0.053 C 
BRANCH  21  22
ATOM     22  C   UNL     1      20.046  10.797  20.233  1.00  0.00     0.041 C 
ATOM     23  O   UNL     1      20.723  10.580  19.193  1.00  0.00    -0.550 OA
ATOM     24  O   UNL     1      20.190  12.003  20.909  1.00  0.00    -0.550 OA
ENDBRANCH  21  22
ENDBRANCH  20  21
ENDBRANCH  19  20
ENDBRANCH  18  19
ENDBRANCH  17  18
ENDBRANCH  16  17
ENDBRANCH  15  16
ENDBRANCH  14  15
ENDBRANCH  13  14
ENDBRANCH   1  13
TORSDOF 20
ENDMDL
MODEL 7
REMARK VINA RESULT:    18.760      3.772      9.057
REMARK INTER + INTRA:          39.598
REMARK INTER:                  40.090
REMARK INTRA:                  -0.492
REMARK UNBOUND:                -1.096
REMARK SMILES CCCCCCCCCCCCCCCCCCCCCC(=O)[O-]
REMARK SMILES IDX 12 1 11 2 10 3 9 4 8 5 7 6 6 7 5 8 4 9 3 10 2 11 1 12 13 13
REMARK SMILES IDX 14 14 15 15 16 16 17 17 18 18 19 19 20 20 21 21 22 22 23 23
REMARK SMILES IDX 24 24
REMARK H PARENT
REMARK Flexibility Score: inf
ROOT
ATOM      1  C   UNL     1      16.075  15.759  19.897  1.00  0.00     0.000 C 
ENDROOT
BRANCH   1   2
ATOM      2  C   UNL     1      14.874  15.119  20.610  1.00  0.00     0.000 C 
BRANCH   2   3
ATOM      3  C   UNL     1      15.027  13.597  20.779  1.00  0.00     0.000 C 
BRANCH   3   4
ATOM      4  C   UNL     1      13.992  12.812  19.946  1.00  0.00    -0.000 C 
BRANCH   4   5
ATOM      5  C   UNL     1      14.556  11.531  19.307  1.00  0.00    -0.000 C 
BRANCH   5   6
ATOM      6  C   UNL     1      15.488  10.754  20.251  1.00  0.00    -0.000 C 
BRANCH   6   7
ATOM      7  C   UNL     1      15.756   9.312  19.782  1.00  0.00    -0.000 C 
BRANCH   7   8
ATOM      8  C   UNL     1      17.048   9.103  18.962  1.00  0.00    -0.000 C 
BRANCH   8   9
ATOM      9  C   UNL     1      18.353   9.054  19.784  1.00  0.00    -0.000 C 
BRANCH   9  10
ATOM     10  C   UNL     1      19.618   9.412  18.973  1.00  0.00    -0.000 C 
BRANCH  10  11
ATOM     11  C   UNL     1      20.585  10.341  19.724  1.00  0.00    -0.003 C 
ATOM     12  C   UNL     1      19.868  11.356  20.611  1.00  0.00     0.004 C 
ENDBRANCH  10  11
ENDBRANCH   9  10
ENDBRANCH   8   9
ENDBRANCH   7   8
ENDBRANCH   6   7
ENDBRANCH   5   6
ENDBRANCH   4   5
ENDBRANCH   3   4
ENDBRANCH   2   3
ENDBRANCH   1   2
BRANCH   1  13
ATOM     13  C   UNL     1      15.658  16.839  18.886  1.00  0.00     0.000 C 
BRANCH  13  14
ATOM     14  C   UNL     1      16.407  18.153  19.151  1.00  0.00     0.000 C 
BRANCH  14  15
ATOM     15  C   UNL     1      17.351  18.067  20.363  1.00  0.00     0.000 C 
BRANCH  15  16
ATOM     16  C   UNL     1      18.600  17.214  20.078  1.00  0.00     0.000 C 
BRANCH  16  17
ATOM     17  C   UNL     1      19.914  17.943  20.410  1.00  0.00     0.000 C 
BRANCH  17  18
ATOM     18  C   UNL     1      19.776  19.143  21.369  1.00  0.00     0.000 C 
BRANCH  18  19
ATOM     19  C   UNL     1      19.888  18.742  22.851  1.00  0.00     0.000 C 
BRANCH  19  20
ATOM     20  C   UNL     1      21.276  19.063  23.444  1.00  0.00     0.006 C 
BRANCH  20  21
ATOM     21  C   UNL     1      21.294  20.334  24.311  1.00  0.00     0.053 C 
BRANCH  21  22
ATOM     22  C   UNL     1      22.682  20.844  24.541  1.00  0.00     0.041 C 
ATOM     23  O   UNL     1      23.449  20.254  25.346  1.00  0.00    -0.550 OA
ATOM     24  O   UNL     1      23.140  21.954  23.840  1.00  0.00    -0.550 OA
ENDBRANCH  21  22
ENDBRANCH  20  21
ENDBRANCH  19  20
ENDBRANCH  18  19
ENDBRANCH  17  18
ENDBRANCH  16  17
ENDBRANCH  15  16
ENDBRANCH  14  15
ENDBRANCH  13  14
ENDBRANCH   1  13
TORSDOF 20
ENDMDL
MODEL 8
REMARK VINA RESULT:    18.832      4.013      5.300
REMARK INTER + INTRA:          39.755
REMARK INTER:                  40.399
REMARK INTRA:                  -0.644
REMARK UNBOUND:                -1.096
REMARK SMILES CCCCCCCCCCCCCCCCCCCCCC(=O)[O-]
REMARK SMILES IDX 12 1 11 2 10 3 9 4 8 5 7 6 6 7 5 8 4 9 3 10 2 11 1 12 13 13
REMARK SMILES IDX 14 14 15 15 16 16 17 17 18 18 19 19 20 20 21 21 22 22 23 23
REMARK SMILES IDX 24 24
REMARK H PARENT
REMARK Flexibility Score: inf
ROOT
ATOM      1  C   UNL     1      14.964  15.204  20.689  1.00  0.00     0.000 C 
ENDROOT
BRANCH   1   2
ATOM      2  C   UNL     1      15.903  15.717  19.586  1.00  0.00     0.000 C 
BRANCH   2   3
ATOM      3  C   UNL     1      17.119  16.476  20.148  1.00  0.00     0.000 C 
BRANCH   3   4
ATOM      4  C   UNL     1      17.200  17.921  19.613  1.00  0.00    -0.000 C 
BRANCH   4   5
ATOM      5  C   UNL     1      16.411  18.144  18.311  1.00  0.00    -0.000 C 
BRANCH   5   6
ATOM      6  C   UNL     1      16.671  17.052  17.260  1.00  0.00    -0.000 C 
BRANCH   6   7
ATOM      7  C   UNL     1      17.810  17.409  16.289  1.00  0.00    -0.000 C 
BRANCH   7   8
ATOM      8  C   UNL     1      17.537  17.117  14.797  1.00  0.00    -0.000 C 
BRANCH   8   9
ATOM      9  C   UNL     1      17.501  18.354  13.875  1.00  0.00    -0.000 C 
BRANCH   9  10
ATOM     10  C   UNL     1      17.909  19.668  14.575  1.00  0.00    -0.000 C 
BRANCH  10  11
ATOM     11  C   UNL     1      19.136  20.344  13.943  1.00  0.00    -0.003 C 
ATOM     12  C   UNL     1      19.579  21.598  14.695  1.00  0.00     0.004 C 
ENDBRANCH  10  11
ENDBRANCH   9  10
ENDBRANCH   8   9
ENDBRANCH   7   8
ENDBRANCH   6   7
ENDBRANCH   5   6
ENDBRANCH   4   5
ENDBRANCH   3   4
ENDBRANCH   2   3
ENDBRANCH   1   2
BRANCH   1  13
ATOM     13  C   UNL     1      15.017  13.676  20.848  1.00  0.00     0.000 C 
BRANCH  13  14
ATOM     14  C   UNL     1      14.058  12.992  19.863  1.00  0.00     0.000 C 
BRANCH  14  15
ATOM     15  C   UNL     1      14.480  11.552  19.523  1.00  0.00     0.000 C 
BRANCH  15  16
ATOM     16  C   UNL     1      15.785  11.139  20.227  1.00  0.00     0.000 C 
BRANCH  16  17
ATOM     17  C   UNL     1      15.934   9.614  20.368  1.00  0.00     0.000 C 
BRANCH  17  18
ATOM     18  C   UNL     1      16.328   8.869  19.076  1.00  0.00     0.000 C 
BRANCH  18  19
ATOM     19  C   UNL     1      17.704   9.296  18.534  1.00  0.00     0.000 C 
BRANCH  19  20
ATOM     20  C   UNL     1      18.855   8.923  19.491  1.00  0.00     0.006 C 
BRANCH  20  21
ATOM     21  C   UNL     1      20.013   9.935  19.482  1.00  0.00     0.053 C 
BRANCH  21  22
ATOM     22  C   UNL     1      20.002  10.822  20.688  1.00  0.00     0.041 C 
ATOM     23  O   UNL     1      19.854  12.066  20.559  1.00  0.00    -0.550 OA
ATOM     24  O   UNL     1      20.122  10.270  21.958  1.00  0.00    -0.550 OA
ENDBRANCH  21  22
ENDBRANCH  20  21
ENDBRANCH  19  20
ENDBRANCH  18  19
ENDBRANCH  17  18
ENDBRANCH  16  17
ENDBRANCH  15  16
ENDBRANCH  14  15
ENDBRANCH  13  14
ENDBRANCH   1  13
TORSDOF 20
ENDMDL
MODEL 9
REMARK VINA RESULT:    19.158      1.653      2.597
REMARK INTER + INTRA:          40.461
REMARK INTER:                  41.615
REMARK INTRA:                  -1.153
REMARK UNBOUND:                -1.096
REMARK SMILES CCCCCCCCCCCCCCCCCCCCCC(=O)[O-]
REMARK SMILES IDX 12 1 11 2 10 3 9 4 8 5 7 6 6 7 5 8 4 9 3 10 2 11 1 12 13 13
REMARK SMILES IDX 14 14 15 15 16 16 17 17 18 18 19 19 20 20 21 21 22 22 23 23
REMARK SMILES IDX 24 24
REMARK H PARENT
REMARK Flexibility Score: inf
ROOT
ATOM      1  C   UNL     1      17.868  16.947  19.990  1.00  0.00     0.000 C 
ENDROOT
BRANCH   1   2
ATOM      2  C   UNL     1      18.063  18.090  20.997  1.00  0.00     0.000 C 
BRANCH   2   3
ATOM      3  C   UNL     1      19.539  18.491  21.162  1.00  0.00     0.000 C 
BRANCH   3   4
ATOM      4  C   UNL     1      19.977  18.504  22.642  1.00  0.00    -0.000 C 
BRANCH   4   5
ATOM      5  C   UNL     1      21.081  19.530  22.952  1.00  0.00    -0.000 C 
BRANCH   5   6
ATOM      6  C   UNL     1      20.994  20.087  24.382  1.00  0.00    -0.000 C 
BRANCH   6   7
ATOM      7  C   UNL     1      22.270  20.830  24.819  1.00  0.00    -0.000 C 
BRANCH   7   8
ATOM      8  C   UNL     1      23.423  20.845  23.791  1.00  0.00    -0.000 C 
BRANCH   8   9
ATOM      9  C   UNL     1      24.438  19.691  23.919  1.00  0.00    -0.000 C 
BRANCH   9  10
ATOM     10  C   UNL     1      25.056  19.248  22.574  1.00  0.00    -0.000 C 
BRANCH  10  11
ATOM     11  C   UNL     1      24.609  17.846  22.127  1.00  0.00    -0.003 C 
ATOM     12  C   UNL     1      23.651  17.878  20.938  1.00  0.00     0.004 C 
ENDBRANCH  10  11
ENDBRANCH   9  10
ENDBRANCH   8   9
ENDBRANCH   7   8
ENDBRANCH   6   7
ENDBRANCH   5   6
ENDBRANCH   4   5
ENDBRANCH   3   4
ENDBRANCH   2   3
ENDBRANCH   1   2
BRANCH   1  13
ATOM     13  C   UNL     1      16.475  16.957  19.343  1.00  0.00     0.000 C 
BRANCH  13  14
ATOM     14  C   UNL     1      15.488  16.109  20.159  1.00  0.00     0.000 C 
BRANCH  14  15
ATOM     15  C   UNL     1      15.862  14.618  20.185  1.00  0.00     0.000 C 
BRANCH  15  16
ATOM     16  C   UNL     1      14.675  13.719  20.576  1.00  0.00     0.000 C 
BRANCH  16  17
ATOM     17  C   UNL     1      14.675  12.370  19.835  1.00  0.00     0.000 C 
BRANCH  17  18
ATOM     18  C   UNL     1      15.505  11.254  20.500  1.00  0.00     0.000 C 
BRANCH  18  19
ATOM     19  C   UNL     1      15.436   9.919  19.737  1.00  0.00     0.000 C 
BRANCH  19  20
ATOM     20  C   UNL     1      16.829   9.299  19.509  1.00  0.00     0.006 C 
BRANCH  20  21
ATOM     21  C   UNL     1      17.841   9.635  20.617  1.00  0.00     0.053 C 
BRANCH  21  22
ATOM     22  C   UNL     1      19.210   9.902  20.075  1.00  0.00     0.041 C 
ATOM     23  O   UNL     1      19.976  10.714  20.658  1.00  0.00    -0.550 OA
ATOM     24  O   UNL     1      19.653   9.228  18.942  1.00  0.00    -0.550 OA
ENDBRANCH  21  22
ENDBRANCH  20  21
ENDBRANCH  19  20
ENDBRANCH  18  19
ENDBRANCH  17  18
ENDBRANCH  16  17
ENDBRANCH  15  16
ENDBRANCH  14  15
ENDBRANCH  13  14
ENDBRANCH   1  13
TORSDOF 20
ENDMDL
