MODEL 1
REMARK VINA RESULT:    -5.258      0.000      0.000
REMARK INTER + INTRA:         -10.010
REMARK INTER:                  -8.179
REMARK INTRA:                  -1.831
REMARK UNBOUND:                -1.831
REMARK SMILES COc1cc(CNC(=O)CCCCC=CC(C)C)ccc1O
REMARK SMILES IDX 11 1 12 2 13 3 14 4 15 5 16 6 17 7 18 8 10 9 8 10 9 11 7 12
REMARK SMILES IDX 6 14 5 15 4 16 19 17 3 18 20 19 21 20 2 21 1 22 22 23
REMARK H PARENT 7 13 22 24
REMARK Flexibility Score: inf
ROOT
ATOM      1  C   UNL     1     -22.377  -3.981 -10.630  1.00  0.00     0.010 C 
ENDROOT
BRANCH   1   2
ATOM      2  C   UNL     1     -21.668  -5.332 -10.802  1.00  0.00     0.005 C 
BRANCH   2   3
ATOM      3  C   UNL     1     -21.796  -6.187  -9.533  1.00  0.00     0.027 C 
BRANCH   3   4
ATOM      4  C   UNL     1     -20.738  -7.259  -9.498  1.00  0.00    -0.031 C 
ATOM      5  C   UNL     1     -20.421  -7.987  -8.409  1.00  0.00    -0.028 C 
BRANCH   5   6
ATOM      6  C   UNL     1     -21.028  -7.799  -7.033  1.00  0.00     0.005 C 
ATOM      7  C   UNL     1     -21.488  -9.151  -6.481  1.00  0.00     0.012 C 
ATOM      8  C   UNL     1     -20.001  -7.155  -6.099  1.00  0.00     0.012 C 
ENDBRANCH   5   6
ENDBRANCH   3   4
ENDBRANCH   2   3
ENDBRANCH   1   2
BRANCH   1   9
ATOM      9  C   UNL     1     -21.391  -2.841 -10.337  1.00  0.00     0.100 C 
BRANCH   9  10
ATOM     10  C   UNL     1     -21.060  -2.761  -8.875  1.00  0.00     0.220 C 
ATOM     11  O   UNL     1     -19.899  -2.423  -8.520  1.00  0.00    -0.275 OA
ATOM     12  N   UNL     1     -22.045  -3.110  -7.893  1.00  0.00    -0.352 N 
ATOM     13  H   UNL     1     -23.004  -3.368  -8.215  1.00  0.00     0.163 HD
BRANCH  12  14
ATOM     14  C   UNL     1     -21.710  -3.199  -6.473  1.00  0.00     0.151 C 
BRANCH  14  15
ATOM     15  C   UNL     1     -22.437  -4.349  -5.831  1.00  0.00    -0.025 A 
ATOM     16  C   UNL     1     -22.211  -4.663  -4.481  1.00  0.00     0.056 A 
ATOM     17  C   UNL     1     -23.397  -5.071  -6.556  1.00  0.00     0.009 A 
ATOM     18  C   UNL     1     -22.919  -5.714  -3.862  1.00  0.00     0.160 A 
ATOM     19  C   UNL     1     -24.101  -6.112  -5.947  1.00  0.00     0.050 A 
ATOM     20  C   UNL     1     -23.863  -6.437  -4.605  1.00  0.00     0.157 A 
BRANCH  18  21
ATOM     21  O   UNL     1     -22.712  -6.064  -2.519  1.00  0.00    -0.493 OA
ATOM     22  C   UNL     1     -21.828  -5.381  -1.636  1.00  0.00     0.278 C 
ENDBRANCH  18  21
BRANCH  20  23
ATOM     23  O   UNL     1     -24.566  -7.477  -3.998  1.00  0.00    -0.504 OA
ATOM     24  H   UNL     1     -24.091  -8.295  -3.632  1.00  0.00     0.293 HD
ENDBRANCH  20  23
ENDBRANCH  14  15
ENDBRANCH  12  14
ENDBRANCH   9  10
ENDBRANCH   1   9
TORSDOF 10
ENDMDL
MODEL 2
REMARK VINA RESULT:    -5.020      4.544      7.326
REMARK INTER + INTRA:          -9.638
REMARK INTER:                  -8.934
REMARK INTRA:                  -0.704
REMARK UNBOUND:                -1.831
REMARK SMILES COc1cc(CNC(=O)CCCCC=CC(C)C)ccc1O
REMARK SMILES IDX 11 1 12 2 13 3 14 4 15 5 16 6 17 7 18 8 10 9 8 10 9 11 7 12
REMARK SMILES IDX 6 14 5 15 4 16 19 17 3 18 20 19 21 20 2 21 1 22 22 23
REMARK H PARENT 7 13 22 24
REMARK Flexibility Score: inf
ROOT
ATOM      1  C   UNL     1     -21.129 -12.274  -5.843  1.00  0.00     0.010 C 
ENDROOT
BRANCH   1   2
ATOM      2  C   UNL     1     -21.313 -13.690  -6.406  1.00  0.00     0.005 C 
BRANCH   2   3
ATOM      3  C   UNL     1     -22.743 -13.896  -6.924  1.00  0.00     0.027 C 
BRANCH   3   4
ATOM      4  C   UNL     1     -22.735 -14.323  -8.369  1.00  0.00    -0.031 C 
ATOM      5  C   UNL     1     -23.314 -15.445  -8.840  1.00  0.00    -0.028 C 
BRANCH   5   6
ATOM      6  C   UNL     1     -24.004 -16.490  -7.985  1.00  0.00     0.005 C 
ATOM      7  C   UNL     1     -24.944 -17.330  -8.854  1.00  0.00     0.012 C 
ATOM      8  C   UNL     1     -22.957 -17.376  -7.306  1.00  0.00     0.012 C 
ENDBRANCH   5   6
ENDBRANCH   3   4
ENDBRANCH   2   3
ENDBRANCH   1   2
BRANCH   1   9
ATOM      9  C   UNL     1     -22.217 -11.308  -6.335  1.00  0.00     0.100 C 
BRANCH   9  10
ATOM     10  C   UNL     1     -21.834  -9.877  -6.090  1.00  0.00     0.220 C 
ATOM     11  O   UNL     1     -22.637  -9.115  -5.488  1.00  0.00    -0.275 OA
ATOM     12  N   UNL     1     -20.585  -9.371  -6.578  1.00  0.00    -0.352 N 
ATOM     13  H   UNL     1     -19.931 -10.029  -7.057  1.00  0.00     0.163 HD
BRANCH  12  14
ATOM     14  C   UNL     1     -20.253  -7.949  -6.500  1.00  0.00     0.151 C 
BRANCH  14  15
ATOM     15  C   UNL     1     -20.884  -7.197  -7.641  1.00  0.00    -0.025 A 
ATOM     16  C   UNL     1     -21.719  -6.097  -7.386  1.00  0.00     0.056 A 
ATOM     17  C   UNL     1     -20.588  -7.545  -8.967  1.00  0.00     0.009 A 
ATOM     18  C   UNL     1     -22.282  -5.364  -8.450  1.00  0.00     0.160 A 
ATOM     19  C   UNL     1     -21.142  -6.821 -10.025  1.00  0.00     0.050 A 
ATOM     20  C   UNL     1     -21.989  -5.734  -9.770  1.00  0.00     0.157 A 
BRANCH  18  21
ATOM     21  O   UNL     1     -23.129  -4.266  -8.234  1.00  0.00    -0.493 OA
ATOM     22  C   UNL     1     -23.064  -3.409  -7.099  1.00  0.00     0.278 C 
ENDBRANCH  18  21
BRANCH  20  23
ATOM     23  O   UNL     1     -22.543  -5.013 -10.827  1.00  0.00    -0.504 OA
ATOM     24  H   UNL     1     -23.353  -5.352 -11.334  1.00  0.00     0.293 HD
ENDBRANCH  20  23
ENDBRANCH  14  15
ENDBRANCH  12  14
ENDBRANCH   9  10
ENDBRANCH   1   9
TORSDOF 10
ENDMDL
MODEL 3
REMARK VINA RESULT:    -4.913      1.444      2.189
REMARK INTER + INTRA:          -9.472
REMARK INTER:                  -7.782
REMARK INTRA:                  -1.690
REMARK UNBOUND:                -1.831
REMARK SMILES COc1cc(CNC(=O)CCCCC=CC(C)C)ccc1O
REMARK SMILES IDX 11 1 12 2 13 3 14 4 15 5 16 6 17 7 18 8 10 9 8 10 9 11 7 12
REMARK SMILES IDX 6 14 5 15 4 16 19 17 3 18 20 19 21 20 2 21 1 22 22 23
REMARK H PARENT 7 13 22 24
REMARK Flexibility Score: inf
ROOT
ATOM      1  C   UNL     1     -21.957  -5.761 -10.396  1.00  0.00     0.010 C 
ENDROOT
BRANCH   1   2
ATOM      2  C   UNL     1     -20.747  -6.093  -9.510  1.00  0.00     0.005 C 
BRANCH   2   3
ATOM      3  C   UNL     1     -20.684  -7.596  -9.206  1.00  0.00     0.027 C 
BRANCH   3   4
ATOM      4  C   UNL     1     -19.785  -7.869  -8.028  1.00  0.00    -0.031 C 
ATOM      5  C   UNL     1     -20.119  -8.635  -6.972  1.00  0.00    -0.028 C 
BRANCH   5   6
ATOM      6  C   UNL     1     -21.471  -9.288  -6.766  1.00  0.00     0.005 C 
ATOM      7  C   UNL     1     -21.291 -10.651  -6.092  1.00  0.00     0.012 C 
ATOM      8  C   UNL     1     -22.361  -8.378  -5.914  1.00  0.00     0.012 C 
ENDBRANCH   5   6
ENDBRANCH   3   4
ENDBRANCH   2   3
ENDBRANCH   1   2
BRANCH   1   9
ATOM      9  C   UNL     1     -22.107  -4.251 -10.631  1.00  0.00     0.100 C 
BRANCH   9  10
ATOM     10  C   UNL     1     -22.303  -3.510  -9.340  1.00  0.00     0.220 C 
ATOM     11  O   UNL     1     -21.761  -2.382  -9.184  1.00  0.00    -0.275 OA
ATOM     12  N   UNL     1     -23.061  -4.101  -8.276  1.00  0.00    -0.352 N 
ATOM     13  H   UNL     1     -23.514  -5.027  -8.439  1.00  0.00     0.163 HD
BRANCH  12  14
ATOM     14  C   UNL     1     -23.136  -3.481  -6.954  1.00  0.00     0.151 C 
BRANCH  14  15
ATOM     15  C   UNL     1     -22.274  -4.230  -5.973  1.00  0.00    -0.025 A 
ATOM     16  C   UNL     1     -22.815  -4.678  -4.756  1.00  0.00     0.056 A 
ATOM     17  C   UNL     1     -20.947  -4.546  -6.296  1.00  0.00     0.009 A 
ATOM     18  C   UNL     1     -22.025  -5.414  -3.851  1.00  0.00     0.160 A 
ATOM     19  C   UNL     1     -20.160  -5.276  -5.402  1.00  0.00     0.050 A 
ATOM     20  C   UNL     1     -20.694  -5.709  -4.181  1.00  0.00     0.157 A 
BRANCH  18  21
ATOM     21  O   UNL     1     -22.527  -5.870  -2.621  1.00  0.00    -0.493 OA
ATOM     22  C   UNL     1     -23.646  -6.738  -2.481  1.00  0.00     0.278 C 
ENDBRANCH  18  21
BRANCH  20  23
ATOM     23  O   UNL     1     -19.908  -6.436  -3.288  1.00  0.00    -0.504 OA
ATOM     24  H   UNL     1     -18.914  -6.564  -3.440  1.00  0.00     0.293 HD
ENDBRANCH  20  23
ENDBRANCH  14  15
ENDBRANCH  12  14
ENDBRANCH   9  10
ENDBRANCH   1   9
TORSDOF 10
ENDMDL
MODEL 4
REMARK VINA RESULT:    -4.898      1.118      1.594
REMARK INTER + INTRA:          -9.449
REMARK INTER:                  -7.572
REMARK INTRA:                  -1.878
REMARK UNBOUND:                -1.831
REMARK SMILES COc1cc(CNC(=O)CCCCC=CC(C)C)ccc1O
REMARK SMILES IDX 11 1 12 2 13 3 14 4 15 5 16 6 17 7 18 8 10 9 8 10 9 11 7 12
REMARK SMILES IDX 6 14 5 15 4 16 19 17 3 18 20 19 21 20 2 21 1 22 22 23
REMARK H PARENT 7 13 22 24
REMARK Flexibility Score: inf
ROOT
ATOM      1  C   UNL     1     -21.909  -5.671 -10.597  1.00  0.00     0.010 C 
ENDROOT
BRANCH   1   2
ATOM      2  C   UNL     1     -20.662  -6.037  -9.779  1.00  0.00     0.005 C 
BRANCH   2   3
ATOM      3  C   UNL     1     -20.925  -7.261  -8.891  1.00  0.00     0.027 C 
BRANCH   3   4
ATOM      4  C   UNL     1     -20.670  -6.940  -7.442  1.00  0.00    -0.031 C 
ATOM      5  C   UNL     1     -20.531  -7.858  -6.466  1.00  0.00    -0.028 C 
BRANCH   5   6
ATOM      6  C   UNL     1     -20.678  -9.355  -6.656  1.00  0.00     0.005 C 
ATOM      7  C   UNL     1     -19.555 -10.083  -5.911  1.00  0.00     0.012 C 
ATOM      8  C   UNL     1     -22.048  -9.809  -6.147  1.00  0.00     0.012 C 
ENDBRANCH   5   6
ENDBRANCH   3   4
ENDBRANCH   2   3
ENDBRANCH   1   2
BRANCH   1   9
ATOM      9  C   UNL     1     -22.101  -4.152 -10.715  1.00  0.00     0.100 C 
BRANCH   9  10
ATOM     10  C   UNL     1     -22.198  -3.502  -9.365  1.00  0.00     0.220 C 
ATOM     11  O   UNL     1     -21.467  -2.509  -9.102  1.00  0.00    -0.275 OA
ATOM     12  N   UNL     1     -23.080  -4.036  -8.370  1.00  0.00    -0.352 N 
ATOM     13  H   UNL     1     -23.687  -4.847  -8.621  1.00  0.00     0.163 HD
BRANCH  12  14
ATOM     14  C   UNL     1     -23.081  -3.530  -6.998  1.00  0.00     0.151 C 
BRANCH  14  15
ATOM     15  C   UNL     1     -23.070  -4.670  -6.016  1.00  0.00    -0.025 A 
ATOM     16  C   UNL     1     -22.251  -4.613  -4.876  1.00  0.00     0.056 A 
ATOM     17  C   UNL     1     -23.929  -5.764  -6.194  1.00  0.00     0.009 A 
ATOM     18  C   UNL     1     -22.266  -5.659  -3.931  1.00  0.00     0.160 A 
ATOM     19  C   UNL     1     -23.948  -6.803  -5.261  1.00  0.00     0.050 A 
ATOM     20  C   UNL     1     -23.118  -6.755  -4.133  1.00  0.00     0.157 A 
BRANCH  18  21
ATOM     21  O   UNL     1     -21.455  -5.643  -2.786  1.00  0.00    -0.493 OA
ATOM     22  C   UNL     1     -21.459  -4.606  -1.811  1.00  0.00     0.278 C 
ENDBRANCH  18  21
BRANCH  20  23
ATOM     23  O   UNL     1     -23.137  -7.792  -3.202  1.00  0.00    -0.504 OA
ATOM     24  H   UNL     1     -22.855  -7.646  -2.238  1.00  0.00     0.293 HD
ENDBRANCH  20  23
ENDBRANCH  14  15
ENDBRANCH  12  14
ENDBRANCH   9  10
ENDBRANCH   1   9
TORSDOF 10
ENDMDL
MODEL 5
REMARK VINA RESULT:    -4.833      4.497      7.396
REMARK INTER + INTRA:          -9.349
REMARK INTER:                  -8.611
REMARK INTRA:                  -0.738
REMARK UNBOUND:                -1.831
REMARK SMILES COc1cc(CNC(=O)CCCCC=CC(C)C)ccc1O
REMARK SMILES IDX 11 1 12 2 13 3 14 4 15 5 16 6 17 7 18 8 10 9 8 10 9 11 7 12
REMARK SMILES IDX 6 14 5 15 4 16 19 17 3 18 20 19 21 20 2 21 1 22 22 23
REMARK H PARENT 7 13 22 24
REMARK Flexibility Score: inf
ROOT
ATOM      1  C   UNL     1     -21.778 -12.530  -5.070  1.00  0.00     0.010 C 
ENDROOT
BRANCH   1   2
ATOM      2  C   UNL     1     -22.841 -13.493  -4.523  1.00  0.00     0.005 C 
BRANCH   2   3
ATOM      3  C   UNL     1     -23.661 -14.114  -5.662  1.00  0.00     0.027 C 
BRANCH   3   4
ATOM      4  C   UNL     1     -22.898 -14.068  -6.961  1.00  0.00    -0.031 C 
ATOM      5  C   UNL     1     -22.991 -14.992  -7.937  1.00  0.00    -0.028 C 
BRANCH   5   6
ATOM      6  C   UNL     1     -23.822 -16.257  -7.858  1.00  0.00     0.005 C 
ATOM      7  C   UNL     1     -24.228 -16.698  -9.267  1.00  0.00     0.012 C 
ATOM      8  C   UNL     1     -23.022 -17.358  -7.156  1.00  0.00     0.012 C 
ENDBRANCH   5   6
ENDBRANCH   3   4
ENDBRANCH   2   3
ENDBRANCH   1   2
BRANCH   1   9
ATOM      9  C   UNL     1     -22.168 -11.059  -4.866  1.00  0.00     0.100 C 
BRANCH   9  10
ATOM     10  C   UNL     1     -21.961 -10.256  -6.118  1.00  0.00     0.220 C 
ATOM     11  O   UNL     1     -22.233 -10.770  -7.236  1.00  0.00    -0.275 OA
ATOM     12  N   UNL     1     -21.415  -8.932  -6.043  1.00  0.00    -0.352 N 
ATOM     13  H   UNL     1     -21.217  -8.525  -5.102  1.00  0.00     0.163 HD
BRANCH  12  14
ATOM     14  C   UNL     1     -21.050  -8.186  -7.246  1.00  0.00     0.151 C 
BRANCH  14  15
ATOM     15  C   UNL     1     -21.733  -6.845  -7.262  1.00  0.00    -0.025 A 
ATOM     16  C   UNL     1     -21.818  -6.110  -8.456  1.00  0.00     0.056 A 
ATOM     17  C   UNL     1     -22.350  -6.353  -6.103  1.00  0.00     0.009 A 
ATOM     18  C   UNL     1     -22.491  -4.871  -8.487  1.00  0.00     0.160 A 
ATOM     19  C   UNL     1     -23.019  -5.127  -6.128  1.00  0.00     0.050 A 
ATOM     20  C   UNL     1     -23.089  -4.385  -7.315  1.00  0.00     0.157 A 
BRANCH  18  21
ATOM     21  O   UNL     1     -22.587  -4.103  -9.658  1.00  0.00    -0.493 OA
ATOM     22  C   UNL     1     -21.679  -3.069 -10.019  1.00  0.00     0.278 C 
ENDBRANCH  18  21
BRANCH  20  23
ATOM     23  O   UNL     1     -23.756  -3.161  -7.340  1.00  0.00    -0.504 OA
ATOM     24  H   UNL     1     -24.446  -2.919  -6.638  1.00  0.00     0.293 HD
ENDBRANCH  20  23
ENDBRANCH  14  15
ENDBRANCH  12  14
ENDBRANCH   9  10
ENDBRANCH   1   9
TORSDOF 10
ENDMDL
MODEL 6
REMARK VINA RESULT:    -4.786      4.207      7.182
REMARK INTER + INTRA:          -9.275
REMARK INTER:                  -8.493
REMARK INTRA:                  -0.782
REMARK UNBOUND:                -1.831
REMARK SMILES COc1cc(CNC(=O)CCCCC=CC(C)C)ccc1O
REMARK SMILES IDX 11 1 12 2 13 3 14 4 15 5 16 6 17 7 18 8 10 9 8 10 9 11 7 12
REMARK SMILES IDX 6 14 5 15 4 16 19 17 3 18 20 19 21 20 2 21 1 22 22 23
REMARK H PARENT 7 13 22 24
REMARK Flexibility Score: inf
ROOT
ATOM      1  C   UNL     1     -20.759  -6.114  -8.909  1.00  0.00     0.010 C 
ENDROOT
BRANCH   1   2
ATOM      2  C   UNL     1     -22.010  -5.535  -9.586  1.00  0.00     0.005 C 
BRANCH   2   3
ATOM      3  C   UNL     1     -21.633  -4.702 -10.819  1.00  0.00     0.027 C 
BRANCH   3   4
ATOM      4  C   UNL     1     -22.092  -3.276 -10.665  1.00  0.00    -0.031 C 
ATOM      5  C   UNL     1     -21.286  -2.240 -10.363  1.00  0.00    -0.028 C 
BRANCH   5   6
ATOM      6  C   UNL     1     -19.804  -2.352 -10.063  1.00  0.00     0.005 C 
ATOM      7  C   UNL     1     -19.085  -1.082 -10.525  1.00  0.00     0.012 C 
ATOM      8  C   UNL     1     -19.596  -2.576  -8.563  1.00  0.00     0.012 C 
ENDBRANCH   5   6
ENDBRANCH   3   4
ENDBRANCH   2   3
ENDBRANCH   1   2
BRANCH   1   9
ATOM      9  C   UNL     1     -20.733  -7.648  -8.951  1.00  0.00     0.100 C 
BRANCH   9  10
ATOM     10  C   UNL     1     -20.723  -8.238  -7.571  1.00  0.00     0.220 C 
ATOM     11  O   UNL     1     -19.952  -7.757  -6.697  1.00  0.00    -0.275 OA
ATOM     12  N   UNL     1     -21.551  -9.367  -7.263  1.00  0.00    -0.352 N 
ATOM     13  H   UNL     1     -22.194  -9.733  -8.000  1.00  0.00     0.163 HD
BRANCH  12  14
ATOM     14  C   UNL     1     -21.447 -10.065  -5.982  1.00  0.00     0.151 C 
BRANCH  14  15
ATOM     15  C   UNL     1     -21.127 -11.519  -6.199  1.00  0.00    -0.025 A 
ATOM     16  C   UNL     1     -22.038 -12.350  -6.873  1.00  0.00     0.056 A 
ATOM     17  C   UNL     1     -19.889 -12.038  -5.793  1.00  0.00     0.009 A 
ATOM     18  C   UNL     1     -21.727 -13.704  -7.116  1.00  0.00     0.160 A 
ATOM     19  C   UNL     1     -19.576 -13.379  -6.032  1.00  0.00     0.050 A 
ATOM     20  C   UNL     1     -20.491 -14.212  -6.689  1.00  0.00     0.157 A 
BRANCH  18  21
ATOM     21  O   UNL     1     -22.615 -14.567  -7.776  1.00  0.00    -0.493 OA
ATOM     22  C   UNL     1     -23.548 -15.418  -7.120  1.00  0.00     0.278 C 
ENDBRANCH  18  21
BRANCH  20  23
ATOM     23  O   UNL     1     -20.179 -15.550  -6.926  1.00  0.00    -0.504 OA
ATOM     24  H   UNL     1     -19.271 -15.933  -6.688  1.00  0.00     0.293 HD
ENDBRANCH  20  23
ENDBRANCH  14  15
ENDBRANCH  12  14
ENDBRANCH   9  10
ENDBRANCH   1   9
TORSDOF 10
ENDMDL
MODEL 7
REMARK VINA RESULT:    -4.746      2.271      4.079
REMARK INTER + INTRA:          -9.214
REMARK INTER:                  -8.017
REMARK INTRA:                  -1.197
REMARK UNBOUND:                -1.831
REMARK SMILES COc1cc(CNC(=O)CCCCC=CC(C)C)ccc1O
REMARK SMILES IDX 11 1 12 2 13 3 14 4 15 5 16 6 17 7 18 8 10 9 8 10 9 11 7 12
REMARK SMILES IDX 6 14 5 15 4 16 19 17 3 18 20 19 21 20 2 21 1 22 22 23
REMARK H PARENT 7 13 22 24
REMARK Flexibility Score: inf
ROOT
ATOM      1  C   UNL     1     -19.219  -7.409  -8.648  1.00  0.00     0.010 C 
ENDROOT
BRANCH   1   2
ATOM      2  C   UNL     1     -20.635  -7.607  -9.209  1.00  0.00     0.005 C 
BRANCH   2   3
ATOM      3  C   UNL     1     -21.462  -6.320  -9.086  1.00  0.00     0.027 C 
BRANCH   3   4
ATOM      4  C   UNL     1     -21.637  -5.663 -10.430  1.00  0.00    -0.031 C 
ATOM      5  C   UNL     1     -21.387  -4.364 -10.687  1.00  0.00    -0.028 C 
BRANCH   5   6
ATOM      6  C   UNL     1     -20.956  -3.343  -9.653  1.00  0.00     0.005 C 
ATOM      7  C   UNL     1     -19.433  -3.368  -9.504  1.00  0.00     0.012 C 
ATOM      8  C   UNL     1     -21.436  -1.950 -10.071  1.00  0.00     0.012 C 
ENDBRANCH   5   6
ENDBRANCH   3   4
ENDBRANCH   2   3
ENDBRANCH   1   2
BRANCH   1   9
ATOM      9  C   UNL     1     -18.906  -8.385  -7.505  1.00  0.00     0.100 C 
BRANCH   9  10
ATOM     10  C   UNL     1     -19.262  -7.800  -6.169  1.00  0.00     0.220 C 
ATOM     11  O   UNL     1     -19.337  -8.555  -5.162  1.00  0.00    -0.275 OA
ATOM     12  N   UNL     1     -19.559  -6.403  -6.049  1.00  0.00    -0.352 N 
ATOM     13  H   UNL     1     -19.471  -5.798  -6.896  1.00  0.00     0.163 HD
BRANCH  12  14
ATOM     14  C   UNL     1     -20.065  -5.832  -4.802  1.00  0.00     0.151 C 
BRANCH  14  15
ATOM     15  C   UNL     1     -21.532  -6.130  -4.643  1.00  0.00    -0.025 A 
ATOM     16  C   UNL     1     -22.044  -6.510  -3.391  1.00  0.00     0.056 A 
ATOM     17  C   UNL     1     -22.408  -5.963  -5.725  1.00  0.00     0.009 A 
ATOM     18  C   UNL     1     -23.423  -6.751  -3.226  1.00  0.00     0.160 A 
ATOM     19  C   UNL     1     -23.775  -6.200  -5.566  1.00  0.00     0.050 A 
ATOM     20  C   UNL     1     -24.284  -6.596  -4.322  1.00  0.00     0.157 A 
BRANCH  18  21
ATOM     21  O   UNL     1     -23.970  -7.142  -1.994  1.00  0.00    -0.493 OA
ATOM     22  C   UNL     1     -23.203  -7.510  -0.853  1.00  0.00     0.278 C 
ENDBRANCH  18  21
BRANCH  20  23
ATOM     23  O   UNL     1     -25.649  -6.833  -4.164  1.00  0.00    -0.504 OA
ATOM     24  H   UNL     1     -26.250  -6.174  -3.681  1.00  0.00     0.293 HD
ENDBRANCH  20  23
ENDBRANCH  14  15
ENDBRANCH  12  14
ENDBRANCH   9  10
ENDBRANCH   1   9
TORSDOF 10
ENDMDL
MODEL 8
REMARK VINA RESULT:    -4.653      4.674      7.796
REMARK INTER + INTRA:          -9.068
REMARK INTER:                  -8.346
REMARK INTRA:                  -0.722
REMARK UNBOUND:                -1.831
REMARK SMILES COc1cc(CNC(=O)CCCCC=CC(C)C)ccc1O
REMARK SMILES IDX 11 1 12 2 13 3 14 4 15 5 16 6 17 7 18 8 10 9 8 10 9 11 7 12
REMARK SMILES IDX 6 14 5 15 4 16 19 17 3 18 20 19 21 20 2 21 1 22 22 23
REMARK H PARENT 7 13 22 24
REMARK Flexibility Score: inf
ROOT
ATOM      1  C   UNL     1     -20.629  -8.369  -7.748  1.00  0.00     0.010 C 
ENDROOT
BRANCH   1   2
ATOM      2  C   UNL     1     -20.423  -7.393  -8.915  1.00  0.00     0.005 C 
BRANCH   2   3
ATOM      3  C   UNL     1     -21.524  -6.324  -8.940  1.00  0.00     0.027 C 
BRANCH   3   4
ATOM      4  C   UNL     1     -21.656  -5.719 -10.313  1.00  0.00    -0.031 C 
ATOM      5  C   UNL     1     -21.393  -4.432 -10.612  1.00  0.00    -0.028 C 
BRANCH   5   6
ATOM      6  C   UNL     1     -20.989  -3.372  -9.606  1.00  0.00     0.005 C 
ATOM      7  C   UNL     1     -19.463  -3.321  -9.492  1.00  0.00     0.012 C 
ATOM      8  C   UNL     1     -21.546  -2.012 -10.036  1.00  0.00     0.012 C 
ENDBRANCH   5   6
ENDBRANCH   3   4
ENDBRANCH   2   3
ENDBRANCH   1   2
BRANCH   1   9
ATOM      9  C   UNL     1     -21.674  -7.862  -6.744  1.00  0.00     0.100 C 
BRANCH   9  10
ATOM     10  C   UNL     1     -22.213  -8.978  -5.897  1.00  0.00     0.220 C 
ATOM     11  O   UNL     1     -23.016  -8.716  -4.962  1.00  0.00    -0.275 OA
ATOM     12  N   UNL     1     -21.781 -10.327  -6.123  1.00  0.00    -0.352 N 
ATOM     13  H   UNL     1     -21.130 -10.518  -6.916  1.00  0.00     0.163 HD
BRANCH  12  14
ATOM     14  C   UNL     1     -22.157 -11.412  -5.218  1.00  0.00     0.151 C 
BRANCH  14  15
ATOM     15  C   UNL     1     -21.511 -12.702  -5.645  1.00  0.00    -0.025 A 
ATOM     16  C   UNL     1     -22.292 -13.852  -5.845  1.00  0.00     0.056 A 
ATOM     17  C   UNL     1     -20.135 -12.748  -5.914  1.00  0.00     0.009 A 
ATOM     18  C   UNL     1     -21.699 -15.053  -6.284  1.00  0.00     0.160 A 
ATOM     19  C   UNL     1     -19.542 -13.935  -6.350  1.00  0.00     0.050 A 
ATOM     20  C   UNL     1     -20.319 -15.087  -6.532  1.00  0.00     0.157 A 
BRANCH  18  21
ATOM     21  O   UNL     1     -22.445 -16.225  -6.484  1.00  0.00    -0.493 OA
ATOM     22  C   UNL     1     -23.344 -16.431  -7.569  1.00  0.00     0.278 C 
ENDBRANCH  18  21
BRANCH  20  23
ATOM     23  O   UNL     1     -19.727 -16.272  -6.966  1.00  0.00    -0.504 OA
ATOM     24  H   UNL     1     -18.788 -16.530  -6.684  1.00  0.00     0.293 HD
ENDBRANCH  20  23
ENDBRANCH  14  15
ENDBRANCH  12  14
ENDBRANCH   9  10
ENDBRANCH   1   9
TORSDOF 10
ENDMDL
MODEL 9
REMARK VINA RESULT:    -4.549      6.097      9.243
REMARK INTER + INTRA:          -8.906
REMARK INTER:                  -8.026
REMARK INTRA:                  -0.880
REMARK UNBOUND:                -1.831
REMARK SMILES COc1cc(CNC(=O)CCCCC=CC(C)C)ccc1O
REMARK SMILES IDX 11 1 12 2 13 3 14 4 15 5 16 6 17 7 18 8 10 9 8 10 9 11 7 12
REMARK SMILES IDX 6 14 5 15 4 16 19 17 3 18 20 19 21 20 2 21 1 22 22 23
REMARK H PARENT 7 13 22 24
REMARK Flexibility Score: inf
ROOT
ATOM      1  C   UNL     1     -19.610  -9.873  -6.116  1.00  0.00     0.010 C 
ENDROOT
BRANCH   1   2
ATOM      2  C   UNL     1     -20.390  -8.677  -5.552  1.00  0.00     0.005 C 
BRANCH   2   3
ATOM      3  C   UNL     1     -21.240  -8.010  -6.642  1.00  0.00     0.027 C 
BRANCH   3   4
ATOM      4  C   UNL     1     -20.721  -8.354  -8.014  1.00  0.00    -0.031 C 
ATOM      5  C   UNL     1     -20.666  -7.494  -9.050  1.00  0.00    -0.028 C 
BRANCH   5   6
ATOM      6  C   UNL     1     -21.178  -6.068  -9.022  1.00  0.00     0.005 C 
ATOM      7  C   UNL     1     -20.020  -5.108  -8.734  1.00  0.00     0.012 C 
ATOM      8  C   UNL     1     -21.841  -5.730 -10.360  1.00  0.00     0.012 C 
ENDBRANCH   5   6
ENDBRANCH   3   4
ENDBRANCH   2   3
ENDBRANCH   1   2
BRANCH   1   9
ATOM      9  C   UNL     1     -19.799 -11.141  -5.271  1.00  0.00     0.100 C 
BRANCH   9  10
ATOM     10  C   UNL     1     -21.056 -11.871  -5.646  1.00  0.00     0.220 C 
ATOM     11  O   UNL     1     -21.640 -11.585  -6.726  1.00  0.00    -0.275 OA
ATOM     12  N   UNL     1     -21.611 -12.853  -4.761  1.00  0.00    -0.352 N 
ATOM     13  H   UNL     1     -21.096 -13.084  -3.883  1.00  0.00     0.163 HD
BRANCH  12  14
ATOM     14  C   UNL     1     -22.914 -13.464  -5.018  1.00  0.00     0.151 C 
BRANCH  14  15
ATOM     15  C   UNL     1     -22.745 -14.810  -5.670  1.00  0.00    -0.025 A 
ATOM     16  C   UNL     1     -23.687 -15.263  -6.608  1.00  0.00     0.056 A 
ATOM     17  C   UNL     1     -21.612 -15.590  -5.398  1.00  0.00     0.009 A 
ATOM     18  C   UNL     1     -23.514 -16.505  -7.252  1.00  0.00     0.160 A 
ATOM     19  C   UNL     1     -21.435 -16.821  -6.034  1.00  0.00     0.050 A 
ATOM     20  C   UNL     1     -22.384 -17.281  -6.958  1.00  0.00     0.157 A 
BRANCH  18  21
ATOM     21  O   UNL     1     -24.439 -16.996  -8.187  1.00  0.00    -0.493 OA
ATOM     22  C   UNL     1     -24.425 -16.681  -9.576  1.00  0.00     0.278 C 
ENDBRANCH  18  21
BRANCH  20  23
ATOM     23  O   UNL     1     -22.208 -18.510  -7.592  1.00  0.00    -0.504 OA
ATOM     24  H   UNL     1     -22.550 -19.372  -7.181  1.00  0.00     0.293 HD
ENDBRANCH  20  23
ENDBRANCH  14  15
ENDBRANCH  12  14
ENDBRANCH   9  10
ENDBRANCH   1   9
TORSDOF 10
ENDMDL
