MODEL 1
REMARK VINA RESULT:    -5.070      0.000      0.000
REMARK INTER + INTRA:          -5.218
REMARK INTER:                  -5.218
REMARK INTRA:                   0.000
REMARK UNBOUND:                 0.000
REMARK SMILES Nc1ncnc2nc[nH]c12
REMARK SMILES IDX 8 1 7 2 6 3 5 4 4 5 3 6 2 7 10 8 9 9 1 11
REMARK H PARENT 9 10 1 12 1 13
REMARK Flexibility Score: inf
ROOT
ATOM      1  C   UNL     1      -7.557  -4.390  12.669  1.00  0.00     0.199 A 
ATOM      2  N   UNL     1      -7.606  -5.748  12.752  1.00  0.00    -0.217 NA
ATOM      3  C   UNL     1      -8.719  -5.950  13.476  1.00  0.00     0.182 A 
ATOM      4  N   UNL     1      -9.232  -7.146  13.852  1.00  0.00    -0.215 NA
ATOM      5  C   UNL     1     -10.382  -7.149  14.593  1.00  0.00     0.226 A 
ATOM      6  N   UNL     1     -10.991  -5.970  14.941  1.00  0.00    -0.217 NA
ATOM      7  C   UNL     1     -10.474  -4.763  14.563  1.00  0.00     0.152 A 
ATOM      8  C   UNL     1      -9.303  -4.776  13.809  1.00  0.00     0.127 A 
ATOM      9  N   UNL     1      -8.581  -3.768  13.305  1.00  0.00    -0.340 N 
ATOM     10  H   UNL     1      -8.753  -2.740  13.379  1.00  0.00     0.168 HD
ENDROOT
BRANCH   7  11
ATOM     11  N   UNL     1     -11.124  -3.548  14.937  1.00  0.00    -0.382 N 
ATOM     12  H   UNL     1     -11.600  -3.475  15.863  1.00  0.00     0.158 HD
ATOM     13  H   UNL     1     -11.137  -2.720  14.301  1.00  0.00     0.158 HD
ENDBRANCH   7  11
TORSDOF 1
ENDMDL
MODEL 2
REMARK VINA RESULT:    -4.698     14.642     16.172
REMARK INTER + INTRA:          -4.836
REMARK INTER:                  -4.836
REMARK INTRA:                   0.000
REMARK UNBOUND:                 0.000
REMARK SMILES Nc1ncnc2nc[nH]c12
REMARK SMILES IDX 8 1 7 2 6 3 5 4 4 5 3 6 2 7 10 8 9 9 1 11
REMARK H PARENT 9 10 1 12 1 13
REMARK Flexibility Score: inf
ROOT
ATOM      1  C   UNL     1       3.242   3.039  14.724  1.00  0.00     0.199 A 
ATOM      2  N   UNL     1       2.381   2.528  13.801  1.00  0.00    -0.217 NA
ATOM      3  C   UNL     1       2.784   3.131  12.671  1.00  0.00     0.182 A 
ATOM      4  N   UNL     1       2.251   2.971  11.436  1.00  0.00    -0.215 NA
ATOM      5  C   UNL     1       2.800   3.675  10.401  1.00  0.00     0.226 A 
ATOM      6  N   UNL     1       3.860   4.519  10.616  1.00  0.00    -0.217 NA
ATOM      7  C   UNL     1       4.399   4.682  11.862  1.00  0.00     0.152 A 
ATOM      8  C   UNL     1       3.828   3.958  12.905  1.00  0.00     0.127 A 
ATOM      9  N   UNL     1       4.138   3.916  14.207  1.00  0.00    -0.340 N 
ATOM     10  H   UNL     1       4.890   4.432  14.716  1.00  0.00     0.168 HD
ENDROOT
BRANCH   7  11
ATOM     11  N   UNL     1       5.502   5.566  12.063  1.00  0.00    -0.382 N 
ATOM     12  H   UNL     1       5.522   6.493  11.583  1.00  0.00     0.158 HD
ATOM     13  H   UNL     1       6.300   5.307  12.684  1.00  0.00     0.158 HD
ENDBRANCH   7  11
TORSDOF 1
ENDMDL
MODEL 3
REMARK VINA RESULT:    -4.654      1.298      3.169
REMARK INTER + INTRA:          -4.790
REMARK INTER:                  -4.790
REMARK INTRA:                   0.000
REMARK UNBOUND:                 0.000
REMARK SMILES Nc1ncnc2nc[nH]c12
REMARK SMILES IDX 8 1 7 2 6 3 5 4 4 5 3 6 2 7 10 8 9 9 1 11
REMARK H PARENT 9 10 1 12 1 13
REMARK Flexibility Score: inf
ROOT
ATOM      1  C   UNL     1     -11.074  -7.487  14.864  1.00  0.00     0.199 A 
ATOM      2  N   UNL     1     -10.001  -8.301  14.665  1.00  0.00    -0.217 NA
ATOM      3  C   UNL     1      -9.087  -7.451  14.171  1.00  0.00     0.182 A 
ATOM      4  N   UNL     1      -7.821  -7.754  13.796  1.00  0.00    -0.215 NA
ATOM      5  C   UNL     1      -7.033  -6.747  13.313  1.00  0.00     0.226 A 
ATOM      6  N   UNL     1      -7.519  -5.468  13.212  1.00  0.00    -0.217 NA
ATOM      7  C   UNL     1      -8.797  -5.161  13.589  1.00  0.00     0.152 A 
ATOM      8  C   UNL     1      -9.586  -6.197  14.079  1.00  0.00     0.127 A 
ATOM      9  N   UNL     1     -10.852  -6.196  14.516  1.00  0.00    -0.340 N 
ATOM     10  H   UNL     1     -11.520  -5.396  14.578  1.00  0.00     0.168 HD
ENDROOT
BRANCH   7  11
ATOM     11  N   UNL     1      -9.282  -3.823  13.475  1.00  0.00    -0.382 N 
ATOM     12  H   UNL     1      -8.718  -3.105  12.968  1.00  0.00     0.158 HD
ATOM     13  H   UNL     1     -10.197  -3.539  13.889  1.00  0.00     0.158 HD
ENDBRANCH   7  11
TORSDOF 1
ENDMDL
MODEL 4
REMARK VINA RESULT:    -4.625      1.243      2.017
REMARK INTER + INTRA:          -4.761
REMARK INTER:                  -4.761
REMARK INTRA:                   0.000
REMARK UNBOUND:                 0.000
REMARK SMILES Nc1ncnc2nc[nH]c12
REMARK SMILES IDX 8 1 7 2 6 3 5 4 4 5 3 6 2 7 10 8 9 9 1 11
REMARK H PARENT 9 10 1 12 1 13
REMARK Flexibility Score: inf
ROOT
ATOM      1  C   UNL     1      -7.454  -7.588  12.913  1.00  0.00     0.199 A 
ATOM      2  N   UNL     1      -8.354  -8.342  13.602  1.00  0.00    -0.217 NA
ATOM      3  C   UNL     1      -9.232  -7.420  14.029  1.00  0.00     0.182 A 
ATOM      4  N   UNL     1     -10.340  -7.644  14.775  1.00  0.00    -0.215 NA
ATOM      5  C   UNL     1     -11.116  -6.571  15.114  1.00  0.00     0.226 A 
ATOM      6  N   UNL     1     -10.774  -5.306  14.707  1.00  0.00    -0.217 NA
ATOM      7  C   UNL     1      -9.656  -5.078  13.955  1.00  0.00     0.152 A 
ATOM      8  C   UNL     1      -8.876  -6.181  13.618  1.00  0.00     0.127 A 
ATOM      9  N   UNL     1      -7.746  -6.263  12.904  1.00  0.00    -0.340 N 
ATOM     10  H   UNL     1      -7.207  -5.495  12.445  1.00  0.00     0.168 HD
ENDROOT
BRANCH   7  11
ATOM     11  N   UNL     1      -9.319  -3.754  13.543  1.00  0.00    -0.382 N 
ATOM     12  H   UNL     1      -9.260  -2.987  14.249  1.00  0.00     0.158 HD
ATOM     13  H   UNL     1      -9.127  -3.527  12.542  1.00  0.00     0.158 HD
ENDBRANCH   7  11
TORSDOF 1
ENDMDL
MODEL 5
REMARK VINA RESULT:    -4.567      1.094      2.985
REMARK INTER + INTRA:          -4.701
REMARK INTER:                  -4.701
REMARK INTRA:                   0.000
REMARK UNBOUND:                 0.000
REMARK SMILES Nc1ncnc2nc[nH]c12
REMARK SMILES IDX 8 1 7 2 6 3 5 4 4 5 3 6 2 7 10 8 9 9 1 11
REMARK H PARENT 9 10 1 12 1 13
REMARK Flexibility Score: inf
ROOT
ATOM      1  C   UNL     1     -11.057  -4.497  14.769  1.00  0.00     0.199 A 
ATOM      2  N   UNL     1     -11.124  -5.838  14.992  1.00  0.00    -0.217 NA
ATOM      3  C   UNL     1     -10.057  -6.293  14.316  1.00  0.00     0.182 A 
ATOM      4  N   UNL     1      -9.659  -7.584  14.209  1.00  0.00    -0.215 NA
ATOM      5  C   UNL     1      -8.539  -7.854  13.472  1.00  0.00     0.226 A 
ATOM      6  N   UNL     1      -7.846  -6.840  12.860  1.00  0.00    -0.217 NA
ATOM      7  C   UNL     1      -8.247  -5.538  12.966  1.00  0.00     0.152 A 
ATOM      8  C   UNL     1      -9.389  -5.279  13.719  1.00  0.00     0.127 A 
ATOM      9  N   UNL     1     -10.007  -4.125  13.995  1.00  0.00    -0.340 N 
ATOM     10  H   UNL     1      -9.752  -3.159  13.690  1.00  0.00     0.168 HD
ENDROOT
BRANCH   7  11
ATOM     11  N   UNL     1      -7.511  -4.500  12.319  1.00  0.00    -0.382 N 
ATOM     12  H   UNL     1      -6.572  -4.223  12.681  1.00  0.00     0.158 HD
ATOM     13  H   UNL     1      -7.891  -4.002  11.484  1.00  0.00     0.158 HD
ENDBRANCH   7  11
TORSDOF 1
ENDMDL
MODEL 6
REMARK VINA RESULT:    -4.562     14.773     16.105
REMARK INTER + INTRA:          -4.696
REMARK INTER:                  -4.696
REMARK INTRA:                   0.000
REMARK UNBOUND:                 0.000
REMARK SMILES Nc1ncnc2nc[nH]c12
REMARK SMILES IDX 8 1 7 2 6 3 5 4 4 5 3 6 2 7 10 8 9 9 1 11
REMARK H PARENT 9 10 1 12 1 13
REMARK Flexibility Score: inf
ROOT
ATOM      1  C   UNL     1       2.528   3.764   9.522  1.00  0.00     0.199 A 
ATOM      2  N   UNL     1       1.875   3.040  10.473  1.00  0.00    -0.217 NA
ATOM      3  C   UNL     1       2.597   3.300  11.575  1.00  0.00     0.182 A 
ATOM      4  N   UNL     1       2.371   2.819  12.820  1.00  0.00    -0.215 NA
ATOM      5  C   UNL     1       3.220   3.199  13.822  1.00  0.00     0.226 A 
ATOM      6  N   UNL     1       4.270   4.043  13.564  1.00  0.00    -0.217 NA
ATOM      7  C   UNL     1       4.500   4.530  12.307  1.00  0.00     0.152 A 
ATOM      8  C   UNL     1       3.627   4.134  11.298  1.00  0.00     0.127 A 
ATOM      9  N   UNL     1       3.603   4.443   9.996  1.00  0.00    -0.340 N 
ATOM     10  H   UNL     1       4.253   5.060   9.460  1.00  0.00     0.168 HD
ENDROOT
BRANCH   7  11
ATOM     11  N   UNL     1       5.598   5.407  12.061  1.00  0.00    -0.382 N 
ATOM     12  H   UNL     1       5.489   6.209  11.401  1.00  0.00     0.158 HD
ATOM     13  H   UNL     1       6.521   5.268  12.529  1.00  0.00     0.158 HD
ENDBRANCH   7  11
TORSDOF 1
ENDMDL
MODEL 7
REMARK VINA RESULT:    -4.459     12.075     12.907
REMARK INTER + INTRA:          -4.589
REMARK INTER:                  -4.589
REMARK INTRA:                   0.000
REMARK UNBOUND:                 0.000
REMARK SMILES Nc1ncnc2nc[nH]c12
REMARK SMILES IDX 8 1 7 2 6 3 5 4 4 5 3 6 2 7 10 8 9 9 1 11
REMARK H PARENT 9 10 1 12 1 13
REMARK Flexibility Score: inf
ROOT
ATOM      1  C   UNL     1      -7.082  -6.774   1.588  1.00  0.00     0.199 A 
ATOM      2  N   UNL     1      -5.871  -6.280   1.209  1.00  0.00    -0.217 NA
ATOM      3  C   UNL     1      -5.018  -7.133   1.797  1.00  0.00     0.182 A 
ATOM      4  N   UNL     1      -3.665  -7.092   1.739  1.00  0.00    -0.215 NA
ATOM      5  C   UNL     1      -2.961  -8.054   2.409  1.00  0.00     0.226 A 
ATOM      6  N   UNL     1      -3.615  -9.029   3.119  1.00  0.00    -0.217 NA
ATOM      7  C   UNL     1      -4.980  -9.072   3.179  1.00  0.00     0.152 A 
ATOM      8  C   UNL     1      -5.682  -8.085   2.492  1.00  0.00     0.127 A 
ATOM      9  N   UNL     1      -6.999  -7.877   2.373  1.00  0.00    -0.340 N 
ATOM     10  H   UNL     1      -7.787  -8.426   2.783  1.00  0.00     0.168 HD
ENDROOT
BRANCH   7  11
ATOM     11  N   UNL     1      -5.640 -10.095   3.924  1.00  0.00    -0.382 N 
ATOM     12  H   UNL     1      -6.682 -10.154   3.922  1.00  0.00     0.158 HD
ATOM     13  H   UNL     1      -5.101 -10.797   4.479  1.00  0.00     0.158 HD
ENDBRANCH   7  11
TORSDOF 1
ENDMDL
MODEL 8
REMARK VINA RESULT:    -4.414     11.641     13.589
REMARK INTER + INTRA:          -4.543
REMARK INTER:                  -4.543
REMARK INTRA:                   0.000
REMARK UNBOUND:                 0.000
REMARK SMILES Nc1ncnc2nc[nH]c12
REMARK SMILES IDX 8 1 7 2 6 3 5 4 4 5 3 6 2 7 10 8 9 9 1 11
REMARK H PARENT 9 10 1 12 1 13
REMARK Flexibility Score: inf
ROOT
ATOM      1  C   UNL     1       3.624 -10.025   8.342  1.00  0.00     0.199 A 
ATOM      2  N   UNL     1       2.438 -10.036   9.011  1.00  0.00    -0.217 NA
ATOM      3  C   UNL     1       2.212  -8.728   9.212  1.00  0.00     0.182 A 
ATOM      4  N   UNL     1       1.147  -8.181   9.845  1.00  0.00    -0.215 NA
ATOM      5  C   UNL     1       1.091  -6.819   9.952  1.00  0.00     0.226 A 
ATOM      6  N   UNL     1       2.091  -6.036   9.431  1.00  0.00    -0.217 NA
ATOM      7  C   UNL     1       3.166  -6.588   8.792  1.00  0.00     0.152 A 
ATOM      8  C   UNL     1       3.208  -7.975   8.691  1.00  0.00     0.127 A 
ATOM      9  N   UNL     1       4.119  -8.780   8.131  1.00  0.00    -0.340 N 
ATOM     10  H   UNL     1       5.007  -8.522   7.644  1.00  0.00     0.168 HD
ENDROOT
BRANCH   7  11
ATOM     11  N   UNL     1       4.194  -5.754   8.257  1.00  0.00    -0.382 N 
ATOM     12  H   UNL     1       5.194  -6.045   8.334  1.00  0.00     0.158 HD
ATOM     13  H   UNL     1       3.972  -4.850   7.785  1.00  0.00     0.158 HD
ENDBRANCH   7  11
TORSDOF 1
ENDMDL
MODEL 9
REMARK VINA RESULT:    -4.339     14.295     15.667
REMARK INTER + INTRA:          -4.466
REMARK INTER:                  -4.466
REMARK INTRA:                   0.000
REMARK UNBOUND:                 0.000
REMARK SMILES Nc1ncnc2nc[nH]c12
REMARK SMILES IDX 8 1 7 2 6 3 5 4 4 5 3 6 2 7 10 8 9 9 1 11
REMARK H PARENT 9 10 1 12 1 13
REMARK Flexibility Score: inf
ROOT
ATOM      1  C   UNL     1       2.940   2.604  14.828  1.00  0.00     0.199 A 
ATOM      2  N   UNL     1       4.069   3.298  14.518  1.00  0.00    -0.217 NA
ATOM      3  C   UNL     1       3.784   3.772  13.294  1.00  0.00     0.182 A 
ATOM      4  N   UNL     1       4.587   4.541  12.519  1.00  0.00    -0.215 NA
ATOM      5  C   UNL     1       4.120   4.929  11.294  1.00  0.00     0.226 A 
ATOM      6  N   UNL     1       2.873   4.544  10.869  1.00  0.00    -0.217 NA
ATOM      7  C   UNL     1       2.063   3.769  11.650  1.00  0.00     0.152 A 
ATOM      8  C   UNL     1       2.552   3.382  12.894  1.00  0.00     0.127 A 
ATOM      9  N   UNL     1       1.995   2.637  13.856  1.00  0.00    -0.340 N 
ATOM     10  H   UNL     1       1.055   2.181  13.866  1.00  0.00     0.168 HD
ENDROOT
BRANCH   7  11
ATOM     11  N   UNL     1       0.769   3.380  11.187  1.00  0.00    -0.382 N 
ATOM     12  H   UNL     1       0.309   3.913  10.416  1.00  0.00     0.158 HD
ATOM     13  H   UNL     1       0.264   2.568  11.604  1.00  0.00     0.158 HD
ENDBRANCH   7  11
TORSDOF 1
ENDMDL
