MODEL 1
REMARK VINA RESULT:    -6.287      0.000      0.000
REMARK INTER + INTRA:          -6.471
REMARK INTER:                  -6.471
REMARK INTRA:                   0.000
REMARK UNBOUND:                 0.000
REMARK SMILES CC1(C)CC[C@]2(C)CC[C@@]3(C)C(=CC[C@H]4[C@@]5(C)CC[C@H](O)C(C)(C)[C@H]5CC[C@@]43C)[C@@H]2C1
REMARK SMILES IDX 1 1 2 2 4 3 5 4 6 5 8 6 9 7 10 8 12 9 13 10 14 11 15 12
REMARK SMILES IDX 28 13 27 14 26 15 25 16 16 17 18 18 19 19 20 20 22 21 23 22
REMARK SMILES IDX 24 23 17 24 29 25 30 26 31 27 11 28 7 29 3 30 21 31
REMARK H PARENT 21 32
REMARK Flexibility Score: inf
ROOT
ATOM      1  C   UNL     1     -14.815  57.993   9.294  1.00  0.00     0.011 C 
ATOM      2  C   UNL     1     -14.205  56.579   9.144  1.00  0.00    -0.035 C 
ATOM      3  C   UNL     1     -13.137  56.328  10.254  1.00  0.00     0.007 C 
ATOM      4  C   UNL     1     -13.447  55.117  11.142  1.00  0.00     0.008 C 
ATOM      5  C   UNL     1     -14.895  55.123  11.716  1.00  0.00    -0.026 C 
ATOM      6  C   UNL     1     -15.059  53.792  12.488  1.00  0.00     0.008 C 
ATOM      7  C   UNL     1     -16.477  53.606  13.029  1.00  0.00     0.012 C 
ATOM      8  C   UNL     1     -17.583  53.564  11.907  1.00  0.00    -0.006 C 
ATOM      9  C   UNL     1     -17.016  54.083  10.565  1.00  0.00    -0.064 C 
ATOM     10  C   UNL     1     -17.602  53.691   9.403  1.00  0.00    -0.027 C 
ATOM     11  C   UNL     1     -18.635  52.609   9.251  1.00  0.00     0.032 C 
ATOM     12  C   UNL     1     -19.237  52.055  10.570  1.00  0.00     0.006 C 
ATOM     13  C   UNL     1     -18.175  52.069  11.729  1.00  0.00    -0.020 C 
ATOM     14  C   UNL     1     -18.906  51.594  13.017  1.00  0.00     0.008 C 
ATOM     15  C   UNL     1     -19.568  50.227  12.872  1.00  0.00     0.005 C 
ATOM     16  C   UNL     1     -20.666  50.192  11.774  1.00  0.00     0.003 C 
ATOM     17  C   UNL     1     -20.125  50.731  10.375  1.00  0.00    -0.025 C 
ATOM     18  C   UNL     1     -19.376  49.611   9.560  1.00  0.00     0.010 C 
ATOM     19  C   UNL     1     -19.529  48.188  10.110  1.00  0.00     0.033 C 
ATOM     20  C   UNL     1     -20.968  47.875  10.514  1.00  0.00     0.120 C 
ATOM     21  C   UNL     1     -21.447  48.783  11.711  1.00  0.00    -0.006 C 
ATOM     22  C   UNL     1     -21.267  47.941  13.012  1.00  0.00     0.014 C 
ATOM     23  C   UNL     1     -22.981  49.037  11.637  1.00  0.00     0.014 C 
ATOM     24  C   UNL     1     -21.361  51.171   9.524  1.00  0.00     0.012 C 
ATOM     25  C   UNL     1     -16.991  51.094  11.419  1.00  0.00     0.012 C 
ATOM     26  C   UNL     1     -15.984  55.255  10.570  1.00  0.00     0.022 C 
ATOM     27  C   UNL     1     -15.336  55.511   9.171  1.00  0.00     0.015 C 
ATOM     28  C   UNL     1     -18.671  54.606  12.320  1.00  0.00     0.017 C 
ATOM     29  C   UNL     1     -15.017  56.302  12.725  1.00  0.00     0.012 C 
ATOM     30  C   UNL     1     -13.522  56.514   7.759  1.00  0.00     0.011 C 
ENDROOT
BRANCH  20  31
ATOM     31  O   UNL     1     -21.795  47.984   9.381  1.00  0.00    -0.393 OA
ATOM     32  H   UNL     1     -22.104  48.926   9.325  1.00  0.00     0.210 HD
ENDBRANCH  20  31
TORSDOF 1
ENDMDL
MODEL 2
REMARK VINA RESULT:    -5.943      3.370      5.403
REMARK INTER + INTRA:          -6.117
REMARK INTER:                  -6.117
REMARK INTRA:                   0.000
REMARK UNBOUND:                 0.000
REMARK SMILES CC1(C)CC[C@]2(C)CC[C@@]3(C)C(=CC[C@H]4[C@@]5(C)CC[C@H](O)C(C)(C)[C@H]5CC[C@@]43C)[C@@H]2C1
REMARK SMILES IDX 1 1 2 2 4 3 5 4 6 5 8 6 9 7 10 8 12 9 13 10 14 11 15 12
REMARK SMILES IDX 28 13 27 14 26 15 25 16 16 17 18 18 19 19 20 20 22 21 23 22
REMARK SMILES IDX 24 23 17 24 29 25 30 26 31 27 11 28 7 29 3 30 21 31
REMARK H PARENT 21 32
REMARK Flexibility Score: inf
ROOT
ATOM      1  C   UNL     1     -22.350  57.594  11.235  1.00  0.00     0.011 C 
ATOM      2  C   UNL     1     -21.596  57.537   9.885  1.00  0.00    -0.035 C 
ATOM      3  C   UNL     1     -20.618  58.747   9.757  1.00  0.00     0.007 C 
ATOM      4  C   UNL     1     -19.154  58.336   9.563  1.00  0.00     0.008 C 
ATOM      5  C   UNL     1     -18.659  57.293  10.608  1.00  0.00    -0.026 C 
ATOM      6  C   UNL     1     -17.213  56.922  10.197  1.00  0.00     0.008 C 
ATOM      7  C   UNL     1     -16.624  55.821  11.080  1.00  0.00     0.012 C 
ATOM      8  C   UNL     1     -17.424  54.465  11.022  1.00  0.00    -0.006 C 
ATOM      9  C   UNL     1     -18.813  54.680  10.375  1.00  0.00    -0.064 C 
ATOM     10  C   UNL     1     -19.442  53.625   9.792  1.00  0.00    -0.027 C 
ATOM     11  C   UNL     1     -18.837  52.280   9.504  1.00  0.00     0.032 C 
ATOM     12  C   UNL     1     -17.443  52.014  10.133  1.00  0.00     0.006 C 
ATOM     13  C   UNL     1     -16.594  53.334  10.214  1.00  0.00    -0.020 C 
ATOM     14  C   UNL     1     -15.270  52.976  10.946  1.00  0.00     0.008 C 
ATOM     15  C   UNL     1     -14.494  51.845  10.279  1.00  0.00     0.005 C 
ATOM     16  C   UNL     1     -15.279  50.506  10.233  1.00  0.00     0.003 C 
ATOM     17  C   UNL     1     -16.724  50.687   9.584  1.00  0.00    -0.025 C 
ATOM     18  C   UNL     1     -16.675  50.628   8.011  1.00  0.00     0.010 C 
ATOM     19  C   UNL     1     -15.345  50.155   7.414  1.00  0.00     0.033 C 
ATOM     20  C   UNL     1     -14.780  48.940   8.148  1.00  0.00     0.120 C 
ATOM     21  C   UNL     1     -14.408  49.284   9.642  1.00  0.00    -0.006 C 
ATOM     22  C   UNL     1     -12.876  49.577   9.666  1.00  0.00     0.014 C 
ATOM     23  C   UNL     1     -14.568  48.035  10.556  1.00  0.00     0.014 C 
ATOM     24  C   UNL     1     -17.614  49.493  10.061  1.00  0.00     0.012 C 
ATOM     25  C   UNL     1     -16.263  53.879   8.785  1.00  0.00     0.012 C 
ATOM     26  C   UNL     1     -19.588  56.008  10.647  1.00  0.00     0.022 C 
ATOM     27  C   UNL     1     -20.857  56.174   9.750  1.00  0.00     0.015 C 
ATOM     28  C   UNL     1     -17.721  54.063  12.502  1.00  0.00     0.017 C 
ATOM     29  C   UNL     1     -18.617  57.980  12.005  1.00  0.00     0.012 C 
ATOM     30  C   UNL     1     -22.653  57.618   8.759  1.00  0.00     0.011 C 
ENDROOT
BRANCH  20  31
ATOM     31  O   UNL     1     -15.694  47.876   8.044  1.00  0.00    -0.393 OA
ATOM     32  H   UNL     1     -16.435  48.055   8.681  1.00  0.00     0.210 HD
ENDBRANCH  20  31
TORSDOF 1
ENDMDL
MODEL 3
REMARK VINA RESULT:    -5.796      8.878     14.494
REMARK INTER + INTRA:          -5.965
REMARK INTER:                  -5.965
REMARK INTRA:                   0.000
REMARK UNBOUND:                 0.000
REMARK SMILES CC1(C)CC[C@]2(C)CC[C@@]3(C)C(=CC[C@H]4[C@@]5(C)CC[C@H](O)C(C)(C)[C@H]5CC[C@@]43C)[C@@H]2C1
REMARK SMILES IDX 1 1 2 2 4 3 5 4 6 5 8 6 9 7 10 8 12 9 13 10 14 11 15 12
REMARK SMILES IDX 28 13 27 14 26 15 25 16 16 17 18 18 19 19 20 20 22 21 23 22
REMARK SMILES IDX 24 23 17 24 29 25 30 26 31 27 11 28 7 29 3 30 21 31
REMARK H PARENT 21 32
REMARK Flexibility Score: inf
ROOT
ATOM      1  C   UNL     1     -16.325  57.940   7.713  1.00  0.00     0.011 C 
ATOM      2  C   UNL     1     -17.215  59.131   7.283  1.00  0.00    -0.035 C 
ATOM      3  C   UNL     1     -17.006  60.341   8.247  1.00  0.00     0.007 C 
ATOM      4  C   UNL     1     -16.525  61.613   7.540  1.00  0.00     0.008 C 
ATOM      5  C   UNL     1     -15.291  61.382   6.619  1.00  0.00    -0.026 C 
ATOM      6  C   UNL     1     -15.016  62.733   5.916  1.00  0.00     0.008 C 
ATOM      7  C   UNL     1     -13.884  62.635   4.893  1.00  0.00     0.012 C 
ATOM      8  C   UNL     1     -14.172  61.621   3.723  1.00  0.00    -0.006 C 
ATOM      9  C   UNL     1     -15.365  60.703   4.081  1.00  0.00    -0.064 C 
ATOM     10  C   UNL     1     -16.077  60.121   3.079  1.00  0.00    -0.027 C 
ATOM     11  C   UNL     1     -15.974  60.445   1.615  1.00  0.00     0.032 C 
ATOM     12  C   UNL     1     -14.792  61.362   1.203  1.00  0.00     0.006 C 
ATOM     13  C   UNL     1     -14.459  62.402   2.334  1.00  0.00    -0.020 C 
ATOM     14  C   UNL     1     -13.206  63.195   1.864  1.00  0.00     0.008 C 
ATOM     15  C   UNL     1     -13.389  63.872   0.509  1.00  0.00     0.005 C 
ATOM     16  C   UNL     1     -13.661  62.869  -0.645  1.00  0.00     0.003 C 
ATOM     17  C   UNL     1     -14.877  61.894  -0.310  1.00  0.00    -0.025 C 
ATOM     18  C   UNL     1     -16.269  62.549  -0.647  1.00  0.00     0.010 C 
ATOM     19  C   UNL     1     -16.203  63.848  -1.458  1.00  0.00     0.033 C 
ATOM     20  C   UNL     1     -15.206  63.760  -2.612  1.00  0.00     0.120 C 
ATOM     21  C   UNL     1     -13.728  63.578  -2.092  1.00  0.00    -0.006 C 
ATOM     22  C   UNL     1     -13.075  64.995  -2.094  1.00  0.00     0.014 C 
ATOM     23  C   UNL     1     -12.876  62.768  -3.112  1.00  0.00     0.014 C 
ATOM     24  C   UNL     1     -14.734  60.626  -1.215  1.00  0.00     0.012 C 
ATOM     25  C   UNL     1     -15.647  63.396   2.552  1.00  0.00     0.012 C 
ATOM     26  C   UNL     1     -15.553  60.232   5.558  1.00  0.00     0.022 C 
ATOM     27  C   UNL     1     -16.916  59.507   5.803  1.00  0.00     0.015 C 
ATOM     28  C   UNL     1     -12.935  60.672   3.645  1.00  0.00     0.017 C 
ATOM     29  C   UNL     1     -14.068  61.030   7.516  1.00  0.00     0.012 C 
ATOM     30  C   UNL     1     -18.687  58.664   7.367  1.00  0.00     0.011 C 
ENDROOT
BRANCH  20  31
ATOM     31  O   UNL     1     -15.608  62.734  -3.486  1.00  0.00    -0.393 OA
ATOM     32  H   UNL     1     -16.362  62.252  -3.055  1.00  0.00     0.210 HD
ENDBRANCH  20  31
TORSDOF 1
ENDMDL
MODEL 4
REMARK VINA RESULT:    -5.664      2.488      8.300
REMARK INTER + INTRA:          -5.830
REMARK INTER:                  -5.830
REMARK INTRA:                   0.000
REMARK UNBOUND:                 0.000
REMARK SMILES CC1(C)CC[C@]2(C)CC[C@@]3(C)C(=CC[C@H]4[C@@]5(C)CC[C@H](O)C(C)(C)[C@H]5CC[C@@]43C)[C@@H]2C1
REMARK SMILES IDX 1 1 2 2 4 3 5 4 6 5 8 6 9 7 10 8 12 9 13 10 14 11 15 12
REMARK SMILES IDX 28 13 27 14 26 15 25 16 16 17 18 18 19 19 20 20 22 21 23 22
REMARK SMILES IDX 24 23 17 24 29 25 30 26 31 27 11 28 7 29 3 30 21 31
REMARK H PARENT 21 32
REMARK Flexibility Score: inf
ROOT
ATOM      1  C   UNL     1     -23.732  49.559  11.626  1.00  0.00     0.011 C 
ATOM      2  C   UNL     1     -22.401  48.775  11.713  1.00  0.00    -0.035 C 
ATOM      3  C   UNL     1     -22.216  47.876  10.451  1.00  0.00     0.007 C 
ATOM      4  C   UNL     1     -20.938  48.183   9.660  1.00  0.00     0.008 C 
ATOM      5  C   UNL     1     -20.760  49.695   9.332  1.00  0.00    -0.026 C 
ATOM      6  C   UNL     1     -19.384  49.827   8.635  1.00  0.00     0.008 C 
ATOM      7  C   UNL     1     -19.021  51.283   8.340  1.00  0.00     0.012 C 
ATOM      8  C   UNL     1     -18.911  52.183   9.629  1.00  0.00    -0.006 C 
ATOM      9  C   UNL     1     -19.551  51.471  10.845  1.00  0.00    -0.064 C 
ATOM     10  C   UNL     1     -19.152  51.815  12.098  1.00  0.00    -0.027 C 
ATOM     11  C   UNL     1     -17.972  52.679  12.448  1.00  0.00     0.032 C 
ATOM     12  C   UNL     1     -17.295  53.416  11.262  1.00  0.00     0.006 C 
ATOM     13  C   UNL     1     -17.370  52.563   9.944  1.00  0.00    -0.020 C 
ATOM     14  C   UNL     1     -16.759  53.431   8.808  1.00  0.00     0.008 C 
ATOM     15  C   UNL     1     -15.337  53.899   9.098  1.00  0.00     0.005 C 
ATOM     16  C   UNL     1     -15.234  54.797  10.362  1.00  0.00     0.003 C 
ATOM     17  C   UNL     1     -15.894  54.104  11.637  1.00  0.00    -0.025 C 
ATOM     18  C   UNL     1     -14.900  53.111  12.350  1.00  0.00     0.010 C 
ATOM     19  C   UNL     1     -13.445  53.185  11.873  1.00  0.00     0.033 C 
ATOM     20  C   UNL     1     -12.959  54.625  11.720  1.00  0.00     0.120 C 
ATOM     21  C   UNL     1     -13.752  55.391  10.593  1.00  0.00    -0.006 C 
ATOM     22  C   UNL     1     -12.875  55.325   9.304  1.00  0.00     0.014 C 
ATOM     23  C   UNL     1     -13.842  56.912  10.911  1.00  0.00     0.014 C 
ATOM     24  C   UNL     1     -16.235  55.230  12.667  1.00  0.00     0.012 C 
ATOM     25  C   UNL     1     -16.545  51.241  10.083  1.00  0.00     0.012 C 
ATOM     26  C   UNL     1     -20.826  50.594  10.637  1.00  0.00     0.022 C 
ATOM     27  C   UNL     1     -21.216  49.765  11.903  1.00  0.00     0.015 C 
ATOM     28  C   UNL     1     -19.808  53.435   9.371  1.00  0.00     0.017 C 
ATOM     29  C   UNL     1     -21.870  50.112   8.323  1.00  0.00     0.012 C 
ATOM     30  C   UNL     1     -22.475  47.875  12.969  1.00  0.00     0.011 C 
ENDROOT
BRANCH  20  31
ATOM     31  O   UNL     1     -13.030  55.267  12.970  1.00  0.00    -0.393 OA
ATOM     32  H   UNL     1     -12.518  54.716  13.619  1.00  0.00     0.210 HD
ENDBRANCH  20  31
TORSDOF 1
ENDMDL
MODEL 5
REMARK VINA RESULT:    -5.631      2.580      8.223
REMARK INTER + INTRA:          -5.795
REMARK INTER:                  -5.795
REMARK INTRA:                   0.000
REMARK UNBOUND:                 0.000
REMARK SMILES CC1(C)CC[C@]2(C)CC[C@@]3(C)C(=CC[C@H]4[C@@]5(C)CC[C@H](O)C(C)(C)[C@H]5CC[C@@]43C)[C@@H]2C1
REMARK SMILES IDX 1 1 2 2 4 3 5 4 6 5 8 6 9 7 10 8 12 9 13 10 14 11 15 12
REMARK SMILES IDX 28 13 27 14 26 15 25 16 16 17 18 18 19 19 20 20 22 21 23 22
REMARK SMILES IDX 24 23 17 24 29 25 30 26 31 27 11 28 7 29 3 30 21 31
REMARK H PARENT 21 32
REMARK Flexibility Score: inf
ROOT
ATOM      1  C   UNL     1     -22.627  48.600   9.755  1.00  0.00     0.011 C 
ATOM      2  C   UNL     1     -22.123  49.132  11.118  1.00  0.00    -0.035 C 
ATOM      3  C   UNL     1     -21.302  48.032  11.861  1.00  0.00     0.007 C 
ATOM      4  C   UNL     1     -19.864  48.453  12.185  1.00  0.00     0.008 C 
ATOM      5  C   UNL     1     -19.095  49.028  10.959  1.00  0.00    -0.026 C 
ATOM      6  C   UNL     1     -17.718  49.492  11.492  1.00  0.00     0.008 C 
ATOM      7  C   UNL     1     -16.880  50.179  10.413  1.00  0.00     0.012 C 
ATOM      8  C   UNL     1     -17.546  51.479   9.823  1.00  0.00    -0.006 C 
ATOM      9  C   UNL     1     -19.042  51.547  10.212  1.00  0.00    -0.064 C 
ATOM     10  C   UNL     1     -19.664  52.756  10.243  1.00  0.00    -0.027 C 
ATOM     11  C   UNL     1     -18.996  54.099  10.148  1.00  0.00     0.032 C 
ATOM     12  C   UNL     1     -17.494  54.085   9.759  1.00  0.00     0.006 C 
ATOM     13  C   UNL     1     -16.772  52.808  10.325  1.00  0.00    -0.020 C 
ATOM     14  C   UNL     1     -15.310  52.844   9.795  1.00  0.00     0.008 C 
ATOM     15  C   UNL     1     -14.563  54.123  10.157  1.00  0.00     0.005 C 
ATOM     16  C   UNL     1     -15.215  55.402   9.564  1.00  0.00     0.003 C 
ATOM     17  C   UNL     1     -16.763  55.505   9.932  1.00  0.00    -0.025 C 
ATOM     18  C   UNL     1     -16.990  56.136  11.357  1.00  0.00     0.010 C 
ATOM     19  C   UNL     1     -15.749  56.766  12.000  1.00  0.00     0.033 C 
ATOM     20  C   UNL     1     -14.951  57.612  11.011  1.00  0.00     0.120 C 
ATOM     21  C   UNL     1     -14.353  56.736   9.845  1.00  0.00    -0.006 C 
ATOM     22  C   UNL     1     -12.875  56.421  10.233  1.00  0.00     0.014 C 
ATOM     23  C   UNL     1     -14.229  57.565   8.533  1.00  0.00     0.014 C 
ATOM     24  C   UNL     1     -17.437  56.459   8.893  1.00  0.00     0.012 C 
ATOM     25  C   UNL     1     -16.754  52.819  11.889  1.00  0.00     0.012 C 
ATOM     26  C   UNL     1     -19.878  50.229  10.281  1.00  0.00     0.022 C 
ATOM     27  C   UNL     1     -21.296  50.432  10.904  1.00  0.00     0.015 C 
ATOM     28  C   UNL     1     -17.535  51.315   8.270  1.00  0.00     0.017 C 
ATOM     29  C   UNL     1     -18.869  47.875   9.937  1.00  0.00     0.012 C 
ATOM     30  C   UNL     1     -23.367  49.493  11.963  1.00  0.00     0.011 C 
ENDROOT
BRANCH  20  31
ATOM     31  O   UNL     1     -15.766  58.660  10.544  1.00  0.00    -0.393 OA
ATOM     32  H   UNL     1     -16.194  58.354   9.702  1.00  0.00     0.210 HD
ENDBRANCH  20  31
TORSDOF 1
ENDMDL
MODEL 6
REMARK VINA RESULT:    -5.596      2.642      8.159
REMARK INTER + INTRA:          -5.760
REMARK INTER:                  -5.760
REMARK INTRA:                   0.000
REMARK UNBOUND:                 0.000
REMARK SMILES CC1(C)CC[C@]2(C)CC[C@@]3(C)C(=CC[C@H]4[C@@]5(C)CC[C@H](O)C(C)(C)[C@H]5CC[C@@]43C)[C@@H]2C1
REMARK SMILES IDX 1 1 2 2 4 3 5 4 6 5 8 6 9 7 10 8 12 9 13 10 14 11 15 12
REMARK SMILES IDX 28 13 27 14 26 15 25 16 16 17 18 18 19 19 20 20 22 21 23 22
REMARK SMILES IDX 24 23 17 24 29 25 30 26 31 27 11 28 7 29 3 30 21 31
REMARK H PARENT 21 32
REMARK Flexibility Score: inf
ROOT
ATOM      1  C   UNL     1     -20.262  47.877   9.765  1.00  0.00     0.011 C 
ATOM      2  C   UNL     1     -21.029  49.209   9.585  1.00  0.00    -0.035 C 
ATOM      3  C   UNL     1     -21.994  49.447  10.787  1.00  0.00     0.007 C 
ATOM      4  C   UNL     1     -21.721  50.751  11.546  1.00  0.00     0.008 C 
ATOM      5  C   UNL     1     -20.228  50.931  11.951  1.00  0.00    -0.026 C 
ATOM      6  C   UNL     1     -20.123  52.331  12.602  1.00  0.00     0.008 C 
ATOM      7  C   UNL     1     -18.683  52.696  12.964  1.00  0.00     0.012 C 
ATOM      8  C   UNL     1     -17.712  52.752  11.724  1.00  0.00    -0.006 C 
ATOM      9  C   UNL     1     -18.360  52.072  10.495  1.00  0.00    -0.064 C 
ATOM     10  C   UNL     1     -17.945  52.422   9.249  1.00  0.00    -0.027 C 
ATOM     11  C   UNL     1     -17.053  53.582   8.905  1.00  0.00     0.032 C 
ATOM     12  C   UNL     1     -16.376  54.297  10.104  1.00  0.00     0.006 C 
ATOM     13  C   UNL     1     -17.302  54.277  11.374  1.00  0.00    -0.020 C 
ATOM     14  C   UNL     1     -16.492  54.925  12.533  1.00  0.00     0.008 C 
ATOM     15  C   UNL     1     -15.997  56.332  12.217  1.00  0.00     0.005 C 
ATOM     16  C   UNL     1     -15.030  56.382  11.002  1.00  0.00     0.003 C 
ATOM     17  C   UNL     1     -15.657  55.680   9.715  1.00  0.00    -0.025 C 
ATOM     18  C   UNL     1     -16.601  56.652   8.913  1.00  0.00     0.010 C 
ATOM     19  C   UNL     1     -16.540  58.123   9.339  1.00  0.00     0.033 C 
ATOM     20  C   UNL     1     -15.107  58.606   9.553  1.00  0.00     0.120 C 
ATOM     21  C   UNL     1     -14.412  57.850  10.750  1.00  0.00    -0.006 C 
ATOM     22  C   UNL     1     -14.541  58.775  12.000  1.00  0.00     0.014 C 
ATOM     23  C   UNL     1     -12.876  57.739  10.521  1.00  0.00     0.014 C 
ATOM     24  C   UNL     1     -14.478  55.292   8.763  1.00  0.00     0.012 C 
ATOM     25  C   UNL     1     -18.607  55.105  11.131  1.00  0.00     0.012 C 
ATOM     26  C   UNL     1     -19.258  50.811  10.701  1.00  0.00     0.022 C 
ATOM     27  C   UNL     1     -20.020  50.379   9.407  1.00  0.00     0.015 C 
ATOM     28  C   UNL     1     -16.483  51.857  12.085  1.00  0.00     0.017 C 
ATOM     29  C   UNL     1     -19.877  49.857  13.022  1.00  0.00     0.012 C 
ATOM     30  C   UNL     1     -21.858  49.094   8.284  1.00  0.00     0.011 C 
ENDROOT
BRANCH  20  31
ATOM     31  O   UNL     1     -14.398  58.484   8.344  1.00  0.00    -0.393 OA
ATOM     32  H   UNL     1     -14.363  59.384   7.926  1.00  0.00     0.210 HD
ENDBRANCH  20  31
TORSDOF 1
ENDMDL
MODEL 7
REMARK VINA RESULT:    -5.436     10.475     15.629
REMARK INTER + INTRA:          -5.595
REMARK INTER:                  -5.595
REMARK INTRA:                   0.000
REMARK UNBOUND:                 0.000
REMARK SMILES CC1(C)CC[C@]2(C)CC[C@@]3(C)C(=CC[C@H]4[C@@]5(C)CC[C@H](O)C(C)(C)[C@H]5CC[C@@]43C)[C@@H]2C1
REMARK SMILES IDX 1 1 2 2 4 3 5 4 6 5 8 6 9 7 10 8 12 9 13 10 14 11 15 12
REMARK SMILES IDX 28 13 27 14 26 15 25 16 16 17 18 18 19 19 20 20 22 21 23 22
REMARK SMILES IDX 24 23 17 24 29 25 30 26 31 27 11 28 7 29 3 30 21 31
REMARK H PARENT 21 32
REMARK Flexibility Score: inf
ROOT
ATOM      1  C   UNL     1     -16.639  61.653   8.132  1.00  0.00     0.011 C 
ATOM      2  C   UNL     1     -15.225  62.161   7.763  1.00  0.00    -0.035 C 
ATOM      3  C   UNL     1     -14.190  60.997   7.849  1.00  0.00     0.007 C 
ATOM      4  C   UNL     1     -13.455  60.730   6.529  1.00  0.00     0.008 C 
ATOM      5  C   UNL     1     -14.409  60.574   5.309  1.00  0.00    -0.026 C 
ATOM      6  C   UNL     1     -13.500  60.420   4.066  1.00  0.00     0.008 C 
ATOM      7  C   UNL     1     -14.301  60.358   2.765  1.00  0.00     0.012 C 
ATOM      8  C   UNL     1     -15.156  61.652   2.484  1.00  0.00    -0.006 C 
ATOM      9  C   UNL     1     -15.266  62.518   3.761  1.00  0.00    -0.064 C 
ATOM     10  C   UNL     1     -15.514  63.849   3.638  1.00  0.00    -0.027 C 
ATOM     11  C   UNL     1     -15.480  64.644   2.363  1.00  0.00     0.032 C 
ATOM     12  C   UNL     1     -15.371  63.820   1.052  1.00  0.00     0.006 C 
ATOM     13  C   UNL     1     -14.524  62.515   1.270  1.00  0.00    -0.020 C 
ATOM     14  C   UNL     1     -14.564  61.721  -0.067  1.00  0.00     0.008 C 
ATOM     15  C   UNL     1     -14.069  62.524  -1.266  1.00  0.00     0.005 C 
ATOM     16  C   UNL     1     -14.921  63.792  -1.548  1.00  0.00     0.003 C 
ATOM     17  C   UNL     1     -15.070  64.708  -0.252  1.00  0.00    -0.025 C 
ATOM     18  C   UNL     1     -13.835  65.667  -0.062  1.00  0.00     0.010 C 
ATOM     19  C   UNL     1     -12.875  65.743  -1.255  1.00  0.00     0.033 C 
ATOM     20  C   UNL     1     -13.614  65.856  -2.587  1.00  0.00     0.120 C 
ATOM     21  C   UNL     1     -14.471  64.567  -2.889  1.00  0.00    -0.006 C 
ATOM     22  C   UNL     1     -13.614  63.672  -3.837  1.00  0.00     0.014 C 
ATOM     23  C   UNL     1     -15.727  64.921  -3.737  1.00  0.00     0.014 C 
ATOM     24  C   UNL     1     -16.330  65.613  -0.450  1.00  0.00     0.012 C 
ATOM     25  C   UNL     1     -13.038  62.860   1.619  1.00  0.00     0.012 C 
ATOM     26  C   UNL     1     -15.378  61.821   5.154  1.00  0.00     0.022 C 
ATOM     27  C   UNL     1     -15.251  62.816   6.352  1.00  0.00     0.015 C 
ATOM     28  C   UNL     1     -16.611  61.165   2.194  1.00  0.00     0.017 C 
ATOM     29  C   UNL     1     -15.229  59.263   5.491  1.00  0.00     0.012 C 
ATOM     30  C   UNL     1     -14.844  63.255   8.788  1.00  0.00     0.011 C 
ENDROOT
BRANCH  20  31
ATOM     31  O   UNL     1     -14.383  67.035  -2.585  1.00  0.00    -0.393 OA
ATOM     32  H   UNL     1     -15.278  66.808  -2.217  1.00  0.00     0.210 HD
ENDBRANCH  20  31
TORSDOF 1
ENDMDL
MODEL 8
REMARK VINA RESULT:    -5.358      1.663      3.113
REMARK INTER + INTRA:          -5.515
REMARK INTER:                  -5.515
REMARK INTRA:                   0.000
REMARK UNBOUND:                 0.000
REMARK SMILES CC1(C)CC[C@]2(C)CC[C@@]3(C)C(=CC[C@H]4[C@@]5(C)CC[C@H](O)C(C)(C)[C@H]5CC[C@@]43C)[C@@H]2C1
REMARK SMILES IDX 1 1 2 2 4 3 5 4 6 5 8 6 9 7 10 8 12 9 13 10 14 11 15 12
REMARK SMILES IDX 28 13 27 14 26 15 25 16 16 17 18 18 19 19 20 20 22 21 23 22
REMARK SMILES IDX 24 23 17 24 29 25 30 26 31 27 11 28 7 29 3 30 21 31
REMARK H PARENT 21 32
REMARK Flexibility Score: inf
ROOT
ATOM      1  C   UNL     1     -15.132  59.558   8.910  1.00  0.00     0.011 C 
ATOM      2  C   UNL     1     -15.852  58.749   7.804  1.00  0.00    -0.035 C 
ATOM      3  C   UNL     1     -14.820  58.227   6.756  1.00  0.00     0.007 C 
ATOM      4  C   UNL     1     -14.813  56.700   6.609  1.00  0.00     0.008 C 
ATOM      5  C   UNL     1     -14.698  55.948   7.967  1.00  0.00    -0.026 C 
ATOM      6  C   UNL     1     -14.813  54.440   7.637  1.00  0.00     0.008 C 
ATOM      7  C   UNL     1     -14.818  53.570   8.895  1.00  0.00     0.012 C 
ATOM      8  C   UNL     1     -16.023  53.866   9.866  1.00  0.00    -0.006 C 
ATOM      9  C   UNL     1     -16.702  55.206   9.497  1.00  0.00    -0.064 C 
ATOM     10  C   UNL     1     -17.998  55.412   9.853  1.00  0.00    -0.027 C 
ATOM     11  C   UNL     1     -18.945  54.376  10.391  1.00  0.00     0.032 C 
ATOM     12  C   UNL     1     -18.312  53.012  10.778  1.00  0.00     0.006 C 
ATOM     13  C   UNL     1     -17.102  52.660   9.838  1.00  0.00    -0.020 C 
ATOM     14  C   UNL     1     -16.485  51.337  10.374  1.00  0.00     0.008 C 
ATOM     15  C   UNL     1     -17.486  50.190  10.461  1.00  0.00     0.005 C 
ATOM     16  C   UNL     1     -18.666  50.479  11.429  1.00  0.00     0.003 C 
ATOM     17  C   UNL     1     -19.387  51.861  11.090  1.00  0.00    -0.025 C 
ATOM     18  C   UNL     1     -20.458  51.703   9.946  1.00  0.00     0.010 C 
ATOM     19  C   UNL     1     -20.799  50.258   9.563  1.00  0.00     0.033 C 
ATOM     20  C   UNL     1     -20.988  49.364  10.787  1.00  0.00     0.120 C 
ATOM     21  C   UNL     1     -19.653  49.217  11.613  1.00  0.00    -0.006 C 
ATOM     22  C   UNL     1     -18.996  47.875  11.166  1.00  0.00     0.014 C 
ATOM     23  C   UNL     1     -19.955  49.004  13.125  1.00  0.00     0.014 C 
ATOM     24  C   UNL     1     -20.150  52.327  12.373  1.00  0.00     0.012 C 
ATOM     25  C   UNL     1     -17.580  52.447   8.364  1.00  0.00     0.012 C 
ATOM     26  C   UNL     1     -15.826  56.395   8.988  1.00  0.00     0.022 C 
ATOM     27  C   UNL     1     -16.671  57.591   8.443  1.00  0.00     0.015 C 
ATOM     28  C   UNL     1     -15.403  54.098  11.281  1.00  0.00     0.017 C 
ATOM     29  C   UNL     1     -13.284  56.220   8.560  1.00  0.00     0.012 C 
ATOM     30  C   UNL     1     -16.846  59.705   7.104  1.00  0.00     0.011 C 
ENDROOT
BRANCH  20  31
ATOM     31  O   UNL     1     -22.055  49.863  11.558  1.00  0.00    -0.393 OA
ATOM     32  H   UNL     1     -22.811  49.224  11.471  1.00  0.00     0.210 HD
ENDBRANCH  20  31
TORSDOF 1
ENDMDL
MODEL 9
REMARK VINA RESULT:    -5.031     10.148     14.845
REMARK INTER + INTRA:          -5.178
REMARK INTER:                  -5.178
REMARK INTRA:                   0.000
REMARK UNBOUND:                 0.000
REMARK SMILES CC1(C)CC[C@]2(C)CC[C@@]3(C)C(=CC[C@H]4[C@@]5(C)CC[C@H](O)C(C)(C)[C@H]5CC[C@@]43C)[C@@H]2C1
REMARK SMILES IDX 1 1 2 2 4 3 5 4 6 5 8 6 9 7 10 8 12 9 13 10 14 11 15 12
REMARK SMILES IDX 28 13 27 14 26 15 25 16 16 17 18 18 19 19 20 20 22 21 23 22
REMARK SMILES IDX 24 23 17 24 29 25 30 26 31 27 11 28 7 29 3 30 21 31
REMARK H PARENT 21 32
REMARK Flexibility Score: inf
ROOT
ATOM      1  C   UNL     1     -15.146  63.570  -4.127  1.00  0.00     0.011 C 
ATOM      2  C   UNL     1     -13.797  63.518  -3.370  1.00  0.00    -0.035 C 
ATOM      3  C   UNL     1     -13.133  64.930  -3.346  1.00  0.00     0.007 C 
ATOM      4  C   UNL     1     -12.875  65.464  -1.932  1.00  0.00     0.008 C 
ATOM      5  C   UNL     1     -14.123  65.389  -1.004  1.00  0.00    -0.026 C 
ATOM      6  C   UNL     1     -13.653  65.864   0.393  1.00  0.00     0.008 C 
ATOM      7  C   UNL     1     -14.755  65.749   1.446  1.00  0.00     0.012 C 
ATOM      8  C   UNL     1     -15.269  64.276   1.669  1.00  0.00    -0.006 C 
ATOM      9  C   UNL     1     -14.796  63.355   0.518  1.00  0.00    -0.064 C 
ATOM     10  C   UNL     1     -14.696  62.018   0.740  1.00  0.00    -0.027 C 
ATOM     11  C   UNL     1     -14.786  61.330   2.073  1.00  0.00     0.032 C 
ATOM     12  C   UNL     1     -15.257  62.211   3.261  1.00  0.00     0.006 C 
ATOM     13  C   UNL     1     -14.770  63.696   3.096  1.00  0.00    -0.020 C 
ATOM     14  C   UNL     1     -15.378  64.505   4.277  1.00  0.00     0.008 C 
ATOM     15  C   UNL     1     -15.019  63.941   5.648  1.00  0.00     0.005 C 
ATOM     16  C   UNL     1     -15.537  62.494   5.870  1.00  0.00     0.003 C 
ATOM     17  C   UNL     1     -15.082  61.514   4.697  1.00  0.00    -0.025 C 
ATOM     18  C   UNL     1     -13.628  60.953   4.928  1.00  0.00     0.010 C 
ATOM     19  C   UNL     1     -13.035  61.220   6.316  1.00  0.00     0.033 C 
ATOM     20  C   UNL     1     -14.041  60.957   7.436  1.00  0.00     0.120 C 
ATOM     21  C   UNL     1     -15.264  61.950   7.364  1.00  0.00    -0.006 C 
ATOM     22  C   UNL     1     -14.966  63.101   8.373  1.00  0.00     0.014 C 
ATOM     23  C   UNL     1     -16.555  61.283   7.922  1.00  0.00     0.014 C 
ATOM     24  C   UNL     1     -16.053  60.289   4.697  1.00  0.00     0.012 C 
ATOM     25  C   UNL     1     -13.210  63.786   3.157  1.00  0.00     0.012 C 
ATOM     26  C   UNL     1     -14.722  63.922  -0.935  1.00  0.00     0.022 C 
ATOM     27  C   UNL     1     -14.016  62.953  -1.937  1.00  0.00     0.015 C 
ATOM     28  C   UNL     1     -16.824  64.326   1.540  1.00  0.00     0.017 C 
ATOM     29  C   UNL     1     -15.190  66.391  -1.535  1.00  0.00     0.012 C 
ATOM     30  C   UNL     1     -12.875  62.538  -4.132  1.00  0.00     0.011 C 
ENDROOT
BRANCH  20  31
ATOM     31  O   UNL     1     -14.431  59.606   7.393  1.00  0.00    -0.393 OA
ATOM     32  H   UNL     1     -15.361  59.574   7.047  1.00  0.00     0.210 HD
ENDBRANCH  20  31
TORSDOF 1
ENDMDL
