MODEL 1
REMARK VINA RESULT:    -4.421      0.000      0.000
REMARK INTER + INTRA:          -8.283
REMARK INTER:                  -6.876
REMARK INTRA:                  -1.407
REMARK UNBOUND:                -1.407
REMARK SMILES COc1cc(CNC(=O)CCCCC=CC(C)C)ccc1O
REMARK SMILES IDX 11 1 12 2 13 3 14 4 15 5 16 6 17 7 18 8 10 9 8 10 9 11 7 12
REMARK SMILES IDX 6 14 5 15 4 16 19 17 3 18 20 19 21 20 2 21 1 22 22 23
REMARK H PARENT 7 13 22 24
REMARK Flexibility Score: inf
ROOT
ATOM      1  C   UNL     1     121.978 119.170 122.058  1.00  0.00     0.010 C 
ENDROOT
BRANCH   1   2
ATOM      2  C   UNL     1     122.715 120.322 121.350  1.00  0.00     0.005 C 
BRANCH   2   3
ATOM      3  C   UNL     1     123.265 121.356 122.344  1.00  0.00     0.027 C 
BRANCH   3   4
ATOM      4  C   UNL     1     122.231 121.768 123.360  1.00  0.00    -0.031 C 
ATOM      5  C   UNL     1     121.372 122.794 123.208  1.00  0.00    -0.028 C 
BRANCH   5   6
ATOM      6  C   UNL     1     121.269 123.656 121.966  1.00  0.00     0.005 C 
ATOM      7  C   UNL     1     119.966 123.349 121.221  1.00  0.00     0.012 C 
ATOM      8  C   UNL     1     121.326 125.137 122.355  1.00  0.00     0.012 C 
ENDBRANCH   5   6
ENDBRANCH   3   4
ENDBRANCH   2   3
ENDBRANCH   1   2
BRANCH   1   9
ATOM      9  C   UNL     1     122.270 117.805 121.416  1.00  0.00     0.100 C 
BRANCH   9  10
ATOM     10  C   UNL     1     121.067 117.261 120.703  1.00  0.00     0.220 C 
ATOM     11  O   UNL     1     120.880 116.014 120.664  1.00  0.00    -0.275 OA
ATOM     12  N   UNL     1     120.104 118.156 120.127  1.00  0.00    -0.352 N 
ATOM     13  H   UNL     1     120.312 119.180 120.134  1.00  0.00     0.163 HD
BRANCH  12  14
ATOM     14  C   UNL     1     118.722 117.751 119.878  1.00  0.00     0.151 C 
BRANCH  14  15
ATOM     15  C   UNL     1     117.795 118.675 120.619  1.00  0.00    -0.025 A 
ATOM     16  C   UNL     1     116.435 118.344 120.748  1.00  0.00     0.056 A 
ATOM     17  C   UNL     1     118.246 119.924 121.071  1.00  0.00     0.009 A 
ATOM     18  C   UNL     1     115.524 119.251 121.327  1.00  0.00     0.160 A 
ATOM     19  C   UNL     1     117.350 120.825 121.654  1.00  0.00     0.050 A 
ATOM     20  C   UNL     1     115.995 120.500 121.779  1.00  0.00     0.157 A 
BRANCH  18  21
ATOM     21  O   UNL     1     114.159 118.949 121.459  1.00  0.00    -0.493 OA
ATOM     22  C   UNL     1     113.239 118.899 120.376  1.00  0.00     0.278 C 
ENDBRANCH  18  21
BRANCH  20  23
ATOM     23  O   UNL     1     115.128 121.432 122.350  1.00  0.00    -0.504 OA
ATOM     24  H   UNL     1     114.122 121.370 122.241  1.00  0.00     0.293 HD
ENDBRANCH  20  23
ENDBRANCH  14  15
ENDBRANCH  12  14
ENDBRANCH   9  10
ENDBRANCH   1   9
TORSDOF 10
ENDMDL
MODEL 2
REMARK VINA RESULT:    -4.206      3.548      6.199
REMARK INTER + INTRA:          -7.949
REMARK INTER:                  -6.576
REMARK INTRA:                  -1.374
REMARK UNBOUND:                -1.407
REMARK SMILES COc1cc(CNC(=O)CCCCC=CC(C)C)ccc1O
REMARK SMILES IDX 11 1 12 2 13 3 14 4 15 5 16 6 17 7 18 8 10 9 8 10 9 11 7 12
REMARK SMILES IDX 6 14 5 15 4 16 19 17 3 18 20 19 21 20 2 21 1 22 22 23
REMARK H PARENT 7 13 22 24
REMARK Flexibility Score: inf
ROOT
ATOM      1  C   UNL     1     125.164 122.195 120.592  1.00  0.00     0.010 C 
ENDROOT
BRANCH   1   2
ATOM      2  C   UNL     1     124.434 122.206 121.949  1.00  0.00     0.005 C 
BRANCH   2   3
ATOM      3  C   UNL     1     123.290 121.183 122.000  1.00  0.00     0.027 C 
BRANCH   3   4
ATOM      4  C   UNL     1     122.374 121.417 123.174  1.00  0.00    -0.031 C 
ATOM      5  C   UNL     1     121.143 121.957 123.092  1.00  0.00    -0.028 C 
BRANCH   5   6
ATOM      6  C   UNL     1     120.461 122.356 121.799  1.00  0.00     0.005 C 
ATOM      7  C   UNL     1     119.006 121.873 121.803  1.00  0.00     0.012 C 
ATOM      8  C   UNL     1     120.518 123.877 121.629  1.00  0.00     0.012 C 
ENDBRANCH   5   6
ENDBRANCH   3   4
ENDBRANCH   2   3
ENDBRANCH   1   2
BRANCH   1   9
ATOM      9  C   UNL     1     126.643 121.801 120.725  1.00  0.00     0.100 C 
BRANCH   9  10
ATOM     10  C   UNL     1     126.920 120.470 120.089  1.00  0.00     0.220 C 
ATOM     11  O   UNL     1     128.100 120.174 119.760  1.00  0.00    -0.275 OA
ATOM     12  N   UNL     1     125.860 119.518 119.918  1.00  0.00    -0.352 N 
ATOM     13  H   UNL     1     124.886 119.811 120.157  1.00  0.00     0.163 HD
BRANCH  12  14
ATOM     14  C   UNL     1     126.118 118.085 119.789  1.00  0.00     0.151 C 
BRANCH  14  15
ATOM     15  C   UNL     1     124.970 117.319 120.385  1.00  0.00    -0.025 A 
ATOM     16  C   UNL     1     123.794 117.996 120.751  1.00  0.00     0.056 A 
ATOM     17  C   UNL     1     125.110 115.959 120.701  1.00  0.00     0.009 A 
ATOM     18  C   UNL     1     122.755 117.322 121.426  1.00  0.00     0.160 A 
ATOM     19  C   UNL     1     124.080 115.283 121.363  1.00  0.00     0.050 A 
ATOM     20  C   UNL     1     122.910 115.956 121.732  1.00  0.00     0.157 A 
BRANCH  18  21
ATOM     21  O   UNL     1     121.574 117.977 121.811  1.00  0.00    -0.493 OA
ATOM     22  C   UNL     1     120.654 118.574 120.905  1.00  0.00     0.278 C 
ENDBRANCH  18  21
BRANCH  20  23
ATOM     23  O   UNL     1     121.912 115.252 122.407  1.00  0.00    -0.504 OA
ATOM     24  H   UNL     1     122.125 114.501 123.052  1.00  0.00     0.293 HD
ENDBRANCH  20  23
ENDBRANCH  14  15
ENDBRANCH  12  14
ENDBRANCH   9  10
ENDBRANCH   1   9
TORSDOF 10
ENDMDL
MODEL 3
REMARK VINA RESULT:    -4.123      2.740      6.336
REMARK INTER + INTRA:          -7.819
REMARK INTER:                  -6.345
REMARK INTRA:                  -1.475
REMARK UNBOUND:                -1.407
REMARK SMILES COc1cc(CNC(=O)CCCCC=CC(C)C)ccc1O
REMARK SMILES IDX 11 1 12 2 13 3 14 4 15 5 16 6 17 7 18 8 10 9 8 10 9 11 7 12
REMARK SMILES IDX 6 14 5 15 4 16 19 17 3 18 20 19 21 20 2 21 1 22 22 23
REMARK H PARENT 7 13 22 24
REMARK Flexibility Score: inf
ROOT
ATOM      1  C   UNL     1     119.918 116.679 119.464  1.00  0.00     0.010 C 
ENDROOT
BRANCH   1   2
ATOM      2  C   UNL     1     120.392 115.230 119.245  1.00  0.00     0.005 C 
BRANCH   2   3
ATOM      3  C   UNL     1     121.568 114.861 120.162  1.00  0.00     0.027 C 
BRANCH   3   4
ATOM      4  C   UNL     1     121.770 115.876 121.257  1.00  0.00    -0.031 C 
ATOM      5  C   UNL     1     122.930 116.511 121.511  1.00  0.00    -0.028 C 
BRANCH   5   6
ATOM      6  C   UNL     1     124.198 116.349 120.696  1.00  0.00     0.005 C 
ATOM      7  C   UNL     1     124.911 117.699 120.562  1.00  0.00     0.012 C 
ATOM      8  C   UNL     1     125.119 115.324 121.365  1.00  0.00     0.012 C 
ENDBRANCH   5   6
ENDBRANCH   3   4
ENDBRANCH   2   3
ENDBRANCH   1   2
BRANCH   1   9
ATOM      9  C   UNL     1     118.402 116.836 119.268  1.00  0.00     0.100 C 
BRANCH   9  10
ATOM     10  C   UNL     1     117.849 117.951 120.107  1.00  0.00     0.220 C 
ATOM     11  O   UNL     1     116.829 117.745 120.818  1.00  0.00    -0.275 OA
ATOM     12  N   UNL     1     118.517 119.221 120.149  1.00  0.00    -0.352 N 
ATOM     13  H   UNL     1     119.331 119.375 119.512  1.00  0.00     0.163 HD
BRANCH  12  14
ATOM     14  C   UNL     1     118.353 120.146 121.268  1.00  0.00     0.151 C 
BRANCH  14  15
ATOM     15  C   UNL     1     119.710 120.557 121.773  1.00  0.00    -0.025 A 
ATOM     16  C   UNL     1     119.921 121.874 122.216  1.00  0.00     0.056 A 
ATOM     17  C   UNL     1     120.798 119.676 121.683  1.00  0.00     0.009 A 
ATOM     18  C   UNL     1     121.211 122.315 122.574  1.00  0.00     0.160 A 
ATOM     19  C   UNL     1     122.079 120.105 122.044  1.00  0.00     0.050 A 
ATOM     20  C   UNL     1     122.292 121.417 122.482  1.00  0.00     0.157 A 
BRANCH  18  21
ATOM     21  O   UNL     1     121.451 123.628 123.011  1.00  0.00    -0.493 OA
ATOM     22  C   UNL     1     121.271 124.788 122.207  1.00  0.00     0.278 C 
ENDBRANCH  18  21
BRANCH  20  23
ATOM     23  O   UNL     1     123.587 121.814 122.817  1.00  0.00    -0.504 OA
ATOM     24  H   UNL     1     123.875 122.785 122.797  1.00  0.00     0.293 HD
ENDBRANCH  20  23
ENDBRANCH  14  15
ENDBRANCH  12  14
ENDBRANCH   9  10
ENDBRANCH   1   9
TORSDOF 10
ENDMDL
MODEL 4
REMARK VINA RESULT:    -4.098      3.951      7.178
REMARK INTER + INTRA:          -7.781
REMARK INTER:                  -6.889
REMARK INTRA:                  -0.892
REMARK UNBOUND:                -1.407
REMARK SMILES COc1cc(CNC(=O)CCCCC=CC(C)C)ccc1O
REMARK SMILES IDX 11 1 12 2 13 3 14 4 15 5 16 6 17 7 18 8 10 9 8 10 9 11 7 12
REMARK SMILES IDX 6 14 5 15 4 16 19 17 3 18 20 19 21 20 2 21 1 22 22 23
REMARK H PARENT 7 13 22 24
REMARK Flexibility Score: inf
ROOT
ATOM      1  C   UNL     1     120.039 122.689 121.747  1.00  0.00     0.010 C 
ENDROOT
BRANCH   1   2
ATOM      2  C   UNL     1     119.566 121.382 122.411  1.00  0.00     0.005 C 
BRANCH   2   3
ATOM      3  C   UNL     1     118.201 120.923 121.880  1.00  0.00     0.027 C 
BRANCH   3   4
ATOM      4  C   UNL     1     118.330 119.790 120.894  1.00  0.00    -0.031 C 
ATOM      5  C   UNL     1     117.347 118.922 120.588  1.00  0.00    -0.028 C 
BRANCH   5   6
ATOM      6  C   UNL     1     115.937 118.986 121.142  1.00  0.00     0.005 C 
ATOM      7  C   UNL     1     115.020 119.719 120.156  1.00  0.00     0.012 C 
ATOM      8  C   UNL     1     115.416 117.569 121.403  1.00  0.00     0.012 C 
ENDBRANCH   5   6
ENDBRANCH   3   4
ENDBRANCH   2   3
ENDBRANCH   1   2
BRANCH   1   9
ATOM      9  C   UNL     1     121.373 123.189 122.321  1.00  0.00     0.100 C 
BRANCH   9  10
ATOM     10  C   UNL     1     121.663 124.600 121.896  1.00  0.00     0.220 C 
ATOM     11  O   UNL     1     122.543 124.814 121.019  1.00  0.00    -0.275 OA
ATOM     12  N   UNL     1     120.899 125.688 122.437  1.00  0.00    -0.352 N 
ATOM     13  H   UNL     1     120.212 125.482 123.196  1.00  0.00     0.163 HD
BRANCH  12  14
ATOM     14  C   UNL     1     120.770 126.966 121.739  1.00  0.00     0.151 C 
BRANCH  14  15
ATOM     15  C   UNL     1     119.366 127.107 121.220  1.00  0.00    -0.025 A 
ATOM     16  C   UNL     1     118.771 126.045 120.518  1.00  0.00     0.056 A 
ATOM     17  C   UNL     1     118.692 128.333 121.316  1.00  0.00     0.009 A 
ATOM     18  C   UNL     1     117.506 126.199 119.915  1.00  0.00     0.160 A 
ATOM     19  C   UNL     1     117.433 128.491 120.728  1.00  0.00     0.050 A 
ATOM     20  C   UNL     1     116.841 127.435 120.025  1.00  0.00     0.157 A 
BRANCH  18  21
ATOM     21  O   UNL     1     116.893 125.157 119.200  1.00  0.00    -0.493 OA
ATOM     22  C   UNL     1     116.796 123.814 119.661  1.00  0.00     0.278 C 
ENDBRANCH  18  21
BRANCH  20  23
ATOM     23  O   UNL     1     115.592 127.636 119.436  1.00  0.00    -0.504 OA
ATOM     24  H   UNL     1     115.472 128.206 118.607  1.00  0.00     0.293 HD
ENDBRANCH  20  23
ENDBRANCH  14  15
ENDBRANCH  12  14
ENDBRANCH   9  10
ENDBRANCH   1   9
TORSDOF 10
ENDMDL
MODEL 5
REMARK VINA RESULT:    -4.088      5.707      9.255
REMARK INTER + INTRA:          -7.765
REMARK INTER:                  -6.626
REMARK INTRA:                  -1.140
REMARK UNBOUND:                -1.407
REMARK SMILES COc1cc(CNC(=O)CCCCC=CC(C)C)ccc1O
REMARK SMILES IDX 11 1 12 2 13 3 14 4 15 5 16 6 17 7 18 8 10 9 8 10 9 11 7 12
REMARK SMILES IDX 6 14 5 15 4 16 19 17 3 18 20 19 21 20 2 21 1 22 22 23
REMARK H PARENT 7 13 22 24
REMARK Flexibility Score: inf
ROOT
ATOM      1  C   UNL     1     123.038 123.113 121.742  1.00  0.00     0.010 C 
ENDROOT
BRANCH   1   2
ATOM      2  C   UNL     1     121.561 123.219 122.166  1.00  0.00     0.005 C 
BRANCH   2   3
ATOM      3  C   UNL     1     121.132 122.051 123.066  1.00  0.00     0.027 C 
BRANCH   3   4
ATOM      4  C   UNL     1     119.990 121.268 122.470  1.00  0.00    -0.031 C 
ATOM      5  C   UNL     1     120.129 120.225 121.629  1.00  0.00    -0.028 C 
BRANCH   5   6
ATOM      6  C   UNL     1     121.458 119.636 121.200  1.00  0.00     0.005 C 
ATOM      7  C   UNL     1     122.032 118.764 122.321  1.00  0.00     0.012 C 
ATOM      8  C   UNL     1     121.272 118.810 119.923  1.00  0.00     0.012 C 
ENDBRANCH   5   6
ENDBRANCH   3   4
ENDBRANCH   2   3
ENDBRANCH   1   2
BRANCH   1   9
ATOM      9  C   UNL     1     123.815 122.081 122.573  1.00  0.00     0.100 C 
BRANCH   9  10
ATOM     10  C   UNL     1     125.171 121.810 121.990  1.00  0.00     0.220 C 
ATOM     11  O   UNL     1     125.275 121.053 120.987  1.00  0.00    -0.275 OA
ATOM     12  N   UNL     1     126.331 122.460 122.530  1.00  0.00    -0.352 N 
ATOM     13  H   UNL     1     126.218 123.043 123.389  1.00  0.00     0.163 HD
BRANCH  12  14
ATOM     14  C   UNL     1     127.551 122.646 121.746  1.00  0.00     0.151 C 
BRANCH  14  15
ATOM     15  C   UNL     1     127.582 124.048 121.204  1.00  0.00    -0.025 A 
ATOM     16  C   UNL     1     126.451 124.571 120.554  1.00  0.00     0.056 A 
ATOM     17  C   UNL     1     128.771 124.792 121.224  1.00  0.00     0.009 A 
ATOM     18  C   UNL     1     126.499 125.834 119.928  1.00  0.00     0.160 A 
ATOM     19  C   UNL     1     128.823 126.049 120.613  1.00  0.00     0.050 A 
ATOM     20  C   UNL     1     127.699 126.570 119.962  1.00  0.00     0.157 A 
BRANCH  18  21
ATOM     21  O   UNL     1     125.386 126.375 119.264  1.00  0.00    -0.493 OA
ATOM     22  C   UNL     1     124.061 126.373 119.783  1.00  0.00     0.278 C 
ENDBRANCH  18  21
BRANCH  20  23
ATOM     23  O   UNL     1     127.795 127.819 119.348  1.00  0.00    -0.504 OA
ATOM     24  H   UNL     1     127.199 128.085 118.572  1.00  0.00     0.293 HD
ENDBRANCH  20  23
ENDBRANCH  14  15
ENDBRANCH  12  14
ENDBRANCH   9  10
ENDBRANCH   1   9
TORSDOF 10
ENDMDL
MODEL 6
REMARK VINA RESULT:    -4.076      3.467      6.336
REMARK INTER + INTRA:          -7.747
REMARK INTER:                  -6.243
REMARK INTRA:                  -1.503
REMARK UNBOUND:                -1.407
REMARK SMILES COc1cc(CNC(=O)CCCCC=CC(C)C)ccc1O
REMARK SMILES IDX 11 1 12 2 13 3 14 4 15 5 16 6 17 7 18 8 10 9 8 10 9 11 7 12
REMARK SMILES IDX 6 14 5 15 4 16 19 17 3 18 20 19 21 20 2 21 1 22 22 23
REMARK H PARENT 7 13 22 24
REMARK Flexibility Score: inf
ROOT
ATOM      1  C   UNL     1     119.385 128.516 121.258  1.00  0.00     0.010 C 
ENDROOT
BRANCH   1   2
ATOM      2  C   UNL     1     120.313 127.433 121.841  1.00  0.00     0.005 C 
BRANCH   2   3
ATOM      3  C   UNL     1     121.411 127.017 120.852  1.00  0.00     0.027 C 
BRANCH   3   4
ATOM      4  C   UNL     1     121.041 125.769 120.091  1.00  0.00    -0.031 C 
ATOM      5  C   UNL     1     121.416 124.521 120.434  1.00  0.00    -0.028 C 
BRANCH   5   6
ATOM      6  C   UNL     1     122.216 124.171 121.672  1.00  0.00     0.005 C 
ATOM      7  C   UNL     1     121.460 123.132 122.508  1.00  0.00     0.012 C 
ATOM      8  C   UNL     1     123.591 123.631 121.267  1.00  0.00     0.012 C 
ENDBRANCH   5   6
ENDBRANCH   3   4
ENDBRANCH   2   3
ENDBRANCH   1   2
BRANCH   1   9
ATOM      9  C   UNL     1     117.909 128.092 121.271  1.00  0.00     0.100 C 
BRANCH   9  10
ATOM     10  C   UNL     1     117.611 127.093 120.190  1.00  0.00     0.220 C 
ATOM     11  O   UNL     1     117.631 127.461 118.984  1.00  0.00    -0.275 OA
ATOM     12  N   UNL     1     117.372 125.718 120.524  1.00  0.00    -0.352 N 
ATOM     13  H   UNL     1     117.315 125.456 121.534  1.00  0.00     0.163 HD
BRANCH  12  14
ATOM     14  C   UNL     1     117.572 124.640 119.559  1.00  0.00     0.151 C 
BRANCH  14  15
ATOM     15  C   UNL     1     117.237 123.325 120.208  1.00  0.00    -0.025 A 
ATOM     16  C   UNL     1     118.260 122.548 120.779  1.00  0.00     0.056 A 
ATOM     17  C   UNL     1     115.936 122.807 120.136  1.00  0.00     0.009 A 
ATOM     18  C   UNL     1     117.989 121.258 121.280  1.00  0.00     0.160 A 
ATOM     19  C   UNL     1     115.659 121.532 120.638  1.00  0.00     0.050 A 
ATOM     20  C   UNL     1     116.676 120.755 121.203  1.00  0.00     0.157 A 
BRANCH  18  21
ATOM     21  O   UNL     1     118.994 120.457 121.847  1.00  0.00    -0.493 OA
ATOM     22  C   UNL     1     119.883 119.634 121.100  1.00  0.00     0.278 C 
ENDBRANCH  18  21
BRANCH  20  23
ATOM     23  O   UNL     1     116.365 119.480 121.679  1.00  0.00    -0.504 OA
ATOM     24  H   UNL     1     116.702 118.639 121.225  1.00  0.00     0.293 HD
ENDBRANCH  20  23
ENDBRANCH  14  15
ENDBRANCH  12  14
ENDBRANCH   9  10
ENDBRANCH   1   9
TORSDOF 10
ENDMDL
MODEL 7
REMARK VINA RESULT:    -4.057      3.706      7.760
REMARK INTER + INTRA:          -7.717
REMARK INTER:                  -6.531
REMARK INTRA:                  -1.185
REMARK UNBOUND:                -1.407
REMARK SMILES COc1cc(CNC(=O)CCCCC=CC(C)C)ccc1O
REMARK SMILES IDX 11 1 12 2 13 3 14 4 15 5 16 6 17 7 18 8 10 9 8 10 9 11 7 12
REMARK SMILES IDX 6 14 5 15 4 16 19 17 3 18 20 19 21 20 2 21 1 22 22 23
REMARK H PARENT 7 13 22 24
REMARK Flexibility Score: inf
ROOT
ATOM      1  C   UNL     1     117.091 121.342 120.390  1.00  0.00     0.010 C 
ENDROOT
BRANCH   1   2
ATOM      2  C   UNL     1     115.666 121.422 120.968  1.00  0.00     0.005 C 
BRANCH   2   3
ATOM      3  C   UNL     1     114.779 120.266 120.483  1.00  0.00     0.027 C 
BRANCH   3   4
ATOM      4  C   UNL     1     114.819 119.090 121.426  1.00  0.00    -0.031 C 
ATOM      5  C   UNL     1     115.396 117.905 121.150  1.00  0.00    -0.028 C 
BRANCH   5   6
ATOM      6  C   UNL     1     116.148 117.588 119.873  1.00  0.00     0.005 C 
ATOM      7  C   UNL     1     117.656 117.560 120.147  1.00  0.00     0.012 C 
ATOM      8  C   UNL     1     115.682 116.240 119.315  1.00  0.00     0.012 C 
ENDBRANCH   5   6
ENDBRANCH   3   4
ENDBRANCH   2   3
ENDBRANCH   1   2
BRANCH   1   9
ATOM      9  C   UNL     1     118.137 120.980 121.456  1.00  0.00     0.100 C 
BRANCH   9  10
ATOM     10  C   UNL     1     119.125 122.091 121.661  1.00  0.00     0.220 C 
ATOM     11  O   UNL     1     120.053 121.948 122.503  1.00  0.00    -0.275 OA
ATOM     12  N   UNL     1     119.051 123.279 120.859  1.00  0.00    -0.352 N 
ATOM     13  H   UNL     1     118.243 123.387 120.206  1.00  0.00     0.163 HD
BRANCH  12  14
ATOM     14  C   UNL     1     120.210 124.143 120.645  1.00  0.00     0.151 C 
BRANCH  14  15
ATOM     15  C   UNL     1     119.845 125.559 120.997  1.00  0.00    -0.025 A 
ATOM     16  C   UNL     1     118.580 126.061 120.646  1.00  0.00     0.056 A 
ATOM     17  C   UNL     1     120.799 126.422 121.555  1.00  0.00     0.009 A 
ATOM     18  C   UNL     1     118.261 127.419 120.853  1.00  0.00     0.160 A 
ATOM     19  C   UNL     1     120.487 127.768 121.770  1.00  0.00     0.050 A 
ATOM     20  C   UNL     1     119.230 128.271 121.418  1.00  0.00     0.157 A 
BRANCH  18  21
ATOM     21  O   UNL     1     117.008 127.948 120.503  1.00  0.00    -0.493 OA
ATOM     22  C   UNL     1     116.631 128.313 119.181  1.00  0.00     0.278 C 
ENDBRANCH  18  21
BRANCH  20  23
ATOM     23  O   UNL     1     118.961 129.623 121.632  1.00  0.00    -0.504 OA
ATOM     24  H   UNL     1     119.155 130.078 122.516  1.00  0.00     0.293 HD
ENDBRANCH  20  23
ENDBRANCH  14  15
ENDBRANCH  12  14
ENDBRANCH   9  10
ENDBRANCH   1   9
TORSDOF 10
ENDMDL
MODEL 8
REMARK VINA RESULT:    -4.056      2.374      5.116
REMARK INTER + INTRA:          -7.715
REMARK INTER:                  -6.175
REMARK INTRA:                  -1.541
REMARK UNBOUND:                -1.407
REMARK SMILES COc1cc(CNC(=O)CCCCC=CC(C)C)ccc1O
REMARK SMILES IDX 11 1 12 2 13 3 14 4 15 5 16 6 17 7 18 8 10 9 8 10 9 11 7 12
REMARK SMILES IDX 6 14 5 15 4 16 19 17 3 18 20 19 21 20 2 21 1 22 22 23
REMARK H PARENT 7 13 22 24
REMARK Flexibility Score: inf
ROOT
ATOM      1  C   UNL     1     123.567 121.252 121.564  1.00  0.00     0.010 C 
ENDROOT
BRANCH   1   2
ATOM      2  C   UNL     1     123.368 119.726 121.623  1.00  0.00     0.005 C 
BRANCH   2   3
ATOM      3  C   UNL     1     124.196 118.992 120.558  1.00  0.00     0.027 C 
BRANCH   3   4
ATOM      4  C   UNL     1     123.341 118.099 119.695  1.00  0.00    -0.031 C 
ATOM      5  C   UNL     1     123.063 116.810 119.964  1.00  0.00    -0.028 C 
BRANCH   5   6
ATOM      6  C   UNL     1     123.515 116.071 121.208  1.00  0.00     0.005 C 
ATOM      7  C   UNL     1     122.369 116.004 122.223  1.00  0.00     0.012 C 
ATOM      8  C   UNL     1     123.980 114.660 120.834  1.00  0.00     0.012 C 
ENDBRANCH   5   6
ENDBRANCH   3   4
ENDBRANCH   2   3
ENDBRANCH   1   2
BRANCH   1   9
ATOM      9  C   UNL     1     122.992 121.967 122.796  1.00  0.00     0.100 C 
BRANCH   9  10
ATOM     10  C   UNL     1     121.558 122.362 122.587  1.00  0.00     0.220 C 
ATOM     11  O   UNL     1     121.286 123.542 122.239  1.00  0.00    -0.275 OA
ATOM     12  N   UNL     1     120.515 121.386 122.720  1.00  0.00    -0.352 N 
ATOM     13  H   UNL     1     120.769 120.430 123.056  1.00  0.00     0.163 HD
BRANCH  12  14
ATOM     14  C   UNL     1     119.215 121.547 122.070  1.00  0.00     0.151 C 
BRANCH  14  15
ATOM     15  C   UNL     1     118.876 120.287 121.322  1.00  0.00    -0.025 A 
ATOM     16  C   UNL     1     117.530 119.930 121.130  1.00  0.00     0.056 A 
ATOM     17  C   UNL     1     119.889 119.399 120.928  1.00  0.00     0.009 A 
ATOM     18  C   UNL     1     117.190 118.693 120.544  1.00  0.00     0.160 A 
ATOM     19  C   UNL     1     119.558 118.176 120.339  1.00  0.00     0.050 A 
ATOM     20  C   UNL     1     118.219 117.816 120.150  1.00  0.00     0.157 A 
BRANCH  18  21
ATOM     21  O   UNL     1     115.853 118.308 120.350  1.00  0.00    -0.493 OA
ATOM     22  C   UNL     1     115.015 117.774 121.367  1.00  0.00     0.278 C 
ENDBRANCH  18  21
BRANCH  20  23
ATOM     23  O   UNL     1     117.928 116.578 119.575  1.00  0.00    -0.504 OA
ATOM     24  H   UNL     1     118.653 115.960 119.232  1.00  0.00     0.293 HD
ENDBRANCH  20  23
ENDBRANCH  14  15
ENDBRANCH  12  14
ENDBRANCH   9  10
ENDBRANCH   1   9
TORSDOF 10
ENDMDL
MODEL 9
REMARK VINA RESULT:    -4.033      4.511      8.803
REMARK INTER + INTRA:          -7.680
REMARK INTER:                  -5.794
REMARK INTRA:                  -1.886
REMARK UNBOUND:                -1.407
REMARK SMILES COc1cc(CNC(=O)CCCCC=CC(C)C)ccc1O
REMARK SMILES IDX 11 1 12 2 13 3 14 4 15 5 16 6 17 7 18 8 10 9 8 10 9 11 7 12
REMARK SMILES IDX 6 14 5 15 4 16 19 17 3 18 20 19 21 20 2 21 1 22 22 23
REMARK H PARENT 7 13 22 24
REMARK Flexibility Score: inf
ROOT
ATOM      1  C   UNL     1     120.328 121.452 120.658  1.00  0.00     0.010 C 
ENDROOT
BRANCH   1   2
ATOM      2  C   UNL     1     120.358 120.432 121.812  1.00  0.00     0.005 C 
BRANCH   2   3
ATOM      3  C   UNL     1     121.770 120.250 122.388  1.00  0.00     0.027 C 
BRANCH   3   4
ATOM      4  C   UNL     1     122.302 118.860 122.149  1.00  0.00    -0.031 C 
ATOM      5  C   UNL     1     123.210 118.537 121.208  1.00  0.00    -0.028 C 
BRANCH   5   6
ATOM      6  C   UNL     1     123.883 119.530 120.283  1.00  0.00     0.005 C 
ATOM      7  C   UNL     1     125.334 119.106 120.026  1.00  0.00     0.012 C 
ATOM      8  C   UNL     1     123.111 119.617 118.963  1.00  0.00     0.012 C 
ENDBRANCH   5   6
ENDBRANCH   3   4
ENDBRANCH   2   3
ENDBRANCH   1   2
BRANCH   1   9
ATOM      9  C   UNL     1     120.025 122.877 121.144  1.00  0.00     0.100 C 
BRANCH   9  10
ATOM     10  C   UNL     1     121.014 123.868 120.601  1.00  0.00     0.220 C 
ATOM     11  O   UNL     1     120.680 125.078 120.487  1.00  0.00    -0.275 OA
ATOM     12  N   UNL     1     122.349 123.450 120.278  1.00  0.00    -0.352 N 
ATOM     13  H   UNL     1     122.579 122.433 120.339  1.00  0.00     0.163 HD
BRANCH  12  14
ATOM     14  C   UNL     1     123.466 124.392 120.234  1.00  0.00     0.151 C 
BRANCH  14  15
ATOM     15  C   UNL     1     124.672 123.759 120.871  1.00  0.00    -0.025 A 
ATOM     16  C   UNL     1     125.960 124.109 120.430  1.00  0.00     0.056 A 
ATOM     17  C   UNL     1     124.522 122.727 121.811  1.00  0.00     0.009 A 
ATOM     18  C   UNL     1     127.098 123.438 120.923  1.00  0.00     0.160 A 
ATOM     19  C   UNL     1     125.646 122.064 122.310  1.00  0.00     0.050 A 
ATOM     20  C   UNL     1     126.929 122.408 121.869  1.00  0.00     0.157 A 
BRANCH  18  21
ATOM     21  O   UNL     1     128.395 123.762 120.492  1.00  0.00    -0.493 OA
ATOM     22  C   UNL     1     129.192 124.798 121.051  1.00  0.00     0.278 C 
ENDBRANCH  18  21
BRANCH  20  23
ATOM     23  O   UNL     1     128.026 121.711 122.377  1.00  0.00    -0.504 OA
ATOM     24  H   UNL     1     128.527 121.022 121.829  1.00  0.00     0.293 HD
ENDBRANCH  20  23
ENDBRANCH  14  15
ENDBRANCH  12  14
ENDBRANCH   9  10
ENDBRANCH   1   9
TORSDOF 10
ENDMDL
