MODEL 1
REMARK VINA RESULT:    -1.427      0.000      0.000
REMARK INTER + INTRA:          -2.104
REMARK INTER:                  -2.094
REMARK INTRA:                  -0.009
REMARK UNBOUND:                -0.009
REMARK SMILES O=C([O-])CCCCCCCC(=O)[O-]
REMARK SMILES IDX 7 1 6 2 5 3 4 4 2 5 1 6 3 7 8 8 9 9 10 10 11 11 12 12 13 13
REMARK H PARENT
REMARK Flexibility Score: inf
ROOT
ATOM      1  C   UNL     1      54.121 147.639  -0.949  1.00  0.00     0.000 C 
ENDROOT
BRANCH   1   2
ATOM      2  C   UNL     1      53.373 146.845   0.132  1.00  0.00     0.000 C 
BRANCH   2   3
ATOM      3  C   UNL     1      52.601 147.752   1.104  1.00  0.00     0.006 C 
BRANCH   3   4
ATOM      4  C   UNL     1      51.207 148.124   0.583  1.00  0.00     0.053 C 
BRANCH   4   5
ATOM      5  C   UNL     1      50.159 147.751   1.584  1.00  0.00     0.041 C 
ATOM      6  O   UNL     1      48.954 147.651   1.233  1.00  0.00    -0.550 OA
ATOM      7  O   UNL     1      50.519 147.464   2.894  1.00  0.00    -0.550 OA
ENDBRANCH   4   5
ENDBRANCH   3   4
ENDBRANCH   2   3
ENDBRANCH   1   2
BRANCH   1   8
ATOM      8  C   UNL     1      53.156 148.125  -2.039  1.00  0.00     0.000 C 
BRANCH   8   9
ATOM      9  C   UNL     1      53.778 147.976  -3.432  1.00  0.00     0.006 C 
BRANCH   9  10
ATOM     10  C   UNL     1      52.695 147.928  -4.514  1.00  0.00     0.053 C 
BRANCH  10  11
ATOM     11  C   UNL     1      53.316 147.850  -5.874  1.00  0.00     0.041 C 
ATOM     12  O   UNL     1      54.567 147.766  -5.994  1.00  0.00    -0.550 OA
ATOM     13  O   UNL     1      52.512 147.823  -7.005  1.00  0.00    -0.550 OA
ENDBRANCH  10  11
ENDBRANCH   9  10
ENDBRANCH   8   9
ENDBRANCH   1   8
TORSDOF 8
ENDMDL
MODEL 2
REMARK VINA RESULT:    -1.232      2.036      2.797
REMARK INTER + INTRA:          -1.817
REMARK INTER:                  -1.600
REMARK INTRA:                  -0.217
REMARK UNBOUND:                -0.009
REMARK SMILES O=C([O-])CCCCCCCC(=O)[O-]
REMARK SMILES IDX 7 1 6 2 5 3 4 4 2 5 1 6 3 7 8 8 9 9 10 10 11 11 12 12 13 13
REMARK H PARENT
REMARK Flexibility Score: inf
ROOT
ATOM      1  C   UNL     1      54.826 147.059  -3.406  1.00  0.00     0.000 C 
ENDROOT
BRANCH   1   2
ATOM      2  C   UNL     1      54.554 148.121  -2.329  1.00  0.00     0.000 C 
BRANCH   2   3
ATOM      3  C   UNL     1      54.355 147.510  -0.933  1.00  0.00     0.006 C 
BRANCH   3   4
ATOM      4  C   UNL     1      53.155 148.111  -0.191  1.00  0.00     0.053 C 
BRANCH   4   5
ATOM      5  C   UNL     1      53.119 147.625   1.224  1.00  0.00     0.041 C 
ATOM      6  O   UNL     1      52.175 146.891   1.618  1.00  0.00    -0.550 OA
ATOM      7  O   UNL     1      54.154 147.940   2.094  1.00  0.00    -0.550 OA
ENDBRANCH   4   5
ENDBRANCH   3   4
ENDBRANCH   2   3
ENDBRANCH   1   2
BRANCH   1   8
ATOM      8  C   UNL     1      54.894 147.697  -4.800  1.00  0.00     0.000 C 
BRANCH   8   9
ATOM      9  C   UNL     1      53.502 148.125  -5.278  1.00  0.00     0.006 C 
BRANCH   9  10
ATOM     10  C   UNL     1      53.130 147.420  -6.587  1.00  0.00     0.053 C 
BRANCH  10  11
ATOM     11  C   UNL     1      51.655 147.504  -6.826  1.00  0.00     0.041 C 
ATOM     12  O   UNL     1      50.913 148.096  -5.999  1.00  0.00    -0.550 OA
ATOM     13  O   UNL     1      51.108 146.971  -7.986  1.00  0.00    -0.550 OA
ENDBRANCH  10  11
ENDBRANCH   9  10
ENDBRANCH   8   9
ENDBRANCH   1   8
TORSDOF 8
ENDMDL
MODEL 3
REMARK VINA RESULT:    -1.030     21.741     23.288
REMARK INTER + INTRA:          -1.522
REMARK INTER:                  -2.212
REMARK INTRA:                   0.691
REMARK UNBOUND:                -0.009
REMARK SMILES O=C([O-])CCCCCCCC(=O)[O-]
REMARK SMILES IDX 7 1 6 2 5 3 4 4 2 5 1 6 3 7 8 8 9 9 10 10 11 11 12 12 13 13
REMARK H PARENT
REMARK Flexibility Score: inf
ROOT
ATOM      1  C   UNL     1      64.165 130.266  -6.507  1.00  0.00     0.000 C 
ENDROOT
BRANCH   1   2
ATOM      2  C   UNL     1      64.639 130.359  -7.965  1.00  0.00     0.000 C 
BRANCH   2   3
ATOM      3  C   UNL     1      66.152 130.608  -8.081  1.00  0.00     0.006 C 
BRANCH   3   4
ATOM      4  C   UNL     1      66.905 130.281  -6.786  1.00  0.00     0.053 C 
BRANCH   4   5
ATOM      5  C   UNL     1      66.942 128.801  -6.563  1.00  0.00     0.041 C 
ATOM      6  O   UNL     1      67.096 128.018  -7.537  1.00  0.00    -0.550 OA
ATOM      7  O   UNL     1      66.858 128.289  -5.276  1.00  0.00    -0.550 OA
ENDBRANCH   4   5
ENDBRANCH   3   4
ENDBRANCH   2   3
ENDBRANCH   1   2
BRANCH   1   8
ATOM      8  C   UNL     1      63.890 128.809  -6.112  1.00  0.00     0.000 C 
BRANCH   8   9
ATOM      9  C   UNL     1      62.542 128.333  -6.666  1.00  0.00     0.006 C 
BRANCH   9  10
ATOM     10  C   UNL     1      61.610 127.887  -5.536  1.00  0.00     0.053 C 
BRANCH  10  11
ATOM     11  C   UNL     1      60.186 127.902  -5.995  1.00  0.00     0.041 C 
ATOM     12  O   UNL     1      59.249 127.875  -5.153  1.00  0.00    -0.550 OA
ATOM     13  O   UNL     1      59.892 127.995  -7.349  1.00  0.00    -0.550 OA
ENDBRANCH  10  11
ENDBRANCH   9  10
ENDBRANCH   8   9
ENDBRANCH   1   8
TORSDOF 8
ENDMDL
MODEL 4
REMARK VINA RESULT:    -0.801      1.429      5.978
REMARK INTER + INTRA:          -1.185
REMARK INTER:                  -0.938
REMARK INTRA:                  -0.247
REMARK UNBOUND:                -0.009
REMARK SMILES O=C([O-])CCCCCCCC(=O)[O-]
REMARK SMILES IDX 7 1 6 2 5 3 4 4 2 5 1 6 3 7 8 8 9 9 10 10 11 11 12 12 13 13
REMARK H PARENT
REMARK Flexibility Score: inf
ROOT
ATOM      1  C   UNL     1      53.564 146.630  -0.279  1.00  0.00     0.000 C 
ENDROOT
BRANCH   1   2
ATOM      2  C   UNL     1      54.720 147.376  -0.961  1.00  0.00     0.000 C 
BRANCH   2   3
ATOM      3  C   UNL     1      54.275 148.125  -2.227  1.00  0.00     0.006 C 
BRANCH   3   4
ATOM      4  C   UNL     1      54.417 147.276  -3.497  1.00  0.00     0.053 C 
BRANCH   4   5
ATOM      5  C   UNL     1      53.456 147.741  -4.545  1.00  0.00     0.041 C 
ATOM      6  O   UNL     1      53.846 147.910  -5.731  1.00  0.00    -0.550 OA
ATOM      7  O   UNL     1      52.120 147.939  -4.226  1.00  0.00    -0.550 OA
ENDBRANCH   4   5
ENDBRANCH   3   4
ENDBRANCH   2   3
ENDBRANCH   1   2
BRANCH   1   8
ATOM      8  C   UNL     1      52.718 147.587   0.570  1.00  0.00     0.000 C 
BRANCH   8   9
ATOM      9  C   UNL     1      51.466 148.039  -0.190  1.00  0.00     0.006 C 
BRANCH   9  10
ATOM     10  C   UNL     1      50.256 148.125   0.745  1.00  0.00     0.053 C 
BRANCH  10  11
ATOM     11  C   UNL     1      48.983 148.099  -0.041  1.00  0.00     0.041 C 
ATOM     12  O   UNL     1      49.016 148.115  -1.300  1.00  0.00    -0.550 OA
ATOM     13  O   UNL     1      47.762 148.008   0.615  1.00  0.00    -0.550 OA
ENDBRANCH  10  11
ENDBRANCH   9  10
ENDBRANCH   8   9
ENDBRANCH   1   8
TORSDOF 8
ENDMDL
MODEL 5
REMARK VINA RESULT:    -0.319      1.344      2.015
REMARK INTER + INTRA:          -0.478
REMARK INTER:                  -0.208
REMARK INTRA:                  -0.269
REMARK UNBOUND:                -0.009
REMARK SMILES O=C([O-])CCCCCCCC(=O)[O-]
REMARK SMILES IDX 7 1 6 2 5 3 4 4 2 5 1 6 3 7 8 8 9 9 10 10 11 11 12 12 13 13
REMARK H PARENT
REMARK Flexibility Score: inf
ROOT
ATOM      1  C   UNL     1      54.545 147.175  -1.851  1.00  0.00     0.000 C 
ENDROOT
BRANCH   1   2
ATOM      2  C   UNL     1      55.053 147.946  -0.623  1.00  0.00     0.000 C 
BRANCH   2   3
ATOM      3  C   UNL     1      54.026 147.979   0.521  1.00  0.00     0.006 C 
BRANCH   3   4
ATOM      4  C   UNL     1      52.670 147.388   0.115  1.00  0.00     0.053 C 
BRANCH   4   5
ATOM      5  C   UNL     1      51.610 147.798   1.089  1.00  0.00     0.041 C 
ATOM      6  O   UNL     1      51.922 148.125   2.265  1.00  0.00    -0.550 OA
ATOM      7  O   UNL     1      50.284 147.868   0.684  1.00  0.00    -0.550 OA
ENDBRANCH   4   5
ENDBRANCH   3   4
ENDBRANCH   2   3
ENDBRANCH   1   2
BRANCH   1   8
ATOM      8  C   UNL     1      54.969 147.872  -3.150  1.00  0.00     0.000 C 
BRANCH   8   9
ATOM      9  C   UNL     1      54.617 147.018  -4.373  1.00  0.00     0.006 C 
BRANCH   9  10
ATOM     10  C   UNL     1      54.192 147.898  -5.553  1.00  0.00     0.053 C 
BRANCH  10  11
ATOM     11  C   UNL     1      52.700 147.964  -5.647  1.00  0.00     0.041 C 
ATOM     12  O   UNL     1      52.133 147.899  -6.770  1.00  0.00    -0.550 OA
ATOM     13  O   UNL     1      51.934 148.048  -4.492  1.00  0.00    -0.550 OA
ENDBRANCH  10  11
ENDBRANCH   9  10
ENDBRANCH   8   9
ENDBRANCH   1   8
TORSDOF 8
ENDMDL
