MODEL 1
REMARK VINA RESULT:    -4.550      0.000      0.000
REMARK INTER + INTRA:          -5.807
REMARK INTER:                  -5.613
REMARK INTRA:                  -0.193
REMARK UNBOUND:                -0.193
REMARK SMILES Oc1cc(O)c2cc(O)c(-c3cc(O)c(O)c(O)c3)[o+]c2c1
REMARK SMILES IDX 10 1 20 2 21 3 22 4 2 5 3 6 4 7 6 8 7 9 8 10 11 11 12 12
REMARK SMILES IDX 13 13 19 14 15 15 17 16 14 17 16 19 18 21 9 23 1 25 5 27
REMARK H PARENT 14 18 16 20 18 22 9 24 1 26 5 28
REMARK Flexibility Score: inf
ROOT
ATOM      1  C   UNL     1       4.316  13.501  32.380  1.00  0.00     0.402 A 
ATOM      2  O   UNL     1       4.552  12.407  33.099  1.00  0.00    -0.202 OA
ATOM      3  C   UNL     1       5.453  12.354  34.074  1.00  0.00     0.368 A 
ATOM      4  C   UNL     1       5.626  11.159  34.776  1.00  0.00     0.162 A 
ATOM      5  C   UNL     1       6.564  11.076  35.807  1.00  0.00     0.128 A 
ATOM      6  C   UNL     1       7.335  12.195  36.140  1.00  0.00     0.093 A 
ATOM      7  C   UNL     1       7.180  13.405  35.452  1.00  0.00     0.136 A 
ATOM      8  C   UNL     1       6.229  13.492  34.401  1.00  0.00     0.125 A 
ATOM      9  C   UNL     1       6.016  14.659  33.649  1.00  0.00     0.078 A 
ATOM     10  C   UNL     1       5.064  14.667  32.624  1.00  0.00     0.223 A 
ENDROOT
BRANCH   1  11
ATOM     11  C   UNL     1       3.277  13.437  31.326  1.00  0.00     0.091 A 
ATOM     12  C   UNL     1       3.597  13.628  29.971  1.00  0.00     0.068 A 
ATOM     13  C   UNL     1       2.596  13.586  28.991  1.00  0.00     0.162 A 
ATOM     14  C   UNL     1       1.936  13.237  31.690  1.00  0.00     0.068 A 
ATOM     15  C   UNL     1       1.259  13.363  29.364  1.00  0.00     0.200 A 
ATOM     16  C   UNL     1       0.932  13.193  30.715  1.00  0.00     0.162 A 
BRANCH  13  17
ATOM     17  O   UNL     1       2.924  13.770  27.648  1.00  0.00    -0.504 OA
ATOM     18  H   UNL     1       2.452  13.257  26.912  1.00  0.00     0.293 HD
ENDBRANCH  13  17
BRANCH  15  19
ATOM     19  O   UNL     1       0.246  13.313  28.405  1.00  0.00    -0.502 OA
ATOM     20  H   UNL     1      -0.458  14.038  28.327  1.00  0.00     0.293 HD
ENDBRANCH  15  19
BRANCH  16  21
ATOM     21  O   UNL     1      -0.396  12.981  31.080  1.00  0.00    -0.504 OA
ATOM     22  H   UNL     1      -0.911  13.660  31.628  1.00  0.00     0.293 HD
ENDBRANCH  16  21
ENDBRANCH   1  11
BRANCH  10  23
ATOM     23  O   UNL     1       4.886  15.810  31.844  1.00  0.00    -0.500 OA
ATOM     24  H   UNL     1       5.142  16.730  32.182  1.00  0.00     0.294 HD
ENDBRANCH  10  23
BRANCH   5  25
ATOM     25  O   UNL     1       6.723   9.875  36.495  1.00  0.00    -0.507 OA
ATOM     26  H   UNL     1       6.220   9.686  37.354  1.00  0.00     0.293 HD
ENDBRANCH   5  25
BRANCH   7  27
ATOM     27  O   UNL     1       7.984  14.478  35.846  1.00  0.00    -0.507 OA
ATOM     28  H   UNL     1       8.848  14.739  35.394  1.00  0.00     0.293 HD
ENDBRANCH   7  27
TORSDOF 7
ENDMDL
MODEL 2
REMARK VINA RESULT:    -4.470      0.079      1.790
REMARK INTER + INTRA:          -5.709
REMARK INTER:                  -5.523
REMARK INTRA:                  -0.186
REMARK UNBOUND:                -0.193
REMARK SMILES Oc1cc(O)c2cc(O)c(-c3cc(O)c(O)c(O)c3)[o+]c2c1
REMARK SMILES IDX 10 1 20 2 21 3 22 4 2 5 3 6 4 7 6 8 7 9 8 10 11 11 12 12
REMARK SMILES IDX 13 13 19 14 15 15 17 16 14 17 16 19 18 21 9 23 1 25 5 27
REMARK H PARENT 14 18 16 20 18 22 9 24 1 26 5 28
REMARK Flexibility Score: inf
ROOT
ATOM      1  C   UNL     1       4.333  13.527  32.453  1.00  0.00     0.402 A 
ATOM      2  O   UNL     1       4.560  12.431  33.173  1.00  0.00    -0.202 OA
ATOM      3  C   UNL     1       5.473  12.367  34.136  1.00  0.00     0.368 A 
ATOM      4  C   UNL     1       5.634  11.171  34.840  1.00  0.00     0.162 A 
ATOM      5  C   UNL     1       6.584  11.076  35.859  1.00  0.00     0.128 A 
ATOM      6  C   UNL     1       7.378  12.183  36.177  1.00  0.00     0.093 A 
ATOM      7  C   UNL     1       7.235  13.393  35.487  1.00  0.00     0.136 A 
ATOM      8  C   UNL     1       6.272  13.493  34.448  1.00  0.00     0.125 A 
ATOM      9  C   UNL     1       6.069  14.660  33.694  1.00  0.00     0.078 A 
ATOM     10  C   UNL     1       5.103  14.681  32.682  1.00  0.00     0.223 A 
ENDROOT
BRANCH   1  11
ATOM     11  C   UNL     1       3.279  13.476  31.413  1.00  0.00     0.091 A 
ATOM     12  C   UNL     1       1.936  13.226  31.743  1.00  0.00     0.068 A 
ATOM     13  C   UNL     1       0.957  13.159  30.742  1.00  0.00     0.162 A 
ATOM     14  C   UNL     1       3.634  13.625  30.063  1.00  0.00     0.068 A 
ATOM     15  C   UNL     1       1.320  13.332  29.395  1.00  0.00     0.200 A 
ATOM     16  C   UNL     1       2.660  13.561  29.058  1.00  0.00     0.162 A 
BRANCH  13  17
ATOM     17  O   UNL     1      -0.373  12.917  31.080  1.00  0.00    -0.504 OA
ATOM     18  H   UNL     1      -1.027  12.524  30.412  1.00  0.00     0.293 HD
ENDBRANCH  13  17
BRANCH  15  19
ATOM     19  O   UNL     1       0.363  13.274  28.382  1.00  0.00    -0.502 OA
ATOM     20  H   UNL     1       0.579  13.517  27.422  1.00  0.00     0.293 HD
ENDBRANCH  15  19
BRANCH  16  21
ATOM     21  O   UNL     1       3.016  13.723  27.721  1.00  0.00    -0.504 OA
ATOM     22  H   UNL     1       3.339  14.614  27.362  1.00  0.00     0.293 HD
ENDBRANCH  16  21
ENDBRANCH   1  11
BRANCH  10  23
ATOM     23  O   UNL     1       4.934  15.824  31.901  1.00  0.00    -0.500 OA
ATOM     24  H   UNL     1       5.230  16.738  32.223  1.00  0.00     0.294 HD
ENDBRANCH  10  23
BRANCH   5  25
ATOM     25  O   UNL     1       6.732   9.875  36.549  1.00  0.00    -0.507 OA
ATOM     26  H   UNL     1       6.213   9.685  37.398  1.00  0.00     0.293 HD
ENDBRANCH   5  25
BRANCH   7  27
ATOM     27  O   UNL     1       8.063  14.453  35.866  1.00  0.00    -0.507 OA
ATOM     28  H   UNL     1       8.760  14.401  36.593  1.00  0.00     0.293 HD
ENDBRANCH   7  27
TORSDOF 7
ENDMDL
MODEL 3
REMARK VINA RESULT:    -4.289      1.083      2.602
REMARK INTER + INTRA:          -5.486
REMARK INTER:                  -5.196
REMARK INTRA:                  -0.290
REMARK UNBOUND:                -0.193
REMARK SMILES Oc1cc(O)c2cc(O)c(-c3cc(O)c(O)c(O)c3)[o+]c2c1
REMARK SMILES IDX 10 1 20 2 21 3 22 4 2 5 3 6 4 7 6 8 7 9 8 10 11 11 12 12
REMARK SMILES IDX 13 13 19 14 15 15 17 16 14 17 16 19 18 21 9 23 1 25 5 27
REMARK H PARENT 14 18 16 20 18 22 9 24 1 26 5 28
REMARK Flexibility Score: inf
ROOT
ATOM      1  C   UNL     1       3.875  12.204  32.202  1.00  0.00     0.402 A 
ATOM      2  O   UNL     1       4.646  13.101  32.811  1.00  0.00    -0.202 OA
ATOM      3  C   UNL     1       5.490  12.794  33.790  1.00  0.00     0.368 A 
ATOM      4  C   UNL     1       6.261  13.807  34.365  1.00  0.00     0.162 A 
ATOM      5  C   UNL     1       7.158  13.512  35.393  1.00  0.00     0.128 A 
ATOM      6  C   UNL     1       7.287  12.196  35.850  1.00  0.00     0.093 A 
ATOM      7  C   UNL     1       6.525  11.163  35.290  1.00  0.00     0.136 A 
ATOM      8  C   UNL     1       5.610  11.459  34.246  1.00  0.00     0.125 A 
ATOM      9  C   UNL     1       4.797  10.490  33.635  1.00  0.00     0.078 A 
ATOM     10  C   UNL     1       3.914  10.860  32.614  1.00  0.00     0.223 A 
ENDROOT
BRANCH   1  11
ATOM     11  C   UNL     1       2.981  12.669  31.116  1.00  0.00     0.091 A 
ATOM     12  C   UNL     1       3.491  13.066  29.868  1.00  0.00     0.068 A 
ATOM     13  C   UNL     1       2.632  13.526  28.861  1.00  0.00     0.162 A 
ATOM     14  C   UNL     1       1.601  12.769  31.353  1.00  0.00     0.068 A 
ATOM     15  C   UNL     1       1.248  13.601  29.102  1.00  0.00     0.200 A 
ATOM     16  C   UNL     1       0.737  13.226  30.350  1.00  0.00     0.162 A 
BRANCH  13  17
ATOM     17  O   UNL     1       3.146  13.912  27.625  1.00  0.00    -0.504 OA
ATOM     18  H   UNL     1       3.024  14.853  27.270  1.00  0.00     0.293 HD
ENDBRANCH  13  17
BRANCH  15  19
ATOM     19  O   UNL     1       0.372  14.051  28.113  1.00  0.00    -0.502 OA
ATOM     20  H   UNL     1      -0.264  14.824  28.268  1.00  0.00     0.293 HD
ENDBRANCH  15  19
BRANCH  16  21
ATOM     21  O   UNL     1      -0.634  13.311  30.587  1.00  0.00    -0.504 OA
ATOM     22  H   UNL     1      -1.117  12.628  31.159  1.00  0.00     0.293 HD
ENDBRANCH  16  21
ENDBRANCH   1  11
BRANCH  10  23
ATOM     23  O   UNL     1       3.072   9.908  32.041  1.00  0.00    -0.500 OA
ATOM     24  H   UNL     1       2.613  10.069  31.152  1.00  0.00     0.294 HD
ENDBRANCH  10  23
BRANCH   5  25
ATOM     25  O   UNL     1       7.918  14.536  35.955  1.00  0.00    -0.507 OA
ATOM     26  H   UNL     1       8.930  14.494  35.976  1.00  0.00     0.293 HD
ENDBRANCH   5  25
BRANCH   7  27
ATOM     27  O   UNL     1       6.714   9.875  35.799  1.00  0.00    -0.507 OA
ATOM     28  H   UNL     1       6.258   9.048  35.443  1.00  0.00     0.293 HD
ENDBRANCH   7  27
TORSDOF 7
ENDMDL
MODEL 4
REMARK VINA RESULT:    -4.278      1.123      3.157
REMARK INTER + INTRA:          -5.471
REMARK INTER:                  -5.199
REMARK INTRA:                  -0.272
REMARK UNBOUND:                -0.193
REMARK SMILES Oc1cc(O)c2cc(O)c(-c3cc(O)c(O)c(O)c3)[o+]c2c1
REMARK SMILES IDX 10 1 20 2 21 3 22 4 2 5 3 6 4 7 6 8 7 9 8 10 11 11 12 12
REMARK SMILES IDX 13 13 19 14 15 15 17 16 14 17 16 19 18 21 9 23 1 25 5 27
REMARK H PARENT 14 18 16 20 18 22 9 24 1 26 5 28
REMARK Flexibility Score: inf
ROOT
ATOM      1  C   UNL     1       3.755  12.260  32.173  1.00  0.00     0.402 A 
ATOM      2  O   UNL     1       4.545  13.146  32.774  1.00  0.00    -0.202 OA
ATOM      3  C   UNL     1       5.409  12.823  33.730  1.00  0.00     0.368 A 
ATOM      4  C   UNL     1       6.200  13.825  34.298  1.00  0.00     0.162 A 
ATOM      5  C   UNL     1       7.118  13.514  35.303  1.00  0.00     0.128 A 
ATOM      6  C   UNL     1       7.249  12.192  35.743  1.00  0.00     0.093 A 
ATOM      7  C   UNL     1       6.468  11.170  35.188  1.00  0.00     0.136 A 
ATOM      8  C   UNL     1       5.531  11.483  34.169  1.00  0.00     0.125 A 
ATOM      9  C   UNL     1       4.699  10.526  33.566  1.00  0.00     0.078 A 
ATOM     10  C   UNL     1       3.796  10.912  32.570  1.00  0.00     0.223 A 
ENDROOT
BRANCH   1  11
ATOM     11  C   UNL     1       2.840  12.743  31.113  1.00  0.00     0.091 A 
ATOM     12  C   UNL     1       1.449  12.785  31.310  1.00  0.00     0.068 A 
ATOM     13  C   UNL     1       0.597  13.223  30.287  1.00  0.00     0.162 A 
ATOM     14  C   UNL     1       3.364  13.114  29.865  1.00  0.00     0.068 A 
ATOM     15  C   UNL     1       1.134  13.613  29.048  1.00  0.00     0.200 A 
ATOM     16  C   UNL     1       2.518  13.554  28.838  1.00  0.00     0.162 A 
BRANCH  13  17
ATOM     17  O   UNL     1      -0.781  13.268  30.494  1.00  0.00    -0.504 OA
ATOM     18  H   UNL     1      -1.232  12.684  31.189  1.00  0.00     0.293 HD
ENDBRANCH  13  17
BRANCH  15  19
ATOM     19  O   UNL     1       0.307  14.057  28.016  1.00  0.00    -0.502 OA
ATOM     20  H   UNL     1      -0.102  13.421  27.341  1.00  0.00     0.293 HD
ENDBRANCH  15  19
BRANCH  16  21
ATOM     21  O   UNL     1       3.045  13.933  27.606  1.00  0.00    -0.504 OA
ATOM     22  H   UNL     1       2.453  14.073  26.795  1.00  0.00     0.293 HD
ENDBRANCH  16  21
ENDBRANCH   1  11
BRANCH  10  23
ATOM     23  O   UNL     1       2.934   9.971  32.005  1.00  0.00    -0.500 OA
ATOM     24  H   UNL     1       3.261   9.286  31.334  1.00  0.00     0.294 HD
ENDBRANCH  10  23
BRANCH   5  25
ATOM     25  O   UNL     1       7.897  14.527  35.858  1.00  0.00    -0.507 OA
ATOM     26  H   UNL     1       8.557  14.339  36.604  1.00  0.00     0.293 HD
ENDBRANCH   5  25
BRANCH   7  27
ATOM     27  O   UNL     1       6.660   9.875  35.678  1.00  0.00    -0.507 OA
ATOM     28  H   UNL     1       6.341   9.553  36.580  1.00  0.00     0.293 HD
ENDBRANCH   7  27
TORSDOF 7
ENDMDL
MODEL 5
REMARK VINA RESULT:    -2.697      1.709      7.468
REMARK INTER + INTRA:          -3.522
REMARK INTER:                  -3.234
REMARK INTRA:                  -0.288
REMARK UNBOUND:                -0.193
REMARK SMILES Oc1cc(O)c2cc(O)c(-c3cc(O)c(O)c(O)c3)[o+]c2c1
REMARK SMILES IDX 10 1 20 2 21 3 22 4 2 5 3 6 4 7 6 8 7 9 8 10 11 11 12 12
REMARK SMILES IDX 13 13 19 14 15 15 17 16 14 17 16 19 18 21 9 23 1 25 5 27
REMARK H PARENT 14 18 16 20 18 22 9 24 1 26 5 28
REMARK Flexibility Score: inf
ROOT
ATOM      1  C   UNL     1       4.908  11.677  33.111  1.00  0.00     0.402 A 
ATOM      2  O   UNL     1       3.901  12.524  32.915  1.00  0.00    -0.202 OA
ATOM      3  C   UNL     1       3.142  12.515  31.825  1.00  0.00     0.368 A 
ATOM      4  C   UNL     1       2.104  13.443  31.712  1.00  0.00     0.162 A 
ATOM      5  C   UNL     1       1.289  13.455  30.578  1.00  0.00     0.128 A 
ATOM      6  C   UNL     1       1.511  12.532  29.550  1.00  0.00     0.093 A 
ATOM      7  C   UNL     1       2.545  11.591  29.640  1.00  0.00     0.136 A 
ATOM      8  C   UNL     1       3.378  11.579  30.789  1.00  0.00     0.125 A 
ATOM      9  C   UNL     1       4.445  10.681  30.959  1.00  0.00     0.078 A 
ATOM     10  C   UNL     1       5.226  10.733  32.119  1.00  0.00     0.223 A 
ENDROOT
BRANCH   1  11
ATOM     11  C   UNL     1       5.675  11.781  34.374  1.00  0.00     0.091 A 
ATOM     12  C   UNL     1       5.623  10.769  35.348  1.00  0.00     0.068 A 
ATOM     13  C   UNL     1       6.337  10.896  36.547  1.00  0.00     0.162 A 
ATOM     14  C   UNL     1       6.427  12.938  34.632  1.00  0.00     0.068 A 
ATOM     15  C   UNL     1       7.105  12.049  36.786  1.00  0.00     0.200 A 
ATOM     16  C   UNL     1       7.145  13.071  35.828  1.00  0.00     0.162 A 
BRANCH  13  17
ATOM     17  O   UNL     1       6.284   9.884  37.504  1.00  0.00    -0.504 OA
ATOM     18  H   UNL     1       7.102   9.335  37.742  1.00  0.00     0.293 HD
ENDBRANCH  13  17
BRANCH  15  19
ATOM     19  O   UNL     1       7.828  12.196  37.970  1.00  0.00    -0.502 OA
ATOM     20  H   UNL     1       8.771  11.839  38.073  1.00  0.00     0.293 HD
ENDBRANCH  15  19
BRANCH  16  21
ATOM     21  O   UNL     1       7.900  14.215  36.073  1.00  0.00    -0.504 OA
ATOM     22  H   UNL     1       8.299  14.402  36.986  1.00  0.00     0.293 HD
ENDBRANCH  16  21
ENDBRANCH   1  11
BRANCH  10  23
ATOM     23  O   UNL     1       6.316   9.875  32.266  1.00  0.00    -0.500 OA
ATOM     24  H   UNL     1       6.216   8.953  32.674  1.00  0.00     0.294 HD
ENDBRANCH  10  23
BRANCH   5  25
ATOM     25  O   UNL     1       0.259  14.388  30.483  1.00  0.00    -0.507 OA
ATOM     26  H   UNL     1      -0.473  14.301  29.788  1.00  0.00     0.293 HD
ENDBRANCH   5  25
BRANCH   7  27
ATOM     27  O   UNL     1       2.701  10.702  28.573  1.00  0.00    -0.507 OA
ATOM     28  H   UNL     1       3.437  10.015  28.505  1.00  0.00     0.293 HD
ENDBRANCH   7  27
TORSDOF 7
ENDMDL
MODEL 6
REMARK VINA RESULT:    -2.385      1.520      7.233
REMARK INTER + INTRA:          -3.136
REMARK INTER:                  -3.109
REMARK INTRA:                  -0.028
REMARK UNBOUND:                -0.193
REMARK SMILES Oc1cc(O)c2cc(O)c(-c3cc(O)c(O)c(O)c3)[o+]c2c1
REMARK SMILES IDX 10 1 20 2 21 3 22 4 2 5 3 6 4 7 6 8 7 9 8 10 11 11 12 12
REMARK SMILES IDX 13 13 19 14 15 15 17 16 14 17 16 19 18 21 9 23 1 25 5 27
REMARK H PARENT 14 18 16 20 18 22 9 24 1 26 5 28
REMARK Flexibility Score: inf
ROOT
ATOM      1  C   UNL     1       4.091  12.791  31.864  1.00  0.00     0.402 A 
ATOM      2  O   UNL     1       4.709  13.287  30.796  1.00  0.00    -0.202 OA
ATOM      3  C   UNL     1       4.097  13.519  29.639  1.00  0.00     0.368 A 
ATOM      4  C   UNL     1       4.832  14.046  28.575  1.00  0.00     0.162 A 
ATOM      5  C   UNL     1       4.214  14.302  27.349  1.00  0.00     0.128 A 
ATOM      6  C   UNL     1       2.852  14.030  27.186  1.00  0.00     0.093 A 
ATOM      7  C   UNL     1       2.092  13.502  28.238  1.00  0.00     0.136 A 
ATOM      8  C   UNL     1       2.718  13.238  29.484  1.00  0.00     0.125 A 
ATOM      9  C   UNL     1       2.040  12.697  30.589  1.00  0.00     0.078 A 
ATOM     10  C   UNL     1       2.726  12.459  31.785  1.00  0.00     0.223 A 
ENDROOT
BRANCH   1  11
ATOM     11  C   UNL     1       4.881  12.587  33.100  1.00  0.00     0.091 A 
ATOM     12  C   UNL     1       5.707  13.600  33.616  1.00  0.00     0.068 A 
ATOM     13  C   UNL     1       6.465  13.380  34.774  1.00  0.00     0.162 A 
ATOM     14  C   UNL     1       4.850  11.338  33.740  1.00  0.00     0.068 A 
ATOM     15  C   UNL     1       6.410  12.133  35.421  1.00  0.00     0.200 A 
ATOM     16  C   UNL     1       5.605  11.112  34.899  1.00  0.00     0.162 A 
BRANCH  13  17
ATOM     17  O   UNL     1       7.276  14.393  35.283  1.00  0.00    -0.504 OA
ATOM     18  H   UNL     1       7.200  14.701  36.246  1.00  0.00     0.293 HD
ENDBRANCH  13  17
BRANCH  15  19
ATOM     19  O   UNL     1       7.152  11.891  36.577  1.00  0.00    -0.502 OA
ATOM     20  H   UNL     1       6.986  12.398  37.439  1.00  0.00     0.293 HD
ENDBRANCH  15  19
BRANCH  16  21
ATOM     21  O   UNL     1       5.560   9.875  35.538  1.00  0.00    -0.504 OA
ATOM     22  H   UNL     1       5.964   9.738  36.458  1.00  0.00     0.293 HD
ENDBRANCH  16  21
ENDBRANCH   1  11
BRANCH  10  23
ATOM     23  O   UNL     1       2.065  11.877  32.866  1.00  0.00    -0.500 OA
ATOM     24  H   UNL     1       1.752  12.427  33.657  1.00  0.00     0.294 HD
ENDBRANCH  10  23
BRANCH   5  25
ATOM     25  O   UNL     1       4.964  14.827  26.299  1.00  0.00    -0.507 OA
ATOM     26  H   UNL     1       5.088  14.319  25.431  1.00  0.00     0.293 HD
ENDBRANCH   5  25
BRANCH   7  27
ATOM     27  O   UNL     1       0.737  13.261  27.997  1.00  0.00    -0.507 OA
ATOM     28  H   UNL     1      -0.012  13.554  28.606  1.00  0.00     0.293 HD
ENDBRANCH   7  27
TORSDOF 7
ENDMDL
MODEL 7
REMARK VINA RESULT:    -2.284      1.526      7.337
REMARK INTER + INTRA:          -3.012
REMARK INTER:                  -2.976
REMARK INTRA:                  -0.036
REMARK UNBOUND:                -0.193
REMARK SMILES Oc1cc(O)c2cc(O)c(-c3cc(O)c(O)c(O)c3)[o+]c2c1
REMARK SMILES IDX 10 1 20 2 21 3 22 4 2 5 3 6 4 7 6 8 7 9 8 10 11 11 12 12
REMARK SMILES IDX 13 13 19 14 15 15 17 16 14 17 16 19 18 21 9 23 1 25 5 27
REMARK H PARENT 14 18 16 20 18 22 9 24 1 26 5 28
REMARK Flexibility Score: inf
ROOT
ATOM      1  C   UNL     1       4.075  12.734  31.825  1.00  0.00     0.402 A 
ATOM      2  O   UNL     1       4.680  13.229  30.749  1.00  0.00    -0.202 OA
ATOM      3  C   UNL     1       4.048  13.480  29.607  1.00  0.00     0.368 A 
ATOM      4  C   UNL     1       4.769  14.004  28.532  1.00  0.00     0.162 A 
ATOM      5  C   UNL     1       4.131  14.280  27.321  1.00  0.00     0.128 A 
ATOM      6  C   UNL     1       2.761  14.031  27.184  1.00  0.00     0.093 A 
ATOM      7  C   UNL     1       2.015  13.507  28.247  1.00  0.00     0.136 A 
ATOM      8  C   UNL     1       2.662  13.222  29.478  1.00  0.00     0.125 A 
ATOM      9  C   UNL     1       1.997  12.683  30.592  1.00  0.00     0.078 A 
ATOM     10  C   UNL     1       2.704  12.425  31.771  1.00  0.00     0.223 A 
ENDROOT
BRANCH   1  11
ATOM     11  C   UNL     1       4.887  12.507  33.043  1.00  0.00     0.091 A 
ATOM     12  C   UNL     1       4.846  11.283  33.732  1.00  0.00     0.068 A 
ATOM     13  C   UNL     1       5.604  11.095  34.896  1.00  0.00     0.162 A 
ATOM     14  C   UNL     1       5.671  13.553  33.554  1.00  0.00     0.068 A 
ATOM     15  C   UNL     1       6.403  12.143  35.388  1.00  0.00     0.200 A 
ATOM     16  C   UNL     1       6.432  13.372  34.716  1.00  0.00     0.162 A 
BRANCH  13  17
ATOM     17  O   UNL     1       5.562   9.876  35.569  1.00  0.00    -0.504 OA
ATOM     18  H   UNL     1       6.307   9.589  36.195  1.00  0.00     0.293 HD
ENDBRANCH  13  17
BRANCH  15  19
ATOM     19  O   UNL     1       7.170  11.978  36.542  1.00  0.00    -0.502 OA
ATOM     20  H   UNL     1       6.751  11.916  37.462  1.00  0.00     0.293 HD
ENDBRANCH  15  19
BRANCH  16  21
ATOM     21  O   UNL     1       7.219  14.409  35.212  1.00  0.00    -0.504 OA
ATOM     22  H   UNL     1       8.103  14.230  35.674  1.00  0.00     0.293 HD
ENDBRANCH  16  21
ENDBRANCH   1  11
BRANCH  10  23
ATOM     23  O   UNL     1       2.055  11.844  32.861  1.00  0.00    -0.500 OA
ATOM     24  H   UNL     1       1.316  12.326  33.360  1.00  0.00     0.294 HD
ENDBRANCH  10  23
BRANCH   5  25
ATOM     25  O   UNL     1       4.868  14.801  26.260  1.00  0.00    -0.507 OA
ATOM     26  H   UNL     1       4.561  15.625  25.757  1.00  0.00     0.293 HD
ENDBRANCH   5  25
BRANCH   7  27
ATOM     27  O   UNL     1       0.651  13.289  28.031  1.00  0.00    -0.507 OA
ATOM     28  H   UNL     1      -0.074  13.510  28.697  1.00  0.00     0.293 HD
ENDBRANCH   7  27
TORSDOF 7
ENDMDL
