MODEL 1
REMARK VINA RESULT:    -6.605      0.000      0.000
REMARK INTER + INTRA:          -7.708
REMARK INTER:                  -7.570
REMARK INTRA:                  -0.138
REMARK UNBOUND:                -0.138
REMARK SMILES O=C([O-])C=Cc1ccc(O)cc1
REMARK SMILES IDX 6 1 7 2 12 3 8 4 11 5 9 6 5 7 4 8 2 9 1 10 3 11 10 12
REMARK H PARENT 10 13
REMARK Flexibility Score: inf
ROOT
ATOM      1  C   UNL     1      10.503 110.930  15.904  1.00  0.00    -0.025 A 
ATOM      2  C   UNL     1      10.905 112.271  16.016  1.00  0.00     0.012 A 
ATOM      3  C   UNL     1      10.787 110.044  16.963  1.00  0.00     0.012 A 
ATOM      4  C   UNL     1      11.600 112.714  17.145  1.00  0.00     0.047 A 
ATOM      5  C   UNL     1      11.481 110.491  18.092  1.00  0.00     0.047 A 
ATOM      6  C   UNL     1      11.891 111.826  18.185  1.00  0.00     0.115 A 
ENDROOT
BRANCH   1   7
ATOM      7  C   UNL     1       9.759 110.510  14.689  1.00  0.00     0.010 C 
ATOM      8  C   UNL     1       8.429 110.350  14.648  1.00  0.00     0.025 C 
BRANCH   8   9
ATOM      9  C   UNL     1       7.736 109.920  13.424  1.00  0.00     0.064 C 
ATOM     10  O   UNL     1       8.397 109.734  12.369  1.00  0.00    -0.545 OA
ATOM     11  O   UNL     1       6.361 109.716  13.411  1.00  0.00    -0.545 OA
ENDBRANCH   8   9
ENDBRANCH   1   7
BRANCH   6  12
ATOM     12  O   UNL     1      12.584 112.282  19.305  1.00  0.00    -0.508 OA
ATOM     13  H   UNL     1      12.855 111.652  20.051  1.00  0.00     0.293 HD
ENDBRANCH   6  12
TORSDOF 3
ENDMDL
MODEL 2
REMARK VINA RESULT:    -6.584     13.678     16.492
REMARK INTER + INTRA:          -7.684
REMARK INTER:                  -7.535
REMARK INTRA:                  -0.149
REMARK UNBOUND:                -0.138
REMARK SMILES O=C([O-])C=Cc1ccc(O)cc1
REMARK SMILES IDX 6 1 7 2 12 3 8 4 11 5 9 6 5 7 4 8 2 9 1 10 3 11 10 12
REMARK H PARENT 10 13
REMARK Flexibility Score: inf
ROOT
ATOM      1  C   UNL     1      18.431 123.890  15.911  1.00  0.00    -0.025 A 
ATOM      2  C   UNL     1      17.972 123.145  17.010  1.00  0.00     0.012 A 
ATOM      3  C   UNL     1      18.430 123.290  14.634  1.00  0.00     0.012 A 
ATOM      4  C   UNL     1      17.546 121.824  16.846  1.00  0.00     0.047 A 
ATOM      5  C   UNL     1      18.001 121.968  14.475  1.00  0.00     0.047 A 
ATOM      6  C   UNL     1      17.561 121.231  15.581  1.00  0.00     0.115 A 
ENDROOT
BRANCH   1   7
ATOM      7  C   UNL     1      18.864 125.293  16.133  1.00  0.00     0.010 C 
ATOM      8  C   UNL     1      18.368 126.082  17.095  1.00  0.00     0.025 C 
BRANCH   8   9
ATOM      9  C   UNL     1      18.819 127.471  17.271  1.00  0.00     0.064 C 
ATOM     10  O   UNL     1      18.522 128.092  18.325  1.00  0.00    -0.545 OA
ATOM     11  O   UNL     1      19.570 128.111  16.292  1.00  0.00    -0.545 OA
ENDBRANCH   8   9
ENDBRANCH   1   7
BRANCH   6  12
ATOM     12  O   UNL     1      17.133 119.914  15.433  1.00  0.00    -0.508 OA
ATOM     13  H   UNL     1      16.258 119.690  14.972  1.00  0.00     0.293 HD
ENDBRANCH   6  12
TORSDOF 3
ENDMDL
MODEL 3
REMARK VINA RESULT:    -6.487     13.739     16.500
REMARK INTER + INTRA:          -7.573
REMARK INTER:                  -7.433
REMARK INTRA:                  -0.140
REMARK UNBOUND:                -0.138
REMARK SMILES O=C([O-])C=Cc1ccc(O)cc1
REMARK SMILES IDX 6 1 7 2 12 3 8 4 11 5 9 6 5 7 4 8 2 9 1 10 3 11 10 12
REMARK H PARENT 10 13
REMARK Flexibility Score: inf
ROOT
ATOM      1  C   UNL     1      18.389 123.936  15.927  1.00  0.00    -0.025 A 
ATOM      2  C   UNL     1      18.404 123.347  14.652  1.00  0.00     0.012 A 
ATOM      3  C   UNL     1      18.007 123.151  17.034  1.00  0.00     0.012 A 
ATOM      4  C   UNL     1      18.021 122.014  14.478  1.00  0.00     0.047 A 
ATOM      5  C   UNL     1      17.625 121.816  16.857  1.00  0.00     0.047 A 
ATOM      6  C   UNL     1      17.629 121.246  15.578  1.00  0.00     0.115 A 
ENDROOT
BRANCH   1   7
ATOM      7  C   UNL     1      18.815 125.352  16.062  1.00  0.00     0.010 C 
ATOM      8  C   UNL     1      18.469 126.140  17.089  1.00  0.00     0.025 C 
BRANCH   8   9
ATOM      9  C   UNL     1      18.904 127.542  17.174  1.00  0.00     0.064 C 
ATOM     10  O   UNL     1      19.476 128.076  16.187  1.00  0.00    -0.545 OA
ATOM     11  O   UNL     1      18.696 128.290  18.327  1.00  0.00    -0.545 OA
ENDBRANCH   8   9
ENDBRANCH   1   7
BRANCH   6  12
ATOM     12  O   UNL     1      17.249 119.919  15.391  1.00  0.00    -0.508 OA
ATOM     13  H   UNL     1      17.351 119.462  14.492  1.00  0.00     0.293 HD
ENDBRANCH   6  12
TORSDOF 3
ENDMDL
MODEL 4
REMARK VINA RESULT:    -6.230     14.334     16.519
REMARK INTER + INTRA:          -7.279
REMARK INTER:                  -7.124
REMARK INTRA:                  -0.154
REMARK UNBOUND:                -0.138
REMARK SMILES O=C([O-])C=Cc1ccc(O)cc1
REMARK SMILES IDX 6 1 7 2 12 3 8 4 11 5 9 6 5 7 4 8 2 9 1 10 3 11 10 12
REMARK H PARENT 10 13
REMARK Flexibility Score: inf
ROOT
ATOM      1  C   UNL     1      18.592 125.290  16.146  1.00  0.00    -0.025 A 
ATOM      2  C   UNL     1      18.182 125.312  17.489  1.00  0.00     0.012 A 
ATOM      3  C   UNL     1      19.219 126.432  15.606  1.00  0.00     0.012 A 
ATOM      4  C   UNL     1      18.368 126.456  18.271  1.00  0.00     0.047 A 
ATOM      5  C   UNL     1      19.405 127.574  16.392  1.00  0.00     0.047 A 
ATOM      6  C   UNL     1      18.977 127.589  17.725  1.00  0.00     0.115 A 
ENDROOT
BRANCH   1   7
ATOM      7  C   UNL     1      18.382 124.048  15.359  1.00  0.00     0.010 C 
ATOM      8  C   UNL     1      17.971 122.889  15.891  1.00  0.00     0.025 C 
BRANCH   8   9
ATOM      9  C   UNL     1      17.787 121.680  15.074  1.00  0.00     0.064 C 
ATOM     10  O   UNL     1      18.197 121.667  13.884  1.00  0.00    -0.545 OA
ATOM     11  O   UNL     1      17.169 120.548  15.594  1.00  0.00    -0.545 OA
ENDBRANCH   8   9
ENDBRANCH   1   7
BRANCH   6  12
ATOM     12  O   UNL     1      19.156 128.722  18.516  1.00  0.00    -0.508 OA
ATOM     13  H   UNL     1      18.374 129.177  18.973  1.00  0.00     0.293 HD
ENDBRANCH   6  12
TORSDOF 3
ENDMDL
MODEL 5
REMARK VINA RESULT:    -6.227      3.418      4.741
REMARK INTER + INTRA:          -7.275
REMARK INTER:                  -7.123
REMARK INTRA:                  -0.152
REMARK UNBOUND:                -0.138
REMARK SMILES O=C([O-])C=Cc1ccc(O)cc1
REMARK SMILES IDX 6 1 7 2 12 3 8 4 11 5 9 6 5 7 4 8 2 9 1 10 3 11 10 12
REMARK H PARENT 10 13
REMARK Flexibility Score: inf
ROOT
ATOM      1  C   UNL     1      11.287 112.595  16.030  1.00  0.00    -0.025 A 
ATOM      2  C   UNL     1      11.693 112.833  17.353  1.00  0.00     0.012 A 
ATOM      3  C   UNL     1      10.798 111.318  15.687  1.00  0.00     0.012 A 
ATOM      4  C   UNL     1      11.638 111.814  18.309  1.00  0.00     0.047 A 
ATOM      5  C   UNL     1      10.743 110.301  16.647  1.00  0.00     0.047 A 
ATOM      6  C   UNL     1      11.165 110.547  17.959  1.00  0.00     0.115 A 
ENDROOT
BRANCH   1   7
ATOM      7  C   UNL     1      11.356 113.712  15.054  1.00  0.00     0.010 C 
ATOM      8  C   UNL     1      11.709 114.964  15.377  1.00  0.00     0.025 C 
BRANCH   8   9
ATOM      9  C   UNL     1      11.751 116.042  14.377  1.00  0.00     0.064 C 
ATOM     10  O   UNL     1      10.749 116.248  13.643  1.00  0.00    -0.545 OA
ATOM     11  O   UNL     1      12.881 116.839  14.228  1.00  0.00    -0.545 OA
ENDBRANCH   8   9
ENDBRANCH   1   7
BRANCH   6  12
ATOM     12  O   UNL     1      11.115 109.541  18.922  1.00  0.00    -0.508 OA
ATOM     13  H   UNL     1      11.909 108.934  19.094  1.00  0.00     0.293 HD
ENDBRANCH   6  12
TORSDOF 3
ENDMDL
MODEL 6
REMARK VINA RESULT:    -5.986     13.756     16.035
REMARK INTER + INTRA:          -6.999
REMARK INTER:                  -6.858
REMARK INTRA:                  -0.142
REMARK UNBOUND:                -0.138
REMARK SMILES O=C([O-])C=Cc1ccc(O)cc1
REMARK SMILES IDX 6 1 7 2 12 3 8 4 11 5 9 6 5 7 4 8 2 9 1 10 3 11 10 12
REMARK H PARENT 10 13
REMARK Flexibility Score: inf
ROOT
ATOM      1  C   UNL     1      18.290 124.666  16.150  1.00  0.00    -0.025 A 
ATOM      2  C   UNL     1      18.639 125.466  15.049  1.00  0.00     0.012 A 
ATOM      3  C   UNL     1      18.302 125.238  17.438  1.00  0.00     0.012 A 
ATOM      4  C   UNL     1      19.018 126.799  15.230  1.00  0.00     0.047 A 
ATOM      5  C   UNL     1      18.680 126.574  17.615  1.00  0.00     0.047 A 
ATOM      6  C   UNL     1      19.041 127.356  16.511  1.00  0.00     0.115 A 
ENDROOT
BRANCH   1   7
ATOM      7  C   UNL     1      17.886 123.258  15.906  1.00  0.00     0.010 C 
ATOM      8  C   UNL     1      17.634 122.375  16.882  1.00  0.00     0.025 C 
BRANCH   8   9
ATOM      9  C   UNL     1      17.247 120.986  16.592  1.00  0.00     0.064 C 
ATOM     10  O   UNL     1      17.370 120.538  15.421  1.00  0.00    -0.545 OA
ATOM     11  O   UNL     1      16.748 120.156  17.590  1.00  0.00    -0.545 OA
ENDBRANCH   8   9
ENDBRANCH   1   7
BRANCH   6  12
ATOM     12  O   UNL     1      19.420 128.687  16.677  1.00  0.00    -0.508 OA
ATOM     13  H   UNL     1      20.093 129.125  16.059  1.00  0.00     0.293 HD
ENDBRANCH   6  12
TORSDOF 3
ENDMDL
MODEL 7
REMARK VINA RESULT:    -5.800      3.863      5.208
REMARK INTER + INTRA:          -6.786
REMARK INTER:                  -6.632
REMARK INTRA:                  -0.154
REMARK UNBOUND:                -0.138
REMARK SMILES O=C([O-])C=Cc1ccc(O)cc1
REMARK SMILES IDX 6 1 7 2 12 3 8 4 11 5 9 6 5 7 4 8 2 9 1 10 3 11 10 12
REMARK H PARENT 10 13
REMARK Flexibility Score: inf
ROOT
ATOM      1  C   UNL     1      11.621 114.877  15.512  1.00  0.00    -0.025 A 
ATOM      2  C   UNL     1      11.878 115.443  16.772  1.00  0.00     0.012 A 
ATOM      3  C   UNL     1      11.927 115.623  14.356  1.00  0.00     0.012 A 
ATOM      4  C   UNL     1      12.402 116.735  16.878  1.00  0.00     0.047 A 
ATOM      5  C   UNL     1      12.453 116.915  14.466  1.00  0.00     0.047 A 
ATOM      6  C   UNL     1      12.689 117.474  15.728  1.00  0.00     0.115 A 
ENDROOT
BRANCH   1   7
ATOM      7  C   UNL     1      11.074 113.498  15.451  1.00  0.00     0.010 C 
ATOM      8  C   UNL     1      10.964 112.692  16.516  1.00  0.00     0.025 C 
BRANCH   8   9
ATOM      9  C   UNL     1      10.426 111.327  16.405  1.00  0.00     0.064 C 
ATOM     10  O   UNL     1       9.666 111.035  15.444  1.00  0.00    -0.545 OA
ATOM     11  O   UNL     1      10.741 110.352  17.345  1.00  0.00    -0.545 OA
ENDBRANCH   8   9
ENDBRANCH   1   7
BRANCH   6  12
ATOM     12  O   UNL     1      13.211 118.760  15.848  1.00  0.00    -0.508 OA
ATOM     13  H   UNL     1      12.986 119.487  15.179  1.00  0.00     0.293 HD
ENDBRANCH   6  12
TORSDOF 3
ENDMDL
MODEL 8
REMARK VINA RESULT:    -5.708      9.850     12.358
REMARK INTER + INTRA:          -6.681
REMARK INTER:                  -6.527
REMARK INTRA:                  -0.154
REMARK UNBOUND:                -0.138
REMARK SMILES O=C([O-])C=Cc1ccc(O)cc1
REMARK SMILES IDX 6 1 7 2 12 3 8 4 11 5 9 6 5 7 4 8 2 9 1 10 3 11 10 12
REMARK H PARENT 10 13
REMARK Flexibility Score: inf
ROOT
ATOM      1  C   UNL     1      15.050 119.360  19.943  1.00  0.00    -0.025 A 
ATOM      2  C   UNL     1      16.257 119.585  19.260  1.00  0.00     0.012 A 
ATOM      3  C   UNL     1      13.886 119.085  19.195  1.00  0.00     0.012 A 
ATOM      4  C   UNL     1      16.299 119.563  17.863  1.00  0.00     0.047 A 
ATOM      5  C   UNL     1      13.933 119.063  17.797  1.00  0.00     0.047 A 
ATOM      6  C   UNL     1      15.139 119.304  17.128  1.00  0.00     0.115 A 
ENDROOT
BRANCH   1   7
ATOM      7  C   UNL     1      15.057 119.384  21.427  1.00  0.00     0.010 C 
ATOM      8  C   UNL     1      16.112 119.762  22.161  1.00  0.00     0.025 C 
BRANCH   8   9
ATOM      9  C   UNL     1      16.078 119.758  23.632  1.00  0.00     0.064 C 
ATOM     10  O   UNL     1      15.260 119.013  24.231  1.00  0.00    -0.545 OA
ATOM     11  O   UNL     1      16.934 120.565  24.372  1.00  0.00    -0.545 OA
ENDBRANCH   8   9
ENDBRANCH   1   7
BRANCH   6  12
ATOM     12  O   UNL     1      15.197 119.286  15.736  1.00  0.00    -0.508 OA
ATOM     13  H   UNL     1      15.787 118.628  15.240  1.00  0.00     0.293 HD
ENDBRANCH   6  12
TORSDOF 3
ENDMDL
MODEL 9
REMARK VINA RESULT:    -5.670      9.930     12.347
REMARK INTER + INTRA:          -6.637
REMARK INTER:                  -6.497
REMARK INTRA:                  -0.140
REMARK UNBOUND:                -0.138
REMARK SMILES O=C([O-])C=Cc1ccc(O)cc1
REMARK SMILES IDX 6 1 7 2 12 3 8 4 11 5 9 6 5 7 4 8 2 9 1 10 3 11 10 12
REMARK H PARENT 10 13
REMARK Flexibility Score: inf
ROOT
ATOM      1  C   UNL     1      15.174 119.381  19.901  1.00  0.00    -0.025 A 
ATOM      2  C   UNL     1      14.007 119.142  19.156  1.00  0.00     0.012 A 
ATOM      3  C   UNL     1      16.380 119.626  19.214  1.00  0.00     0.012 A 
ATOM      4  C   UNL     1      14.045 119.119  17.759  1.00  0.00     0.047 A 
ATOM      5  C   UNL     1      16.415 119.605  17.815  1.00  0.00     0.047 A 
ATOM      6  C   UNL     1      15.248 119.349  17.085  1.00  0.00     0.115 A 
ENDROOT
BRANCH   1   7
ATOM      7  C   UNL     1      15.080 119.405  21.382  1.00  0.00     0.010 C 
ATOM      8  C   UNL     1      16.090 119.761  22.188  1.00  0.00     0.025 C 
BRANCH   8   9
ATOM      9  C   UNL     1      15.954 119.757  23.652  1.00  0.00     0.064 C 
ATOM     10  O   UNL     1      16.788 120.387  24.354  1.00  0.00    -0.545 OA
ATOM     11  O   UNL     1      14.919 119.071  24.276  1.00  0.00    -0.545 OA
ENDBRANCH   8   9
ENDBRANCH   1   7
BRANCH   6  12
ATOM     12  O   UNL     1      15.272 119.324  15.692  1.00  0.00    -0.508 OA
ATOM     13  H   UNL     1      14.966 120.119  15.144  1.00  0.00     0.293 HD
ENDBRANCH   6  12
TORSDOF 3
ENDMDL
