MODEL 1
REMARK VINA RESULT:    -4.531      0.000      0.000
REMARK INTER + INTRA:          -4.959
REMARK INTER:                  -4.928
REMARK INTRA:                  -0.031
REMARK UNBOUND:                -0.031
REMARK SMILES O=C([O-])c1ccc(O)cc1
REMARK SMILES IDX 7 1 6 2 9 3 5 4 10 5 4 6 8 7 2 9 1 10 3 11
REMARK H PARENT 8 8
REMARK Flexibility Score: inf
ROOT
ATOM      1  C   UNL     1      10.524 -24.460 -10.963  1.00  0.00     0.115 A 
ATOM      2  C   UNL     1      11.450 -25.220 -11.688  1.00  0.00     0.047 A 
ATOM      3  C   UNL     1       9.659 -25.092 -10.065  1.00  0.00     0.047 A 
ATOM      4  C   UNL     1      11.511 -26.607 -11.515  1.00  0.00     0.014 A 
ATOM      5  C   UNL     1       9.717 -26.478  -9.889  1.00  0.00     0.014 A 
ATOM      6  C   UNL     1      10.644 -27.250 -10.613  1.00  0.00    -0.003 A 
ENDROOT
BRANCH   1   7
ATOM      7  O   UNL     1      10.455 -23.078 -11.126  1.00  0.00    -0.508 OA
ATOM      8  H   UNL     1      10.804 -22.443 -10.418  1.00  0.00     0.293 HD
ENDBRANCH   1   7
BRANCH   6   9
ATOM      9  C   UNL     1      10.710 -28.717 -10.432  1.00  0.00     0.071 C 
ATOM     10  O   UNL     1      10.730 -29.219  -9.277  1.00  0.00    -0.545 OA
ATOM     11  O   UNL     1      10.752 -29.562 -11.535  1.00  0.00    -0.545 OA
ENDBRANCH   6   9
TORSDOF 2
ENDMDL
MODEL 2
REMARK VINA RESULT:    -4.432      2.766      3.950
REMARK INTER + INTRA:          -4.851
REMARK INTER:                  -4.815
REMARK INTRA:                  -0.036
REMARK UNBOUND:                -0.031
REMARK SMILES O=C([O-])c1ccc(O)cc1
REMARK SMILES IDX 7 1 6 2 9 3 5 4 10 5 4 6 8 7 2 9 1 10 3 11
REMARK H PARENT 8 8
REMARK Flexibility Score: inf
ROOT
ATOM      1  C   UNL     1      11.027 -25.005 -11.441  1.00  0.00     0.115 A 
ATOM      2  C   UNL     1      10.778 -25.573 -10.185  1.00  0.00     0.047 A 
ATOM      3  C   UNL     1       9.989 -24.378 -12.136  1.00  0.00     0.047 A 
ATOM      4  C   UNL     1       9.497 -25.514  -9.627  1.00  0.00     0.014 A 
ATOM      5  C   UNL     1       8.706 -24.317 -11.582  1.00  0.00     0.014 A 
ATOM      6  C   UNL     1       8.447 -24.885 -10.322  1.00  0.00    -0.003 A 
ENDROOT
BRANCH   1   7
ATOM      7  O   UNL     1      12.299 -25.057 -12.005  1.00  0.00    -0.508 OA
ATOM      8  H   UNL     1      13.129 -24.853 -11.460  1.00  0.00     0.293 HD
ENDBRANCH   1   7
BRANCH   6   9
ATOM      9  C   UNL     1       7.092 -24.824  -9.730  1.00  0.00     0.071 C 
ATOM     10  O   UNL     1       6.847 -25.389  -8.632  1.00  0.00    -0.545 OA
ATOM     11  O   UNL     1       6.070 -24.143 -10.380  1.00  0.00    -0.545 OA
ENDBRANCH   6   9
TORSDOF 2
ENDMDL
MODEL 3
REMARK VINA RESULT:    -4.401      2.515      3.024
REMARK INTER + INTRA:          -4.818
REMARK INTER:                  -4.787
REMARK INTRA:                  -0.031
REMARK UNBOUND:                -0.031
REMARK SMILES O=C([O-])c1ccc(O)cc1
REMARK SMILES IDX 7 1 6 2 9 3 5 4 10 5 4 6 8 7 2 9 1 10 3 11
REMARK H PARENT 8 8
REMARK Flexibility Score: inf
ROOT
ATOM      1  C   UNL     1       7.256 -24.663 -10.928  1.00  0.00     0.115 A 
ATOM      2  C   UNL     1       7.992 -24.720 -12.118  1.00  0.00     0.047 A 
ATOM      3  C   UNL     1       7.851 -25.054  -9.725  1.00  0.00     0.047 A 
ATOM      4  C   UNL     1       9.318 -25.167 -12.105  1.00  0.00     0.014 A 
ATOM      5  C   UNL     1       9.176 -25.501  -9.708  1.00  0.00     0.014 A 
ATOM      6  C   UNL     1       9.923 -25.562 -10.898  1.00  0.00    -0.003 A 
ENDROOT
BRANCH   1   7
ATOM      7  O   UNL     1       5.936 -24.220 -10.930  1.00  0.00    -0.508 OA
ATOM      8  H   UNL     1       5.162 -24.860 -11.071  1.00  0.00     0.293 HD
ENDBRANCH   1   7
BRANCH   6   9
ATOM      9  C   UNL     1      11.326 -26.034 -10.886  1.00  0.00     0.071 C 
ATOM     10  O   UNL     1      12.127 -25.635 -10.000  1.00  0.00    -0.545 OA
ATOM     11  O   UNL     1      11.778 -26.923 -11.854  1.00  0.00    -0.545 OA
ENDBRANCH   6   9
TORSDOF 2
ENDMDL
MODEL 4
REMARK VINA RESULT:    -4.327     11.028     11.131
REMARK INTER + INTRA:          -4.737
REMARK INTER:                  -4.701
REMARK INTRA:                  -0.036
REMARK UNBOUND:                -0.031
REMARK SMILES O=C([O-])c1ccc(O)cc1
REMARK SMILES IDX 7 1 6 2 9 3 5 4 10 5 4 6 8 7 2 9 1 10 3 11
REMARK H PARENT 8 8
REMARK Flexibility Score: inf
ROOT
ATOM      1  C   UNL     1       7.975 -30.982 -20.517  1.00  0.00     0.115 A 
ATOM      2  C   UNL     1       9.363 -30.869 -20.660  1.00  0.00     0.047 A 
ATOM      3  C   UNL     1       7.428 -32.133 -19.942  1.00  0.00     0.047 A 
ATOM      4  C   UNL     1      10.202 -31.903 -20.229  1.00  0.00     0.014 A 
ATOM      5  C   UNL     1       8.264 -33.169 -19.510  1.00  0.00     0.014 A 
ATOM      6  C   UNL     1       9.659 -33.064 -19.650  1.00  0.00    -0.003 A 
ENDROOT
BRANCH   1   7
ATOM      7  O   UNL     1       7.131 -29.959 -20.942  1.00  0.00    -0.508 OA
ATOM      8  H   UNL     1       7.434 -29.270 -21.620  1.00  0.00     0.293 HD
ENDBRANCH   1   7
BRANCH   6   9
ATOM      9  C   UNL     1      10.548 -34.156 -19.195  1.00  0.00     0.071 C 
ATOM     10  O   UNL     1      10.066 -35.251 -18.801  1.00  0.00    -0.545 OA
ATOM     11  O   UNL     1      11.928 -33.988 -19.194  1.00  0.00    -0.545 OA
ENDBRANCH   6   9
TORSDOF 2
ENDMDL
MODEL 5
REMARK VINA RESULT:    -4.316     12.999     14.644
REMARK INTER + INTRA:          -4.725
REMARK INTER:                  -4.691
REMARK INTRA:                  -0.034
REMARK UNBOUND:                -0.031
REMARK SMILES O=C([O-])c1ccc(O)cc1
REMARK SMILES IDX 7 1 6 2 9 3 5 4 10 5 4 6 8 7 2 9 1 10 3 11
REMARK H PARENT 8 8
REMARK Flexibility Score: inf
ROOT
ATOM      1  C   UNL     1      18.655 -33.771 -21.449  1.00  0.00     0.115 A 
ATOM      2  C   UNL     1      17.332 -33.556 -21.043  1.00  0.00     0.047 A 
ATOM      3  C   UNL     1      19.436 -32.691 -21.870  1.00  0.00     0.047 A 
ATOM      4  C   UNL     1      16.792 -32.266 -21.060  1.00  0.00     0.014 A 
ATOM      5  C   UNL     1      18.899 -31.399 -21.887  1.00  0.00     0.014 A 
ATOM      6  C   UNL     1      17.571 -31.174 -21.482  1.00  0.00    -0.003 A 
ENDROOT
BRANCH   1   7
ATOM      7  O   UNL     1      19.203 -35.051 -21.436  1.00  0.00    -0.508 OA
ATOM      8  H   UNL     1      18.887 -35.757 -20.781  1.00  0.00     0.293 HD
ENDBRANCH   1   7
BRANCH   6   9
ATOM      9  C   UNL     1      16.998 -29.810 -21.498  1.00  0.00     0.071 C 
ATOM     10  O   UNL     1      16.026 -29.515 -20.753  1.00  0.00    -0.545 OA
ATOM     11  O   UNL     1      17.524 -28.834 -22.338  1.00  0.00    -0.545 OA
ENDBRANCH   6   9
TORSDOF 2
ENDMDL
MODEL 6
REMARK VINA RESULT:    -4.302     12.555     13.863
REMARK INTER + INTRA:          -4.710
REMARK INTER:                  -4.683
REMARK INTRA:                  -0.027
REMARK UNBOUND:                -0.031
REMARK SMILES O=C([O-])c1ccc(O)cc1
REMARK SMILES IDX 7 1 6 2 9 3 5 4 10 5 4 6 8 7 2 9 1 10 3 11
REMARK H PARENT 8 8
REMARK Flexibility Score: inf
ROOT
ATOM      1  C   UNL     1      18.998 -31.374 -21.936  1.00  0.00     0.115 A 
ATOM      2  C   UNL     1      17.984 -30.614 -21.338  1.00  0.00     0.047 A 
ATOM      3  C   UNL     1      18.907 -32.769 -21.942  1.00  0.00     0.047 A 
ATOM      4  C   UNL     1      16.886 -31.247 -20.748  1.00  0.00     0.014 A 
ATOM      5  C   UNL     1      17.810 -33.405 -21.353  1.00  0.00     0.014 A 
ATOM      6  C   UNL     1      16.787 -32.651 -20.750  1.00  0.00    -0.003 A 
ENDROOT
BRANCH   1   7
ATOM      7  O   UNL     1      20.096 -30.754 -22.527  1.00  0.00    -0.508 OA
ATOM      8  H   UNL     1      21.002 -30.735 -22.072  1.00  0.00     0.293 HD
ENDBRANCH   1   7
BRANCH   6   9
ATOM      9  C   UNL     1      15.624 -33.318 -20.125  1.00  0.00     0.071 C 
ATOM     10  O   UNL     1      14.578 -33.538 -20.792  1.00  0.00    -0.545 OA
ATOM     11  O   UNL     1      15.669 -33.712 -18.793  1.00  0.00    -0.545 OA
ENDBRANCH   6   9
TORSDOF 2
ENDMDL
MODEL 7
REMARK VINA RESULT:    -4.299      2.539      3.248
REMARK INTER + INTRA:          -4.707
REMARK INTER:                  -4.673
REMARK INTRA:                  -0.034
REMARK UNBOUND:                -0.031
REMARK SMILES O=C([O-])c1ccc(O)cc1
REMARK SMILES IDX 7 1 6 2 9 3 5 4 10 5 4 6 8 7 2 9 1 10 3 11
REMARK H PARENT 8 8
REMARK Flexibility Score: inf
ROOT
ATOM      1  C   UNL     1      11.100 -24.683 -10.258  1.00  0.00     0.115 A 
ATOM      2  C   UNL     1      11.000 -26.074 -10.388  1.00  0.00     0.047 A 
ATOM      3  C   UNL     1      10.370 -23.853 -11.113  1.00  0.00     0.047 A 
ATOM      4  C   UNL     1      10.174 -26.631 -11.370  1.00  0.00     0.014 A 
ATOM      5  C   UNL     1       9.543 -24.406 -12.096  1.00  0.00     0.014 A 
ATOM      6  C   UNL     1       9.436 -25.802 -12.234  1.00  0.00    -0.003 A 
ENDROOT
BRANCH   1   7
ATOM      7  O   UNL     1      11.919 -24.118  -9.284  1.00  0.00    -0.508 OA
ATOM      8  H   UNL     1      12.916 -24.300  -9.259  1.00  0.00     0.293 HD
ENDBRANCH   1   7
BRANCH   6   9
ATOM      9  C   UNL     1       8.563 -26.393 -13.272  1.00  0.00     0.071 C 
ATOM     10  O   UNL     1       8.773 -27.560 -13.696  1.00  0.00    -0.545 OA
ATOM     11  O   UNL     1       7.498 -25.668 -13.794  1.00  0.00    -0.545 OA
ENDBRANCH   6   9
TORSDOF 2
ENDMDL
MODEL 8
REMARK VINA RESULT:    -4.288      9.108     10.466
REMARK INTER + INTRA:          -4.695
REMARK INTER:                  -4.668
REMARK INTRA:                  -0.027
REMARK UNBOUND:                -0.031
REMARK SMILES O=C([O-])c1ccc(O)cc1
REMARK SMILES IDX 7 1 6 2 9 3 5 4 10 5 4 6 8 7 2 9 1 10 3 11
REMARK H PARENT 8 8
REMARK Flexibility Score: inf
ROOT
ATOM      1  C   UNL     1       7.704 -31.847 -17.929  1.00  0.00     0.115 A 
ATOM      2  C   UNL     1       8.778 -31.995 -17.043  1.00  0.00     0.047 A 
ATOM      3  C   UNL     1       7.730 -32.501 -19.164  1.00  0.00     0.047 A 
ATOM      4  C   UNL     1       9.873 -32.792 -17.390  1.00  0.00     0.014 A 
ATOM      5  C   UNL     1       8.823 -33.300 -19.515  1.00  0.00     0.014 A 
ATOM      6  C   UNL     1       9.906 -33.453 -18.632  1.00  0.00    -0.003 A 
ENDROOT
BRANCH   1   7
ATOM      7  O   UNL     1       6.608 -31.056 -17.593  1.00  0.00    -0.508 OA
ATOM      8  H   UNL     1       5.696 -31.213 -18.005  1.00  0.00     0.293 HD
ENDBRANCH   1   7
BRANCH   6   9
ATOM      9  C   UNL     1      11.066 -34.297 -18.997  1.00  0.00     0.071 C 
ATOM     10  O   UNL     1      12.070 -33.793 -19.567  1.00  0.00    -0.545 OA
ATOM     11  O   UNL     1      11.062 -35.659 -18.718  1.00  0.00    -0.545 OA
ENDBRANCH   6   9
TORSDOF 2
ENDMDL
MODEL 9
REMARK VINA RESULT:    -4.271     10.076     11.458
REMARK INTER + INTRA:          -4.676
REMARK INTER:                  -4.644
REMARK INTRA:                  -0.032
REMARK UNBOUND:                -0.031
REMARK SMILES O=C([O-])c1ccc(O)cc1
REMARK SMILES IDX 7 1 6 2 9 3 5 4 10 5 4 6 8 7 2 9 1 10 3 11
REMARK H PARENT 8 8
REMARK Flexibility Score: inf
ROOT
ATOM      1  C   UNL     1       9.886 -32.582 -20.321  1.00  0.00     0.115 A 
ATOM      2  C   UNL     1       8.532 -32.657 -20.672  1.00  0.00     0.047 A 
ATOM      3  C   UNL     1      10.436 -31.355 -19.937  1.00  0.00     0.047 A 
ATOM      4  C   UNL     1       7.732 -31.510 -20.640  1.00  0.00     0.014 A 
ATOM      5  C   UNL     1       9.639 -30.206 -19.904  1.00  0.00     0.014 A 
ATOM      6  C   UNL     1       8.278 -30.272 -20.256  1.00  0.00    -0.003 A 
ENDROOT
BRANCH   1   7
ATOM      7  O   UNL     1      10.692 -33.717 -20.348  1.00  0.00    -0.508 OA
ATOM      8  H   UNL     1      10.754 -34.303 -21.173  1.00  0.00     0.293 HD
ENDBRANCH   1   7
BRANCH   6   9
ATOM      9  C   UNL     1       7.430 -29.060 -20.222  1.00  0.00     0.071 C 
ATOM     10  O   UNL     1       6.580 -28.848 -21.128  1.00  0.00    -0.545 OA
ATOM     11  O   UNL     1       7.561 -28.136 -19.191  1.00  0.00    -0.545 OA
ENDBRANCH   6   9
TORSDOF 2
ENDMDL
