MODEL 1
REMARK VINA RESULT:    -2.968      0.000      0.000
REMARK INTER + INTRA:          -3.510
REMARK INTER:                  -3.488
REMARK INTRA:                  -0.022
REMARK UNBOUND:                -0.022
REMARK SMILES CCCCC(=O)[O-]
REMARK SMILES IDX 4 1 5 2 6 3 7 4 3 5 2 6 1 7
REMARK H PARENT
REMARK Flexibility Score: inf
ROOT
ATOM      1  C   UNL     1      32.819  31.512  22.209  1.00  0.00     0.053 C 
ENDROOT
BRANCH   1   2
ATOM      2  C   UNL     1      32.727  30.148  21.604  1.00  0.00     0.041 C 
ATOM      3  O   UNL     1      32.270  29.999  20.442  1.00  0.00    -0.550 OA
ATOM      4  O   UNL     1      33.192  29.043  22.308  1.00  0.00    -0.550 OA
ENDBRANCH   1   2
BRANCH   1   5
ATOM      5  C   UNL     1      33.985  31.583  23.199  1.00  0.00     0.006 C 
BRANCH   5   6
ATOM      6  C   UNL     1      33.815  32.760  24.166  1.00  0.00    -0.003 C 
ATOM      7  C   UNL     1      34.042  32.325  25.611  1.00  0.00     0.004 C 
ENDBRANCH   5   6
ENDBRANCH   1   5
TORSDOF 3
ENDMDL
MODEL 2
REMARK VINA RESULT:    -2.927      6.042      7.612
REMARK INTER + INTRA:          -3.462
REMARK INTER:                  -3.438
REMARK INTRA:                  -0.024
REMARK UNBOUND:                -0.022
REMARK SMILES CCCCC(=O)[O-]
REMARK SMILES IDX 4 1 5 2 6 3 7 4 3 5 2 6 1 7
REMARK H PARENT
REMARK Flexibility Score: inf
ROOT
ATOM      1  C   UNL     1      36.607  34.152  27.844  1.00  0.00     0.053 C 
ENDROOT
BRANCH   1   2
ATOM      2  C   UNL     1      36.379  35.338  28.727  1.00  0.00     0.041 C 
ATOM      3  O   UNL     1      37.247  35.673  29.575  1.00  0.00    -0.550 OA
ATOM      4  O   UNL     1      35.229  36.103  28.579  1.00  0.00    -0.550 OA
ENDBRANCH   1   2
BRANCH   1   5
ATOM      5  C   UNL     1      35.705  34.222  26.608  1.00  0.00     0.006 C 
BRANCH   5   6
ATOM      6  C   UNL     1      35.443  32.823  26.039  1.00  0.00    -0.003 C 
ATOM      7  C   UNL     1      33.980  32.655  25.639  1.00  0.00     0.004 C 
ENDBRANCH   5   6
ENDBRANCH   1   5
TORSDOF 3
ENDMDL
MODEL 3
REMARK VINA RESULT:    -2.897      1.122      1.597
REMARK INTER + INTRA:          -3.426
REMARK INTER:                  -3.388
REMARK INTRA:                  -0.038
REMARK UNBOUND:                -0.022
REMARK SMILES CCCCC(=O)[O-]
REMARK SMILES IDX 4 1 5 2 6 3 7 4 3 5 2 6 1 7
REMARK H PARENT
REMARK Flexibility Score: inf
ROOT
ATOM      1  C   UNL     1      34.434  30.385  23.161  1.00  0.00     0.053 C 
ENDROOT
BRANCH   1   2
ATOM      2  C   UNL     1      33.312  30.132  22.205  1.00  0.00     0.041 C 
ATOM      3  O   UNL     1      33.079  28.965  21.794  1.00  0.00    -0.550 OA
ATOM      4  O   UNL     1      32.490  31.179  21.806  1.00  0.00    -0.550 OA
ENDBRANCH   1   2
BRANCH   1   5
ATOM      5  C   UNL     1      34.417  31.841  23.636  1.00  0.00     0.006 C 
BRANCH   5   6
ATOM      6  C   UNL     1      34.312  31.919  25.163  1.00  0.00    -0.003 C 
ATOM      7  C   UNL     1      34.185  33.366  25.633  1.00  0.00     0.004 C 
ENDBRANCH   5   6
ENDBRANCH   1   5
TORSDOF 3
ENDMDL
MODEL 4
REMARK VINA RESULT:    -2.888      2.057      2.937
REMARK INTER + INTRA:          -3.417
REMARK INTER:                  -3.338
REMARK INTRA:                  -0.079
REMARK UNBOUND:                -0.022
REMARK SMILES CCCCC(=O)[O-]
REMARK SMILES IDX 4 1 5 2 6 3 7 4 3 5 2 6 1 7
REMARK H PARENT
REMARK Flexibility Score: inf
ROOT
ATOM      1  C   UNL     1      32.295  28.801  20.890  1.00  0.00     0.053 C 
ENDROOT
BRANCH   1   2
ATOM      2  C   UNL     1      33.046  29.005  19.613  1.00  0.00     0.041 C 
ATOM      3  O   UNL     1      33.926  28.181  19.256  1.00  0.00    -0.550 OA
ATOM      4  O   UNL     1      32.738  30.083  18.791  1.00  0.00    -0.550 OA
ENDBRANCH   1   2
BRANCH   1   5
ATOM      5  C   UNL     1      33.206  29.050  22.095  1.00  0.00     0.006 C 
BRANCH   5   6
ATOM      6  C   UNL     1      33.575  30.534  22.207  1.00  0.00    -0.003 C 
ATOM      7  C   UNL     1      34.489  30.787  23.403  1.00  0.00     0.004 C 
ENDBRANCH   5   6
ENDBRANCH   1   5
TORSDOF 3
ENDMDL
MODEL 5
REMARK VINA RESULT:    -2.864      8.577      9.554
REMARK INTER + INTRA:          -3.388
REMARK INTER:                  -3.263
REMARK INTRA:                  -0.126
REMARK UNBOUND:                -0.022
REMARK SMILES CCCCC(=O)[O-]
REMARK SMILES IDX 4 1 5 2 6 3 7 4 3 5 2 6 1 7
REMARK H PARENT
REMARK Flexibility Score: inf
ROOT
ATOM      1  C   UNL     1      36.249  36.539  29.765  1.00  0.00     0.053 C 
ENDROOT
BRANCH   1   2
ATOM      2  C   UNL     1      37.365  37.463  29.396  1.00  0.00     0.041 C 
ATOM      3  O   UNL     1      37.120  38.649  29.051  1.00  0.00    -0.550 OA
ATOM      4  O   UNL     1      38.683  37.030  29.480  1.00  0.00    -0.550 OA
ENDBRANCH   1   2
BRANCH   1   5
ATOM      5  C   UNL     1      35.395  36.212  28.536  1.00  0.00     0.006 C 
BRANCH   5   6
ATOM      6  C   UNL     1      36.237  35.539  27.446  1.00  0.00    -0.003 C 
ATOM      7  C   UNL     1      36.643  34.126  27.856  1.00  0.00     0.004 C 
ENDBRANCH   5   6
ENDBRANCH   1   5
TORSDOF 3
ENDMDL
MODEL 6
REMARK VINA RESULT:    -2.860      2.360      4.264
REMARK INTER + INTRA:          -3.383
REMARK INTER:                  -3.264
REMARK INTRA:                  -0.119
REMARK UNBOUND:                -0.022
REMARK SMILES CCCCC(=O)[O-]
REMARK SMILES IDX 4 1 5 2 6 3 7 4 3 5 2 6 1 7
REMARK H PARENT
REMARK Flexibility Score: inf
ROOT
ATOM      1  C   UNL     1      33.159  29.028  22.107  1.00  0.00     0.053 C 
ENDROOT
BRANCH   1   2
ATOM      2  C   UNL     1      33.545  30.462  22.289  1.00  0.00     0.041 C 
ATOM      3  O   UNL     1      32.750  31.379  21.957  1.00  0.00    -0.550 OA
ATOM      4  O   UNL     1      34.765  30.784  22.870  1.00  0.00    -0.550 OA
ENDBRANCH   1   2
BRANCH   1   5
ATOM      5  C   UNL     1      32.332  28.853  20.830  1.00  0.00     0.006 C 
BRANCH   5   6
ATOM      6  C   UNL     1      33.240  28.703  19.604  1.00  0.00    -0.003 C 
ATOM      7  C   UNL     1      33.026  29.847  18.616  1.00  0.00     0.004 C 
ENDBRANCH   5   6
ENDBRANCH   1   5
TORSDOF 3
ENDMDL
MODEL 7
REMARK VINA RESULT:    -2.846      5.949      7.243
REMARK INTER + INTRA:          -3.367
REMARK INTER:                  -3.347
REMARK INTRA:                  -0.021
REMARK UNBOUND:                -0.022
REMARK SMILES CCCCC(=O)[O-]
REMARK SMILES IDX 4 1 5 2 6 3 7 4 3 5 2 6 1 7
REMARK H PARENT
REMARK Flexibility Score: inf
ROOT
ATOM      1  C   UNL     1      35.081  35.456  26.990  1.00  0.00     0.053 C 
ENDROOT
BRANCH   1   2
ATOM      2  C   UNL     1      35.746  35.734  28.300  1.00  0.00     0.041 C 
ATOM      3  O   UNL     1      35.373  36.705  29.008  1.00  0.00    -0.550 OA
ATOM      4  O   UNL     1      36.748  34.890  28.763  1.00  0.00    -0.550 OA
ENDBRANCH   1   2
BRANCH   1   5
ATOM      5  C   UNL     1      35.595  34.142  26.395  1.00  0.00     0.006 C 
BRANCH   5   6
ATOM      6  C   UNL     1      34.664  33.640  25.285  1.00  0.00    -0.003 C 
ATOM      7  C   UNL     1      34.015  32.313  25.668  1.00  0.00     0.004 C 
ENDBRANCH   5   6
ENDBRANCH   1   5
TORSDOF 3
ENDMDL
MODEL 8
REMARK VINA RESULT:    -2.837      2.314      3.895
REMARK INTER + INTRA:          -3.357
REMARK INTER:                  -3.253
REMARK INTRA:                  -0.103
REMARK UNBOUND:                -0.022
REMARK SMILES CCCCC(=O)[O-]
REMARK SMILES IDX 4 1 5 2 6 3 7 4 3 5 2 6 1 7
REMARK H PARENT
REMARK Flexibility Score: inf
ROOT
ATOM      1  C   UNL     1      34.370  30.917  23.430  1.00  0.00     0.053 C 
ENDROOT
BRANCH   1   2
ATOM      2  C   UNL     1      33.618  32.208  23.371  1.00  0.00     0.041 C 
ATOM      3  O   UNL     1      33.611  32.984  24.362  1.00  0.00    -0.550 OA
ATOM      4  O   UNL     1      32.963  32.578  22.202  1.00  0.00    -0.550 OA
ENDBRANCH   1   2
BRANCH   1   5
ATOM      5  C   UNL     1      34.245  30.162  22.104  1.00  0.00     0.006 C 
BRANCH   5   6
ATOM      6  C   UNL     1      33.249  29.002  22.225  1.00  0.00    -0.003 C 
ATOM      7  C   UNL     1      32.153  29.105  21.168  1.00  0.00     0.004 C 
ENDBRANCH   5   6
ENDBRANCH   1   5
TORSDOF 3
ENDMDL
MODEL 9
REMARK VINA RESULT:    -2.822      2.027      2.873
REMARK INTER + INTRA:          -3.339
REMARK INTER:                  -3.229
REMARK INTRA:                  -0.110
REMARK UNBOUND:                -0.022
REMARK SMILES CCCCC(=O)[O-]
REMARK SMILES IDX 4 1 5 2 6 3 7 4 3 5 2 6 1 7
REMARK H PARENT
REMARK Flexibility Score: inf
ROOT
ATOM      1  C   UNL     1      33.988  32.206  24.093  1.00  0.00     0.053 C 
ENDROOT
BRANCH   1   2
ATOM      2  C   UNL     1      34.764  31.024  23.606  1.00  0.00     0.041 C 
ATOM      3  O   UNL     1      34.173  30.061  23.053  1.00  0.00    -0.550 OA
ATOM      4  O   UNL     1      36.149  31.009  23.719  1.00  0.00    -0.550 OA
ENDBRANCH   1   2
BRANCH   1   5
ATOM      5  C   UNL     1      34.109  32.337  25.614  1.00  0.00     0.006 C 
BRANCH   5   6
ATOM      6  C   UNL     1      34.982  33.539  25.995  1.00  0.00    -0.003 C 
ATOM      7  C   UNL     1      36.290  33.088  26.639  1.00  0.00     0.004 C 
ENDBRANCH   5   6
ENDBRANCH   1   5
TORSDOF 3
ENDMDL
