MODEL 1
REMARK VINA RESULT:    -5.787      0.000      0.000
REMARK INTER + INTRA:          -5.956
REMARK INTER:                  -5.956
REMARK INTRA:                   0.000
REMARK UNBOUND:                 0.000
REMARK SMILES O=c1ccc2ccc(O)cc2o1
REMARK SMILES IDX 6 1 7 2 8 3 10 4 11 5 5 6 4 7 3 8 2 9 1 10 12 11 9 12
REMARK H PARENT 9 13
REMARK Flexibility Score: inf
ROOT
ATOM      1  C   UNL     1     -16.525 -11.220 -16.688  1.00  0.00     0.016 A 
ATOM      2  C   UNL     1     -17.852 -11.374 -16.273  1.00  0.00     0.047 A 
ATOM      3  C   UNL     1     -18.276 -10.839 -15.050  1.00  0.00     0.119 A 
ATOM      4  C   UNL     1     -17.368 -10.146 -14.237  1.00  0.00     0.094 A 
ATOM      5  C   UNL     1     -16.040  -9.987 -14.644  1.00  0.00     0.142 A 
ATOM      6  C   UNL     1     -15.614 -10.527 -15.878  1.00  0.00     0.018 A 
ATOM      7  C   UNL     1     -14.280 -10.353 -16.258  1.00  0.00     0.019 A 
ATOM      8  C   UNL     1     -13.415  -9.656 -15.416  1.00  0.00     0.094 A 
ATOM      9  C   UNL     1     -13.905  -9.148 -14.208  1.00  0.00     0.336 A 
ATOM     10  O   UNL     1     -13.138  -8.517 -13.434  1.00  0.00    -0.246 OA
ATOM     11  O   UNL     1     -15.179  -9.329 -13.870  1.00  0.00    -0.423 OA
ENDROOT
BRANCH   3  12
ATOM     12  O   UNL     1     -19.602 -11.002 -14.654  1.00  0.00    -0.508 OA
ATOM     13  H   UNL     1     -19.929 -11.867 -14.240  1.00  0.00     0.293 HD
ENDBRANCH   3  12
TORSDOF 1
ENDMDL
MODEL 2
REMARK VINA RESULT:    -5.732     13.773     14.198
REMARK INTER + INTRA:          -5.899
REMARK INTER:                  -5.899
REMARK INTRA:                   0.000
REMARK UNBOUND:                 0.000
REMARK SMILES O=c1ccc2ccc(O)cc2o1
REMARK SMILES IDX 6 1 7 2 8 3 10 4 11 5 5 6 4 7 3 8 2 9 1 10 12 11 9 12
REMARK H PARENT 9 13
REMARK Flexibility Score: inf
ROOT
ATOM      1  C   UNL     1     -11.834 -18.484  -6.776  1.00  0.00     0.016 A 
ATOM      2  C   UNL     1     -12.753 -19.252  -6.053  1.00  0.00     0.047 A 
ATOM      3  C   UNL     1     -12.332 -20.402  -5.373  1.00  0.00     0.119 A 
ATOM      4  C   UNL     1     -10.984 -20.787  -5.416  1.00  0.00     0.094 A 
ATOM      5  C   UNL     1     -10.059 -20.025  -6.137  1.00  0.00     0.142 A 
ATOM      6  C   UNL     1     -10.486 -18.865  -6.822  1.00  0.00     0.018 A 
ATOM      7  C   UNL     1      -9.538 -18.125  -7.534  1.00  0.00     0.019 A 
ATOM      8  C   UNL     1      -8.209 -18.546  -7.548  1.00  0.00     0.094 A 
ATOM      9  C   UNL     1      -7.858 -19.705  -6.846  1.00  0.00     0.336 A 
ATOM     10  O   UNL     1      -6.663 -20.102  -6.848  1.00  0.00    -0.246 OA
ATOM     11  O   UNL     1      -8.780 -20.393  -6.177  1.00  0.00    -0.423 OA
ENDROOT
BRANCH   3  12
ATOM     12  O   UNL     1     -13.261 -21.154  -4.657  1.00  0.00    -0.508 OA
ATOM     13  H   UNL     1     -12.996 -21.677  -3.831  1.00  0.00     0.293 HD
ENDBRANCH   3  12
TORSDOF 1
ENDMDL
MODEL 3
REMARK VINA RESULT:    -5.630      1.096      4.235
REMARK INTER + INTRA:          -5.794
REMARK INTER:                  -5.794
REMARK INTRA:                   0.000
REMARK UNBOUND:                 0.000
REMARK SMILES O=c1ccc2ccc(O)cc2o1
REMARK SMILES IDX 6 1 7 2 8 3 10 4 11 5 5 6 4 7 3 8 2 9 1 10 12 11 9 12
REMARK H PARENT 9 13
REMARK Flexibility Score: inf
ROOT
ATOM      1  C   UNL     1     -14.162  -9.593 -16.135  1.00  0.00     0.016 A 
ATOM      2  C   UNL     1     -13.523  -8.639 -15.337  1.00  0.00     0.047 A 
ATOM      3  C   UNL     1     -14.177  -8.095 -14.224  1.00  0.00     0.119 A 
ATOM      4  C   UNL     1     -15.479  -8.507 -13.908  1.00  0.00     0.094 A 
ATOM      5  C   UNL     1     -16.127  -9.460 -14.701  1.00  0.00     0.142 A 
ATOM      6  C   UNL     1     -15.465 -10.007 -15.823  1.00  0.00     0.018 A 
ATOM      7  C   UNL     1     -16.138 -10.957 -16.596  1.00  0.00     0.019 A 
ATOM      8  C   UNL     1     -17.432 -11.335 -16.242  1.00  0.00     0.094 A 
ATOM      9  C   UNL     1     -18.026 -10.752 -15.118  1.00  0.00     0.336 A 
ATOM     10  O   UNL     1     -19.195 -11.080 -14.783  1.00  0.00    -0.246 OA
ATOM     11  O   UNL     1     -17.364  -9.849 -14.399  1.00  0.00    -0.423 OA
ENDROOT
BRANCH   3  12
ATOM     12  O   UNL     1     -13.523  -7.147 -13.440  1.00  0.00    -0.508 OA
ATOM     13  H   UNL     1     -14.028  -6.562 -12.785  1.00  0.00     0.293 HD
ENDBRANCH   3  12
TORSDOF 1
ENDMDL
MODEL 4
REMARK VINA RESULT:    -5.477     13.592     13.919
REMARK INTER + INTRA:          -5.637
REMARK INTER:                  -5.637
REMARK INTRA:                   0.000
REMARK UNBOUND:                 0.000
REMARK SMILES O=c1ccc2ccc(O)cc2o1
REMARK SMILES IDX 6 1 7 2 8 3 10 4 11 5 5 6 4 7 3 8 2 9 1 10 12 11 9 12
REMARK H PARENT 9 13
REMARK Flexibility Score: inf
ROOT
ATOM      1  C   UNL     1     -11.712 -21.033  -4.998  1.00  0.00     0.016 A 
ATOM      2  C   UNL     1     -13.073 -20.804  -5.222  1.00  0.00     0.047 A 
ATOM      3  C   UNL     1     -13.486 -19.928  -6.235  1.00  0.00     0.119 A 
ATOM      4  C   UNL     1     -12.531 -19.278  -7.029  1.00  0.00     0.094 A 
ATOM      5  C   UNL     1     -11.167 -19.501  -6.812  1.00  0.00     0.142 A 
ATOM      6  C   UNL     1     -10.754 -20.385  -5.791  1.00  0.00     0.018 A 
ATOM      7  C   UNL     1      -9.385 -20.588  -5.598  1.00  0.00     0.019 A 
ATOM      8  C   UNL     1      -8.472 -19.919  -6.413  1.00  0.00     0.094 A 
ATOM      9  C   UNL     1      -8.953 -19.058  -7.406  1.00  0.00     0.336 A 
ATOM     10  O   UNL     1      -8.145 -18.444  -8.151  1.00  0.00    -0.246 OA
ATOM     11  O   UNL     1     -10.262 -18.882  -7.568  1.00  0.00    -0.423 OA
ENDROOT
BRANCH   3  12
ATOM     12  O   UNL     1     -14.846 -19.713  -6.442  1.00  0.00    -0.508 OA
ATOM     13  H   UNL     1     -15.540 -20.010  -5.765  1.00  0.00     0.293 HD
ENDBRANCH   3  12
TORSDOF 1
ENDMDL
MODEL 5
REMARK VINA RESULT:    -5.367      1.589      2.314
REMARK INTER + INTRA:          -5.524
REMARK INTER:                  -5.524
REMARK INTRA:                   0.000
REMARK UNBOUND:                 0.000
REMARK SMILES O=c1ccc2ccc(O)cc2o1
REMARK SMILES IDX 6 1 7 2 8 3 10 4 11 5 5 6 4 7 3 8 2 9 1 10 12 11 9 12
REMARK H PARENT 9 13
REMARK Flexibility Score: inf
ROOT
ATOM      1  C   UNL     1     -16.711  -9.965 -14.113  1.00  0.00     0.016 A 
ATOM      2  C   UNL     1     -17.691 -10.598 -14.884  1.00  0.00     0.047 A 
ATOM      3  C   UNL     1     -17.383 -11.077 -16.164  1.00  0.00     0.119 A 
ATOM      4  C   UNL     1     -16.087 -10.922 -16.676  1.00  0.00     0.094 A 
ATOM      5  C   UNL     1     -15.101 -10.290 -15.912  1.00  0.00     0.142 A 
ATOM      6  C   UNL     1     -15.413  -9.808 -14.621  1.00  0.00     0.018 A 
ATOM      7  C   UNL     1     -14.407  -9.181 -13.882  1.00  0.00     0.019 A 
ATOM      8  C   UNL     1     -13.133  -9.050 -14.433  1.00  0.00     0.094 A 
ATOM      9  C   UNL     1     -12.894  -9.552 -15.717  1.00  0.00     0.336 A 
ATOM     10  O   UNL     1     -11.751  -9.442 -16.233  1.00  0.00    -0.246 OA
ATOM     11  O   UNL     1     -13.871 -10.144 -16.401  1.00  0.00    -0.423 OA
ENDROOT
BRANCH   3  12
ATOM     12  O   UNL     1     -18.373 -11.706 -16.916  1.00  0.00    -0.508 OA
ATOM     13  H   UNL     1     -18.486 -11.518 -17.906  1.00  0.00     0.293 HD
ENDBRANCH   3  12
TORSDOF 1
ENDMDL
MODEL 6
REMARK VINA RESULT:    -5.287      1.962      2.645
REMARK INTER + INTRA:          -5.442
REMARK INTER:                  -5.442
REMARK INTRA:                   0.000
REMARK UNBOUND:                 0.000
REMARK SMILES O=c1ccc2ccc(O)cc2o1
REMARK SMILES IDX 6 1 7 2 8 3 10 4 11 5 5 6 4 7 3 8 2 9 1 10 12 11 9 12
REMARK H PARENT 9 13
REMARK Flexibility Score: inf
ROOT
ATOM      1  C   UNL     1     -16.695 -11.053 -15.276  1.00  0.00     0.016 A 
ATOM      2  C   UNL     1     -16.904 -10.990 -13.894  1.00  0.00     0.047 A 
ATOM      3  C   UNL     1     -16.008 -10.289 -13.075  1.00  0.00     0.119 A 
ATOM      4  C   UNL     1     -14.897  -9.649 -13.642  1.00  0.00     0.094 A 
ATOM      5  C   UNL     1     -14.680  -9.708 -15.023  1.00  0.00     0.142 A 
ATOM      6  C   UNL     1     -15.585 -10.414 -15.846  1.00  0.00     0.018 A 
ATOM      7  C   UNL     1     -15.342 -10.456 -17.222  1.00  0.00     0.019 A 
ATOM      8  C   UNL     1     -14.223  -9.803 -17.739  1.00  0.00     0.094 A 
ATOM      9  C   UNL     1     -13.370  -9.122 -16.864  1.00  0.00     0.336 A 
ATOM     10  O   UNL     1     -12.354  -8.528 -17.312  1.00  0.00    -0.246 OA
ATOM     11  O   UNL     1     -13.624  -9.099 -15.558  1.00  0.00    -0.423 OA
ENDROOT
BRANCH   3  12
ATOM     12  O   UNL     1     -16.234 -10.236 -11.702  1.00  0.00    -0.508 OA
ATOM     13  H   UNL     1     -15.874  -9.477 -11.135  1.00  0.00     0.293 HD
ENDBRANCH   3  12
TORSDOF 1
ENDMDL
MODEL 7
REMARK VINA RESULT:    -5.284      2.124      2.795
REMARK INTER + INTRA:          -5.438
REMARK INTER:                  -5.438
REMARK INTRA:                   0.000
REMARK UNBOUND:                 0.000
REMARK SMILES O=c1ccc2ccc(O)cc2o1
REMARK SMILES IDX 6 1 7 2 8 3 10 4 11 5 5 6 4 7 3 8 2 9 1 10 12 11 9 12
REMARK H PARENT 9 13
REMARK Flexibility Score: inf
ROOT
ATOM      1  C   UNL     1     -15.539 -10.574 -13.920  1.00  0.00     0.016 A 
ATOM      2  C   UNL     1     -16.915 -10.763 -13.757  1.00  0.00     0.047 A 
ATOM      3  C   UNL     1     -17.745 -10.919 -14.875  1.00  0.00     0.119 A 
ATOM      4  C   UNL     1     -17.194 -10.886 -16.164  1.00  0.00     0.094 A 
ATOM      5  C   UNL     1     -15.819 -10.697 -16.337  1.00  0.00     0.142 A 
ATOM      6  C   UNL     1     -14.985 -10.540 -15.208  1.00  0.00     0.018 A 
ATOM      7  C   UNL     1     -13.615 -10.353 -15.411  1.00  0.00     0.019 A 
ATOM      8  C   UNL     1     -13.114 -10.327 -16.712  1.00  0.00     0.094 A 
ATOM      9  C   UNL     1     -13.999 -10.490 -17.784  1.00  0.00     0.336 A 
ATOM     10  O   UNL     1     -13.566 -10.469 -18.966  1.00  0.00    -0.246 OA
ATOM     11  O   UNL     1     -15.299 -10.666 -17.562  1.00  0.00    -0.423 OA
ENDROOT
BRANCH   3  12
ATOM     12  O   UNL     1     -19.113 -11.108 -14.692  1.00  0.00    -0.508 OA
ATOM     13  H   UNL     1     -19.597 -10.727 -13.888  1.00  0.00     0.293 HD
ENDBRANCH   3  12
TORSDOF 1
ENDMDL
MODEL 8
REMARK VINA RESULT:    -5.272     13.758     14.727
REMARK INTER + INTRA:          -5.426
REMARK INTER:                  -5.426
REMARK INTRA:                   0.000
REMARK UNBOUND:                 0.000
REMARK SMILES O=c1ccc2ccc(O)cc2o1
REMARK SMILES IDX 6 1 7 2 8 3 10 4 11 5 5 6 4 7 3 8 2 9 1 10 12 11 9 12
REMARK H PARENT 9 13
REMARK Flexibility Score: inf
ROOT
ATOM      1  C   UNL     1      -9.393 -18.089  -7.526  1.00  0.00     0.016 A 
ATOM      2  C   UNL     1      -8.065 -18.525  -7.511  1.00  0.00     0.047 A 
ATOM      3  C   UNL     1      -7.714 -19.703  -6.838  1.00  0.00     0.119 A 
ATOM      4  C   UNL     1      -8.699 -20.450  -6.177  1.00  0.00     0.094 A 
ATOM      5  C   UNL     1     -10.031 -20.022  -6.187  1.00  0.00     0.142 A 
ATOM      6  C   UNL     1     -10.382 -18.834  -6.866  1.00  0.00     0.018 A 
ATOM      7  C   UNL     1     -11.720 -18.431  -6.859  1.00  0.00     0.019 A 
ATOM      8  C   UNL     1     -12.664 -19.207  -6.188  1.00  0.00     0.094 A 
ATOM      9  C   UNL     1     -12.246 -20.373  -5.536  1.00  0.00     0.336 A 
ATOM     10  O   UNL     1     -13.083 -21.086  -4.924  1.00  0.00    -0.246 OA
ATOM     11  O   UNL     1     -10.965 -20.733  -5.558  1.00  0.00    -0.423 OA
ENDROOT
BRANCH   3  12
ATOM     12  O   UNL     1      -6.386 -20.121  -6.834  1.00  0.00    -0.508 OA
ATOM     13  H   UNL     1      -5.909 -20.381  -7.690  1.00  0.00     0.293 HD
ENDBRANCH   3  12
TORSDOF 1
ENDMDL
MODEL 9
REMARK VINA RESULT:    -5.132      1.691      4.832
REMARK INTER + INTRA:          -5.281
REMARK INTER:                  -5.281
REMARK INTRA:                   0.000
REMARK UNBOUND:                 0.000
REMARK SMILES O=c1ccc2ccc(O)cc2o1
REMARK SMILES IDX 6 1 7 2 8 3 10 4 11 5 5 6 4 7 3 8 2 9 1 10 12 11 9 12
REMARK H PARENT 9 13
REMARK Flexibility Score: inf
ROOT
ATOM      1  C   UNL     1     -14.440  -9.190 -13.856  1.00  0.00     0.016 A 
ATOM      2  C   UNL     1     -13.114  -9.103 -14.294  1.00  0.00     0.047 A 
ATOM      3  C   UNL     1     -12.737  -9.662 -15.522  1.00  0.00     0.119 A 
ATOM      4  C   UNL     1     -13.691 -10.313 -16.317  1.00  0.00     0.094 A 
ATOM      5  C   UNL     1     -15.019 -10.405 -15.887  1.00  0.00     0.142 A 
ATOM      6  C   UNL     1     -15.397  -9.840 -14.649  1.00  0.00     0.018 A 
ATOM      7  C   UNL     1     -16.731  -9.948 -14.245  1.00  0.00     0.019 A 
ATOM      8  C   UNL     1     -17.644 -10.603 -15.070  1.00  0.00     0.094 A 
ATOM      9  C   UNL     1     -17.199 -11.139 -16.284  1.00  0.00     0.336 A 
ATOM     10  O   UNL     1     -18.008 -11.735 -17.042  1.00  0.00    -0.246 OA
ATOM     11  O   UNL     1     -15.923 -11.023 -16.644  1.00  0.00    -0.423 OA
ENDROOT
BRANCH   3  12
ATOM     12  O   UNL     1     -11.412  -9.565 -15.941  1.00  0.00    -0.508 OA
ATOM     13  H   UNL     1     -11.006 -10.242 -16.576  1.00  0.00     0.293 HD
ENDBRANCH   3  12
TORSDOF 1
ENDMDL
