MODEL 1
REMARK VINA RESULT:    -4.387      0.000      0.000
REMARK INTER + INTRA:         -14.140
REMARK INTER:                 -11.056
REMARK INTRA:                  -3.083
REMARK UNBOUND:                -3.083
REMARK SMILES CCCCCCCCCCCCCCCCCCCCCCCCCCCC(=O)[O-]
REMARK SMILES IDX 15 1 16 2 17 3 18 4 19 5 20 6 21 7 22 8 23 9 24 10 25 11
REMARK SMILES IDX 26 12 27 13 28 14 29 15 30 16 14 17 13 18 12 19 11 20 10 21
REMARK SMILES IDX 9 22 8 23 7 24 6 25 5 26 4 27 3 28 2 29 1 30
REMARK H PARENT
REMARK Flexibility Score: inf
ROOT
ATOM      1  C   UNL     1      42.748  47.574  17.409  1.00  0.00     0.000 C 
ENDROOT
BRANCH   1   2
ATOM      2  C   UNL     1      44.206  47.086  17.409  1.00  0.00     0.000 C 
BRANCH   2   3
ATOM      3  C   UNL     1      44.983  47.502  18.674  1.00  0.00     0.000 C 
BRANCH   3   4
ATOM      4  C   UNL     1      44.133  48.124  19.798  1.00  0.00     0.000 C 
BRANCH   4   5
ATOM      5  C   UNL     1      44.631  47.753  21.206  1.00  0.00     0.000 C 
BRANCH   5   6
ATOM      6  C   UNL     1      43.484  47.450  22.186  1.00  0.00     0.000 C 
BRANCH   6   7
ATOM      7  C   UNL     1      43.639  46.153  23.006  1.00  0.00     0.000 C 
BRANCH   7   8
ATOM      8  C   UNL     1      44.602  45.112  22.410  1.00  0.00     0.000 C 
BRANCH   8   9
ATOM      9  C   UNL     1      43.902  44.109  21.481  1.00  0.00     0.000 C 
BRANCH   9  10
ATOM     10  C   UNL     1      44.607  44.034  20.120  1.00  0.00     0.000 C 
BRANCH  10  11
ATOM     11  C   UNL     1      43.599  43.803  18.988  1.00  0.00     0.000 C 
BRANCH  11  12
ATOM     12  C   UNL     1      43.328  42.307  18.788  1.00  0.00     0.006 C 
BRANCH  12  13
ATOM     13  C   UNL     1      42.194  41.829  19.700  1.00  0.00     0.053 C 
BRANCH  13  14
ATOM     14  C   UNL     1      41.537  40.611  19.134  1.00  0.00     0.041 C 
ATOM     15  O   UNL     1      40.832  40.696  18.094  1.00  0.00    -0.550 OA
ATOM     16  O   UNL     1      41.690  39.381  19.765  1.00  0.00    -0.550 OA
ENDBRANCH  13  14
ENDBRANCH  12  13
ENDBRANCH  11  12
ENDBRANCH  10  11
ENDBRANCH   9  10
ENDBRANCH   8   9
ENDBRANCH   7   8
ENDBRANCH   6   7
ENDBRANCH   5   6
ENDBRANCH   4   5
ENDBRANCH   3   4
ENDBRANCH   2   3
ENDBRANCH   1   2
BRANCH   1  17
ATOM     17  C   UNL     1      41.926  46.967  16.261  1.00  0.00     0.000 C 
BRANCH  17  18
ATOM     18  C   UNL     1      42.478  47.337  14.872  1.00  0.00     0.000 C 
BRANCH  18  19
ATOM     19  C   UNL     1      42.851  46.101  14.037  1.00  0.00     0.000 C 
BRANCH  19  20
ATOM     20  C   UNL     1      43.281  44.909  14.911  1.00  0.00     0.000 C 
BRANCH  20  21
ATOM     21  C   UNL     1      42.925  43.555  14.277  1.00  0.00     0.000 C 
BRANCH  21  22
ATOM     22  C   UNL     1      42.097  42.663  15.217  1.00  0.00    -0.000 C 
BRANCH  22  23
ATOM     23  C   UNL     1      42.162  41.173  14.837  1.00  0.00    -0.000 C 
BRANCH  23  24
ATOM     24  C   UNL     1      43.220  40.377  15.630  1.00  0.00    -0.000 C 
BRANCH  24  25
ATOM     25  C   UNL     1      43.208  38.881  15.276  1.00  0.00    -0.000 C 
BRANCH  25  26
ATOM     26  C   UNL     1      42.936  38.670  13.781  1.00  0.00    -0.000 C 
BRANCH  26  27
ATOM     27  C   UNL     1      42.464  37.235  13.503  1.00  0.00    -0.000 C 
BRANCH  27  28
ATOM     28  C   UNL     1      40.945  37.142  13.290  1.00  0.00    -0.000 C 
BRANCH  28  29
ATOM     29  C   UNL     1      40.263  38.518  13.269  1.00  0.00    -0.003 C 
ATOM     30  C   UNL     1      39.216  38.596  12.161  1.00  0.00     0.004 C 
ENDBRANCH  28  29
ENDBRANCH  27  28
ENDBRANCH  26  27
ENDBRANCH  25  26
ENDBRANCH  24  25
ENDBRANCH  23  24
ENDBRANCH  22  23
ENDBRANCH  21  22
ENDBRANCH  20  21
ENDBRANCH  19  20
ENDBRANCH  18  19
ENDBRANCH  17  18
ENDBRANCH   1  17
TORSDOF 26
ENDMDL
MODEL 2
REMARK VINA RESULT:    -4.340     13.601     17.647
REMARK INTER + INTRA:         -14.020
REMARK INTER:                 -11.433
REMARK INTRA:                  -2.587
REMARK UNBOUND:                -3.083
REMARK SMILES CCCCCCCCCCCCCCCCCCCCCCCCCCCC(=O)[O-]
REMARK SMILES IDX 15 1 16 2 17 3 18 4 19 5 20 6 21 7 22 8 23 9 24 10 25 11
REMARK SMILES IDX 26 12 27 13 28 14 29 15 30 16 14 17 13 18 12 19 11 20 10 21
REMARK SMILES IDX 9 22 8 23 7 24 6 25 5 26 4 27 3 28 2 29 1 30
REMARK H PARENT
REMARK Flexibility Score: inf
ROOT
ATOM      1  C   UNL     1      32.442  30.870  11.308  1.00  0.00     0.000 C 
ENDROOT
BRANCH   1   2
ATOM      2  C   UNL     1      33.530  30.691  12.380  1.00  0.00     0.000 C 
BRANCH   2   3
ATOM      3  C   UNL     1      34.194  32.018  12.794  1.00  0.00     0.000 C 
BRANCH   3   4
ATOM      4  C   UNL     1      35.349  31.893  13.806  1.00  0.00     0.000 C 
BRANCH   4   5
ATOM      5  C   UNL     1      35.456  30.489  14.426  1.00  0.00     0.000 C 
BRANCH   5   6
ATOM      6  C   UNL     1      36.652  30.348  15.385  1.00  0.00     0.000 C 
BRANCH   6   7
ATOM      7  C   UNL     1      37.977  30.960  14.885  1.00  0.00     0.000 C 
BRANCH   7   8
ATOM      8  C   UNL     1      38.623  30.235  13.691  1.00  0.00     0.000 C 
BRANCH   8   9
ATOM      9  C   UNL     1      39.495  29.043  14.113  1.00  0.00     0.000 C 
BRANCH   9  10
ATOM     10  C   UNL     1      40.946  29.231  13.653  1.00  0.00     0.000 C 
BRANCH  10  11
ATOM     11  C   UNL     1      41.931  28.911  14.783  1.00  0.00     0.000 C 
BRANCH  11  12
ATOM     12  C   UNL     1      41.596  29.712  16.048  1.00  0.00     0.006 C 
BRANCH  12  13
ATOM     13  C   UNL     1      42.841  30.417  16.595  1.00  0.00     0.053 C 
BRANCH  13  14
ATOM     14  C   UNL     1      43.153  29.943  17.978  1.00  0.00     0.041 C 
ATOM     15  O   UNL     1      44.106  30.455  18.623  1.00  0.00    -0.550 OA
ATOM     16  O   UNL     1      42.402  28.921  18.551  1.00  0.00    -0.550 OA
ENDBRANCH  13  14
ENDBRANCH  12  13
ENDBRANCH  11  12
ENDBRANCH  10  11
ENDBRANCH   9  10
ENDBRANCH   8   9
ENDBRANCH   7   8
ENDBRANCH   6   7
ENDBRANCH   5   6
ENDBRANCH   4   5
ENDBRANCH   3   4
ENDBRANCH   2   3
ENDBRANCH   1   2
BRANCH   1  17
ATOM     17  C   UNL     1      31.441  29.703  11.287  1.00  0.00     0.000 C 
BRANCH  17  18
ATOM     18  C   UNL     1      30.181  30.013  10.460  1.00  0.00     0.000 C 
BRANCH  18  19
ATOM     19  C   UNL     1      30.341  29.641   8.978  1.00  0.00     0.000 C 
BRANCH  19  20
ATOM     20  C   UNL     1      29.356  28.543   8.537  1.00  0.00     0.000 C 
BRANCH  20  21
ATOM     21  C   UNL     1      29.034  28.608   7.035  1.00  0.00     0.000 C 
BRANCH  21  22
ATOM     22  C   UNL     1      28.112  29.786   6.680  1.00  0.00    -0.000 C 
BRANCH  22  23
ATOM     23  C   UNL     1      28.598  30.576   5.451  1.00  0.00    -0.000 C 
BRANCH  23  24
ATOM     24  C   UNL     1      30.106  30.413   5.167  1.00  0.00    -0.000 C 
BRANCH  24  25
ATOM     25  C   UNL     1      30.839  31.764   5.123  1.00  0.00    -0.000 C 
BRANCH  25  26
ATOM     26  C   UNL     1      31.149  32.270   6.538  1.00  0.00    -0.000 C 
BRANCH  26  27
ATOM     27  C   UNL     1      30.023  33.175   7.059  1.00  0.00    -0.000 C 
BRANCH  27  28
ATOM     28  C   UNL     1      29.936  33.189   8.593  1.00  0.00    -0.000 C 
BRANCH  28  29
ATOM     29  C   UNL     1      28.550  33.605   9.105  1.00  0.00    -0.003 C 
ATOM     30  C   UNL     1      27.636  32.393   9.267  1.00  0.00     0.004 C 
ENDBRANCH  28  29
ENDBRANCH  27  28
ENDBRANCH  26  27
ENDBRANCH  25  26
ENDBRANCH  24  25
ENDBRANCH  23  24
ENDBRANCH  22  23
ENDBRANCH  21  22
ENDBRANCH  20  21
ENDBRANCH  19  20
ENDBRANCH  18  19
ENDBRANCH  17  18
ENDBRANCH   1  17
TORSDOF 26
ENDMDL
MODEL 3
REMARK VINA RESULT:    -4.300     13.325     17.380
REMARK INTER + INTRA:         -13.918
REMARK INTER:                 -11.455
REMARK INTRA:                  -2.463
REMARK UNBOUND:                -3.083
REMARK SMILES CCCCCCCCCCCCCCCCCCCCCCCCCCCC(=O)[O-]
REMARK SMILES IDX 15 1 16 2 17 3 18 4 19 5 20 6 21 7 22 8 23 9 24 10 25 11
REMARK SMILES IDX 26 12 27 13 28 14 29 15 30 16 14 17 13 18 12 19 11 20 10 21
REMARK SMILES IDX 9 22 8 23 7 24 6 25 5 26 4 27 3 28 2 29 1 30
REMARK H PARENT
REMARK Flexibility Score: inf
ROOT
ATOM      1  C   UNL     1      32.429  30.857  11.323  1.00  0.00     0.000 C 
ENDROOT
BRANCH   1   2
ATOM      2  C   UNL     1      33.514  30.683  12.398  1.00  0.00     0.000 C 
BRANCH   2   3
ATOM      3  C   UNL     1      34.210  32.006  12.774  1.00  0.00     0.000 C 
BRANCH   3   4
ATOM      4  C   UNL     1      35.308  31.894  13.849  1.00  0.00     0.000 C 
BRANCH   4   5
ATOM      5  C   UNL     1      35.437  30.476  14.433  1.00  0.00     0.000 C 
BRANCH   5   6
ATOM      6  C   UNL     1      36.787  30.237  15.132  1.00  0.00     0.000 C 
BRANCH   6   7
ATOM      7  C   UNL     1      38.030  30.352  14.226  1.00  0.00     0.000 C 
BRANCH   7   8
ATOM      8  C   UNL     1      39.382  30.319  14.961  1.00  0.00     0.000 C 
BRANCH   8   9
ATOM      9  C   UNL     1      40.445  29.490  14.224  1.00  0.00     0.000 C 
BRANCH   9  10
ATOM     10  C   UNL     1      41.657  29.223  15.126  1.00  0.00     0.000 C 
BRANCH  10  11
ATOM     11  C   UNL     1      42.470  30.503  15.352  1.00  0.00     0.000 C 
BRANCH  11  12
ATOM     12  C   UNL     1      42.615  30.806  16.848  1.00  0.00     0.006 C 
BRANCH  12  13
ATOM     13  C   UNL     1      42.113  29.632  17.696  1.00  0.00     0.053 C 
BRANCH  13  14
ATOM     14  C   UNL     1      43.222  29.063  18.521  1.00  0.00     0.041 C 
ATOM     15  O   UNL     1      42.985  28.154  19.360  1.00  0.00    -0.550 OA
ATOM     16  O   UNL     1      44.518  29.549  18.377  1.00  0.00    -0.550 OA
ENDBRANCH  13  14
ENDBRANCH  12  13
ENDBRANCH  11  12
ENDBRANCH  10  11
ENDBRANCH   9  10
ENDBRANCH   8   9
ENDBRANCH   7   8
ENDBRANCH   6   7
ENDBRANCH   5   6
ENDBRANCH   4   5
ENDBRANCH   3   4
ENDBRANCH   2   3
ENDBRANCH   1   2
BRANCH   1  17
ATOM     17  C   UNL     1      31.410  29.707  11.326  1.00  0.00     0.000 C 
BRANCH  17  18
ATOM     18  C   UNL     1      30.156  30.017  10.488  1.00  0.00     0.000 C 
BRANCH  18  19
ATOM     19  C   UNL     1      28.853  29.696  11.236  1.00  0.00     0.000 C 
BRANCH  19  20
ATOM     20  C   UNL     1      29.019  29.769  12.765  1.00  0.00     0.000 C 
BRANCH  20  21
ATOM     21  C   UNL     1      28.166  30.881  13.398  1.00  0.00     0.000 C 
BRANCH  21  22
ATOM     22  C   UNL     1      26.680  30.773  13.018  1.00  0.00    -0.000 C 
BRANCH  22  23
ATOM     23  C   UNL     1      26.183  31.980  12.201  1.00  0.00    -0.000 C 
BRANCH  23  24
ATOM     24  C   UNL     1      27.207  33.131  12.112  1.00  0.00    -0.000 C 
BRANCH  24  25
ATOM     25  C   UNL     1      26.885  34.107  10.968  1.00  0.00    -0.000 C 
BRANCH  25  26
ATOM     26  C   UNL     1      27.025  33.422   9.603  1.00  0.00    -0.000 C 
BRANCH  26  27
ATOM     27  C   UNL     1      28.486  33.033   9.328  1.00  0.00    -0.000 C 
BRANCH  27  28
ATOM     28  C   UNL     1      28.744  32.709   7.848  1.00  0.00    -0.000 C 
BRANCH  28  29
ATOM     29  C   UNL     1      30.164  32.182   7.595  1.00  0.00    -0.003 C 
ATOM     30  C   UNL     1      31.202  33.012   8.346  1.00  0.00     0.004 C 
ENDBRANCH  28  29
ENDBRANCH  27  28
ENDBRANCH  26  27
ENDBRANCH  25  26
ENDBRANCH  24  25
ENDBRANCH  23  24
ENDBRANCH  22  23
ENDBRANCH  21  22
ENDBRANCH  20  21
ENDBRANCH  19  20
ENDBRANCH  18  19
ENDBRANCH  17  18
ENDBRANCH   1  17
TORSDOF 26
ENDMDL
MODEL 4
REMARK VINA RESULT:    -4.277     14.065     18.543
REMARK INTER + INTRA:         -13.862
REMARK INTER:                 -10.974
REMARK INTRA:                  -2.888
REMARK UNBOUND:                -3.083
REMARK SMILES CCCCCCCCCCCCCCCCCCCCCCCCCCCC(=O)[O-]
REMARK SMILES IDX 15 1 16 2 17 3 18 4 19 5 20 6 21 7 22 8 23 9 24 10 25 11
REMARK SMILES IDX 26 12 27 13 28 14 29 15 30 16 14 17 13 18 12 19 11 20 10 21
REMARK SMILES IDX 9 22 8 23 7 24 6 25 5 26 4 27 3 28 2 29 1 30
REMARK H PARENT
REMARK Flexibility Score: inf
ROOT
ATOM      1  C   UNL     1      33.585  31.592  12.375  1.00  0.00     0.000 C 
ENDROOT
BRANCH   1   2
ATOM      2  C   UNL     1      33.075  30.176  12.061  1.00  0.00     0.000 C 
BRANCH   2   3
ATOM      3  C   UNL     1      31.593  30.146  11.641  1.00  0.00     0.000 C 
BRANCH   3   4
ATOM      4  C   UNL     1      31.333  30.200  10.123  1.00  0.00     0.000 C 
BRANCH   4   5
ATOM      5  C   UNL     1      30.377  29.097   9.636  1.00  0.00     0.000 C 
BRANCH   5   6
ATOM      6  C   UNL     1      29.944  28.141  10.762  1.00  0.00     0.000 C 
BRANCH   6   7
ATOM      7  C   UNL     1      28.472  28.264  11.205  1.00  0.00     0.000 C 
BRANCH   7   8
ATOM      8  C   UNL     1      27.744  29.528  10.715  1.00  0.00     0.000 C 
BRANCH   8   9
ATOM      9  C   UNL     1      27.665  30.627  11.786  1.00  0.00     0.000 C 
BRANCH   9  10
ATOM     10  C   UNL     1      27.729  32.021  11.149  1.00  0.00     0.000 C 
BRANCH  10  11
ATOM     11  C   UNL     1      28.061  31.931   9.655  1.00  0.00     0.000 C 
BRANCH  11  12
ATOM     12  C   UNL     1      28.458  33.304   9.096  1.00  0.00     0.006 C 
BRANCH  12  13
ATOM     13  C   UNL     1      29.860  33.260   8.479  1.00  0.00     0.053 C 
BRANCH  13  14
ATOM     14  C   UNL     1      29.818  32.661   7.110  1.00  0.00     0.041 C 
ATOM     15  O   UNL     1      29.292  33.296   6.157  1.00  0.00    -0.550 OA
ATOM     16  O   UNL     1      30.346  31.393   6.887  1.00  0.00    -0.550 OA
ENDBRANCH  13  14
ENDBRANCH  12  13
ENDBRANCH  11  12
ENDBRANCH  10  11
ENDBRANCH   9  10
ENDBRANCH   8   9
ENDBRANCH   7   8
ENDBRANCH   6   7
ENDBRANCH   5   6
ENDBRANCH   4   5
ENDBRANCH   3   4
ENDBRANCH   2   3
ENDBRANCH   1   2
BRANCH   1  17
ATOM     17  C   UNL     1      34.840  31.581  13.262  1.00  0.00     0.000 C 
BRANCH  17  18
ATOM     18  C   UNL     1      35.122  30.199  13.880  1.00  0.00     0.000 C 
BRANCH  18  19
ATOM     19  C   UNL     1      36.100  30.271  15.064  1.00  0.00     0.000 C 
BRANCH  19  20
ATOM     20  C   UNL     1      37.215  31.310  14.843  1.00  0.00     0.000 C 
BRANCH  20  21
ATOM     21  C   UNL     1      38.616  30.677  14.835  1.00  0.00     0.000 C 
BRANCH  21  22
ATOM     22  C   UNL     1      38.868  29.817  13.585  1.00  0.00    -0.000 C 
BRANCH  22  23
ATOM     23  C   UNL     1      40.010  28.804  13.777  1.00  0.00    -0.000 C 
BRANCH  23  24
ATOM     24  C   UNL     1      41.351  29.257  13.163  1.00  0.00    -0.000 C 
BRANCH  24  25
ATOM     25  C   UNL     1      42.511  29.165  14.168  1.00  0.00    -0.000 C 
BRANCH  25  26
ATOM     26  C   UNL     1      42.677  30.481  14.940  1.00  0.00    -0.000 C 
BRANCH  26  27
ATOM     27  C   UNL     1      42.087  30.369  16.354  1.00  0.00    -0.000 C 
BRANCH  27  28
ATOM     28  C   UNL     1      42.464  29.052  17.050  1.00  0.00    -0.000 C 
BRANCH  28  29
ATOM     29  C   UNL     1      42.815  29.242  18.532  1.00  0.00    -0.003 C 
ATOM     30  C   UNL     1      44.060  30.110  18.695  1.00  0.00     0.004 C 
ENDBRANCH  28  29
ENDBRANCH  27  28
ENDBRANCH  26  27
ENDBRANCH  25  26
ENDBRANCH  24  25
ENDBRANCH  23  24
ENDBRANCH  22  23
ENDBRANCH  21  22
ENDBRANCH  20  21
ENDBRANCH  19  20
ENDBRANCH  18  19
ENDBRANCH  17  18
ENDBRANCH   1  17
TORSDOF 26
ENDMDL
MODEL 5
REMARK VINA RESULT:    -4.264     13.366     17.286
REMARK INTER + INTRA:         -13.829
REMARK INTER:                 -11.219
REMARK INTRA:                  -2.610
REMARK UNBOUND:                -3.083
REMARK SMILES CCCCCCCCCCCCCCCCCCCCCCCCCCCC(=O)[O-]
REMARK SMILES IDX 15 1 16 2 17 3 18 4 19 5 20 6 21 7 22 8 23 9 24 10 25 11
REMARK SMILES IDX 26 12 27 13 28 14 29 15 30 16 14 17 13 18 12 19 11 20 10 21
REMARK SMILES IDX 9 22 8 23 7 24 6 25 5 26 4 27 3 28 2 29 1 30
REMARK H PARENT
REMARK Flexibility Score: inf
ROOT
ATOM      1  C   UNL     1      33.990  32.049  12.774  1.00  0.00     0.000 C 
ENDROOT
BRANCH   1   2
ATOM      2  C   UNL     1      35.281  31.899  13.595  1.00  0.00     0.000 C 
BRANCH   2   3
ATOM      3  C   UNL     1      35.512  30.463  14.103  1.00  0.00     0.000 C 
BRANCH   3   4
ATOM      4  C   UNL     1      36.482  30.328  15.292  1.00  0.00     0.000 C 
BRANCH   4   5
ATOM      5  C   UNL     1      37.899  30.839  14.974  1.00  0.00     0.000 C 
BRANCH   5   6
ATOM      6  C   UNL     1      38.495  30.201  13.706  1.00  0.00     0.000 C 
BRANCH   6   7
ATOM      7  C   UNL     1      38.981  28.746  13.864  1.00  0.00     0.000 C 
BRANCH   7   8
ATOM      8  C   UNL     1      40.416  28.478  13.377  1.00  0.00     0.000 C 
BRANCH   8   9
ATOM      9  C   UNL     1      41.452  29.408  14.026  1.00  0.00     0.000 C 
BRANCH   9  10
ATOM     10  C   UNL     1      41.776  28.958  15.457  1.00  0.00     0.000 C 
BRANCH  10  11
ATOM     11  C   UNL     1      41.472  30.070  16.468  1.00  0.00     0.000 C 
BRANCH  11  12
ATOM     12  C   UNL     1      42.765  30.713  16.985  1.00  0.00     0.006 C 
BRANCH  12  13
ATOM     13  C   UNL     1      43.770  29.644  17.424  1.00  0.00     0.053 C 
BRANCH  13  14
ATOM     14  C   UNL     1      43.518  29.229  18.837  1.00  0.00     0.041 C 
ATOM     15  O   UNL     1      42.890  28.165  19.083  1.00  0.00    -0.550 OA
ATOM     16  O   UNL     1      43.964  30.025  19.888  1.00  0.00    -0.550 OA
ENDBRANCH  13  14
ENDBRANCH  12  13
ENDBRANCH  11  12
ENDBRANCH  10  11
ENDBRANCH   9  10
ENDBRANCH   8   9
ENDBRANCH   7   8
ENDBRANCH   6   7
ENDBRANCH   5   6
ENDBRANCH   4   5
ENDBRANCH   3   4
ENDBRANCH   2   3
ENDBRANCH   1   2
BRANCH   1  17
ATOM     17  C   UNL     1      33.379  30.692  12.389  1.00  0.00     0.000 C 
BRANCH  17  18
ATOM     18  C   UNL     1      32.433  30.785  11.178  1.00  0.00     0.000 C 
BRANCH  18  19
ATOM     19  C   UNL     1      31.323  29.722  11.214  1.00  0.00     0.000 C 
BRANCH  19  20
ATOM     20  C   UNL     1      30.724  29.450   9.822  1.00  0.00     0.000 C 
BRANCH  20  21
ATOM     21  C   UNL     1      29.242  29.851   9.729  1.00  0.00     0.000 C 
BRANCH  21  22
ATOM     22  C   UNL     1      29.048  31.372   9.616  1.00  0.00    -0.000 C 
BRANCH  22  23
ATOM     23  C   UNL     1      27.676  31.757   9.036  1.00  0.00    -0.000 C 
BRANCH  23  24
ATOM     24  C   UNL     1      26.597  32.009  10.111  1.00  0.00    -0.000 C 
BRANCH  24  25
ATOM     25  C   UNL     1      26.876  33.281  10.928  1.00  0.00    -0.000 C 
BRANCH  25  26
ATOM     26  C   UNL     1      26.506  33.081  12.404  1.00  0.00    -0.000 C 
BRANCH  26  27
ATOM     27  C   UNL     1      27.714  32.582  13.212  1.00  0.00    -0.000 C 
BRANCH  27  28
ATOM     28  C   UNL     1      27.462  31.217  13.871  1.00  0.00    -0.000 C 
BRANCH  28  29
ATOM     29  C   UNL     1      28.184  30.068  13.153  1.00  0.00    -0.003 C 
ATOM     30  C   UNL     1      27.209  28.957  12.773  1.00  0.00     0.004 C 
ENDBRANCH  28  29
ENDBRANCH  27  28
ENDBRANCH  26  27
ENDBRANCH  25  26
ENDBRANCH  24  25
ENDBRANCH  23  24
ENDBRANCH  22  23
ENDBRANCH  21  22
ENDBRANCH  20  21
ENDBRANCH  19  20
ENDBRANCH  18  19
ENDBRANCH  17  18
ENDBRANCH   1  17
TORSDOF 26
ENDMDL
MODEL 6
REMARK VINA RESULT:    -4.251     13.256     17.588
REMARK INTER + INTRA:         -13.795
REMARK INTER:                 -11.048
REMARK INTRA:                  -2.747
REMARK UNBOUND:                -3.083
REMARK SMILES CCCCCCCCCCCCCCCCCCCCCCCCCCCC(=O)[O-]
REMARK SMILES IDX 15 1 16 2 17 3 18 4 19 5 20 6 21 7 22 8 23 9 24 10 25 11
REMARK SMILES IDX 26 12 27 13 28 14 29 15 30 16 14 17 13 18 12 19 11 20 10 21
REMARK SMILES IDX 9 22 8 23 7 24 6 25 5 26 4 27 3 28 2 29 1 30
REMARK H PARENT
REMARK Flexibility Score: inf
ROOT
ATOM      1  C   UNL     1      37.669  30.883  14.981  1.00  0.00     0.000 C 
ENDROOT
BRANCH   1   2
ATOM      2  C   UNL     1      37.009  31.994  14.147  1.00  0.00     0.000 C 
BRANCH   2   3
ATOM      3  C   UNL     1      35.470  31.916  14.148  1.00  0.00     0.000 C 
BRANCH   3   4
ATOM      4  C   UNL     1      34.865  30.747  13.349  1.00  0.00     0.000 C 
BRANCH   4   5
ATOM      5  C   UNL     1      33.716  31.182  12.422  1.00  0.00     0.000 C 
BRANCH   5   6
ATOM      6  C   UNL     1      32.760  30.027  12.072  1.00  0.00     0.000 C 
BRANCH   6   7
ATOM      7  C   UNL     1      31.696  30.350  11.002  1.00  0.00     0.000 C 
BRANCH   7   8
ATOM      8  C   UNL     1      30.637  29.257  10.781  1.00  0.00     0.000 C 
BRANCH   8   9
ATOM      9  C   UNL     1      29.198  29.786  10.886  1.00  0.00     0.000 C 
BRANCH   9  10
ATOM     10  C   UNL     1      28.345  29.297   9.708  1.00  0.00     0.000 C 
BRANCH  10  11
ATOM     11  C   UNL     1      29.200  29.100   8.451  1.00  0.00     0.000 C 
BRANCH  11  12
ATOM     12  C   UNL     1      29.129  30.330   7.538  1.00  0.00     0.006 C 
BRANCH  12  13
ATOM     13  C   UNL     1      30.462  31.083   7.528  1.00  0.00     0.053 C 
BRANCH  13  14
ATOM     14  C   UNL     1      30.296  32.462   8.081  1.00  0.00     0.041 C 
ATOM     15  O   UNL     1      31.023  33.403   7.665  1.00  0.00    -0.550 OA
ATOM     16  O   UNL     1      29.349  32.707   9.070  1.00  0.00    -0.550 OA
ENDBRANCH  13  14
ENDBRANCH  12  13
ENDBRANCH  11  12
ENDBRANCH  10  11
ENDBRANCH   9  10
ENDBRANCH   8   9
ENDBRANCH   7   8
ENDBRANCH   6   7
ENDBRANCH   5   6
ENDBRANCH   4   5
ENDBRANCH   3   4
ENDBRANCH   2   3
ENDBRANCH   1   2
BRANCH   1  17
ATOM     17  C   UNL     1      38.457  29.888  14.114  1.00  0.00     0.000 C 
BRANCH  17  18
ATOM     18  C   UNL     1      39.917  29.722  14.574  1.00  0.00     0.000 C 
BRANCH  18  19
ATOM     19  C   UNL     1      40.776  28.964  13.549  1.00  0.00     0.000 C 
BRANCH  19  20
ATOM     20  C   UNL     1      41.923  28.178  14.209  1.00  0.00     0.000 C 
BRANCH  20  21
ATOM     21  C   UNL     1      43.284  28.459  13.553  1.00  0.00     0.000 C 
BRANCH  21  22
ATOM     22  C   UNL     1      43.198  29.529  12.451  1.00  0.00    -0.000 C 
BRANCH  22  23
ATOM     23  C   UNL     1      44.063  30.766  12.751  1.00  0.00    -0.000 C 
BRANCH  23  24
ATOM     24  C   UNL     1      44.949  30.614  14.006  1.00  0.00    -0.000 C 
BRANCH  24  25
ATOM     25  C   UNL     1      44.558  31.602  15.117  1.00  0.00    -0.000 C 
BRANCH  25  26
ATOM     26  C   UNL     1      44.110  30.860  16.383  1.00  0.00    -0.000 C 
BRANCH  26  27
ATOM     27  C   UNL     1      42.587  30.946  16.562  1.00  0.00    -0.000 C 
BRANCH  27  28
ATOM     28  C   UNL     1      42.065  29.994  17.650  1.00  0.00    -0.000 C 
BRANCH  28  29
ATOM     29  C   UNL     1      42.850  28.676  17.713  1.00  0.00    -0.003 C 
ATOM     30  C   UNL     1      43.192  28.308  19.154  1.00  0.00     0.004 C 
ENDBRANCH  28  29
ENDBRANCH  27  28
ENDBRANCH  26  27
ENDBRANCH  25  26
ENDBRANCH  24  25
ENDBRANCH  23  24
ENDBRANCH  22  23
ENDBRANCH  21  22
ENDBRANCH  20  21
ENDBRANCH  19  20
ENDBRANCH  18  19
ENDBRANCH  17  18
ENDBRANCH   1  17
TORSDOF 26
ENDMDL
MODEL 7
REMARK VINA RESULT:    -4.210     13.370     17.469
REMARK INTER + INTRA:         -13.692
REMARK INTER:                 -11.368
REMARK INTRA:                  -2.324
REMARK UNBOUND:                -3.083
REMARK SMILES CCCCCCCCCCCCCCCCCCCCCCCCCCCC(=O)[O-]
REMARK SMILES IDX 15 1 16 2 17 3 18 4 19 5 20 6 21 7 22 8 23 9 24 10 25 11
REMARK SMILES IDX 26 12 27 13 28 14 29 15 30 16 14 17 13 18 12 19 11 20 10 21
REMARK SMILES IDX 9 22 8 23 7 24 6 25 5 26 4 27 3 28 2 29 1 30
REMARK H PARENT
REMARK Flexibility Score: inf
ROOT
ATOM      1  C   UNL     1      36.558  32.005  14.622  1.00  0.00     0.000 C 
ENDROOT
BRANCH   1   2
ATOM      2  C   UNL     1      35.201  32.002  13.898  1.00  0.00     0.000 C 
BRANCH   2   3
ATOM      3  C   UNL     1      35.019  30.793  12.961  1.00  0.00     0.000 C 
BRANCH   3   4
ATOM      4  C   UNL     1      33.570  30.294  12.797  1.00  0.00     0.000 C 
BRANCH   4   5
ATOM      5  C   UNL     1      32.817  30.997  11.654  1.00  0.00     0.000 C 
BRANCH   5   6
ATOM      6  C   UNL     1      31.676  30.143  11.074  1.00  0.00     0.000 C 
BRANCH   6   7
ATOM      7  C   UNL     1      31.197  30.547   9.665  1.00  0.00     0.000 C 
BRANCH   7   8
ATOM      8  C   UNL     1      32.024  31.651   8.983  1.00  0.00     0.000 C 
BRANCH   8   9
ATOM      9  C   UNL     1      31.177  32.571   8.091  1.00  0.00     0.000 C 
BRANCH   9  10
ATOM     10  C   UNL     1      29.995  31.809   7.480  1.00  0.00     0.000 C 
BRANCH  10  11
ATOM     11  C   UNL     1      28.669  32.527   7.761  1.00  0.00     0.000 C 
BRANCH  11  12
ATOM     12  C   UNL     1      28.698  33.219   9.130  1.00  0.00     0.006 C 
BRANCH  12  13
ATOM     13  C   UNL     1      27.881  32.433  10.159  1.00  0.00     0.053 C 
BRANCH  13  14
ATOM     14  C   UNL     1      26.951  33.338  10.901  1.00  0.00     0.041 C 
ATOM     15  O   UNL     1      26.040  33.954  10.285  1.00  0.00    -0.550 OA
ATOM     16  O   UNL     1      27.099  33.516  12.273  1.00  0.00    -0.550 OA
ENDBRANCH  13  14
ENDBRANCH  12  13
ENDBRANCH  11  12
ENDBRANCH  10  11
ENDBRANCH   9  10
ENDBRANCH   8   9
ENDBRANCH   7   8
ENDBRANCH   6   7
ENDBRANCH   5   6
ENDBRANCH   4   5
ENDBRANCH   3   4
ENDBRANCH   2   3
ENDBRANCH   1   2
BRANCH   1  17
ATOM     17  C   UNL     1      37.058  30.587  14.938  1.00  0.00     0.000 C 
BRANCH  17  18
ATOM     18  C   UNL     1      38.592  30.470  14.890  1.00  0.00     0.000 C 
BRANCH  18  19
ATOM     19  C   UNL     1      39.090  29.761  13.621  1.00  0.00     0.000 C 
BRANCH  19  20
ATOM     20  C   UNL     1      39.985  28.549  13.937  1.00  0.00     0.000 C 
BRANCH  20  21
ATOM     21  C   UNL     1      41.483  28.890  13.871  1.00  0.00     0.000 C 
BRANCH  21  22
ATOM     22  C   UNL     1      42.009  28.958  12.427  1.00  0.00    -0.000 C 
BRANCH  22  23
ATOM     23  C   UNL     1      43.319  29.758  12.306  1.00  0.00    -0.000 C 
BRANCH  23  24
ATOM     24  C   UNL     1      44.101  29.870  13.632  1.00  0.00    -0.000 C 
BRANCH  24  25
ATOM     25  C   UNL     1      44.262  31.329  14.090  1.00  0.00    -0.000 C 
BRANCH  25  26
ATOM     26  C   UNL     1      44.458  31.411  15.609  1.00  0.00    -0.000 C 
BRANCH  26  27
ATOM     27  C   UNL     1      44.208  30.049  16.273  1.00  0.00    -0.000 C 
BRANCH  27  28
ATOM     28  C   UNL     1      43.779  30.176  17.743  1.00  0.00    -0.000 C 
BRANCH  28  29
ATOM     29  C   UNL     1      42.344  29.686  17.988  1.00  0.00    -0.003 C 
ATOM     30  C   UNL     1      41.340  30.500  17.176  1.00  0.00     0.004 C 
ENDBRANCH  28  29
ENDBRANCH  27  28
ENDBRANCH  26  27
ENDBRANCH  25  26
ENDBRANCH  24  25
ENDBRANCH  23  24
ENDBRANCH  22  23
ENDBRANCH  21  22
ENDBRANCH  20  21
ENDBRANCH  19  20
ENDBRANCH  18  19
ENDBRANCH  17  18
ENDBRANCH   1  17
TORSDOF 26
ENDMDL
MODEL 8
REMARK VINA RESULT:    -4.209     13.824     19.169
REMARK INTER + INTRA:         -13.691
REMARK INTER:                 -10.561
REMARK INTRA:                  -3.130
REMARK UNBOUND:                -3.083
REMARK SMILES CCCCCCCCCCCCCCCCCCCCCCCCCCCC(=O)[O-]
REMARK SMILES IDX 15 1 16 2 17 3 18 4 19 5 20 6 21 7 22 8 23 9 24 10 25 11
REMARK SMILES IDX 26 12 27 13 28 14 29 15 30 16 14 17 13 18 12 19 11 20 10 21
REMARK SMILES IDX 9 22 8 23 7 24 6 25 5 26 4 27 3 28 2 29 1 30
REMARK H PARENT
REMARK Flexibility Score: inf
ROOT
ATOM      1  C   UNL     1      31.098  30.105   9.952  1.00  0.00     0.000 C 
ENDROOT
BRANCH   1   2
ATOM      2  C   UNL     1      31.705  31.290   9.181  1.00  0.00     0.000 C 
BRANCH   2   3
ATOM      3  C   UNL     1      30.680  32.400   8.876  1.00  0.00     0.000 C 
BRANCH   3   4
ATOM      4  C   UNL     1      30.929  33.192   7.579  1.00  0.00     0.000 C 
BRANCH   4   5
ATOM      5  C   UNL     1      29.759  33.100   6.583  1.00  0.00     0.000 C 
BRANCH   5   6
ATOM      6  C   UNL     1      29.845  31.863   5.672  1.00  0.00     0.000 C 
BRANCH   6   7
ATOM      7  C   UNL     1      28.724  30.821   5.863  1.00  0.00     0.000 C 
BRANCH   7   8
ATOM      8  C   UNL     1      28.940  29.832   7.022  1.00  0.00     0.000 C 
BRANCH   8   9
ATOM      9  C   UNL     1      27.792  29.843   8.042  1.00  0.00     0.000 C 
BRANCH   9  10
ATOM     10  C   UNL     1      27.190  31.247   8.178  1.00  0.00     0.000 C 
BRANCH  10  11
ATOM     11  C   UNL     1      26.845  31.562   9.638  1.00  0.00     0.000 C 
BRANCH  11  12
ATOM     12  C   UNL     1      27.191  30.380  10.553  1.00  0.00     0.006 C 
BRANCH  12  13
ATOM     13  C   UNL     1      28.003  30.846  11.766  1.00  0.00     0.053 C 
BRANCH  13  14
ATOM     14  C   UNL     1      27.869  29.877  12.896  1.00  0.00     0.041 C 
ATOM     15  O   UNL     1      26.860  29.919  13.651  1.00  0.00    -0.550 OA
ATOM     16  O   UNL     1      28.865  28.935  13.128  1.00  0.00    -0.550 OA
ENDBRANCH  13  14
ENDBRANCH  12  13
ENDBRANCH  11  12
ENDBRANCH  10  11
ENDBRANCH   9  10
ENDBRANCH   8   9
ENDBRANCH   7   8
ENDBRANCH   6   7
ENDBRANCH   5   6
ENDBRANCH   4   5
ENDBRANCH   3   4
ENDBRANCH   2   3
ENDBRANCH   1   2
BRANCH   1  17
ATOM     17  C   UNL     1      31.637  30.001  11.388  1.00  0.00     0.000 C 
BRANCH  17  18
ATOM     18  C   UNL     1      32.901  30.849  11.614  1.00  0.00     0.000 C 
BRANCH  18  19
ATOM     19  C   UNL     1      33.793  30.291  12.734  1.00  0.00     0.000 C 
BRANCH  19  20
ATOM     20  C   UNL     1      34.922  31.262  13.126  1.00  0.00     0.000 C 
BRANCH  20  21
ATOM     21  C   UNL     1      35.615  30.859  14.438  1.00  0.00     0.000 C 
BRANCH  21  22
ATOM     22  C   UNL     1      36.959  31.580  14.641  1.00  0.00    -0.000 C 
BRANCH  22  23
ATOM     23  C   UNL     1      38.138  30.607  14.819  1.00  0.00    -0.000 C 
BRANCH  23  24
ATOM     24  C   UNL     1      38.688  30.050  13.489  1.00  0.00    -0.000 C 
BRANCH  24  25
ATOM     25  C   UNL     1      39.523  28.775  13.694  1.00  0.00    -0.000 C 
BRANCH  25  26
ATOM     26  C   UNL     1      41.023  29.073  13.570  1.00  0.00    -0.000 C 
BRANCH  26  27
ATOM     27  C   UNL     1      41.841  28.185  14.521  1.00  0.00    -0.000 C 
BRANCH  27  28
ATOM     28  C   UNL     1      42.226  28.908  15.821  1.00  0.00    -0.000 C 
BRANCH  28  29
ATOM     29  C   UNL     1      41.940  30.416  15.769  1.00  0.00    -0.003 C 
ATOM     30  C   UNL     1      41.210  30.881  17.027  1.00  0.00     0.004 C 
ENDBRANCH  28  29
ENDBRANCH  27  28
ENDBRANCH  26  27
ENDBRANCH  25  26
ENDBRANCH  24  25
ENDBRANCH  23  24
ENDBRANCH  22  23
ENDBRANCH  21  22
ENDBRANCH  20  21
ENDBRANCH  19  20
ENDBRANCH  18  19
ENDBRANCH  17  18
ENDBRANCH   1  17
TORSDOF 26
ENDMDL
MODEL 9
REMARK VINA RESULT:    -4.195     13.832     17.929
REMARK INTER + INTRA:         -13.656
REMARK INTER:                 -10.670
REMARK INTRA:                  -2.985
REMARK UNBOUND:                -3.083
REMARK SMILES CCCCCCCCCCCCCCCCCCCCCCCCCCCC(=O)[O-]
REMARK SMILES IDX 15 1 16 2 17 3 18 4 19 5 20 6 21 7 22 8 23 9 24 10 25 11
REMARK SMILES IDX 26 12 27 13 28 14 29 15 30 16 14 17 13 18 12 19 11 20 10 21
REMARK SMILES IDX 9 22 8 23 7 24 6 25 5 26 4 27 3 28 2 29 1 30
REMARK H PARENT
REMARK Flexibility Score: inf
ROOT
ATOM      1  C   UNL     1      30.204  30.088  11.407  1.00  0.00     0.000 C 
ENDROOT
BRANCH   1   2
ATOM      2  C   UNL     1      31.686  29.678  11.408  1.00  0.00     0.000 C 
BRANCH   2   3
ATOM      3  C   UNL     1      32.635  30.840  11.758  1.00  0.00     0.000 C 
BRANCH   3   4
ATOM      4  C   UNL     1      33.815  30.476  12.680  1.00  0.00     0.000 C 
BRANCH   4   5
ATOM      5  C   UNL     1      34.675  31.693  13.066  1.00  0.00     0.000 C 
BRANCH   5   6
ATOM      6  C   UNL     1      35.462  31.479  14.371  1.00  0.00     0.000 C 
BRANCH   6   7
ATOM      7  C   UNL     1      36.951  31.880  14.319  1.00  0.00     0.000 C 
BRANCH   7   8
ATOM      8  C   UNL     1      37.939  30.787  14.763  1.00  0.00     0.000 C 
BRANCH   8   9
ATOM      9  C   UNL     1      38.635  30.092  13.583  1.00  0.00     0.000 C 
BRANCH   9  10
ATOM     10  C   UNL     1      39.159  28.709  13.991  1.00  0.00     0.000 C 
BRANCH  10  11
ATOM     11  C   UNL     1      40.518  28.420  13.343  1.00  0.00     0.000 C 
BRANCH  11  12
ATOM     12  C   UNL     1      41.619  28.300  14.404  1.00  0.00     0.006 C 
BRANCH  12  13
ATOM     13  C   UNL     1      42.033  29.681  14.922  1.00  0.00     0.053 C 
BRANCH  13  14
ATOM     14  C   UNL     1      41.750  29.805  16.384  1.00  0.00     0.041 C 
ATOM     15  O   UNL     1      42.334  29.053  17.209  1.00  0.00    -0.550 OA
ATOM     16  O   UNL     1      40.827  30.742  16.839  1.00  0.00    -0.550 OA
ENDBRANCH  13  14
ENDBRANCH  12  13
ENDBRANCH  11  12
ENDBRANCH  10  11
ENDBRANCH   9  10
ENDBRANCH   8   9
ENDBRANCH   7   8
ENDBRANCH   6   7
ENDBRANCH   5   6
ENDBRANCH   4   5
ENDBRANCH   3   4
ENDBRANCH   2   3
ENDBRANCH   1   2
BRANCH   1  17
ATOM     17  C   UNL     1      29.395  29.367  12.496  1.00  0.00     0.000 C 
BRANCH  17  18
ATOM     18  C   UNL     1      27.877  29.414  12.243  1.00  0.00     0.000 C 
BRANCH  18  19
ATOM     19  C   UNL     1      27.124  30.217  13.315  1.00  0.00     0.000 C 
BRANCH  19  20
ATOM     20  C   UNL     1      27.928  31.434  13.811  1.00  0.00     0.000 C 
BRANCH  20  21
ATOM     21  C   UNL     1      27.477  32.746  13.150  1.00  0.00     0.000 C 
BRANCH  21  22
ATOM     22  C   UNL     1      26.131  32.607  12.419  1.00  0.00    -0.000 C 
BRANCH  22  23
ATOM     23  C   UNL     1      26.208  33.026  10.940  1.00  0.00    -0.000 C 
BRANCH  23  24
ATOM     24  C   UNL     1      27.647  33.281  10.442  1.00  0.00    -0.000 C 
BRANCH  24  25
ATOM     25  C   UNL     1      27.868  32.759   9.013  1.00  0.00    -0.000 C 
BRANCH  25  26
ATOM     26  C   UNL     1      27.723  31.233   8.954  1.00  0.00    -0.000 C 
BRANCH  26  27
ATOM     27  C   UNL     1      28.619  30.636   7.858  1.00  0.00    -0.000 C 
BRANCH  27  28
ATOM     28  C   UNL     1      29.728  31.600   7.410  1.00  0.00    -0.000 C 
BRANCH  28  29
ATOM     29  C   UNL     1      31.053  31.366   8.151  1.00  0.00    -0.003 C 
ATOM     30  C   UNL     1      31.702  32.690   8.547  1.00  0.00     0.004 C 
ENDBRANCH  28  29
ENDBRANCH  27  28
ENDBRANCH  26  27
ENDBRANCH  25  26
ENDBRANCH  24  25
ENDBRANCH  23  24
ENDBRANCH  22  23
ENDBRANCH  21  22
ENDBRANCH  20  21
ENDBRANCH  19  20
ENDBRANCH  18  19
ENDBRANCH  17  18
ENDBRANCH   1  17
TORSDOF 26
ENDMDL
