MODEL 1
REMARK VINA RESULT:    -3.761      0.000      0.000
REMARK INTER + INTRA:          -7.351
REMARK INTER:                  -6.620
REMARK INTRA:                  -0.731
REMARK UNBOUND:                -0.731
REMARK SMILES CCCCCCCCCCCCCCC(=O)[O-]
REMARK SMILES IDX 9 1 10 2 11 3 12 4 13 5 14 6 15 7 16 8 17 9 8 10 7 11 6 12
REMARK SMILES IDX 5 13 4 14 3 15 2 16 1 17
REMARK H PARENT
REMARK Flexibility Score: inf
ROOT
ATOM      1  C   UNL     1      37.437 106.811 263.674  1.00  0.00     0.000 C 
ENDROOT
BRANCH   1   2
ATOM      2  C   UNL     1      36.049 106.699 263.014  1.00  0.00     0.000 C 
BRANCH   2   3
ATOM      3  C   UNL     1      35.328 105.383 263.351  1.00  0.00     0.000 C 
BRANCH   3   4
ATOM      4  C   UNL     1      35.427 105.009 264.842  1.00  0.00     0.000 C 
BRANCH   4   5
ATOM      5  C   UNL     1      34.875 106.061 265.820  1.00  0.00     0.006 C 
BRANCH   5   6
ATOM      6  C   UNL     1      35.089 105.683 267.291  1.00  0.00     0.053 C 
BRANCH   6   7
ATOM      7  C   UNL     1      35.164 106.912 268.141  1.00  0.00     0.041 C 
ATOM      8  O   UNL     1      35.013 108.050 267.624  1.00  0.00    -0.550 OA
ATOM      9  O   UNL     1      35.350 106.798 269.513  1.00  0.00    -0.550 OA
ENDBRANCH   6   7
ENDBRANCH   5   6
ENDBRANCH   4   5
ENDBRANCH   3   4
ENDBRANCH   2   3
ENDBRANCH   1   2
BRANCH   1  10
ATOM     10  C   UNL     1      38.532 107.446 262.796  1.00  0.00     0.000 C 
BRANCH  10  11
ATOM     11  C   UNL     1      39.127 106.468 261.773  1.00  0.00    -0.000 C 
BRANCH  11  12
ATOM     12  C   UNL     1      38.453 106.629 260.402  1.00  0.00    -0.000 C 
BRANCH  12  13
ATOM     13  C   UNL     1      37.463 105.493 260.100  1.00  0.00    -0.000 C 
BRANCH  13  14
ATOM     14  C   UNL     1      37.204 105.321 258.592  1.00  0.00    -0.000 C 
BRANCH  14  15
ATOM     15  C   UNL     1      37.028 106.676 257.875  1.00  0.00    -0.000 C 
BRANCH  15  16
ATOM     16  C   UNL     1      35.595 107.231 257.955  1.00  0.00    -0.003 C 
ATOM     17  C   UNL     1      35.544 108.756 258.000  1.00  0.00     0.004 C 
ENDBRANCH  15  16
ENDBRANCH  14  15
ENDBRANCH  13  14
ENDBRANCH  12  13
ENDBRANCH  11  12
ENDBRANCH  10  11
ENDBRANCH   1  10
TORSDOF 13
ENDMDL
MODEL 2
REMARK VINA RESULT:    -2.981      1.454      2.962
REMARK INTER + INTRA:          -5.977
REMARK INTER:                  -4.984
REMARK INTRA:                  -0.993
REMARK UNBOUND:                -0.731
REMARK SMILES CCCCCCCCCCCCCCC(=O)[O-]
REMARK SMILES IDX 9 1 10 2 11 3 12 4 13 5 14 6 15 7 16 8 17 9 8 10 7 11 6 12
REMARK SMILES IDX 5 13 4 14 3 15 2 16 1 17
REMARK H PARENT
REMARK Flexibility Score: inf
ROOT
ATOM      1  C   UNL     1      35.891 105.467 265.497  1.00  0.00     0.000 C 
ENDROOT
BRANCH   1   2
ATOM      2  C   UNL     1      35.088 106.765 265.282  1.00  0.00     0.000 C 
BRANCH   2   3
ATOM      3  C   UNL     1      35.916 108.034 265.543  1.00  0.00     0.000 C 
BRANCH   3   4
ATOM      4  C   UNL     1      35.097 109.159 266.203  1.00  0.00     0.000 C 
BRANCH   4   5
ATOM      5  C   UNL     1      34.877 109.008 267.719  1.00  0.00     0.006 C 
BRANCH   5   6
ATOM      6  C   UNL     1      35.947 108.142 268.396  1.00  0.00     0.053 C 
BRANCH   6   7
ATOM      7  C   UNL     1      35.307 107.056 269.200  1.00  0.00     0.041 C 
ATOM      8  O   UNL     1      34.892 106.010 268.635  1.00  0.00    -0.550 OA
ATOM      9  O   UNL     1      35.214 107.175 270.582  1.00  0.00    -0.550 OA
ENDBRANCH   6   7
ENDBRANCH   5   6
ENDBRANCH   4   5
ENDBRANCH   3   4
ENDBRANCH   2   3
ENDBRANCH   1   2
BRANCH   1  10
ATOM     10  C   UNL     1      35.725 104.402 264.397  1.00  0.00     0.000 C 
BRANCH  10  11
ATOM     11  C   UNL     1      34.910 104.899 263.194  1.00  0.00    -0.000 C 
BRANCH  11  12
ATOM     12  C   UNL     1      35.782 104.977 261.932  1.00  0.00    -0.000 C 
BRANCH  12  13
ATOM     13  C   UNL     1      36.955 105.956 262.091  1.00  0.00    -0.000 C 
BRANCH  13  14
ATOM     14  C   UNL     1      37.110 106.894 260.880  1.00  0.00    -0.000 C 
BRANCH  14  15
ATOM     15  C   UNL     1      37.745 106.179 259.669  1.00  0.00    -0.000 C 
BRANCH  15  16
ATOM     16  C   UNL     1      36.765 105.957 258.504  1.00  0.00    -0.003 C 
ATOM     17  C   UNL     1      36.150 107.255 257.984  1.00  0.00     0.004 C 
ENDBRANCH  15  16
ENDBRANCH  14  15
ENDBRANCH  13  14
ENDBRANCH  12  13
ENDBRANCH  11  12
ENDBRANCH  10  11
ENDBRANCH   1  10
TORSDOF 13
ENDMDL
MODEL 3
REMARK VINA RESULT:    -2.654      1.667      3.322
REMARK INTER + INTRA:          -5.402
REMARK INTER:                  -4.980
REMARK INTRA:                  -0.422
REMARK UNBOUND:                -0.731
REMARK SMILES CCCCCCCCCCCCCCC(=O)[O-]
REMARK SMILES IDX 9 1 10 2 11 3 12 4 13 5 14 6 15 7 16 8 17 9 8 10 7 11 6 12
REMARK SMILES IDX 5 13 4 14 3 15 2 16 1 17
REMARK H PARENT
REMARK Flexibility Score: inf
ROOT
ATOM      1  C   UNL     1      36.324 104.805 265.715  1.00  0.00     0.000 C 
ENDROOT
BRANCH   1   2
ATOM      2  C   UNL     1      34.934 104.471 266.288  1.00  0.00     0.000 C 
BRANCH   2   3
ATOM      3  C   UNL     1      34.938 104.301 267.816  1.00  0.00     0.000 C 
BRANCH   3   4
ATOM      4  C   UNL     1      35.006 105.643 268.569  1.00  0.00     0.000 C 
BRANCH   4   5
ATOM      5  C   UNL     1      34.877 106.897 267.686  1.00  0.00     0.006 C 
BRANCH   5   6
ATOM      6  C   UNL     1      35.401 108.167 268.368  1.00  0.00     0.053 C 
BRANCH   6   7
ATOM      7  C   UNL     1      35.118 109.368 267.523  1.00  0.00     0.041 C 
ATOM      8  O   UNL     1      35.045 110.510 268.050  1.00  0.00    -0.550 OA
ATOM      9  O   UNL     1      34.986 109.236 266.146  1.00  0.00    -0.550 OA
ENDBRANCH   6   7
ENDBRANCH   5   6
ENDBRANCH   4   5
ENDBRANCH   3   4
ENDBRANCH   2   3
ENDBRANCH   1   2
BRANCH   1  10
ATOM     10  C   UNL     1      36.489 104.558 264.203  1.00  0.00     0.000 C 
BRANCH  10  11
ATOM     11  C   UNL     1      35.344 105.147 263.368  1.00  0.00    -0.000 C 
BRANCH  11  12
ATOM     12  C   UNL     1      35.560 106.648 263.119  1.00  0.00    -0.000 C 
BRANCH  12  13
ATOM     13  C   UNL     1      36.695 106.917 262.118  1.00  0.00    -0.000 C 
BRANCH  13  14
ATOM     14  C   UNL     1      36.876 105.770 261.108  1.00  0.00    -0.000 C 
BRANCH  14  15
ATOM     15  C   UNL     1      38.139 105.955 260.240  1.00  0.00    -0.000 C 
BRANCH  15  16
ATOM     16  C   UNL     1      37.883 105.766 258.735  1.00  0.00    -0.003 C 
ATOM     17  C   UNL     1      36.634 106.495 258.244  1.00  0.00     0.004 C 
ENDBRANCH  15  16
ENDBRANCH  14  15
ENDBRANCH  13  14
ENDBRANCH  12  13
ENDBRANCH  11  12
ENDBRANCH  10  11
ENDBRANCH   1  10
TORSDOF 13
ENDMDL
MODEL 4
REMARK VINA RESULT:    -2.318      1.279      1.847
REMARK INTER + INTRA:          -4.810
REMARK INTER:                  -3.922
REMARK INTRA:                  -0.888
REMARK UNBOUND:                -0.731
REMARK SMILES CCCCCCCCCCCCCCC(=O)[O-]
REMARK SMILES IDX 9 1 10 2 11 3 12 4 13 5 14 6 15 7 16 8 17 9 8 10 7 11 6 12
REMARK SMILES IDX 5 13 4 14 3 15 2 16 1 17
REMARK H PARENT
REMARK Flexibility Score: inf
ROOT
ATOM      1  C   UNL     1      36.769 107.168 264.069  1.00  0.00     0.000 C 
ENDROOT
BRANCH   1   2
ATOM      2  C   UNL     1      36.209 105.837 264.605  1.00  0.00     0.000 C 
BRANCH   2   3
ATOM      3  C   UNL     1      35.261 106.022 265.803  1.00  0.00     0.000 C 
BRANCH   3   4
ATOM      4  C   UNL     1      34.932 107.501 266.083  1.00  0.00     0.000 C 
BRANCH   4   5
ATOM      5  C   UNL     1      35.651 108.114 267.298  1.00  0.00     0.006 C 
BRANCH   5   6
ATOM      6  C   UNL     1      34.879 107.925 268.609  1.00  0.00     0.053 C 
BRANCH   6   7
ATOM      7  C   UNL     1      35.494 106.832 269.425  1.00  0.00     0.041 C 
ATOM      8  O   UNL     1      36.232 107.112 270.405  1.00  0.00    -0.550 OA
ATOM      9  O   UNL     1      35.211 105.503 269.134  1.00  0.00    -0.550 OA
ENDBRANCH   6   7
ENDBRANCH   5   6
ENDBRANCH   4   5
ENDBRANCH   3   4
ENDBRANCH   2   3
ENDBRANCH   1   2
BRANCH   1  10
ATOM     10  C   UNL     1      36.894 107.260 262.537  1.00  0.00     0.000 C 
BRANCH  10  11
ATOM     11  C   UNL     1      37.243 105.917 261.879  1.00  0.00    -0.000 C 
BRANCH  11  12
ATOM     12  C   UNL     1      38.644 105.959 261.251  1.00  0.00    -0.000 C 
BRANCH  12  13
ATOM     13  C   UNL     1      38.599 106.221 259.737  1.00  0.00    -0.000 C 
BRANCH  13  14
ATOM     14  C   UNL     1      37.539 105.365 259.021  1.00  0.00    -0.000 C 
BRANCH  14  15
ATOM     15  C   UNL     1      36.653 106.208 258.079  1.00  0.00    -0.000 C 
BRANCH  15  16
ATOM     16  C   UNL     1      36.488 107.668 258.535  1.00  0.00    -0.003 C 
ATOM     17  C   UNL     1      35.302 108.370 257.878  1.00  0.00     0.004 C 
ENDBRANCH  15  16
ENDBRANCH  14  15
ENDBRANCH  13  14
ENDBRANCH  12  13
ENDBRANCH  11  12
ENDBRANCH  10  11
ENDBRANCH   1  10
TORSDOF 13
ENDMDL
MODEL 5
REMARK VINA RESULT:    -2.171      3.745      7.907
REMARK INTER + INTRA:          -4.551
REMARK INTER:                  -3.844
REMARK INTRA:                  -0.707
REMARK UNBOUND:                -0.731
REMARK SMILES CCCCCCCCCCCCCCC(=O)[O-]
REMARK SMILES IDX 9 1 10 2 11 3 12 4 13 5 14 6 15 7 16 8 17 9 8 10 7 11 6 12
REMARK SMILES IDX 5 13 4 14 3 15 2 16 1 17
REMARK H PARENT
REMARK Flexibility Score: inf
ROOT
ATOM      1  C   UNL     1      37.398 106.386 264.174  1.00  0.00     0.000 C 
ENDROOT
BRANCH   1   2
ATOM      2  C   UNL     1      37.864 107.197 262.950  1.00  0.00     0.000 C 
BRANCH   2   3
ATOM      3  C   UNL     1      37.093 106.845 261.666  1.00  0.00     0.000 C 
BRANCH   3   4
ATOM      4  C   UNL     1      38.013 106.668 260.444  1.00  0.00     0.000 C 
BRANCH   4   5
ATOM      5  C   UNL     1      37.562 105.598 259.433  1.00  0.00     0.006 C 
BRANCH   5   6
ATOM      6  C   UNL     1      37.308 106.168 258.032  1.00  0.00     0.053 C 
BRANCH   6   7
ATOM      7  C   UNL     1      36.076 107.017 258.028  1.00  0.00     0.041 C 
ATOM      8  O   UNL     1      34.943 106.488 257.875  1.00  0.00    -0.550 OA
ATOM      9  O   UNL     1      36.173 108.386 258.245  1.00  0.00    -0.550 OA
ENDBRANCH   6   7
ENDBRANCH   5   6
ENDBRANCH   4   5
ENDBRANCH   3   4
ENDBRANCH   2   3
ENDBRANCH   1   2
BRANCH   1  10
ATOM     10  C   UNL     1      36.403 105.251 263.870  1.00  0.00     0.000 C 
BRANCH  10  11
ATOM     11  C   UNL     1      35.013 105.488 264.479  1.00  0.00    -0.000 C 
BRANCH  11  12
ATOM     12  C   UNL     1      35.104 106.380 265.727  1.00  0.00    -0.000 C 
BRANCH  12  13
ATOM     13  C   UNL     1      34.875 107.865 265.404  1.00  0.00    -0.000 C 
BRANCH  13  14
ATOM     14  C   UNL     1      35.375 108.796 266.523  1.00  0.00    -0.000 C 
BRANCH  14  15
ATOM     15  C   UNL     1      35.958 108.009 267.716  1.00  0.00    -0.000 C 
BRANCH  15  16
ATOM     16  C   UNL     1      34.956 107.809 268.866  1.00  0.00    -0.003 C 
ATOM     17  C   UNL     1      35.071 106.437 269.528  1.00  0.00     0.004 C 
ENDBRANCH  15  16
ENDBRANCH  14  15
ENDBRANCH  13  14
ENDBRANCH  12  13
ENDBRANCH  11  12
ENDBRANCH  10  11
ENDBRANCH   1  10
TORSDOF 13
ENDMDL
MODEL 6
REMARK VINA RESULT:    -1.949      1.671      3.432
REMARK INTER + INTRA:          -4.161
REMARK INTER:                  -4.562
REMARK INTRA:                   0.401
REMARK UNBOUND:                -0.731
REMARK SMILES CCCCCCCCCCCCCCC(=O)[O-]
REMARK SMILES IDX 9 1 10 2 11 3 12 4 13 5 14 6 15 7 16 8 17 9 8 10 7 11 6 12
REMARK SMILES IDX 5 13 4 14 3 15 2 16 1 17
REMARK H PARENT
REMARK Flexibility Score: inf
ROOT
ATOM      1  C   UNL     1      35.897 106.529 263.843  1.00  0.00     0.000 C 
ENDROOT
BRANCH   1   2
ATOM      2  C   UNL     1      35.152 107.087 265.071  1.00  0.00     0.000 C 
BRANCH   2   3
ATOM      3  C   UNL     1      35.084 108.623 265.086  1.00  0.00     0.000 C 
BRANCH   3   4
ATOM      4  C   UNL     1      35.421 109.225 266.463  1.00  0.00     0.000 C 
BRANCH   4   5
ATOM      5  C   UNL     1      34.875 108.443 267.671  1.00  0.00     0.006 C 
BRANCH   5   6
ATOM      6  C   UNL     1      34.976 106.923 267.497  1.00  0.00     0.053 C 
BRANCH   6   7
ATOM      7  C   UNL     1      35.053 106.248 268.829  1.00  0.00     0.041 C 
ATOM      8  O   UNL     1      35.206 106.930 269.877  1.00  0.00    -0.550 OA
ATOM      9  O   UNL     1      34.906 104.869 268.921  1.00  0.00    -0.550 OA
ENDBRANCH   6   7
ENDBRANCH   5   6
ENDBRANCH   4   5
ENDBRANCH   3   4
ENDBRANCH   2   3
ENDBRANCH   1   2
BRANCH   1  10
ATOM     10  C   UNL     1      35.758 105.010 263.624  1.00  0.00     0.000 C 
BRANCH  10  11
ATOM     11  C   UNL     1      35.258 104.648 262.218  1.00  0.00    -0.000 C 
BRANCH  11  12
ATOM     12  C   UNL     1      36.402 104.703 261.195  1.00  0.00    -0.000 C 
BRANCH  12  13
ATOM     13  C   UNL     1      36.289 105.914 260.255  1.00  0.00    -0.000 C 
BRANCH  13  14
ATOM     14  C   UNL     1      37.658 106.538 259.929  1.00  0.00    -0.000 C 
BRANCH  14  15
ATOM     15  C   UNL     1      38.732 106.157 260.970  1.00  0.00    -0.000 C 
BRANCH  15  16
ATOM     16  C   UNL     1      38.946 107.230 262.051  1.00  0.00    -0.003 C 
ATOM     17  C   UNL     1      40.091 106.899 263.006  1.00  0.00     0.004 C 
ENDBRANCH  15  16
ENDBRANCH  14  15
ENDBRANCH  13  14
ENDBRANCH  12  13
ENDBRANCH  11  12
ENDBRANCH  10  11
ENDBRANCH   1  10
TORSDOF 13
ENDMDL
MODEL 7
REMARK VINA RESULT:    -1.625      3.782      7.727
REMARK INTER + INTRA:          -3.590
REMARK INTER:                  -2.931
REMARK INTRA:                  -0.659
REMARK UNBOUND:                -0.731
REMARK SMILES CCCCCCCCCCCCCCC(=O)[O-]
REMARK SMILES IDX 9 1 10 2 11 3 12 4 13 5 14 6 15 7 16 8 17 9 8 10 7 11 6 12
REMARK SMILES IDX 5 13 4 14 3 15 2 16 1 17
REMARK H PARENT
REMARK Flexibility Score: inf
ROOT
ATOM      1  C   UNL     1      36.128 104.877 266.398  1.00  0.00     0.000 C 
ENDROOT
BRANCH   1   2
ATOM      2  C   UNL     1      36.240 105.109 264.879  1.00  0.00     0.000 C 
BRANCH   2   3
ATOM      3  C   UNL     1      35.327 106.239 264.375  1.00  0.00     0.000 C 
BRANCH   3   4
ATOM      4  C   UNL     1      35.176 106.248 262.842  1.00  0.00     0.000 C 
BRANCH   4   5
ATOM      5  C   UNL     1      36.342 105.614 262.064  1.00  0.00     0.006 C 
BRANCH   5   6
ATOM      6  C   UNL     1      37.107 106.625 261.200  1.00  0.00     0.053 C 
BRANCH   6   7
ATOM      7  C   UNL     1      37.740 105.940 260.031  1.00  0.00     0.041 C 
ATOM      8  O   UNL     1      37.067 105.709 258.992  1.00  0.00    -0.550 OA
ATOM      9  O   UNL     1      39.087 105.602 260.068  1.00  0.00    -0.550 OA
ENDBRANCH   6   7
ENDBRANCH   5   6
ENDBRANCH   4   5
ENDBRANCH   3   4
ENDBRANCH   2   3
ENDBRANCH   1   2
BRANCH   1  10
ATOM     10  C   UNL     1      34.876 105.479 267.064  1.00  0.00     0.000 C 
BRANCH  10  11
ATOM     11  C   UNL     1      34.891 105.358 268.595  1.00  0.00    -0.000 C 
BRANCH  11  12
ATOM     12  C   UNL     1      35.887 106.349 269.216  1.00  0.00    -0.000 C 
BRANCH  12  13
ATOM     13  C   UNL     1      35.189 107.566 269.843  1.00  0.00    -0.000 C 
BRANCH  13  14
ATOM     14  C   UNL     1      34.888 108.669 268.812  1.00  0.00    -0.000 C 
BRANCH  14  15
ATOM     15  C   UNL     1      35.685 108.475 267.505  1.00  0.00    -0.000 C 
BRANCH  15  16
ATOM     16  C   UNL     1      35.251 109.424 266.375  1.00  0.00    -0.003 C 
ATOM     17  C   UNL     1      34.875 110.818 266.874  1.00  0.00     0.004 C 
ENDBRANCH  15  16
ENDBRANCH  14  15
ENDBRANCH  13  14
ENDBRANCH  12  13
ENDBRANCH  11  12
ENDBRANCH  10  11
ENDBRANCH   1  10
TORSDOF 13
ENDMDL
