MODEL 1
REMARK VINA RESULT:    -4.687      0.000      0.000
REMARK INTER + INTRA:          -5.635
REMARK INTER:                  -5.509
REMARK INTRA:                  -0.126
REMARK UNBOUND:                -0.126
REMARK SMILES O=C([O-])C=Cc1ccc(O)c(O)c1
REMARK SMILES IDX 6 1 13 2 7 3 11 4 8 5 9 6 5 7 4 8 2 9 1 10 3 11 12 12 10 14
REMARK H PARENT 12 13 10 15
REMARK Flexibility Score: inf
ROOT
ATOM      1  C   UNL     1      37.492 -47.195  30.217  1.00  0.00    -0.022 A 
ATOM      2  C   UNL     1      37.902 -47.635  31.486  1.00  0.00     0.058 A 
ATOM      3  C   UNL     1      36.242 -47.618  29.723  1.00  0.00     0.012 A 
ATOM      4  C   UNL     1      37.097 -48.499  32.242  1.00  0.00     0.157 A 
ATOM      5  C   UNL     1      35.439 -48.479  30.475  1.00  0.00     0.051 A 
ATOM      6  C   UNL     1      35.859 -48.925  31.732  1.00  0.00     0.157 A 
ENDROOT
BRANCH   1   7
ATOM      7  C   UNL     1      38.377 -46.273  29.464  1.00  0.00     0.010 C 
ATOM      8  C   UNL     1      38.192 -44.948  29.402  1.00  0.00     0.025 C 
BRANCH   8   9
ATOM      9  C   UNL     1      39.090 -44.071  28.633  1.00  0.00     0.064 C 
ATOM     10  O   UNL     1      38.609 -43.109  27.980  1.00  0.00    -0.545 OA
ATOM     11  O   UNL     1      40.463 -44.289  28.616  1.00  0.00    -0.545 OA
ENDBRANCH   8   9
ENDBRANCH   1   7
BRANCH   4  12
ATOM     12  O   UNL     1      37.521 -48.935  33.497  1.00  0.00    -0.504 OA
ATOM     13  H   UNL     1      38.504 -49.048  33.715  1.00  0.00     0.293 HD
ENDBRANCH   4  12
BRANCH   6  14
ATOM     14  O   UNL     1      35.036 -49.785  32.457  1.00  0.00    -0.504 OA
ATOM     15  H   UNL     1      34.726 -49.569  33.397  1.00  0.00     0.293 HD
ENDBRANCH   6  14
TORSDOF 4
ENDMDL
MODEL 2
REMARK VINA RESULT:    -4.578     13.134     13.866
REMARK INTER + INTRA:          -5.508
REMARK INTER:                  -5.373
REMARK INTRA:                  -0.135
REMARK UNBOUND:                -0.126
REMARK SMILES O=C([O-])C=Cc1ccc(O)c(O)c1
REMARK SMILES IDX 6 1 13 2 7 3 11 4 8 5 9 6 5 7 4 8 2 9 1 10 3 11 12 12 10 14
REMARK H PARENT 12 13 10 15
REMARK Flexibility Score: inf
ROOT
ATOM      1  C   UNL     1      33.066 -45.784  42.667  1.00  0.00    -0.022 A 
ATOM      2  C   UNL     1      33.241 -44.498  43.205  1.00  0.00     0.058 A 
ATOM      3  C   UNL     1      31.925 -46.042  41.882  1.00  0.00     0.012 A 
ATOM      4  C   UNL     1      32.287 -43.493  42.989  1.00  0.00     0.157 A 
ATOM      5  C   UNL     1      30.973 -45.042  41.666  1.00  0.00     0.051 A 
ATOM      6  C   UNL     1      31.146 -43.768  42.217  1.00  0.00     0.157 A 
ENDROOT
BRANCH   1   7
ATOM      7  C   UNL     1      34.111 -46.807  42.917  1.00  0.00     0.010 C 
ATOM      8  C   UNL     1      35.359 -46.517  43.309  1.00  0.00     0.025 C 
BRANCH   8   9
ATOM      9  C   UNL     1      36.367 -47.565  43.534  1.00  0.00     0.064 C 
ATOM     10  O   UNL     1      36.001 -48.762  43.668  1.00  0.00    -0.545 OA
ATOM     11  O   UNL     1      37.721 -47.254  43.603  1.00  0.00    -0.545 OA
ENDBRANCH   8   9
ENDBRANCH   1   7
BRANCH   4  12
ATOM     12  O   UNL     1      32.468 -42.224  43.537  1.00  0.00    -0.504 OA
ATOM     13  H   UNL     1      32.840 -41.458  42.989  1.00  0.00     0.293 HD
ENDBRANCH   4  12
BRANCH   6  14
ATOM     14  O   UNL     1      30.178 -42.792  41.985  1.00  0.00    -0.504 OA
ATOM     15  H   UNL     1      29.964 -42.073  42.666  1.00  0.00     0.293 HD
ENDBRANCH   6  14
TORSDOF 4
ENDMDL
MODEL 3
REMARK VINA RESULT:    -4.548     10.780     11.452
REMARK INTER + INTRA:          -5.472
REMARK INTER:                  -5.338
REMARK INTRA:                  -0.134
REMARK UNBOUND:                -0.126
REMARK SMILES O=C([O-])C=Cc1ccc(O)c(O)c1
REMARK SMILES IDX 6 1 13 2 7 3 11 4 8 5 9 6 5 7 4 8 2 9 1 10 3 11 12 12 10 14
REMARK H PARENT 12 13 10 15
REMARK Flexibility Score: inf
ROOT
ATOM      1  C   UNL     1      30.723 -37.519  32.641  1.00  0.00    -0.022 A 
ATOM      2  C   UNL     1      31.701 -38.504  32.855  1.00  0.00     0.058 A 
ATOM      3  C   UNL     1      29.505 -37.607  33.345  1.00  0.00     0.012 A 
ATOM      4  C   UNL     1      31.465 -39.572  33.733  1.00  0.00     0.157 A 
ATOM      5  C   UNL     1      29.269 -38.671  34.220  1.00  0.00     0.051 A 
ATOM      6  C   UNL     1      30.242 -39.656  34.417  1.00  0.00     0.157 A 
ENDROOT
BRANCH   1   7
ATOM      7  C   UNL     1      31.027 -36.404  31.710  1.00  0.00     0.010 C 
ATOM      8  C   UNL     1      32.233 -36.199  31.163  1.00  0.00     0.025 C 
BRANCH   8   9
ATOM      9  C   UNL     1      32.493 -35.073  30.252  1.00  0.00     0.064 C 
ATOM     10  O   UNL     1      33.632 -34.944  29.733  1.00  0.00    -0.545 OA
ATOM     11  O   UNL     1      31.498 -34.147  29.955  1.00  0.00    -0.545 OA
ENDBRANCH   8   9
ENDBRANCH   1   7
BRANCH   4  12
ATOM     12  O   UNL     1      32.442 -40.548  33.928  1.00  0.00    -0.504 OA
ATOM     13  H   UNL     1      32.683 -41.210  33.199  1.00  0.00     0.293 HD
ENDBRANCH   4  12
BRANCH   6  14
ATOM     14  O   UNL     1      29.976 -40.706  35.295  1.00  0.00    -0.504 OA
ATOM     15  H   UNL     1      30.578 -41.518  35.361  1.00  0.00     0.293 HD
ENDBRANCH   6  14
TORSDOF 4
ENDMDL
MODEL 4
REMARK VINA RESULT:    -4.533     11.275     11.795
REMARK INTER + INTRA:          -5.455
REMARK INTER:                  -5.327
REMARK INTRA:                  -0.128
REMARK UNBOUND:                -0.126
REMARK SMILES O=C([O-])C=Cc1ccc(O)c(O)c1
REMARK SMILES IDX 6 1 13 2 7 3 11 4 8 5 9 6 5 7 4 8 2 9 1 10 3 11 12 12 10 14
REMARK H PARENT 12 13 10 15
REMARK Flexibility Score: inf
ROOT
ATOM      1  C   UNL     1      30.202 -38.644  34.297  1.00  0.00    -0.022 A 
ATOM      2  C   UNL     1      29.461 -39.808  34.560  1.00  0.00     0.058 A 
ATOM      3  C   UNL     1      29.533 -37.512  33.791  1.00  0.00     0.012 A 
ATOM      4  C   UNL     1      28.083 -39.855  34.301  1.00  0.00     0.157 A 
ATOM      5  C   UNL     1      28.161 -37.558  33.534  1.00  0.00     0.051 A 
ATOM      6  C   UNL     1      27.431 -38.724  33.783  1.00  0.00     0.157 A 
ENDROOT
BRANCH   1   7
ATOM      7  C   UNL     1      31.655 -38.644  34.598  1.00  0.00     0.010 C 
ATOM      8  C   UNL     1      32.605 -38.899  33.688  1.00  0.00     0.025 C 
BRANCH   8   9
ATOM      9  C   UNL     1      34.035 -38.899  34.034  1.00  0.00     0.064 C 
ATOM     10  O   UNL     1      34.834 -39.615  33.376  1.00  0.00    -0.545 OA
ATOM     11  O   UNL     1      34.520 -38.120  35.079  1.00  0.00    -0.545 OA
ENDBRANCH   8   9
ENDBRANCH   1   7
BRANCH   4  12
ATOM     12  O   UNL     1      27.361 -41.020  34.558  1.00  0.00    -0.504 OA
ATOM     13  H   UNL     1      27.432 -41.503  35.446  1.00  0.00     0.293 HD
ENDBRANCH   4  12
BRANCH   6  14
ATOM     14  O   UNL     1      26.063 -38.739  33.514  1.00  0.00    -0.504 OA
ATOM     15  H   UNL     1      25.700 -38.853  32.575  1.00  0.00     0.293 HD
ENDBRANCH   6  14
TORSDOF 4
ENDMDL
MODEL 5
REMARK VINA RESULT:    -4.523     10.562     11.121
REMARK INTER + INTRA:          -5.443
REMARK INTER:                  -5.303
REMARK INTRA:                  -0.139
REMARK UNBOUND:                -0.126
REMARK SMILES O=C([O-])C=Cc1ccc(O)c(O)c1
REMARK SMILES IDX 6 1 13 2 7 3 11 4 8 5 9 6 5 7 4 8 2 9 1 10 3 11 12 12 10 14
REMARK H PARENT 12 13 10 15
REMARK Flexibility Score: inf
ROOT
ATOM      1  C   UNL     1      31.367 -38.191  32.971  1.00  0.00    -0.022 A 
ATOM      2  C   UNL     1      31.379 -39.300  33.832  1.00  0.00     0.058 A 
ATOM      3  C   UNL     1      30.167 -37.469  32.810  1.00  0.00     0.012 A 
ATOM      4  C   UNL     1      30.215 -39.702  34.503  1.00  0.00     0.157 A 
ATOM      5  C   UNL     1      29.007 -37.869  33.477  1.00  0.00     0.051 A 
ATOM      6  C   UNL     1      29.022 -38.983  34.322  1.00  0.00     0.157 A 
ENDROOT
BRANCH   1   7
ATOM      7  C   UNL     1      32.629 -37.802  32.294  1.00  0.00     0.010 C 
ATOM      8  C   UNL     1      32.760 -36.706  31.535  1.00  0.00     0.025 C 
BRANCH   8   9
ATOM      9  C   UNL     1      34.030 -36.365  30.873  1.00  0.00     0.064 C 
ATOM     10  O   UNL     1      34.824 -35.563  31.429  1.00  0.00    -0.545 OA
ATOM     11  O   UNL     1      34.366 -36.916  29.641  1.00  0.00    -0.545 OA
ENDBRANCH   8   9
ENDBRANCH   1   7
BRANCH   4  12
ATOM     12  O   UNL     1      30.240 -40.811  35.347  1.00  0.00    -0.504 OA
ATOM     13  H   UNL     1      30.372 -41.749  34.988  1.00  0.00     0.293 HD
ENDBRANCH   4  12
BRANCH   6  14
ATOM     14  O   UNL     1      27.847 -39.357  34.973  1.00  0.00    -0.504 OA
ATOM     15  H   UNL     1      27.646 -40.322  35.208  1.00  0.00     0.293 HD
ENDBRANCH   6  14
TORSDOF 4
ENDMDL
MODEL 6
REMARK VINA RESULT:    -4.441     12.630     13.368
REMARK INTER + INTRA:          -5.347
REMARK INTER:                  -5.215
REMARK INTRA:                  -0.131
REMARK UNBOUND:                -0.126
REMARK SMILES O=C([O-])C=Cc1ccc(O)c(O)c1
REMARK SMILES IDX 6 1 13 2 7 3 11 4 8 5 9 6 5 7 4 8 2 9 1 10 3 11 12 12 10 14
REMARK H PARENT 12 13 10 15
REMARK Flexibility Score: inf
ROOT
ATOM      1  C   UNL     1      29.058 -37.952  33.497  1.00  0.00    -0.022 A 
ATOM      2  C   UNL     1      29.121 -39.046  34.374  1.00  0.00     0.058 A 
ATOM      3  C   UNL     1      30.200 -37.619  32.742  1.00  0.00     0.012 A 
ATOM      4  C   UNL     1      30.305 -39.783  34.519  1.00  0.00     0.157 A 
ATOM      5  C   UNL     1      31.381 -38.352  32.887  1.00  0.00     0.051 A 
ATOM      6  C   UNL     1      31.442 -39.431  33.773  1.00  0.00     0.157 A 
ENDROOT
BRANCH   1   7
ATOM      7  C   UNL     1      27.776 -37.213  33.373  1.00  0.00     0.010 C 
ATOM      8  C   UNL     1      26.572 -37.791  33.466  1.00  0.00     0.025 C 
BRANCH   8   9
ATOM      9  C   UNL     1      25.326 -37.020  33.325  1.00  0.00     0.064 C 
ATOM     10  O   UNL     1      25.157 -35.980  34.014  1.00  0.00    -0.545 OA
ATOM     11  O   UNL     1      24.330 -37.422  32.443  1.00  0.00    -0.545 OA
ENDBRANCH   8   9
ENDBRANCH   1   7
BRANCH   4  12
ATOM     12  O   UNL     1      30.357 -40.862  35.401  1.00  0.00    -0.504 OA
ATOM     13  H   UNL     1      29.943 -41.757  35.169  1.00  0.00     0.293 HD
ENDBRANCH   4  12
BRANCH   6  14
ATOM     14  O   UNL     1      32.635 -40.142  33.896  1.00  0.00    -0.504 OA
ATOM     15  H   UNL     1      33.386 -39.833  34.501  1.00  0.00     0.293 HD
ENDBRANCH   6  14
TORSDOF 4
ENDMDL
MODEL 7
REMARK VINA RESULT:    -4.418     13.827     15.137
REMARK INTER + INTRA:          -5.319
REMARK INTER:                  -5.190
REMARK INTRA:                  -0.129
REMARK UNBOUND:                -0.126
REMARK SMILES O=C([O-])C=Cc1ccc(O)c(O)c1
REMARK SMILES IDX 6 1 13 2 7 3 11 4 8 5 9 6 5 7 4 8 2 9 1 10 3 11 12 12 10 14
REMARK H PARENT 12 13 10 15
REMARK Flexibility Score: inf
ROOT
ATOM      1  C   UNL     1      32.511 -34.423  36.083  1.00  0.00    -0.022 A 
ATOM      2  C   UNL     1      32.436 -34.475  37.485  1.00  0.00     0.058 A 
ATOM      3  C   UNL     1      32.729 -33.178  35.460  1.00  0.00     0.012 A 
ATOM      4  C   UNL     1      32.550 -33.308  38.254  1.00  0.00     0.157 A 
ATOM      5  C   UNL     1      32.842 -32.014  36.226  1.00  0.00     0.051 A 
ATOM      6  C   UNL     1      32.752 -32.071  37.620  1.00  0.00     0.157 A 
ENDROOT
BRANCH   1   7
ATOM      7  C   UNL     1      32.395 -35.689  35.317  1.00  0.00     0.010 C 
ATOM      8  C   UNL     1      33.184 -36.754  35.515  1.00  0.00     0.025 C 
BRANCH   8   9
ATOM      9  C   UNL     1      33.040 -37.986  34.724  1.00  0.00     0.064 C 
ATOM     10  O   UNL     1      31.892 -38.452  34.503  1.00  0.00    -0.545 OA
ATOM     11  O   UNL     1      34.154 -38.645  34.215  1.00  0.00    -0.545 OA
ENDBRANCH   8   9
ENDBRANCH   1   7
BRANCH   4  12
ATOM     12  O   UNL     1      32.464 -33.373  39.644  1.00  0.00    -0.504 OA
ATOM     13  H   UNL     1      31.582 -33.544  40.114  1.00  0.00     0.293 HD
ENDBRANCH   4  12
BRANCH   6  14
ATOM     14  O   UNL     1      32.867 -30.892  38.356  1.00  0.00    -0.504 OA
ATOM     15  H   UNL     1      32.059 -30.411  38.731  1.00  0.00     0.293 HD
ENDBRANCH   6  14
TORSDOF 4
ENDMDL
MODEL 8
REMARK VINA RESULT:    -4.335     11.370     12.053
REMARK INTER + INTRA:          -5.222
REMARK INTER:                  -5.079
REMARK INTRA:                  -0.143
REMARK UNBOUND:                -0.126
REMARK SMILES O=C([O-])C=Cc1ccc(O)c(O)c1
REMARK SMILES IDX 6 1 13 2 7 3 11 4 8 5 9 6 5 7 4 8 2 9 1 10 3 11 12 12 10 14
REMARK H PARENT 12 13 10 15
REMARK Flexibility Score: inf
ROOT
ATOM      1  C   UNL     1      30.584 -37.434  32.896  1.00  0.00    -0.022 A 
ATOM      2  C   UNL     1      29.394 -37.658  33.608  1.00  0.00     0.058 A 
ATOM      3  C   UNL     1      31.621 -38.384  32.992  1.00  0.00     0.012 A 
ATOM      4  C   UNL     1      29.245 -38.791  34.420  1.00  0.00     0.157 A 
ATOM      5  C   UNL     1      31.473 -39.514  33.801  1.00  0.00     0.051 A 
ATOM      6  C   UNL     1      30.292 -39.722  34.518  1.00  0.00     0.157 A 
ENDROOT
BRANCH   1   7
ATOM      7  C   UNL     1      30.687 -36.224  32.043  1.00  0.00     0.010 C 
ATOM      8  C   UNL     1      31.623 -36.055  31.101  1.00  0.00     0.025 C 
BRANCH   8   9
ATOM      9  C   UNL     1      31.693 -34.832  30.285  1.00  0.00     0.064 C 
ATOM     10  O   UNL     1      32.708 -34.619  29.570  1.00  0.00    -0.545 OA
ATOM     11  O   UNL     1      30.656 -33.906  30.289  1.00  0.00    -0.545 OA
ENDBRANCH   8   9
ENDBRANCH   1   7
BRANCH   4  12
ATOM     12  O   UNL     1      28.061 -38.995  35.128  1.00  0.00    -0.504 OA
ATOM     13  H   UNL     1      27.963 -38.701  36.093  1.00  0.00     0.293 HD
ENDBRANCH   4  12
BRANCH   6  14
ATOM     14  O   UNL     1      30.175 -40.859  35.318  1.00  0.00    -0.504 OA
ATOM     15  H   UNL     1      29.833 -40.814  36.270  1.00  0.00     0.293 HD
ENDBRANCH   6  14
TORSDOF 4
ENDMDL
