MODEL 1
REMARK VINA RESULT:    -5.000      0.000      0.000
REMARK INTER + INTRA:          -6.781
REMARK INTER:                  -6.170
REMARK INTRA:                  -0.612
REMARK UNBOUND:                -0.612
REMARK SMILES CC(C)=CCC[C@H](C)c1ccc(C)cc1
REMARK SMILES IDX 6 1 7 2 8 3 9 4 13 5 12 6 11 7 14 8 10 9 15 10 5 11 4 12
REMARK SMILES IDX 2 13 1 14 3 15
REMARK H PARENT
REMARK Flexibility Score: inf
ROOT
ATOM      1  C   UNL     1      19.124   9.334  36.142  1.00  0.00     0.012 C 
ENDROOT
BRANCH   1   2
ATOM      2  C   UNL     1      20.114  10.456  35.759  1.00  0.00     0.016 C 
ATOM      3  C   UNL     1      19.553  11.832  36.140  1.00  0.00     0.013 C 
BRANCH   2   4
ATOM      4  C   UNL     1      20.471  10.417  34.282  1.00  0.00    -0.045 A 
ATOM      5  C   UNL     1      21.439  10.347  30.074  1.00  0.00     0.044 C 
ATOM      6  C   UNL     1      21.101  10.400  31.534  1.00  0.00    -0.051 A 
ATOM      7  C   UNL     1      19.768  10.291  31.955  1.00  0.00     0.004 A 
ATOM      8  C   UNL     1      22.121  10.491  32.492  1.00  0.00     0.004 A 
ATOM      9  C   UNL     1      19.455  10.307  33.318  1.00  0.00     0.004 A 
ATOM     10  C   UNL     1      21.809  10.505  33.855  1.00  0.00     0.004 A 
ENDBRANCH   2   4
ENDBRANCH   1   2
BRANCH   1  11
ATOM     11  C   UNL     1      18.372   9.647  37.445  1.00  0.00     0.028 C 
BRANCH  11  12
ATOM     12  C   UNL     1      18.696   8.627  38.506  1.00  0.00    -0.028 C 
ATOM     13  C   UNL     1      19.146   8.932  39.743  1.00  0.00    -0.080 C 
ATOM     14  C   UNL     1      19.464   7.804  40.691  1.00  0.00     0.039 C 
ATOM     15  C   UNL     1      19.320  10.362  40.203  1.00  0.00     0.039 C 
ENDBRANCH  11  12
ENDBRANCH   1  11
TORSDOF 4
ENDMDL
MODEL 2
REMARK VINA RESULT:    -4.816      1.585      7.327
REMARK INTER + INTRA:          -6.554
REMARK INTER:                  -5.899
REMARK INTRA:                  -0.655
REMARK UNBOUND:                -0.612
REMARK SMILES CC(C)=CCC[C@H](C)c1ccc(C)cc1
REMARK SMILES IDX 6 1 7 2 8 3 9 4 13 5 12 6 11 7 14 8 10 9 15 10 5 11 4 12
REMARK SMILES IDX 2 13 1 14 3 15
REMARK H PARENT
REMARK Flexibility Score: inf
ROOT
ATOM      1  C   UNL     1      21.045  10.471  32.291  1.00  0.00     0.012 C 
ENDROOT
BRANCH   1   2
ATOM      2  C   UNL     1      19.696   9.949  32.831  1.00  0.00     0.016 C 
ATOM      3  C   UNL     1      18.523  10.590  32.078  1.00  0.00     0.013 C 
BRANCH   2   4
ATOM      4  C   UNL     1      19.557  10.178  34.327  1.00  0.00    -0.045 A 
ATOM      5  C   UNL     1      19.132  10.882  38.566  1.00  0.00     0.044 C 
ATOM      6  C   UNL     1      19.252  10.645  37.091  1.00  0.00    -0.051 A 
ATOM      7  C   UNL     1      19.700  11.670  36.245  1.00  0.00     0.004 A 
ATOM      8  C   UNL     1      18.982   9.378  36.554  1.00  0.00     0.004 A 
ATOM      9  C   UNL     1      19.845  11.441  34.873  1.00  0.00     0.004 A 
ATOM     10  C   UNL     1      19.127   9.148  35.183  1.00  0.00     0.004 A 
ENDBRANCH   2   4
ENDBRANCH   1   2
BRANCH   1  11
ATOM     11  C   UNL     1      21.247  10.126  30.808  1.00  0.00     0.028 C 
BRANCH  11  12
ATOM     12  C   UNL     1      21.966  11.242  30.094  1.00  0.00    -0.028 C 
ATOM     13  C   UNL     1      21.383  12.075  29.203  1.00  0.00    -0.080 C 
ATOM     14  C   UNL     1      22.236  13.125  28.537  1.00  0.00     0.039 C 
ATOM     15  C   UNL     1      19.910  11.995  28.876  1.00  0.00     0.039 C 
ENDBRANCH  11  12
ENDBRANCH   1  11
TORSDOF 4
ENDMDL
MODEL 3
REMARK VINA RESULT:    -4.686      1.358      7.218
REMARK INTER + INTRA:          -6.394
REMARK INTER:                  -5.889
REMARK INTRA:                  -0.504
REMARK UNBOUND:                -0.612
REMARK SMILES CC(C)=CCC[C@H](C)c1ccc(C)cc1
REMARK SMILES IDX 6 1 7 2 8 3 9 4 13 5 12 6 11 7 14 8 10 9 15 10 5 11 4 12
REMARK SMILES IDX 2 13 1 14 3 15
REMARK H PARENT
REMARK Flexibility Score: inf
ROOT
ATOM      1  C   UNL     1      19.879   9.820  36.560  1.00  0.00     0.012 C 
ENDROOT
BRANCH   1   2
ATOM      2  C   UNL     1      19.205  11.016  37.266  1.00  0.00     0.016 C 
ATOM      3  C   UNL     1      19.898  12.332  36.890  1.00  0.00     0.013 C 
BRANCH   2   4
ATOM      4  C   UNL     1      19.179  10.841  38.776  1.00  0.00    -0.045 A 
ATOM      5  C   UNL     1      19.053  10.378  43.068  1.00  0.00     0.044 C 
ATOM      6  C   UNL     1      19.069  10.533  41.577  1.00  0.00    -0.051 A 
ATOM      7  C   UNL     1      18.888  11.796  40.996  1.00  0.00     0.004 A 
ATOM      8  C   UNL     1      19.332   9.429  40.754  1.00  0.00     0.004 A 
ATOM      9  C   UNL     1      18.935  11.948  39.607  1.00  0.00     0.004 A 
ATOM     10  C   UNL     1      19.381   9.579  39.365  1.00  0.00     0.004 A 
ENDBRANCH   2   4
ENDBRANCH   1   2
BRANCH   1  11
ATOM     11  C   UNL     1      19.364   9.632  35.124  1.00  0.00     0.028 C 
BRANCH  11  12
ATOM     12  C   UNL     1      20.431   9.995  34.123  1.00  0.00    -0.028 C 
ATOM     13  C   UNL     1      20.194  10.250  32.817  1.00  0.00    -0.080 C 
ATOM     14  C   UNL     1      21.366  10.564  31.922  1.00  0.00     0.039 C 
ATOM     15  C   UNL     1      18.797  10.246  32.241  1.00  0.00     0.039 C 
ENDBRANCH  11  12
ENDBRANCH   1  11
TORSDOF 4
ENDMDL
MODEL 4
REMARK VINA RESULT:    -4.676      1.960      5.248
REMARK INTER + INTRA:          -6.382
REMARK INTER:                  -4.849
REMARK INTRA:                  -1.532
REMARK UNBOUND:                -0.612
REMARK SMILES CC(C)=CCC[C@H](C)c1ccc(C)cc1
REMARK SMILES IDX 6 1 7 2 8 3 9 4 13 5 12 6 11 7 14 8 10 9 15 10 5 11 4 12
REMARK SMILES IDX 2 13 1 14 3 15
REMARK H PARENT
REMARK Flexibility Score: inf
ROOT
ATOM      1  C   UNL     1      18.641  11.622  37.578  1.00  0.00     0.012 C 
ENDROOT
BRANCH   1   2
ATOM      2  C   UNL     1      19.128  10.650  38.674  1.00  0.00     0.016 C 
ATOM      3  C   UNL     1      20.183  11.317  39.565  1.00  0.00     0.013 C 
BRANCH   2   4
ATOM      4  C   UNL     1      19.670   9.358  38.085  1.00  0.00    -0.045 A 
ATOM      5  C   UNL     1      21.191   5.703  36.357  1.00  0.00     0.044 C 
ATOM      6  C   UNL     1      20.674   6.987  36.936  1.00  0.00    -0.051 A 
ATOM      7  C   UNL     1      19.384   7.435  36.619  1.00  0.00     0.004 A 
ATOM      8  C   UNL     1      21.451   7.713  37.849  1.00  0.00     0.004 A 
ATOM      9  C   UNL     1      18.888   8.615  37.184  1.00  0.00     0.004 A 
ATOM     10  C   UNL     1      20.957   8.892  38.415  1.00  0.00     0.004 A 
ENDBRANCH   2   4
ENDBRANCH   1   2
BRANCH   1  11
ATOM     11  C   UNL     1      19.770  12.019  36.615  1.00  0.00     0.028 C 
BRANCH  11  12
ATOM     12  C   UNL     1      19.478  11.532  35.219  1.00  0.00    -0.028 C 
ATOM     13  C   UNL     1      20.305  10.739  34.501  1.00  0.00    -0.080 C 
ATOM     14  C   UNL     1      19.899  10.358  33.100  1.00  0.00     0.039 C 
ATOM     15  C   UNL     1      21.604  10.214  35.067  1.00  0.00     0.039 C 
ENDBRANCH  11  12
ENDBRANCH   1  11
TORSDOF 4
ENDMDL
MODEL 5
REMARK VINA RESULT:    -4.669      3.211      4.963
REMARK INTER + INTRA:          -6.373
REMARK INTER:                  -4.801
REMARK INTRA:                  -1.572
REMARK UNBOUND:                -0.612
REMARK SMILES CC(C)=CCC[C@H](C)c1ccc(C)cc1
REMARK SMILES IDX 6 1 7 2 8 3 9 4 13 5 12 6 11 7 14 8 10 9 15 10 5 11 4 12
REMARK SMILES IDX 2 13 1 14 3 15
REMARK H PARENT
REMARK Flexibility Score: inf
ROOT
ATOM      1  C   UNL     1      19.462   7.932  41.030  1.00  0.00     0.012 C 
ENDROOT
BRANCH   1   2
ATOM      2  C   UNL     1      20.302   7.754  39.746  1.00  0.00     0.016 C 
ATOM      3  C   UNL     1      21.790   7.598  40.085  1.00  0.00     0.013 C 
BRANCH   2   4
ATOM      4  C   UNL     1      20.096   8.901  38.771  1.00  0.00    -0.045 A 
ATOM      5  C   UNL     1      19.470  12.186  36.038  1.00  0.00     0.044 C 
ATOM      6  C   UNL     1      19.689  11.064  37.009  1.00  0.00    -0.051 A 
ATOM      7  C   UNL     1      18.594  10.414  37.595  1.00  0.00     0.004 A 
ATOM      8  C   UNL     1      20.987  10.613  37.285  1.00  0.00     0.004 A 
ATOM      9  C   UNL     1      18.796   9.346  38.475  1.00  0.00     0.004 A 
ATOM     10  C   UNL     1      21.190   9.544  38.163  1.00  0.00     0.004 A 
ENDBRANCH   2   4
ENDBRANCH   1   2
BRANCH   1  11
ATOM     11  C   UNL     1      20.061   8.989  41.970  1.00  0.00     0.028 C 
BRANCH  11  12
ATOM     12  C   UNL     1      19.159  10.193  42.064  1.00  0.00    -0.028 C 
ATOM     13  C   UNL     1      19.500  11.434  41.651  1.00  0.00    -0.080 C 
ATOM     14  C   UNL     1      18.508  12.552  41.841  1.00  0.00     0.039 C 
ATOM     15  C   UNL     1      20.830  11.722  40.993  1.00  0.00     0.039 C 
ENDBRANCH  11  12
ENDBRANCH   1  11
TORSDOF 4
ENDMDL
MODEL 6
REMARK VINA RESULT:    -4.659      0.938      2.055
REMARK INTER + INTRA:          -6.360
REMARK INTER:                  -5.550
REMARK INTRA:                  -0.809
REMARK UNBOUND:                -0.612
REMARK SMILES CC(C)=CCC[C@H](C)c1ccc(C)cc1
REMARK SMILES IDX 6 1 7 2 8 3 9 4 13 5 12 6 11 7 14 8 10 9 15 10 5 11 4 12
REMARK SMILES IDX 2 13 1 14 3 15
REMARK H PARENT
REMARK Flexibility Score: inf
ROOT
ATOM      1  C   UNL     1      19.891  11.760  36.327  1.00  0.00     0.012 C 
ENDROOT
BRANCH   1   2
ATOM      2  C   UNL     1      20.428  10.408  35.808  1.00  0.00     0.016 C 
ATOM      3  C   UNL     1      21.720  10.018  36.537  1.00  0.00     0.013 C 
BRANCH   2   4
ATOM      4  C   UNL     1      20.651  10.426  34.305  1.00  0.00    -0.045 A 
ATOM      5  C   UNL     1      21.329  10.438  30.039  1.00  0.00     0.044 C 
ATOM      6  C   UNL     1      21.095  10.405  31.520  1.00  0.00    -0.051 A 
ATOM      7  C   UNL     1      22.173  10.527  32.408  1.00  0.00     0.004 A 
ATOM      8  C   UNL     1      19.791  10.320  32.028  1.00  0.00     0.004 A 
ATOM      9  C   UNL     1      21.954  10.531  33.789  1.00  0.00     0.004 A 
ATOM     10  C   UNL     1      19.570  10.325  33.408  1.00  0.00     0.004 A 
ENDBRANCH   2   4
ENDBRANCH   1   2
BRANCH   1  11
ATOM     11  C   UNL     1      18.644  11.587  37.206  1.00  0.00     0.028 C 
BRANCH  11  12
ATOM     12  C   UNL     1      19.027  11.464  38.659  1.00  0.00    -0.028 C 
ATOM     13  C   UNL     1      19.051  10.300  39.344  1.00  0.00    -0.080 C 
ATOM     14  C   UNL     1      19.420  10.333  40.806  1.00  0.00     0.039 C 
ATOM     15  C   UNL     1      18.738   8.976  38.686  1.00  0.00     0.039 C 
ENDBRANCH  11  12
ENDBRANCH   1  11
TORSDOF 4
ENDMDL
MODEL 7
REMARK VINA RESULT:    -4.631      1.074      6.580
REMARK INTER + INTRA:          -6.325
REMARK INTER:                  -5.666
REMARK INTRA:                  -0.660
REMARK UNBOUND:                -0.612
REMARK SMILES CC(C)=CCC[C@H](C)c1ccc(C)cc1
REMARK SMILES IDX 6 1 7 2 8 3 9 4 13 5 12 6 11 7 14 8 10 9 15 10 5 11 4 12
REMARK SMILES IDX 2 13 1 14 3 15
REMARK H PARENT
REMARK Flexibility Score: inf
ROOT
ATOM      1  C   UNL     1      21.178  10.762  35.382  1.00  0.00     0.012 C 
ENDROOT
BRANCH   1   2
ATOM      2  C   UNL     1      19.800  10.925  36.059  1.00  0.00     0.016 C 
ATOM      3  C   UNL     1      19.511  12.402  36.359  1.00  0.00     0.013 C 
BRANCH   2   4
ATOM      4  C   UNL     1      19.689  10.093  37.326  1.00  0.00    -0.045 A 
ATOM      5  C   UNL     1      19.363   7.679  40.892  1.00  0.00     0.044 C 
ATOM      6  C   UNL     1      19.493   8.497  39.642  1.00  0.00    -0.051 A 
ATOM      7  C   UNL     1      18.535   8.389  38.625  1.00  0.00     0.004 A 
ATOM      8  C   UNL     1      20.535   9.426  39.510  1.00  0.00     0.004 A 
ATOM      9  C   UNL     1      18.636   9.175  37.473  1.00  0.00     0.004 A 
ATOM     10  C   UNL     1      20.637  10.213  38.360  1.00  0.00     0.004 A 
ENDBRANCH   2   4
ENDBRANCH   1   2
BRANCH   1  11
ATOM     11  C   UNL     1      21.061  10.185  33.963  1.00  0.00     0.028 C 
BRANCH  11  12
ATOM     12  C   UNL     1      19.673  10.398  33.414  1.00  0.00    -0.028 C 
ATOM     13  C   UNL     1      19.385  10.510  32.098  1.00  0.00    -0.080 C 
ATOM     14  C   UNL     1      17.954  10.759  31.694  1.00  0.00     0.039 C 
ATOM     15  C   UNL     1      20.447  10.376  31.031  1.00  0.00     0.039 C 
ENDBRANCH  11  12
ENDBRANCH   1  11
TORSDOF 4
ENDMDL
MODEL 8
REMARK VINA RESULT:    -4.627      2.517      6.829
REMARK INTER + INTRA:          -6.321
REMARK INTER:                  -5.257
REMARK INTRA:                  -1.064
REMARK UNBOUND:                -0.612
REMARK SMILES CC(C)=CCC[C@H](C)c1ccc(C)cc1
REMARK SMILES IDX 6 1 7 2 8 3 9 4 13 5 12 6 11 7 14 8 10 9 15 10 5 11 4 12
REMARK SMILES IDX 2 13 1 14 3 15
REMARK H PARENT
REMARK Flexibility Score: inf
ROOT
ATOM      1  C   UNL     1      19.170   8.193  36.867  1.00  0.00     0.012 C 
ENDROOT
BRANCH   1   2
ATOM      2  C   UNL     1      20.392   8.399  37.788  1.00  0.00     0.016 C 
ATOM      3  C   UNL     1      21.150   7.080  37.991  1.00  0.00     0.013 C 
BRANCH   2   4
ATOM      4  C   UNL     1      19.997   8.997  39.128  1.00  0.00    -0.045 A 
ATOM      5  C   UNL     1      18.825  10.721  42.910  1.00  0.00     0.044 C 
ATOM      6  C   UNL     1      19.206  10.114  41.593  1.00  0.00    -0.051 A 
ATOM      7  C   UNL     1      19.163  10.883  40.422  1.00  0.00     0.004 A 
ATOM      8  C   UNL     1      19.670   8.792  41.533  1.00  0.00     0.004 A 
ATOM      9  C   UNL     1      19.549  10.328  39.198  1.00  0.00     0.004 A 
ATOM     10  C   UNL     1      20.057   8.236  40.310  1.00  0.00     0.004 A 
ENDBRANCH   2   4
ENDBRANCH   1   2
BRANCH   1  11
ATOM     11  C   UNL     1      19.184   9.151  35.666  1.00  0.00     0.028 C 
BRANCH  11  12
ATOM     12  C   UNL     1      20.498   9.885  35.584  1.00  0.00    -0.028 C 
ATOM     13  C   UNL     1      20.631  11.224  35.709  1.00  0.00    -0.080 C 
ATOM     14  C   UNL     1      22.005  11.827  35.568  1.00  0.00     0.039 C 
ATOM     15  C   UNL     1      19.452  12.123  36.003  1.00  0.00     0.039 C 
ENDBRANCH  11  12
ENDBRANCH   1  11
TORSDOF 4
ENDMDL
MODEL 9
REMARK VINA RESULT:    -4.589      1.721      6.725
REMARK INTER + INTRA:          -6.274
REMARK INTER:                  -5.397
REMARK INTRA:                  -0.877
REMARK UNBOUND:                -0.612
REMARK SMILES CC(C)=CCC[C@H](C)c1ccc(C)cc1
REMARK SMILES IDX 6 1 7 2 8 3 9 4 13 5 12 6 11 7 14 8 10 9 15 10 5 11 4 12
REMARK SMILES IDX 2 13 1 14 3 15
REMARK H PARENT
REMARK Flexibility Score: inf
ROOT
ATOM      1  C   UNL     1      19.873  11.654  38.273  1.00  0.00     0.012 C 
ENDROOT
BRANCH   1   2
ATOM      2  C   UNL     1      19.065  10.979  39.402  1.00  0.00     0.016 C 
ATOM      3  C   UNL     1      18.946  11.908  40.618  1.00  0.00     0.013 C 
BRANCH   2   4
ATOM      4  C   UNL     1      19.666   9.644  39.810  1.00  0.00    -0.045 A 
ATOM      5  C   UNL     1      21.321   5.833  40.990  1.00  0.00     0.044 C 
ATOM      6  C   UNL     1      20.723   7.143  40.570  1.00  0.00    -0.051 A 
ATOM      7  C   UNL     1      19.941   7.883  41.468  1.00  0.00     0.004 A 
ATOM      8  C   UNL     1      20.997   7.669  39.300  1.00  0.00     0.004 A 
ATOM      9  C   UNL     1      19.411   9.120  41.089  1.00  0.00     0.004 A 
ATOM     10  C   UNL     1      20.469   8.906  38.920  1.00  0.00     0.004 A 
ENDBRANCH   2   4
ENDBRANCH   1   2
BRANCH   1  11
ATOM     11  C   UNL     1      19.037  11.842  36.998  1.00  0.00     0.028 C 
BRANCH  11  12
ATOM     12  C   UNL     1      19.882  11.620  35.769  1.00  0.00    -0.028 C 
ATOM     13  C   UNL     1      19.972  10.444  35.109  1.00  0.00    -0.080 C 
ATOM     14  C   UNL     1      20.886  10.358  33.914  1.00  0.00     0.039 C 
ATOM     15  C   UNL     1      19.173   9.229  35.524  1.00  0.00     0.039 C 
ENDBRANCH  11  12
ENDBRANCH   1  11
TORSDOF 4
ENDMDL
