MODEL 1
REMARK VINA RESULT:     3.715      0.000      0.000
REMARK INTER + INTRA:           5.143
REMARK INTER:                   4.910
REMARK INTRA:                   0.233
REMARK UNBOUND:                 0.233
REMARK SMILES CC[C@@H](C=C[C@@H](C)[C@@H]1CC[C@H]2C3=CC[C@@H]4C[C@@H](O)CC[C@]4(C)[C@H]3CC[C@]21C)C(C)C
REMARK SMILES IDX 6 1 7 2 5 3 4 4 3 5 2 6 1 7 28 8 29 9 30 10 8 11 9 12 26 13
REMARK SMILES IDX 10 14 11 15 25 16 27 17 12 18 24 19 23 20 13 21 21 22 14 23
REMARK SMILES IDX 15 24 20 25 22 26 16 27 19 28 17 29 18 30
REMARK H PARENT 18 31
REMARK Flexibility Score: inf
ROOT
ATOM      1  C   UNL     1     138.516 123.404 140.460  1.00  0.00     0.012 C 
ATOM      2  C   UNL     1     139.299 122.094 140.222  1.00  0.00     0.012 C 
ENDROOT
BRANCH   1   3
ATOM      3  C   UNL     1     137.695 123.222 141.726  1.00  0.00    -0.028 C 
ATOM      4  C   UNL     1     137.500 124.231 142.594  1.00  0.00    -0.027 C 
BRANCH   4   5
ATOM      5  C   UNL     1     136.631 124.073 143.833  1.00  0.00     0.014 C 
BRANCH   5   6
ATOM      6  C   UNL     1     135.167 124.551 143.560  1.00  0.00     0.004 C 
ATOM      7  C   UNL     1     134.204 123.378 143.365  1.00  0.00     0.004 C 
ENDBRANCH   5   6
BRANCH   5   8
ATOM      8  C   UNL     1     137.282 124.751 145.083  1.00  0.00    -0.011 C 
ATOM      9  C   UNL     1     137.833 123.722 146.082  1.00  0.00     0.008 C 
ATOM     10  C   UNL     1     136.355 125.750 145.794  1.00  0.00     0.008 C 
ENDBRANCH   5   8
ENDBRANCH   4   5
ENDBRANCH   1   3
BRANCH   1  11
ATOM     11  C   UNL     1     137.583 123.794 139.251  1.00  0.00     0.002 C 
ATOM     12  C   UNL     1     137.645 125.294 138.905  1.00  0.00     0.005 C 
ATOM     13  C   UNL     1     136.040 123.560 139.467  1.00  0.00    -0.023 C 
ATOM     14  C   UNL     1     136.547 125.978 139.707  1.00  0.00     0.009 C 
ATOM     15  C   UNL     1     135.575 124.877 140.158  1.00  0.00     0.021 C 
ATOM     16  C   UNL     1     135.331 123.307 138.076  1.00  0.00     0.008 C 
ATOM     17  C   UNL     1     135.689 122.357 140.387  1.00  0.00     0.012 C 
ATOM     18  C   UNL     1     134.117 125.225 139.886  1.00  0.00    -0.067 C 
ATOM     19  C   UNL     1     134.549 124.501 137.516  1.00  0.00     0.009 C 
ATOM     20  C   UNL     1     133.489 124.972 138.531  1.00  0.00     0.021 C 
ATOM     21  C   UNL     1     133.358 125.790 140.839  1.00  0.00    -0.027 C 
ATOM     22  C   UNL     1     132.634 126.215 138.080  1.00  0.00    -0.023 C 
ATOM     23  C   UNL     1     131.886 125.995 140.610  1.00  0.00     0.031 C 
ATOM     24  C   UNL     1     131.539 126.536 139.188  1.00  0.00     0.002 C 
ATOM     25  C   UNL     1     131.964 125.904 136.701  1.00  0.00     0.010 C 
ATOM     26  C   UNL     1     133.533 127.476 137.915  1.00  0.00     0.012 C 
ATOM     27  C   UNL     1     130.134 126.037 138.787  1.00  0.00     0.036 C 
ATOM     28  C   UNL     1     130.762 126.810 136.411  1.00  0.00     0.032 C 
ATOM     29  C   UNL     1     129.644 126.663 137.464  1.00  0.00     0.114 C 
BRANCH  29  30
ATOM     30  O   UNL     1     129.068 127.922 137.703  1.00  0.00    -0.393 OA
ATOM     31  H   UNL     1     128.094 127.830 137.535  1.00  0.00     0.210 HD
ENDBRANCH  29  30
ENDBRANCH   1  11
TORSDOF 6
ENDMDL
MODEL 2
REMARK VINA RESULT:     5.258      2.639      7.299
REMARK INTER + INTRA:           7.181
REMARK INTER:                   7.080
REMARK INTRA:                   0.102
REMARK UNBOUND:                 0.233
REMARK SMILES CC[C@@H](C=C[C@@H](C)[C@@H]1CC[C@H]2C3=CC[C@@H]4C[C@@H](O)CC[C@]4(C)[C@H]3CC[C@]21C)C(C)C
REMARK SMILES IDX 6 1 7 2 5 3 4 4 3 5 2 6 1 7 28 8 29 9 30 10 8 11 9 12 26 13
REMARK SMILES IDX 10 14 11 15 25 16 27 17 12 18 24 19 23 20 13 21 21 22 14 23
REMARK SMILES IDX 15 24 20 25 22 26 16 27 19 28 17 29 18 30
REMARK H PARENT 18 31
REMARK Flexibility Score: inf
ROOT
ATOM      1  C   UNL     1     135.653 123.702 137.681  1.00  0.00     0.012 C 
ATOM      2  C   UNL     1     136.702 123.928 136.570  1.00  0.00     0.012 C 
ENDROOT
BRANCH   1   3
ATOM      3  C   UNL     1     134.931 125.021 137.903  1.00  0.00    -0.028 C 
ATOM      4  C   UNL     1     133.590 125.089 137.980  1.00  0.00    -0.027 C 
BRANCH   4   5
ATOM      5  C   UNL     1     132.863 126.395 138.261  1.00  0.00     0.014 C 
BRANCH   5   6
ATOM      6  C   UNL     1     131.713 126.189 139.301  1.00  0.00     0.004 C 
ATOM      7  C   UNL     1     132.245 126.028 140.726  1.00  0.00     0.004 C 
ENDBRANCH   5   6
BRANCH   5   8
ATOM      8  C   UNL     1     132.390 127.087 136.941  1.00  0.00    -0.011 C 
ATOM      9  C   UNL     1     132.258 128.610 137.097  1.00  0.00     0.008 C 
ATOM     10  C   UNL     1     131.097 126.490 136.362  1.00  0.00     0.008 C 
ENDBRANCH   5   8
ENDBRANCH   4   5
ENDBRANCH   1   3
BRANCH   1  11
ATOM     11  C   UNL     1     136.284 123.185 139.030  1.00  0.00     0.002 C 
ATOM     12  C   UNL     1     135.299 122.352 139.871  1.00  0.00     0.005 C 
ATOM     13  C   UNL     1     136.742 124.298 140.047  1.00  0.00    -0.023 C 
ATOM     14  C   UNL     1     134.592 123.319 140.811  1.00  0.00     0.009 C 
ATOM     15  C   UNL     1     135.442 124.598 140.852  1.00  0.00     0.021 C 
ATOM     16  C   UNL     1     137.919 123.753 140.951  1.00  0.00     0.008 C 
ATOM     17  C   UNL     1     137.241 125.615 139.387  1.00  0.00     0.012 C 
ATOM     18  C   UNL     1     135.704 125.088 142.271  1.00  0.00    -0.067 C 
ATOM     19  C   UNL     1     137.513 123.345 142.373  1.00  0.00     0.009 C 
ATOM     20  C   UNL     1     136.840 124.525 143.100  1.00  0.00     0.021 C 
ATOM     21  C   UNL     1     134.915 126.021 142.830  1.00  0.00    -0.027 C 
ATOM     22  C   UNL     1     136.353 124.221 144.565  1.00  0.00    -0.023 C 
ATOM     23  C   UNL     1     135.268 126.604 144.171  1.00  0.00     0.031 C 
ATOM     24  C   UNL     1     135.751 125.545 145.210  1.00  0.00     0.002 C 
ATOM     25  C   UNL     1     137.558 123.684 145.405  1.00  0.00     0.010 C 
ATOM     26  C   UNL     1     135.235 123.138 144.565  1.00  0.00     0.012 C 
ATOM     27  C   UNL     1     136.733 126.217 146.195  1.00  0.00     0.036 C 
ATOM     28  C   UNL     1     137.332 123.817 146.916  1.00  0.00     0.032 C 
ATOM     29  C   UNL     1     137.131 125.282 147.356  1.00  0.00     0.114 C 
BRANCH  29  30
ATOM     30  O   UNL     1     136.165 125.328 148.374  1.00  0.00    -0.393 OA
ATOM     31  H   UNL     1     135.823 126.260 148.406  1.00  0.00     0.210 HD
ENDBRANCH  29  30
ENDBRANCH   1  11
TORSDOF 6
ENDMDL
MODEL 3
REMARK VINA RESULT:     6.251      2.494      3.392
REMARK INTER + INTRA:           8.494
REMARK INTER:                   8.267
REMARK INTRA:                   0.227
REMARK UNBOUND:                 0.233
REMARK SMILES CC[C@@H](C=C[C@@H](C)[C@@H]1CC[C@H]2C3=CC[C@@H]4C[C@@H](O)CC[C@]4(C)[C@H]3CC[C@]21C)C(C)C
REMARK SMILES IDX 6 1 7 2 5 3 4 4 3 5 2 6 1 7 28 8 29 9 30 10 8 11 9 12 26 13
REMARK SMILES IDX 10 14 11 15 25 16 27 17 12 18 24 19 23 20 13 21 21 22 14 23
REMARK SMILES IDX 15 24 20 25 22 26 16 27 19 28 17 29 18 30
REMARK H PARENT 18 31
REMARK Flexibility Score: inf
ROOT
ATOM      1  C   UNL     1     138.812 123.383 141.078  1.00  0.00     0.012 C 
ATOM      2  C   UNL     1     138.076 123.662 142.407  1.00  0.00     0.012 C 
ENDROOT
BRANCH   1   3
ATOM      3  C   UNL     1     140.100 124.190 141.091  1.00  0.00    -0.028 C 
ATOM      4  C   UNL     1     140.669 124.595 142.240  1.00  0.00    -0.027 C 
BRANCH   4   5
ATOM      5  C   UNL     1     141.989 125.352 142.264  1.00  0.00     0.014 C 
BRANCH   5   6
ATOM      6  C   UNL     1     143.198 124.372 142.418  1.00  0.00     0.004 C 
ATOM      7  C   UNL     1     144.318 124.677 141.421  1.00  0.00     0.004 C 
ENDBRANCH   5   6
BRANCH   5   8
ATOM      8  C   UNL     1     141.977 126.496 143.330  1.00  0.00    -0.011 C 
ATOM      9  C   UNL     1     143.303 127.270 143.368  1.00  0.00     0.008 C 
ATOM     10  C   UNL     1     141.589 126.020 144.740  1.00  0.00     0.008 C 
ENDBRANCH   5   8
ENDBRANCH   4   5
ENDBRANCH   1   3
BRANCH   1  11
ATOM     11  C   UNL     1     137.950 123.741 139.808  1.00  0.00     0.002 C 
ATOM     12  C   UNL     1     138.000 125.239 139.452  1.00  0.00     0.005 C 
ATOM     13  C   UNL     1     136.402 123.473 139.927  1.00  0.00    -0.023 C 
ATOM     14  C   UNL     1     136.837 125.904 140.176  1.00  0.00     0.009 C 
ATOM     15  C   UNL     1     135.864 124.784 140.574  1.00  0.00     0.021 C 
ATOM     16  C   UNL     1     135.790 123.192 138.496  1.00  0.00     0.008 C 
ATOM     17  C   UNL     1     136.020 122.269 140.835  1.00  0.00     0.012 C 
ATOM     18  C   UNL     1     134.419 125.096 140.206  1.00  0.00    -0.067 C 
ATOM     19  C   UNL     1     135.018 124.363 137.876  1.00  0.00     0.009 C 
ATOM     20  C   UNL     1     133.884 124.817 138.816  1.00  0.00     0.021 C 
ATOM     21  C   UNL     1     133.588 125.651 141.104  1.00  0.00    -0.027 C 
ATOM     22  C   UNL     1     133.033 126.036 138.300  1.00  0.00    -0.023 C 
ATOM     23  C   UNL     1     132.128 125.820 140.779  1.00  0.00     0.031 C 
ATOM     24  C   UNL     1     131.862 126.341 139.333  1.00  0.00     0.002 C 
ATOM     25  C   UNL     1     132.460 125.698 136.884  1.00  0.00     0.010 C 
ATOM     26  C   UNL     1     133.911 127.316 138.180  1.00  0.00     0.012 C 
ATOM     27  C   UNL     1     130.497 125.806 138.848  1.00  0.00     0.036 C 
ATOM     28  C   UNL     1     131.258 126.573 136.509  1.00  0.00     0.032 C 
ATOM     29  C   UNL     1     130.079 126.409 137.490  1.00  0.00     0.114 C 
BRANCH  29  30
ATOM     30  O   UNL     1     129.460 127.656 137.679  1.00  0.00    -0.393 OA
ATOM     31  H   UNL     1     128.861 127.801 136.901  1.00  0.00     0.210 HD
ENDBRANCH  29  30
ENDBRANCH   1  11
TORSDOF 6
ENDMDL
