MODEL 1
REMARK VINA RESULT:    -6.118      0.000      0.000
REMARK INTER + INTRA:         -10.136
REMARK INTER:                  -8.621
REMARK INTRA:                  -1.515
REMARK UNBOUND:                -1.515
REMARK SMILES C[C@H](CO)CCC(=O)[C@H](C)[C@@H]1C(=O)C[C@@H]2[C@H]3CC=C4C[C@H](O)CC[C@]4(C)[C@H]3CC[C@@]21C
REMARK SMILES IDX 6 1 5 2 2 3 1 4 3 5 4 6 7 8 8 9 9 10 10 11 11 12 12 13 30 14
REMARK SMILES IDX 13 15 14 16 15 17 29 18 31 19 16 20 28 21 27 22 17 23 25 24
REMARK SMILES IDX 18 25 19 26 24 27 26 28 20 29 23 30 21 31 22 32
REMARK H PARENT 4 7 22 33
REMARK Flexibility Score: inf
ROOT
ATOM      1  C   UNL     1     164.358 177.461 183.018  1.00  0.00     0.076 C 
ENDROOT
BRANCH   1   2
ATOM      2  C   UNL     1     164.202 177.864 184.495  1.00  0.00     0.013 C 
BRANCH   2   3
ATOM      3  C   UNL     1     164.837 176.881 185.509  1.00  0.00     0.012 C 
ATOM      4  C   UNL     1     163.852 176.456 186.611  1.00  0.00     0.010 C 
BRANCH   3   5
ATOM      5  C   UNL     1     166.174 177.386 186.090  1.00  0.00     0.159 C 
BRANCH   5   6
ATOM      6  O   UNL     1     166.593 178.564 185.451  1.00  0.00    -0.396 OA
ATOM      7  H   UNL     1     165.764 179.058 185.210  1.00  0.00     0.210 HD
ENDBRANCH   5   6
ENDBRANCH   3   5
ENDBRANCH   2   3
ENDBRANCH   1   2
BRANCH   1   8
ATOM      8  C   UNL     1     163.227 178.003 182.180  1.00  0.00     0.136 C 
ATOM      9  O   UNL     1     163.137 179.213 182.033  1.00  0.00    -0.299 OA
BRANCH   8  10
ATOM     10  C   UNL     1     162.283 177.057 181.448  1.00  0.00     0.064 C 
ATOM     11  C   UNL     1     161.630 177.819 180.283  1.00  0.00     0.017 C 
BRANCH  10  12
ATOM     12  C   UNL     1     161.194 176.332 182.323  1.00  0.00     0.072 C 
ATOM     13  C   UNL     1     160.819 177.011 183.601  1.00  0.00     0.137 C 
ATOM     14  C   UNL     1     161.464 174.846 182.750  1.00  0.00    -0.019 C 
ATOM     15  O   UNL     1     160.599 178.207 183.694  1.00  0.00    -0.299 OA
ATOM     16  C   UNL     1     160.601 176.068 184.724  1.00  0.00     0.080 C 
ATOM     17  C   UNL     1     160.590 174.691 184.042  1.00  0.00     0.007 C 
ATOM     18  C   UNL     1     162.961 174.583 183.068  1.00  0.00     0.008 C 
ATOM     19  C   UNL     1     161.002 173.910 181.605  1.00  0.00     0.012 C 
ATOM     20  C   UNL     1     160.968 173.548 185.033  1.00  0.00     0.001 C 
ATOM     21  C   UNL     1     163.217 173.323 183.904  1.00  0.00     0.005 C 
ATOM     22  C   UNL     1     162.492 173.419 185.270  1.00  0.00     0.003 C 
ATOM     23  C   UNL     1     160.372 172.200 184.600  1.00  0.00     0.031 C 
ATOM     24  C   UNL     1     162.832 172.281 186.330  1.00  0.00    -0.008 C 
ATOM     25  C   UNL     1     160.717 171.113 185.566  1.00  0.00    -0.027 C 
ATOM     26  C   UNL     1     161.848 171.102 186.298  1.00  0.00    -0.065 C 
ATOM     27  C   UNL     1     162.741 172.902 187.764  1.00  0.00     0.014 C 
ATOM     28  C   UNL     1     164.277 171.753 186.118  1.00  0.00     0.016 C 
ATOM     29  C   UNL     1     161.993 170.046 187.375  1.00  0.00     0.063 C 
ATOM     30  C   UNL     1     162.856 171.874 188.912  1.00  0.00     0.033 C 
ATOM     31  C   UNL     1     161.865 170.706 188.758  1.00  0.00     0.118 C 
BRANCH  31  32
ATOM     32  O   UNL     1     160.554 171.180 188.950  1.00  0.00    -0.393 OA
ATOM     33  H   UNL     1     160.625 172.006 189.497  1.00  0.00     0.210 HD
ENDBRANCH  31  32
ENDBRANCH  10  12
ENDBRANCH   8  10
ENDBRANCH   1   8
TORSDOF 8
ENDMDL
MODEL 2
REMARK VINA RESULT:    -5.938      6.562     11.561
REMARK INTER + INTRA:          -9.883
REMARK INTER:                  -9.060
REMARK INTRA:                  -0.823
REMARK UNBOUND:                -1.515
REMARK SMILES C[C@H](CO)CCC(=O)[C@H](C)[C@@H]1C(=O)C[C@@H]2[C@H]3CC=C4C[C@H](O)CC[C@]4(C)[C@H]3CC[C@@]21C
REMARK SMILES IDX 6 1 5 2 2 3 1 4 3 5 4 6 7 8 8 9 9 10 10 11 11 12 12 13 30 14
REMARK SMILES IDX 13 15 14 16 15 17 29 18 31 19 16 20 28 21 27 22 17 23 25 24
REMARK SMILES IDX 18 25 19 26 24 27 26 28 20 29 23 30 21 31 22 32
REMARK H PARENT 4 7 22 33
REMARK Flexibility Score: inf
ROOT
ATOM      1  C   UNL     1     164.404 162.577 185.119  1.00  0.00     0.076 C 
ENDROOT
BRANCH   1   2
ATOM      2  C   UNL     1     165.462 162.871 186.197  1.00  0.00     0.013 C 
BRANCH   2   3
ATOM      3  C   UNL     1     165.764 161.689 187.152  1.00  0.00     0.012 C 
ATOM      4  C   UNL     1     165.687 162.096 188.632  1.00  0.00     0.010 C 
BRANCH   3   5
ATOM      5  C   UNL     1     167.082 160.960 186.819  1.00  0.00     0.159 C 
BRANCH   5   6
ATOM      6  O   UNL     1     166.988 160.274 185.598  1.00  0.00    -0.396 OA
ATOM      7  H   UNL     1     167.047 159.306 185.819  1.00  0.00     0.210 HD
ENDBRANCH   5   6
ENDBRANCH   3   5
ENDBRANCH   2   3
ENDBRANCH   1   2
BRANCH   1   8
ATOM      8  C   UNL     1     163.240 161.804 185.688  1.00  0.00     0.136 C 
ATOM      9  O   UNL     1     163.034 160.672 185.275  1.00  0.00    -0.299 OA
BRANCH   8  10
ATOM     10  C   UNL     1     162.409 162.382 186.826  1.00  0.00     0.064 C 
ATOM     11  C   UNL     1     161.832 161.220 187.652  1.00  0.00     0.017 C 
BRANCH  10  12
ATOM     12  C   UNL     1     161.276 163.399 186.424  1.00  0.00     0.072 C 
ATOM     13  C   UNL     1     161.038 163.573 184.960  1.00  0.00     0.137 C 
ATOM     14  C   UNL     1     161.381 164.868 186.968  1.00  0.00    -0.019 C 
ATOM     15  O   UNL     1     160.969 162.647 184.169  1.00  0.00    -0.299 OA
ATOM     16  C   UNL     1     160.754 164.976 184.574  1.00  0.00     0.080 C 
ATOM     17  C   UNL     1     160.548 165.685 185.922  1.00  0.00     0.007 C 
ATOM     18  C   UNL     1     162.847 165.378 187.018  1.00  0.00     0.008 C 
ATOM     19  C   UNL     1     160.763 164.916 188.388  1.00  0.00     0.012 C 
ATOM     20  C   UNL     1     160.825 167.217 185.821  1.00  0.00     0.001 C 
ATOM     21  C   UNL     1     162.983 166.903 187.099  1.00  0.00     0.005 C 
ATOM     22  C   UNL     1     162.331 167.573 185.863  1.00  0.00     0.003 C 
ATOM     23  C   UNL     1     160.054 168.006 186.891  1.00  0.00     0.031 C 
ATOM     24  C   UNL     1     162.574 169.138 185.699  1.00  0.00    -0.008 C 
ATOM     25  C   UNL     1     160.303 169.475 186.774  1.00  0.00    -0.027 C 
ATOM     26  C   UNL     1     161.454 169.997 186.305  1.00  0.00    -0.065 C 
ATOM     27  C   UNL     1     162.617 169.472 184.170  1.00  0.00     0.014 C 
ATOM     28  C   UNL     1     163.934 169.547 186.327  1.00  0.00     0.016 C 
ATOM     29  C   UNL     1     161.514 171.492 186.061  1.00  0.00     0.063 C 
ATOM     30  C   UNL     1     162.653 170.983 183.849  1.00  0.00     0.033 C 
ATOM     31  C   UNL     1     161.522 171.761 184.547  1.00  0.00     0.118 C 
BRANCH  31  32
ATOM     32  O   UNL     1     160.287 171.394 183.981  1.00  0.00    -0.393 OA
ATOM     33  H   UNL     1     160.184 171.925 183.148  1.00  0.00     0.210 HD
ENDBRANCH  31  32
ENDBRANCH  10  12
ENDBRANCH   8  10
ENDBRANCH   1   8
TORSDOF 8
ENDMDL
MODEL 3
REMARK VINA RESULT:    -5.772      2.140      3.684
REMARK INTER + INTRA:          -9.648
REMARK INTER:                  -8.216
REMARK INTRA:                  -1.432
REMARK UNBOUND:                -1.515
REMARK SMILES C[C@H](CO)CCC(=O)[C@H](C)[C@@H]1C(=O)C[C@@H]2[C@H]3CC=C4C[C@H](O)CC[C@]4(C)[C@H]3CC[C@@]21C
REMARK SMILES IDX 6 1 5 2 2 3 1 4 3 5 4 6 7 8 8 9 9 10 10 11 11 12 12 13 30 14
REMARK SMILES IDX 13 15 14 16 15 17 29 18 31 19 16 20 28 21 27 22 17 23 25 24
REMARK SMILES IDX 18 25 19 26 24 27 26 28 20 29 23 30 21 31 22 32
REMARK H PARENT 4 7 22 33
REMARK Flexibility Score: inf
ROOT
ATOM      1  C   UNL     1     162.993 176.680 183.737  1.00  0.00     0.076 C 
ENDROOT
BRANCH   1   2
ATOM      2  C   UNL     1     164.325 177.177 183.149  1.00  0.00     0.013 C 
BRANCH   2   3
ATOM      3  C   UNL     1     165.566 176.343 183.552  1.00  0.00     0.012 C 
ATOM      4  C   UNL     1     165.190 174.958 184.102  1.00  0.00     0.010 C 
BRANCH   3   5
ATOM      5  C   UNL     1     166.527 177.099 184.492  1.00  0.00     0.159 C 
BRANCH   5   6
ATOM      6  O   UNL     1     165.893 178.200 185.089  1.00  0.00    -0.396 OA
ATOM      7  H   UNL     1     165.783 177.969 186.050  1.00  0.00     0.210 HD
ENDBRANCH   5   6
ENDBRANCH   3   5
ENDBRANCH   2   3
ENDBRANCH   1   2
BRANCH   1   8
ATOM      8  C   UNL     1     162.568 177.518 184.917  1.00  0.00     0.136 C 
ATOM      9  O   UNL     1     163.072 178.622 185.061  1.00  0.00    -0.299 OA
BRANCH   8  10
ATOM     10  C   UNL     1     161.459 177.040 185.846  1.00  0.00     0.064 C 
ATOM     11  C   UNL     1     160.779 178.270 186.471  1.00  0.00     0.017 C 
BRANCH  10  12
ATOM     12  C   UNL     1     161.869 176.003 186.957  1.00  0.00     0.072 C 
ATOM     13  C   UNL     1     163.335 175.776 187.137  1.00  0.00     0.137 C 
ATOM     14  C   UNL     1     161.270 174.554 186.865  1.00  0.00    -0.019 C 
ATOM     15  O   UNL     1     164.159 176.674 187.180  1.00  0.00    -0.299 OA
ATOM     16  C   UNL     1     163.681 174.359 187.398  1.00  0.00     0.080 C 
ATOM     17  C   UNL     1     162.319 173.695 187.652  1.00  0.00     0.007 C 
ATOM     18  C   UNL     1     161.146 174.056 185.400  1.00  0.00     0.008 C 
ATOM     19  C   UNL     1     159.875 174.550 187.538  1.00  0.00     0.012 C 
ATOM     20  C   UNL     1     162.356 172.163 187.364  1.00  0.00     0.001 C 
ATOM     21  C   UNL     1     161.007 172.535 185.259  1.00  0.00     0.005 C 
ATOM     22  C   UNL     1     162.243 171.818 185.859  1.00  0.00     0.003 C 
ATOM     23  C   UNL     1     161.290 171.407 188.172  1.00  0.00     0.031 C 
ATOM     24  C   UNL     1     162.343 170.251 185.602  1.00  0.00    -0.008 C 
ATOM     25  C   UNL     1     161.346 169.936 187.911  1.00  0.00    -0.027 C 
ATOM     26  C   UNL     1     161.751 169.405 186.740  1.00  0.00    -0.065 C 
ATOM     27  C   UNL     1     163.857 169.864 185.497  1.00  0.00     0.014 C 
ATOM     28  C   UNL     1     161.649 169.872 184.265  1.00  0.00     0.016 C 
ATOM     29  C   UNL     1     161.941 167.904 186.663  1.00  0.00     0.063 C 
ATOM     30  C   UNL     1     164.123 168.344 185.441  1.00  0.00     0.033 C 
ATOM     31  C   UNL     1     163.443 167.583 186.594  1.00  0.00     0.118 C 
BRANCH  31  32
ATOM     32  O   UNL     1     164.069 167.922 187.808  1.00  0.00    -0.393 OA
ATOM     33  H   UNL     1     165.046 167.942 187.631  1.00  0.00     0.210 HD
ENDBRANCH  31  32
ENDBRANCH  10  12
ENDBRANCH   8  10
ENDBRANCH   1   8
TORSDOF 8
ENDMDL
MODEL 4
REMARK VINA RESULT:    -5.644      2.025      4.314
REMARK INTER + INTRA:          -9.469
REMARK INTER:                  -8.629
REMARK INTRA:                  -0.840
REMARK UNBOUND:                -1.515
REMARK SMILES C[C@H](CO)CCC(=O)[C@H](C)[C@@H]1C(=O)C[C@@H]2[C@H]3CC=C4C[C@H](O)CC[C@]4(C)[C@H]3CC[C@@]21C
REMARK SMILES IDX 6 1 5 2 2 3 1 4 3 5 4 6 7 8 8 9 9 10 10 11 11 12 12 13 30 14
REMARK SMILES IDX 13 15 14 16 15 17 29 18 31 19 16 20 28 21 27 22 17 23 25 24
REMARK SMILES IDX 18 25 19 26 24 27 26 28 20 29 23 30 21 31 22 32
REMARK H PARENT 4 7 22 33
REMARK Flexibility Score: inf
ROOT
ATOM      1  C   UNL     1     162.228 176.170 183.551  1.00  0.00     0.076 C 
ENDROOT
BRANCH   1   2
ATOM      2  C   UNL     1     161.188 176.451 182.453  1.00  0.00     0.013 C 
BRANCH   2   3
ATOM      3  C   UNL     1     161.777 176.659 181.036  1.00  0.00     0.012 C 
ATOM      4  C   UNL     1     163.169 176.025 180.880  1.00  0.00     0.010 C 
BRANCH   3   5
ATOM      5  C   UNL     1     161.756 178.131 180.578  1.00  0.00     0.159 C 
BRANCH   5   6
ATOM      6  O   UNL     1     162.308 178.975 181.555  1.00  0.00    -0.396 OA
ATOM      7  H   UNL     1     162.586 178.385 182.305  1.00  0.00     0.210 HD
ENDBRANCH   5   6
ENDBRANCH   3   5
ENDBRANCH   2   3
ENDBRANCH   1   2
BRANCH   1   8
ATOM      8  C   UNL     1     162.143 177.188 184.661  1.00  0.00     0.136 C 
ATOM      9  O   UNL     1     162.734 178.249 184.526  1.00  0.00    -0.299 OA
BRANCH   8  10
ATOM     10  C   UNL     1     161.255 176.940 185.873  1.00  0.00     0.064 C 
ATOM     11  C   UNL     1     160.925 178.293 186.526  1.00  0.00     0.017 C 
BRANCH  10  12
ATOM     12  C   UNL     1     161.794 175.920 186.944  1.00  0.00     0.072 C 
ATOM     13  C   UNL     1     163.270 175.687 186.947  1.00  0.00     0.137 C 
ATOM     14  C   UNL     1     161.183 174.473 186.953  1.00  0.00    -0.019 C 
ATOM     15  O   UNL     1     164.097 176.580 186.872  1.00  0.00    -0.299 OA
ATOM     16  C   UNL     1     163.641 174.273 187.189  1.00  0.00     0.080 C 
ATOM     17  C   UNL     1     162.317 173.622 187.621  1.00  0.00     0.007 C 
ATOM     18  C   UNL     1     160.878 173.950 185.523  1.00  0.00     0.008 C 
ATOM     19  C   UNL     1     159.881 174.490 187.792  1.00  0.00     0.012 C 
ATOM     20  C   UNL     1     162.313 172.085 187.358  1.00  0.00     0.001 C 
ATOM     21  C   UNL     1     160.717 172.428 185.428  1.00  0.00     0.005 C 
ATOM     22  C   UNL     1     162.014 171.714 185.885  1.00  0.00     0.003 C 
ATOM     23  C   UNL     1     161.351 171.349 188.305  1.00  0.00     0.031 C 
ATOM     24  C   UNL     1     162.076 170.142 185.646  1.00  0.00    -0.008 C 
ATOM     25  C   UNL     1     161.368 169.874 188.065  1.00  0.00    -0.027 C 
ATOM     26  C   UNL     1     161.625 169.320 186.863  1.00  0.00    -0.065 C 
ATOM     27  C   UNL     1     163.563 169.744 185.363  1.00  0.00     0.014 C 
ATOM     28  C   UNL     1     161.221 169.744 184.411  1.00  0.00     0.016 C 
ATOM     29  C   UNL     1     161.797 167.816 186.791  1.00  0.00     0.063 C 
ATOM     30  C   UNL     1     163.815 168.221 185.302  1.00  0.00     0.033 C 
ATOM     31  C   UNL     1     163.279 167.485 186.543  1.00  0.00     0.118 C 
BRANCH  31  32
ATOM     32  O   UNL     1     164.050 167.841 187.665  1.00  0.00    -0.393 OA
ATOM     33  H   UNL     1     164.966 167.492 187.505  1.00  0.00     0.210 HD
ENDBRANCH  31  32
ENDBRANCH  10  12
ENDBRANCH   8  10
ENDBRANCH   1   8
TORSDOF 8
ENDMDL
MODEL 5
REMARK VINA RESULT:    -5.496      6.469     11.433
REMARK INTER + INTRA:          -9.260
REMARK INTER:                  -8.007
REMARK INTRA:                  -1.253
REMARK UNBOUND:                -1.515
REMARK SMILES C[C@H](CO)CCC(=O)[C@H](C)[C@@H]1C(=O)C[C@@H]2[C@H]3CC=C4C[C@H](O)CC[C@]4(C)[C@H]3CC[C@@]21C
REMARK SMILES IDX 6 1 5 2 2 3 1 4 3 5 4 6 7 8 8 9 9 10 10 11 11 12 12 13 30 14
REMARK SMILES IDX 13 15 14 16 15 17 29 18 31 19 16 20 28 21 27 22 17 23 25 24
REMARK SMILES IDX 18 25 19 26 24 27 26 28 20 29 23 30 21 31 22 32
REMARK H PARENT 4 7 22 33
REMARK Flexibility Score: inf
ROOT
ATOM      1  C   UNL     1     164.758 162.616 185.967  1.00  0.00     0.076 C 
ENDROOT
BRANCH   1   2
ATOM      2  C   UNL     1     164.814 163.410 184.650  1.00  0.00     0.013 C 
BRANCH   2   3
ATOM      3  C   UNL     1     165.352 162.616 183.434  1.00  0.00     0.012 C 
ATOM      4  C   UNL     1     166.607 163.259 182.822  1.00  0.00     0.010 C 
BRANCH   3   5
ATOM      5  C   UNL     1     164.272 162.327 182.371  1.00  0.00     0.159 C 
BRANCH   5   6
ATOM      6  O   UNL     1     163.523 161.187 182.704  1.00  0.00    -0.396 OA
ATOM      7  H   UNL     1     162.756 161.165 182.072  1.00  0.00     0.210 HD
ENDBRANCH   5   6
ENDBRANCH   3   5
ENDBRANCH   2   3
ENDBRANCH   1   2
BRANCH   1   8
ATOM      8  C   UNL     1     163.430 161.920 186.132  1.00  0.00     0.136 C 
ATOM      9  O   UNL     1     163.250 160.861 185.550  1.00  0.00    -0.299 OA
BRANCH   8  10
ATOM     10  C   UNL     1     162.379 162.474 187.086  1.00  0.00     0.064 C 
ATOM     11  C   UNL     1     161.704 161.297 187.809  1.00  0.00     0.017 C 
BRANCH  10  12
ATOM     12  C   UNL     1     161.302 163.439 186.465  1.00  0.00     0.072 C 
ATOM     13  C   UNL     1     161.247 163.490 184.972  1.00  0.00     0.137 C 
ATOM     14  C   UNL     1     161.336 164.950 186.893  1.00  0.00    -0.019 C 
ATOM     15  O   UNL     1     161.278 162.501 184.259  1.00  0.00    -0.299 OA
ATOM     16  C   UNL     1     161.010 164.852 184.439  1.00  0.00     0.080 C 
ATOM     17  C   UNL     1     160.638 165.668 185.687  1.00  0.00     0.007 C 
ATOM     18  C   UNL     1     162.783 165.480 187.080  1.00  0.00     0.008 C 
ATOM     19  C   UNL     1     160.547 165.108 188.216  1.00  0.00     0.012 C 
ATOM     20  C   UNL     1     160.922 167.189 185.493  1.00  0.00     0.001 C 
ATOM     21  C   UNL     1     162.905 167.009 187.049  1.00  0.00     0.005 C 
ATOM     22  C   UNL     1     162.410 167.566 185.691  1.00  0.00     0.003 C 
ATOM     23  C   UNL     1     160.022 168.053 186.390  1.00  0.00     0.031 C 
ATOM     24  C   UNL     1     162.667 169.115 185.428  1.00  0.00    -0.008 C 
ATOM     25  C   UNL     1     160.280 169.511 186.184  1.00  0.00    -0.027 C 
ATOM     26  C   UNL     1     161.479 170.008 185.818  1.00  0.00    -0.065 C 
ATOM     27  C   UNL     1     162.899 169.322 183.894  1.00  0.00     0.014 C 
ATOM     28  C   UNL     1     163.939 169.592 186.182  1.00  0.00     0.016 C 
ATOM     29  C   UNL     1     161.565 171.477 185.459  1.00  0.00     0.063 C 
ATOM     30  C   UNL     1     162.971 170.802 183.455  1.00  0.00     0.033 C 
ATOM     31  C   UNL     1     161.761 171.620 183.940  1.00  0.00     0.118 C 
BRANCH  31  32
ATOM     32  O   UNL     1     160.606 171.193 183.260  1.00  0.00    -0.393 OA
ATOM     33  H   UNL     1     159.889 171.101 183.941  1.00  0.00     0.210 HD
ENDBRANCH  31  32
ENDBRANCH  10  12
ENDBRANCH   8  10
ENDBRANCH   1   8
TORSDOF 8
ENDMDL
MODEL 6
REMARK VINA RESULT:    -5.415      2.751      6.182
REMARK INTER + INTRA:          -9.145
REMARK INTER:                  -7.701
REMARK INTRA:                  -1.444
REMARK UNBOUND:                -1.515
REMARK SMILES C[C@H](CO)CCC(=O)[C@H](C)[C@@H]1C(=O)C[C@@H]2[C@H]3CC=C4C[C@H](O)CC[C@]4(C)[C@H]3CC[C@@]21C
REMARK SMILES IDX 6 1 5 2 2 3 1 4 3 5 4 6 7 8 8 9 9 10 10 11 11 12 12 13 30 14
REMARK SMILES IDX 13 15 14 16 15 17 29 18 31 19 16 20 28 21 27 22 17 23 25 24
REMARK SMILES IDX 18 25 19 26 24 27 26 28 20 29 23 30 21 31 22 32
REMARK H PARENT 4 7 22 33
REMARK Flexibility Score: inf
ROOT
ATOM      1  C   UNL     1     161.973 176.976 184.559  1.00  0.00     0.076 C 
ENDROOT
BRANCH   1   2
ATOM      2  C   UNL     1     161.925 177.962 185.739  1.00  0.00     0.013 C 
BRANCH   2   3
ATOM      3  C   UNL     1     163.025 177.751 186.809  1.00  0.00     0.012 C 
ATOM      4  C   UNL     1     162.442 177.500 188.209  1.00  0.00     0.010 C 
BRANCH   3   5
ATOM      5  C   UNL     1     164.089 178.867 186.815  1.00  0.00     0.159 C 
BRANCH   5   6
ATOM      6  O   UNL     1     164.667 179.026 185.546  1.00  0.00    -0.396 OA
ATOM      7  H   UNL     1     165.494 178.474 185.547  1.00  0.00     0.210 HD
ENDBRANCH   5   6
ENDBRANCH   3   5
ENDBRANCH   2   3
ENDBRANCH   1   2
BRANCH   1   8
ATOM      8  C   UNL     1     161.268 175.685 184.894  1.00  0.00     0.136 C 
ATOM      9  O   UNL     1     160.173 175.741 185.434  1.00  0.00    -0.299 OA
BRANCH   8  10
ATOM     10  C   UNL     1     161.861 174.347 184.471  1.00  0.00     0.064 C 
ATOM     11  C   UNL     1     160.717 173.333 184.306  1.00  0.00     0.017 C 
BRANCH  10  12
ATOM     12  C   UNL     1     163.000 173.761 185.387  1.00  0.00     0.072 C 
ATOM     13  C   UNL     1     162.916 174.100 186.840  1.00  0.00     0.137 C 
ATOM     14  C   UNL     1     164.488 174.088 185.008  1.00  0.00    -0.019 C 
ATOM     15  O   UNL     1     161.885 174.044 187.490  1.00  0.00    -0.299 OA
ATOM     16  C   UNL     1     164.235 174.378 187.455  1.00  0.00     0.080 C 
ATOM     17  C   UNL     1     165.236 173.935 186.376  1.00  0.00     0.007 C 
ATOM     18  C   UNL     1     164.655 175.529 184.452  1.00  0.00     0.008 C 
ATOM     19  C   UNL     1     164.968 173.063 183.951  1.00  0.00     0.012 C 
ATOM     20  C   UNL     1     166.611 174.655 186.529  1.00  0.00     0.001 C 
ATOM     21  C   UNL     1     166.094 176.058 184.492  1.00  0.00     0.005 C 
ATOM     22  C   UNL     1     166.622 176.090 185.949  1.00  0.00     0.003 C 
ATOM     23  C   UNL     1     167.757 173.823 185.933  1.00  0.00     0.031 C 
ATOM     24  C   UNL     1     168.023 176.810 186.176  1.00  0.00    -0.008 C 
ATOM     25  C   UNL     1     169.076 174.505 186.103  1.00  0.00    -0.027 C 
ATOM     26  C   UNL     1     169.218 175.845 186.146  1.00  0.00    -0.065 C 
ATOM     27  C   UNL     1     168.014 177.468 187.596  1.00  0.00     0.014 C 
ATOM     28  C   UNL     1     168.238 177.929 185.121  1.00  0.00     0.016 C 
ATOM     29  C   UNL     1     170.577 176.409 186.509  1.00  0.00     0.063 C 
ATOM     30  C   UNL     1     169.378 178.041 188.041  1.00  0.00     0.033 C 
ATOM     31  C   UNL     1     170.517 177.012 187.923  1.00  0.00     0.118 C 
BRANCH  31  32
ATOM     32  O   UNL     1     170.328 175.996 188.877  1.00  0.00    -0.393 OA
ATOM     33  H   UNL     1     171.231 175.693 189.157  1.00  0.00     0.210 HD
ENDBRANCH  31  32
ENDBRANCH  10  12
ENDBRANCH   8  10
ENDBRANCH   1   8
TORSDOF 8
ENDMDL
MODEL 7
REMARK VINA RESULT:    -5.355      6.231     10.332
REMARK INTER + INTRA:          -9.060
REMARK INTER:                  -7.593
REMARK INTRA:                  -1.467
REMARK UNBOUND:                -1.515
REMARK SMILES C[C@H](CO)CCC(=O)[C@H](C)[C@@H]1C(=O)C[C@@H]2[C@H]3CC=C4C[C@H](O)CC[C@]4(C)[C@H]3CC[C@@]21C
REMARK SMILES IDX 6 1 5 2 2 3 1 4 3 5 4 6 7 8 8 9 9 10 10 11 11 12 12 13 30 14
REMARK SMILES IDX 13 15 14 16 15 17 29 18 31 19 16 20 28 21 27 22 17 23 25 24
REMARK SMILES IDX 18 25 19 26 24 27 26 28 20 29 23 30 21 31 22 32
REMARK H PARENT 4 7 22 33
REMARK Flexibility Score: inf
ROOT
ATOM      1  C   UNL     1     174.346 177.698 183.774  1.00  0.00     0.076 C 
ENDROOT
BRANCH   1   2
ATOM      2  C   UNL     1     174.016 176.207 183.960  1.00  0.00     0.013 C 
BRANCH   2   3
ATOM      3  C   UNL     1     172.711 175.738 183.269  1.00  0.00     0.012 C 
ATOM      4  C   UNL     1     171.812 174.918 184.208  1.00  0.00     0.010 C 
BRANCH   3   5
ATOM      5  C   UNL     1     172.959 175.018 181.928  1.00  0.00     0.159 C 
BRANCH   5   6
ATOM      6  O   UNL     1     173.288 175.931 180.914  1.00  0.00    -0.396 OA
ATOM      7  H   UNL     1     173.608 176.753 181.375  1.00  0.00     0.210 HD
ENDBRANCH   5   6
ENDBRANCH   3   5
ENDBRANCH   2   3
ENDBRANCH   1   2
BRANCH   1   8
ATOM      8  C   UNL     1     175.101 178.245 184.961  1.00  0.00     0.136 C 
ATOM      9  O   UNL     1     176.285 177.966 185.077  1.00  0.00    -0.299 OA
BRANCH   8  10
ATOM     10  C   UNL     1     174.427 179.207 185.931  1.00  0.00     0.064 C 
ATOM     11  C   UNL     1     175.508 180.091 186.575  1.00  0.00     0.017 C 
BRANCH  10  12
ATOM     12  C   UNL     1     173.501 178.565 187.030  1.00  0.00     0.072 C 
ATOM     13  C   UNL     1     173.656 177.094 187.244  1.00  0.00     0.137 C 
ATOM     14  C   UNL     1     171.950 178.765 186.892  1.00  0.00    -0.019 C 
ATOM     15  O   UNL     1     174.735 176.531 187.328  1.00  0.00    -0.299 OA
ATOM     16  C   UNL     1     172.370 176.397 187.484  1.00  0.00     0.080 C 
ATOM     17  C   UNL     1     171.370 177.546 187.688  1.00  0.00     0.007 C 
ATOM     18  C   UNL     1     171.477 178.727 185.413  1.00  0.00     0.008 C 
ATOM     19  C   UNL     1     171.567 180.125 187.527  1.00  0.00     0.012 C 
ATOM     20  C   UNL     1     169.908 177.107 187.368  1.00  0.00     0.001 C 
ATOM     21  C   UNL     1     169.976 178.464 185.236  1.00  0.00     0.005 C 
ATOM     22  C   UNL     1     169.587 177.096 185.853  1.00  0.00     0.003 C 
ATOM     23  C   UNL     1     168.880 177.957 188.131  1.00  0.00     0.031 C 
ATOM     24  C   UNL     1     168.106 176.588 185.566  1.00  0.00    -0.008 C 
ATOM     25  C   UNL     1     167.482 177.517 187.841  1.00  0.00    -0.027 C 
ATOM     26  C   UNL     1     167.106 176.964 186.670  1.00  0.00    -0.065 C 
ATOM     27  C   UNL     1     168.127 175.025 185.493  1.00  0.00     0.014 C 
ATOM     28  C   UNL     1     167.598 177.133 184.203  1.00  0.00     0.016 C 
ATOM     29  C   UNL     1     165.707 176.391 186.566  1.00  0.00     0.063 C 
ATOM     30  C   UNL     1     166.730 174.373 185.412  1.00  0.00     0.033 C 
ATOM     31  C   UNL     1     165.787 174.855 186.530  1.00  0.00     0.118 C 
BRANCH  31  32
ATOM     32  O   UNL     1     166.243 174.363 187.767  1.00  0.00    -0.393 OA
ATOM     33  H   UNL     1     165.547 173.739 188.101  1.00  0.00     0.210 HD
ENDBRANCH  31  32
ENDBRANCH  10  12
ENDBRANCH   8  10
ENDBRANCH   1   8
TORSDOF 8
ENDMDL
MODEL 8
REMARK VINA RESULT:    -5.328      2.776      6.989
REMARK INTER + INTRA:          -9.022
REMARK INTER:                  -7.325
REMARK INTRA:                  -1.697
REMARK UNBOUND:                -1.515
REMARK SMILES C[C@H](CO)CCC(=O)[C@H](C)[C@@H]1C(=O)C[C@@H]2[C@H]3CC=C4C[C@H](O)CC[C@]4(C)[C@H]3CC[C@@]21C
REMARK SMILES IDX 6 1 5 2 2 3 1 4 3 5 4 6 7 8 8 9 9 10 10 11 11 12 12 13 30 14
REMARK SMILES IDX 13 15 14 16 15 17 29 18 31 19 16 20 28 21 27 22 17 23 25 24
REMARK SMILES IDX 18 25 19 26 24 27 26 28 20 29 23 30 21 31 22 32
REMARK H PARENT 4 7 22 33
REMARK Flexibility Score: inf
ROOT
ATOM      1  C   UNL     1     162.144 174.359 183.220  1.00  0.00     0.076 C 
ENDROOT
BRANCH   1   2
ATOM      2  C   UNL     1     161.972 174.940 181.806  1.00  0.00     0.013 C 
BRANCH   2   3
ATOM      3  C   UNL     1     163.014 176.017 181.413  1.00  0.00     0.012 C 
ATOM      4  C   UNL     1     164.279 175.956 182.285  1.00  0.00     0.010 C 
BRANCH   3   5
ATOM      5  C   UNL     1     162.423 177.440 181.347  1.00  0.00     0.159 C 
BRANCH   5   6
ATOM      6  O   UNL     1     161.112 177.469 181.849  1.00  0.00    -0.396 OA
ATOM      7  H   UNL     1     160.842 178.426 181.863  1.00  0.00     0.210 HD
ENDBRANCH   5   6
ENDBRANCH   3   5
ENDBRANCH   2   3
ENDBRANCH   1   2
BRANCH   1   8
ATOM      8  C   UNL     1     161.148 174.956 184.183  1.00  0.00     0.136 C 
ATOM      9  O   UNL     1     160.042 175.262 183.763  1.00  0.00    -0.299 OA
BRANCH   8  10
ATOM     10  C   UNL     1     161.478 175.075 185.665  1.00  0.00     0.064 C 
ATOM     11  C   UNL     1     160.182 174.897 186.473  1.00  0.00     0.017 C 
BRANCH  10  12
ATOM     12  C   UNL     1     162.243 176.375 186.115  1.00  0.00     0.072 C 
ATOM     13  C   UNL     1     162.267 177.498 185.129  1.00  0.00     0.137 C 
ATOM     14  C   UNL     1     163.743 176.229 186.557  1.00  0.00    -0.019 C 
ATOM     15  O   UNL     1     161.289 177.870 184.503  1.00  0.00    -0.299 OA
ATOM     16  C   UNL     1     163.564 178.213 185.085  1.00  0.00     0.080 C 
ATOM     17  C   UNL     1     164.320 177.664 186.305  1.00  0.00     0.007 C 
ATOM     18  C   UNL     1     164.510 175.176 185.712  1.00  0.00     0.008 C 
ATOM     19  C   UNL     1     163.782 175.828 188.053  1.00  0.00     0.012 C 
ATOM     20  C   UNL     1     165.865 177.800 186.140  1.00  0.00     0.001 C 
ATOM     21  C   UNL     1     166.037 175.305 185.777  1.00  0.00     0.005 C 
ATOM     22  C   UNL     1     166.488 176.692 185.256  1.00  0.00     0.003 C 
ATOM     23  C   UNL     1     166.577 177.869 187.500  1.00  0.00     0.031 C 
ATOM     24  C   UNL     1     168.055 176.899 185.066  1.00  0.00    -0.008 C 
ATOM     25  C   UNL     1     168.055 178.024 187.338  1.00  0.00    -0.027 C 
ATOM     26  C   UNL     1     168.741 177.535 186.285  1.00  0.00    -0.065 C 
ATOM     27  C   UNL     1     168.281 177.877 183.864  1.00  0.00     0.014 C 
ATOM     28  C   UNL     1     168.746 175.548 184.732  1.00  0.00     0.016 C 
ATOM     29  C   UNL     1     170.200 177.917 186.142  1.00  0.00     0.063 C 
ATOM     30  C   UNL     1     169.746 178.328 183.678  1.00  0.00     0.033 C 
ATOM     31  C   UNL     1     170.356 178.901 184.970  1.00  0.00     0.118 C 
BRANCH  31  32
ATOM     32  O   UNL     1     169.734 180.124 185.276  1.00  0.00    -0.393 OA
ATOM     33  H   UNL     1     169.514 180.100 186.244  1.00  0.00     0.210 HD
ENDBRANCH  31  32
ENDBRANCH  10  12
ENDBRANCH   8  10
ENDBRANCH   1   8
TORSDOF 8
ENDMDL
MODEL 9
REMARK VINA RESULT:    -5.300      2.245      4.568
REMARK INTER + INTRA:          -8.984
REMARK INTER:                  -7.183
REMARK INTRA:                  -1.800
REMARK UNBOUND:                -1.515
REMARK SMILES C[C@H](CO)CCC(=O)[C@H](C)[C@@H]1C(=O)C[C@@H]2[C@H]3CC=C4C[C@H](O)CC[C@]4(C)[C@H]3CC[C@@]21C
REMARK SMILES IDX 6 1 5 2 2 3 1 4 3 5 4 6 7 8 8 9 9 10 10 11 11 12 12 13 30 14
REMARK SMILES IDX 13 15 14 16 15 17 29 18 31 19 16 20 28 21 27 22 17 23 25 24
REMARK SMILES IDX 18 25 19 26 24 27 26 28 20 29 23 30 21 31 22 32
REMARK H PARENT 4 7 22 33
REMARK Flexibility Score: inf
ROOT
ATOM      1  C   UNL     1     162.572 177.370 187.330  1.00  0.00     0.076 C 
ENDROOT
BRANCH   1   2
ATOM      2  C   UNL     1     161.354 177.894 186.548  1.00  0.00     0.013 C 
BRANCH   2   3
ATOM      3  C   UNL     1     160.593 176.820 185.733  1.00  0.00     0.012 C 
ATOM      4  C   UNL     1     160.899 175.392 186.212  1.00  0.00     0.010 C 
BRANCH   3   5
ATOM      5  C   UNL     1     160.775 176.972 184.209  1.00  0.00     0.159 C 
BRANCH   5   6
ATOM      6  O   UNL     1     161.765 177.920 183.907  1.00  0.00    -0.396 OA
ATOM      7  H   UNL     1     162.392 177.476 183.276  1.00  0.00     0.210 HD
ENDBRANCH   5   6
ENDBRANCH   3   5
ENDBRANCH   2   3
ENDBRANCH   1   2
BRANCH   1   8
ATOM      8  C   UNL     1     163.865 177.752 186.652  1.00  0.00     0.136 C 
ATOM      9  O   UNL     1     163.900 178.787 186.003  1.00  0.00    -0.299 OA
BRANCH   8  10
ATOM     10  C   UNL     1     165.123 176.919 186.861  1.00  0.00     0.064 C 
ATOM     11  C   UNL     1     166.347 177.843 186.748  1.00  0.00     0.017 C 
BRANCH  10  12
ATOM     12  C   UNL     1     165.291 175.654 185.940  1.00  0.00     0.072 C 
ATOM     13  C   UNL     1     164.431 175.610 184.718  1.00  0.00     0.137 C 
ATOM     14  C   UNL     1     165.093 174.239 186.592  1.00  0.00    -0.019 C 
ATOM     15  O   UNL     1     164.264 176.561 183.973  1.00  0.00    -0.299 OA
ATOM     16  C   UNL     1     163.908 174.257 184.417  1.00  0.00     0.080 C 
ATOM     17  C   UNL     1     164.700 173.344 185.367  1.00  0.00     0.007 C 
ATOM     18  C   UNL     1     163.965 174.232 187.659  1.00  0.00     0.008 C 
ATOM     19  C   UNL     1     166.429 173.802 187.242  1.00  0.00     0.012 C 
ATOM     20  C   UNL     1     163.941 172.014 185.662  1.00  0.00     0.001 C 
ATOM     21  C   UNL     1     163.423 172.837 187.995  1.00  0.00     0.005 C 
ATOM     22  C   UNL     1     162.831 172.164 186.731  1.00  0.00     0.003 C 
ATOM     23  C   UNL     1     164.907 170.881 186.042  1.00  0.00     0.031 C 
ATOM     24  C   UNL     1     162.043 170.800 186.961  1.00  0.00    -0.008 C 
ATOM     25  C   UNL     1     164.177 169.602 186.300  1.00  0.00    -0.027 C 
ATOM     26  C   UNL     1     162.917 169.550 186.776  1.00  0.00    -0.065 C 
ATOM     27  C   UNL     1     160.898 170.708 185.897  1.00  0.00     0.014 C 
ATOM     28  C   UNL     1     161.399 170.774 188.374  1.00  0.00     0.016 C 
ATOM     29  C   UNL     1     162.223 168.204 186.817  1.00  0.00     0.063 C 
ATOM     30  C   UNL     1     160.165 169.348 185.868  1.00  0.00     0.033 C 
ATOM     31  C   UNL     1     161.133 168.159 185.734  1.00  0.00     0.118 C 
BRANCH  31  32
ATOM     32  O   UNL     1     161.718 168.177 184.455  1.00  0.00    -0.393 OA
ATOM     33  H   UNL     1     161.358 167.393 183.963  1.00  0.00     0.210 HD
ENDBRANCH  31  32
ENDBRANCH  10  12
ENDBRANCH   8  10
ENDBRANCH   1   8
TORSDOF 8
ENDMDL
