MODEL 1
REMARK VINA RESULT:    -4.473      0.000      0.000
REMARK INTER + INTRA:          -6.802
REMARK INTER:                  -6.826
REMARK INTRA:                   0.024
REMARK UNBOUND:                 0.024
REMARK SMILES CC1=CCC[C@H](C)C(=O)C[C@H](C(C)C)C(=O)C1
REMARK SMILES IDX 8 1 9 2 6 3 7 4 5 5 4 6 3 7 2 8 1 9 10 11 11 12 15 13 16 14
REMARK SMILES IDX 17 15 12 17 13 18 14 19
REMARK H PARENT
REMARK Flexibility Score: 70.00
ROOT
ATOM      1  C   UNL     1      49.076   2.252  18.723  1.00  0.00     0.136 C 
ATOM      2  O   UNL     1      49.971   1.423  18.811  1.00  0.00    -0.299 OA
ENDROOT
BRANCH   1   3
ATOM      3  C   UNL     1      47.760   1.876  18.073  1.00  0.00     0.053 C 
ATOM      4  C   UNL     1      46.602   2.412  18.920  1.00  0.00     0.016 C 
BRANCH   3   5
ATOM      5  C   UNL     1      47.648   2.403  16.623  1.00  0.00     0.015 C 
BRANCH   5   6
ATOM      6  C   UNL     1      48.851   2.046  15.737  1.00  0.00     0.028 C 
BRANCH   6   7
ATOM      7  C   UNL     1      49.256   3.210  14.865  1.00  0.00    -0.028 C 
ATOM      8  C   UNL     1      50.295   4.038  15.110  1.00  0.00    -0.070 CG0
ATOM      9  C   UNL     1      50.558   5.157  14.134  1.00  0.00     0.039 C 
ATOM     10  G   UNL     1      51.194   3.895  16.325  1.00  0.00     0.000 G0
ENDBRANCH   6   7
ENDBRANCH   5   6
ENDBRANCH   3   5
ENDBRANCH   1   3
BRANCH   1  11
ATOM     11  C   UNL     1      49.322   3.658  19.214  1.00  0.00     0.087 C 
BRANCH  11  12
ATOM     12  C   UNL     1      50.759   4.177  18.941  1.00  0.00     0.066 C 
BRANCH  12  13
ATOM     13  C   UNL     1      50.859   4.740  17.525  1.00  0.00     0.140 C 
ATOM     14  O   UNL     1      50.721   5.943  17.359  1.00  0.00    -0.299 OA
BRANCH  13  15
ATOM     15  C   UNL     1      51.217   3.893  16.320  1.00  0.00     0.106 CG0
ATOM     16  G   UNL     1      50.273   4.049  15.142  1.00  0.00     0.000 G0
ENDBRANCH  13  15
ENDBRANCH  12  13
BRANCH  12  17
ATOM     17  C   UNL     1      51.182   5.262  19.985  1.00  0.00    -0.006 C 
ATOM     18  C   UNL     1      50.429   5.109  21.319  1.00  0.00     0.008 C 
ATOM     19  C   UNL     1      52.696   5.217  20.263  1.00  0.00     0.008 C 
ENDBRANCH  12  17
ENDBRANCH  11  12
ENDBRANCH   1  11
TORSDOF 1
ENDMDL
MODEL 2
REMARK VINA RESULT:    -4.351      2.233      3.786
REMARK INTER + INTRA:          -6.616
REMARK INTER:                  -6.203
REMARK INTRA:                  -0.413
REMARK UNBOUND:                 0.024
REMARK SMILES CC1=CCC[C@H](C)C(=O)C[C@H](C(C)C)C(=O)C1
REMARK SMILES IDX 8 1 9 2 6 3 7 4 5 5 4 6 3 7 2 8 1 9 10 11 11 12 15 13 16 14
REMARK SMILES IDX 17 15 12 17 13 18 14 19
REMARK H PARENT
REMARK Flexibility Score: 70.00
ROOT
ATOM      1  C   UNL     1      49.160   2.443  16.527  1.00  0.00     0.136 C 
ATOM      2  O   UNL     1      49.100   2.796  15.358  1.00  0.00    -0.299 OA
ENDROOT
BRANCH   1   3
ATOM      3  C   UNL     1      48.045   1.607  17.121  1.00  0.00     0.053 C 
ATOM      4  C   UNL     1      48.569   0.864  18.355  1.00  0.00     0.016 C 
BRANCH   3   5
ATOM      5  C   UNL     1      46.808   2.455  17.496  1.00  0.00     0.015 C 
BRANCH   5   6
ATOM      6  C   UNL     1      46.751   2.851  18.979  1.00  0.00     0.028 C 
BRANCH   6   7
ATOM      7  C   UNL     1      46.766   4.352  19.148  1.00  0.00    -0.028 C 
ATOM      8  C   UNL     1      47.845   5.081  19.509  1.00  0.00    -0.070 CG0
ATOM      9  C   UNL     1      47.683   6.574  19.637  1.00  0.00     0.039 C 
ATOM     10  G   UNL     1      49.199   4.460  19.800  1.00  0.00     0.000 G0
ENDBRANCH   6   7
ENDBRANCH   5   6
ENDBRANCH   3   5
ENDBRANCH   1   3
BRANCH   1  11
ATOM     11  C   UNL     1      50.322   2.901  17.376  1.00  0.00     0.087 C 
BRANCH  11  12
ATOM     12  C   UNL     1      50.481   4.443  17.445  1.00  0.00     0.066 C 
BRANCH  12  13
ATOM     13  C   UNL     1      50.334   4.927  18.885  1.00  0.00     0.140 C 
ATOM     14  O   UNL     1      51.101   5.785  19.298  1.00  0.00    -0.299 OA
BRANCH  13  15
ATOM     15  C   UNL     1      49.220   4.468  19.804  1.00  0.00     0.106 CG0
ATOM     16  G   UNL     1      47.863   5.075  19.495  1.00  0.00     0.000 G0
ENDBRANCH  13  15
ENDBRANCH  12  13
BRANCH  12  17
ATOM     17  C   UNL     1      51.856   4.901  16.858  1.00  0.00    -0.006 C 
ATOM     18  C   UNL     1      52.839   3.726  16.695  1.00  0.00     0.008 C 
ATOM     19  C   UNL     1      51.685   5.595  15.494  1.00  0.00     0.008 C 
ENDBRANCH  12  17
ENDBRANCH  11  12
ENDBRANCH   1  11
TORSDOF 1
ENDMDL
MODEL 3
REMARK VINA RESULT:    -4.299      1.773      4.190
REMARK INTER + INTRA:          -6.538
REMARK INTER:                  -6.278
REMARK INTRA:                  -0.259
REMARK UNBOUND:                 0.024
REMARK SMILES CC1=CCC[C@H](C)C(=O)C[C@H](C(C)C)C(=O)C1
REMARK SMILES IDX 8 1 9 2 6 3 7 4 5 5 4 6 3 7 2 8 1 9 10 11 11 12 15 13 16 14
REMARK SMILES IDX 17 15 12 17 13 18 14 19
REMARK H PARENT
REMARK Flexibility Score: 70.00
ROOT
ATOM      1  C   UNL     1      48.388   5.432  19.761  1.00  0.00     0.136 C 
ATOM      2  O   UNL     1      47.269   5.594  19.295  1.00  0.00    -0.299 OA
ENDROOT
BRANCH   1   3
ATOM      3  C   UNL     1      49.266   6.632  20.048  1.00  0.00     0.053 C 
ATOM      4  C   UNL     1      50.474   6.191  20.881  1.00  0.00     0.016 C 
BRANCH   3   5
ATOM      5  C   UNL     1      49.740   7.339  18.756  1.00  0.00     0.015 C 
BRANCH   5   6
ATOM      6  C   UNL     1      51.220   7.096  18.423  1.00  0.00     0.028 C 
BRANCH   6   7
ATOM      7  C   UNL     1      51.372   6.254  17.178  1.00  0.00    -0.028 C 
ATOM      8  C   UNL     1      51.607   4.923  17.165  1.00  0.00    -0.070 CG0
ATOM      9  C   UNL     1      51.737   4.238  15.829  1.00  0.00     0.039 C 
ATOM     10  G   UNL     1      51.756   4.101  18.433  1.00  0.00     0.000 G0
ENDBRANCH   6   7
ENDBRANCH   5   6
ENDBRANCH   3   5
ENDBRANCH   1   3
BRANCH   1  11
ATOM     11  C   UNL     1      48.897   4.029  19.985  1.00  0.00     0.087 C 
BRANCH  11  12
ATOM     12  C   UNL     1      49.238   3.267  18.676  1.00  0.00     0.066 C 
BRANCH  12  13
ATOM     13  C   UNL     1      50.738   2.993  18.597  1.00  0.00     0.140 C 
ATOM     14  O   UNL     1      51.124   1.833  18.592  1.00  0.00    -0.299 OA
BRANCH  13  15
ATOM     15  C   UNL     1      51.772   4.087  18.427  1.00  0.00     0.106 CG0
ATOM     16  G   UNL     1      51.603   4.918  17.168  1.00  0.00     0.000 G0
ENDBRANCH  13  15
ENDBRANCH  12  13
BRANCH  12  17
ATOM     17  C   UNL     1      48.437   1.928  18.570  1.00  0.00    -0.006 C 
ATOM     18  C   UNL     1      47.175   1.935  19.453  1.00  0.00     0.008 C 
ATOM     19  C   UNL     1      48.022   1.631  17.118  1.00  0.00     0.008 C 
ENDBRANCH  12  17
ENDBRANCH  11  12
ENDBRANCH   1  11
TORSDOF 1
ENDMDL
MODEL 4
REMARK VINA RESULT:    -4.183      1.662      3.750
REMARK INTER + INTRA:          -6.360
REMARK INTER:                  -6.289
REMARK INTRA:                  -0.071
REMARK UNBOUND:                 0.024
REMARK SMILES CC1=CCC[C@H](C)C(=O)C[C@H](C(C)C)C(=O)C1
REMARK SMILES IDX 8 1 9 2 6 3 7 4 5 5 4 6 3 7 2 8 1 9 10 11 11 12 15 13 16 14
REMARK SMILES IDX 17 15 12 17 13 18 14 19
REMARK H PARENT
REMARK Flexibility Score: 70.00
ROOT
ATOM      1  C   UNL     1      50.857   3.669  19.274  1.00  0.00     0.136 C 
ATOM      2  O   UNL     1      51.883   3.551  19.929  1.00  0.00    -0.299 OA
ENDROOT
BRANCH   1   3
ATOM      3  C   UNL     1      49.954   4.866  19.495  1.00  0.00     0.053 C 
ATOM      4  C   UNL     1      49.910   5.200  20.990  1.00  0.00     0.016 C 
BRANCH   3   5
ATOM      5  C   UNL     1      50.408   6.104  18.687  1.00  0.00     0.015 C 
BRANCH   5   6
ATOM      6  C   UNL     1      51.619   5.842  17.778  1.00  0.00     0.028 C 
BRANCH   6   7
ATOM      7  C   UNL     1      51.307   6.170  16.338  1.00  0.00    -0.028 C 
ATOM      8  C   UNL     1      51.030   5.261  15.377  1.00  0.00    -0.070 CG0
ATOM      9  C   UNL     1      50.744   5.763  13.985  1.00  0.00     0.039 C 
ATOM     10  G   UNL     1      51.007   3.766  15.641  1.00  0.00     0.000 G0
ENDBRANCH   6   7
ENDBRANCH   5   6
ENDBRANCH   3   5
ENDBRANCH   1   3
BRANCH   1  11
ATOM     11  C   UNL     1      50.477   2.584  18.296  1.00  0.00     0.087 C 
BRANCH  11  12
ATOM     12  C   UNL     1      49.230   2.920  17.436  1.00  0.00     0.066 C 
BRANCH  12  13
ATOM     13  C   UNL     1      49.639   3.185  15.989  1.00  0.00     0.140 C 
ATOM     14  O   UNL     1      48.815   3.012  15.104  1.00  0.00    -0.299 OA
BRANCH  13  15
ATOM     15  C   UNL     1      50.992   3.748  15.601  1.00  0.00     0.106 CG0
ATOM     16  G   UNL     1      51.001   5.246  15.360  1.00  0.00     0.000 G0
ENDBRANCH  13  15
ENDBRANCH  12  13
BRANCH  12  17
ATOM     17  C   UNL     1      48.168   1.774  17.497  1.00  0.00    -0.006 C 
ATOM     18  C   UNL     1      48.359   0.870  18.729  1.00  0.00     0.008 C 
ATOM     19  C   UNL     1      46.733   2.333  17.511  1.00  0.00     0.008 C 
ENDBRANCH  12  17
ENDBRANCH  11  12
ENDBRANCH   1  11
TORSDOF 1
ENDMDL
MODEL 5
REMARK VINA RESULT:    -3.915      2.151      2.536
REMARK INTER + INTRA:          -5.951
REMARK INTER:                  -6.211
REMARK INTRA:                   0.260
REMARK UNBOUND:                 0.024
REMARK SMILES CC1=CCC[C@H](C)C(=O)C[C@H](C(C)C)C(=O)C1
REMARK SMILES IDX 8 1 9 2 6 3 7 4 5 5 4 6 3 7 2 8 1 9 10 11 11 12 15 13 16 14
REMARK SMILES IDX 17 15 12 17 13 18 14 19
REMARK H PARENT
REMARK Flexibility Score: 70.00
ROOT
ATOM      1  C   UNL     1      47.960   4.152  19.690  1.00  0.00     0.136 C 
ATOM      2  O   UNL     1      47.468   5.042  19.010  1.00  0.00    -0.299 OA
ENDROOT
BRANCH   1   3
ATOM      3  C   UNL     1      47.642   2.703  19.381  1.00  0.00     0.053 C 
ATOM      4  C   UNL     1      46.470   2.639  18.396  1.00  0.00     0.016 C 
BRANCH   3   5
ATOM      5  C   UNL     1      48.861   1.942  18.809  1.00  0.00     0.015 C 
BRANCH   5   6
ATOM      6  C   UNL     1      49.420   2.549  17.513  1.00  0.00     0.028 C 
BRANCH   6   7
ATOM      7  C   UNL     1      50.913   2.759  17.604  1.00  0.00    -0.028 C 
ATOM      8  C   UNL     1      51.519   3.953  17.786  1.00  0.00    -0.070 CG0
ATOM      9  C   UNL     1      53.025   3.983  17.849  1.00  0.00     0.039 C 
ATOM     10  G   UNL     1      50.750   5.255  17.915  1.00  0.00     0.000 G0
ENDBRANCH   6   7
ENDBRANCH   5   6
ENDBRANCH   3   5
ENDBRANCH   1   3
BRANCH   1  11
ATOM     11  C   UNL     1      48.830   4.519  20.868  1.00  0.00     0.087 C 
BRANCH  11  12
ATOM     12  C   UNL     1      50.323   4.738  20.503  1.00  0.00     0.066 C 
BRANCH  12  13
ATOM     13  C   UNL     1      50.445   5.713  19.334  1.00  0.00     0.140 C 
ATOM     14  O   UNL     1      50.373   6.912  19.558  1.00  0.00    -0.299 OA
BRANCH  13  15
ATOM     15  C   UNL     1      50.749   5.272  17.916  1.00  0.00     0.106 CG0
ATOM     16  G   UNL     1      51.522   3.969  17.818  1.00  0.00     0.000 G0
ENDBRANCH  13  15
ENDBRANCH  12  13
BRANCH  12  17
ATOM     17  C   UNL     1      51.140   5.260  21.730  1.00  0.00    -0.006 C 
ATOM     18  C   UNL     1      50.418   4.994  23.064  1.00  0.00     0.008 C 
ATOM     19  C   UNL     1      52.540   4.622  21.789  1.00  0.00     0.008 C 
ENDBRANCH  12  17
ENDBRANCH  11  12
ENDBRANCH   1  11
TORSDOF 1
ENDMDL
MODEL 6
REMARK VINA RESULT:    -3.806      1.971      4.175
REMARK INTER + INTRA:          -5.785
REMARK INTER:                  -5.251
REMARK INTRA:                  -0.534
REMARK UNBOUND:                 0.024
REMARK SMILES CC1=CCC[C@H](C)C(=O)C[C@H](C(C)C)C(=O)C1
REMARK SMILES IDX 8 1 9 2 6 3 7 4 5 5 4 6 3 7 2 8 1 9 10 11 11 12 15 13 16 14
REMARK SMILES IDX 17 15 12 17 13 18 14 19
REMARK H PARENT
REMARK Flexibility Score: 70.00
ROOT
ATOM      1  C   UNL     1      50.574   2.600  18.217  1.00  0.00     0.136 C 
ATOM      2  O   UNL     1      50.980   1.556  18.709  1.00  0.00    -0.299 OA
ENDROOT
BRANCH   1   3
ATOM      3  C   UNL     1      49.108   2.746  17.863  1.00  0.00     0.053 C 
ATOM      4  C   UNL     1      48.676   1.565  16.989  1.00  0.00     0.016 C 
BRANCH   3   5
ATOM      5  C   UNL     1      48.206   2.840  19.116  1.00  0.00     0.015 C 
BRANCH   5   6
ATOM      6  C   UNL     1      47.865   4.279  19.530  1.00  0.00     0.028 C 
BRANCH   6   7
ATOM      7  C   UNL     1      48.863   4.815  20.529  1.00  0.00    -0.028 C 
ATOM      8  C   UNL     1      49.731   5.824  20.295  1.00  0.00    -0.070 CG0
ATOM      9  C   UNL     1      50.664   6.231  21.407  1.00  0.00     0.039 C 
ATOM     10  G   UNL     1      49.809   6.550  18.964  1.00  0.00     0.000 G0
ENDBRANCH   6   7
ENDBRANCH   5   6
ENDBRANCH   3   5
ENDBRANCH   1   3
BRANCH   1  11
ATOM     11  C   UNL     1      51.558   3.705  17.915  1.00  0.00     0.087 C 
BRANCH  11  12
ATOM     12  C   UNL     1      50.932   4.920  17.181  1.00  0.00     0.066 C 
BRANCH  12  13
ATOM     13  C   UNL     1      50.971   6.157  18.075  1.00  0.00     0.140 C 
ATOM     14  O   UNL     1      51.948   6.890  18.022  1.00  0.00    -0.299 OA
BRANCH  13  15
ATOM     15  C   UNL     1      49.814   6.578  18.959  1.00  0.00     0.106 CG0
ATOM     16  G   UNL     1      49.738   5.841  20.284  1.00  0.00     0.000 G0
ENDBRANCH  13  15
ENDBRANCH  12  13
BRANCH  12  17
ATOM     17  C   UNL     1      51.661   5.208  15.828  1.00  0.00    -0.006 C 
ATOM     18  C   UNL     1      52.903   4.316  15.637  1.00  0.00     0.008 C 
ATOM     19  C   UNL     1      50.720   5.009  14.626  1.00  0.00     0.008 C 
ENDBRANCH  12  17
ENDBRANCH  11  12
ENDBRANCH   1  11
TORSDOF 1
ENDMDL
MODEL 7
REMARK VINA RESULT:    -3.761      2.288      4.221
REMARK INTER + INTRA:          -5.716
REMARK INTER:                  -5.632
REMARK INTRA:                  -0.084
REMARK UNBOUND:                 0.024
REMARK SMILES CC1=CCC[C@H](C)C(=O)C[C@H](C(C)C)C(=O)C1
REMARK SMILES IDX 8 1 9 2 6 3 7 4 5 5 4 6 3 7 2 8 1 9 10 11 11 12 15 13 16 14
REMARK SMILES IDX 17 15 12 17 13 18 14 19
REMARK H PARENT
REMARK Flexibility Score: 70.00
ROOT
ATOM      1  C   UNL     1      49.876   3.444  15.323  1.00  0.00     0.136 C 
ATOM      2  O   UNL     1      49.149   2.475  15.158  1.00  0.00    -0.299 OA
ENDROOT
BRANCH   1   3
ATOM      3  C   UNL     1      50.470   4.155  14.124  1.00  0.00     0.053 C 
ATOM      4  C   UNL     1      50.621   5.646  14.440  1.00  0.00     0.016 C 
BRANCH   3   5
ATOM      5  C   UNL     1      51.833   3.559  13.701  1.00  0.00     0.015 C 
BRANCH   5   6
ATOM      6  C   UNL     1      53.040   4.235  14.369  1.00  0.00     0.028 C 
BRANCH   6   7
ATOM      7  C   UNL     1      53.943   3.220  15.028  1.00  0.00    -0.028 C 
ATOM      8  C   UNL     1      53.952   2.930  16.348  1.00  0.00    -0.070 CG0
ATOM      9  C   UNL     1      54.925   1.889  16.841  1.00  0.00     0.039 C 
ATOM     10  G   UNL     1      53.036   3.614  17.347  1.00  0.00     0.000 G0
ENDBRANCH   6   7
ENDBRANCH   5   6
ENDBRANCH   3   5
ENDBRANCH   1   3
BRANCH   1  11
ATOM     11  C   UNL     1      50.218   3.879  16.728  1.00  0.00     0.087 C 
BRANCH  11  12
ATOM     12  C   UNL     1      50.562   2.705  17.683  1.00  0.00     0.066 C 
BRANCH  12  13
ATOM     13  C   UNL     1      52.045   2.735  18.047  1.00  0.00     0.140 C 
ATOM     14  O   UNL     1      52.461   1.946  18.883  1.00  0.00    -0.299 OA
BRANCH  13  15
ATOM     15  C   UNL     1      53.051   3.630  17.352  1.00  0.00     0.106 CG0
ATOM     16  G   UNL     1      53.935   2.915  16.345  1.00  0.00     0.000 G0
ENDBRANCH  13  15
ENDBRANCH  12  13
BRANCH  12  17
ATOM     17  C   UNL     1      49.687   2.747  18.978  1.00  0.00    -0.006 C 
ATOM     18  C   UNL     1      49.610   4.162  19.581  1.00  0.00     0.008 C 
ATOM     19  C   UNL     1      48.256   2.247  18.709  1.00  0.00     0.008 C 
ENDBRANCH  12  17
ENDBRANCH  11  12
ENDBRANCH   1  11
TORSDOF 1
ENDMDL
MODEL 8
REMARK VINA RESULT:    -3.653      1.880      4.308
REMARK INTER + INTRA:          -5.551
REMARK INTER:                  -5.646
REMARK INTRA:                   0.095
REMARK UNBOUND:                 0.024
REMARK SMILES CC1=CCC[C@H](C)C(=O)C[C@H](C(C)C)C(=O)C1
REMARK SMILES IDX 8 1 9 2 6 3 7 4 5 5 4 6 3 7 2 8 1 9 10 11 11 12 15 13 16 14
REMARK SMILES IDX 17 15 12 17 13 18 14 19
REMARK H PARENT
REMARK Flexibility Score: 70.00
ROOT
ATOM      1  C   UNL     1      49.262   5.483  19.790  1.00  0.00     0.136 C 
ATOM      2  O   UNL     1      48.481   6.189  19.169  1.00  0.00    -0.299 OA
ENDROOT
BRANCH   1   3
ATOM      3  C   UNL     1      50.207   6.107  20.797  1.00  0.00     0.053 C 
ATOM      4  C   UNL     1      50.419   5.138  21.964  1.00  0.00     0.016 C 
BRANCH   3   5
ATOM      5  C   UNL     1      51.567   6.491  20.169  1.00  0.00     0.015 C 
BRANCH   5   6
ATOM      6  C   UNL     1      52.402   5.286  19.710  1.00  0.00     0.028 C 
BRANCH   6   7
ATOM      7  C   UNL     1      52.717   5.364  18.236  1.00  0.00    -0.028 C 
ATOM      8  C   UNL     1      52.284   4.488  17.302  1.00  0.00    -0.070 CG0
ATOM      9  C   UNL     1      52.697   4.714  15.870  1.00  0.00     0.039 C 
ATOM     10  G   UNL     1      51.414   3.290  17.638  1.00  0.00     0.000 G0
ENDBRANCH   6   7
ENDBRANCH   5   6
ENDBRANCH   3   5
ENDBRANCH   1   3
BRANCH   1  11
ATOM     11  C   UNL     1      49.312   4.003  19.497  1.00  0.00     0.087 C 
BRANCH  11  12
ATOM     12  C   UNL     1      48.801   3.625  18.081  1.00  0.00     0.066 C 
BRANCH  12  13
ATOM     13  C   UNL     1      49.978   3.376  17.141  1.00  0.00     0.140 C 
ATOM     14  O   UNL     1      49.769   3.332  15.938  1.00  0.00    -0.299 OA
BRANCH  13  15
ATOM     15  C   UNL     1      51.413   3.278  17.618  1.00  0.00     0.106 CG0
ATOM     16  G   UNL     1      52.263   4.495  17.300  1.00  0.00     0.000 G0
ENDBRANCH  13  15
ENDBRANCH  12  13
BRANCH  12  17
ATOM     17  C   UNL     1      47.870   2.369  18.127  1.00  0.00    -0.006 C 
ATOM     18  C   UNL     1      48.503   1.205  18.912  1.00  0.00     0.008 C 
ATOM     19  C   UNL     1      46.503   2.701  18.752  1.00  0.00     0.008 C 
ENDBRANCH  12  17
ENDBRANCH  11  12
ENDBRANCH   1  11
TORSDOF 1
ENDMDL
MODEL 9
REMARK VINA RESULT:    -3.562      2.382      3.653
REMARK INTER + INTRA:          -5.412
REMARK INTER:                  -5.513
REMARK INTRA:                   0.101
REMARK UNBOUND:                 0.024
REMARK SMILES CC1=CCC[C@H](C)C(=O)C[C@H](C(C)C)C(=O)C1
REMARK SMILES IDX 8 1 9 2 6 3 7 4 5 5 4 6 3 7 2 8 1 9 10 11 11 12 15 13 16 14
REMARK SMILES IDX 17 15 12 17 13 18 14 19
REMARK H PARENT
REMARK Flexibility Score: 70.00
ROOT
ATOM      1  C   UNL     1      50.473   2.980  17.581  1.00  0.00     0.136 C 
ATOM      2  O   UNL     1      51.262   3.155  16.664  1.00  0.00    -0.299 OA
ENDROOT
BRANCH   1   3
ATOM      3  C   UNL     1      49.027   2.641  17.278  1.00  0.00     0.053 C 
ATOM      4  C   UNL     1      48.906   2.192  15.818  1.00  0.00     0.016 C 
BRANCH   3   5
ATOM      5  C   UNL     1      48.468   1.549  18.220  1.00  0.00     0.015 C 
BRANCH   5   6
ATOM      6  C   UNL     1      47.627   2.101  19.381  1.00  0.00     0.028 C 
BRANCH   6   7
ATOM      7  C   UNL     1      47.252   3.545  19.150  1.00  0.00    -0.028 C 
ATOM      8  C   UNL     1      47.850   4.606  19.737  1.00  0.00    -0.070 CG0
ATOM      9  C   UNL     1      47.345   5.984  19.397  1.00  0.00     0.039 C 
ATOM     10  G   UNL     1      48.992   4.462  20.727  1.00  0.00     0.000 G0
ENDBRANCH   6   7
ENDBRANCH   5   6
ENDBRANCH   3   5
ENDBRANCH   1   3
BRANCH   1  11
ATOM     11  C   UNL     1      50.942   3.164  19.004  1.00  0.00     0.087 C 
BRANCH  11  12
ATOM     12  C   UNL     1      51.283   4.633  19.369  1.00  0.00     0.066 C 
BRANCH  12  13
ATOM     13  C   UNL     1      50.267   5.181  20.369  1.00  0.00     0.140 C 
ATOM     14  O   UNL     1      50.447   6.294  20.840  1.00  0.00    -0.299 OA
BRANCH  13  15
ATOM     15  C   UNL     1      48.991   4.451  20.736  1.00  0.00     0.106 CG0
ATOM     16  G   UNL     1      47.864   4.617  19.733  1.00  0.00     0.000 G0
ENDBRANCH  13  15
ENDBRANCH  12  13
BRANCH  12  17
ATOM     17  C   UNL     1      52.731   4.757  19.946  1.00  0.00    -0.006 C 
ATOM     18  C   UNL     1      52.913   3.942  21.240  1.00  0.00     0.008 C 
ATOM     19  C   UNL     1      53.788   4.303  18.922  1.00  0.00     0.008 C 
ENDBRANCH  12  17
ENDBRANCH  11  12
ENDBRANCH   1  11
TORSDOF 1
ENDMDL
