MODEL 1
REMARK VINA RESULT:    -3.104      0.000      0.000
REMARK INTER + INTRA:          -3.679
REMARK INTER:                  -3.649
REMARK INTRA:                  -0.030
REMARK UNBOUND:                -0.030
REMARK SMILES O=C([O-])CCC(=O)[O-]
REMARK SMILES IDX 4 1 2 2 1 3 3 4 5 5 6 6 7 7 8 8
REMARK H PARENT
REMARK Flexibility Score: inf
ROOT
ATOM      1  C   UNL     1      37.545  38.018  20.718  1.00  0.00     0.059 C 
ENDROOT
BRANCH   1   2
ATOM      2  C   UNL     1      36.893  39.201  20.077  1.00  0.00     0.042 C 
ATOM      3  O   UNL     1      35.681  39.457  20.305  1.00  0.00    -0.550 OA
ATOM      4  O   UNL     1      37.635  40.050  19.266  1.00  0.00    -0.550 OA
ENDBRANCH   1   2
BRANCH   1   5
ATOM      5  C   UNL     1      37.170  36.733  19.977  1.00  0.00     0.059 C 
BRANCH   5   6
ATOM      6  C   UNL     1      37.422  35.538  20.842  1.00  0.00     0.042 C 
ATOM      7  O   UNL     1      36.512  35.095  21.590  1.00  0.00    -0.550 OA
ATOM      8  O   UNL     1      38.646  34.884  20.783  1.00  0.00    -0.550 OA
ENDBRANCH   5   6
ENDBRANCH   1   5
TORSDOF 3
ENDMDL
MODEL 2
REMARK VINA RESULT:    -3.050      0.108      4.270
REMARK INTER + INTRA:          -3.615
REMARK INTER:                  -3.588
REMARK INTRA:                  -0.027
REMARK UNBOUND:                -0.030
REMARK SMILES O=C([O-])CCC(=O)[O-]
REMARK SMILES IDX 4 1 2 2 1 3 3 4 5 5 6 6 7 7 8 8
REMARK H PARENT
REMARK Flexibility Score: inf
ROOT
ATOM      1  C   UNL     1      37.113  36.717  20.028  1.00  0.00     0.059 C 
ENDROOT
BRANCH   1   2
ATOM      2  C   UNL     1      37.413  35.500  20.844  1.00  0.00     0.042 C 
ATOM      3  O   UNL     1      36.532  35.011  21.599  1.00  0.00    -0.550 OA
ATOM      4  O   UNL     1      38.649  34.876  20.733  1.00  0.00    -0.550 OA
ENDBRANCH   1   2
BRANCH   1   5
ATOM      5  C   UNL     1      37.572  37.979  20.761  1.00  0.00     0.059 C 
BRANCH   5   6
ATOM      6  C   UNL     1      37.023  39.201  20.094  1.00  0.00     0.042 C 
ATOM      7  O   UNL     1      37.755  39.892  19.338  1.00  0.00    -0.550 OA
ATOM      8  O   UNL     1      35.689  39.547  20.267  1.00  0.00    -0.550 OA
ENDBRANCH   5   6
ENDBRANCH   1   5
TORSDOF 3
ENDMDL
MODEL 3
REMARK VINA RESULT:    -3.041      1.501      1.577
REMARK INTER + INTRA:          -3.604
REMARK INTER:                  -3.484
REMARK INTRA:                  -0.120
REMARK UNBOUND:                -0.030
REMARK SMILES O=C([O-])CCC(=O)[O-]
REMARK SMILES IDX 4 1 2 2 1 3 3 4 5 5 6 6 7 7 8 8
REMARK H PARENT
REMARK Flexibility Score: inf
ROOT
ATOM      1  C   UNL     1      37.538  38.246  20.845  1.00  0.00     0.059 C 
ENDROOT
BRANCH   1   2
ATOM      2  C   UNL     1      36.846  39.306  20.049  1.00  0.00     0.042 C 
ATOM      3  O   UNL     1      35.619  39.531  20.223  1.00  0.00    -0.550 OA
ATOM      4  O   UNL     1      37.567  40.081  19.149  1.00  0.00    -0.550 OA
ENDBRANCH   1   2
BRANCH   1   5
ATOM      5  C   UNL     1      37.064  36.858  20.412  1.00  0.00     0.059 C 
BRANCH   5   6
ATOM      6  C   UNL     1      37.990  36.285  19.386  1.00  0.00     0.042 C 
ATOM      7  O   UNL     1      37.615  35.328  18.659  1.00  0.00    -0.550 OA
ATOM      8  O   UNL     1      39.249  36.842  19.198  1.00  0.00    -0.550 OA
ENDBRANCH   5   6
ENDBRANCH   1   5
TORSDOF 3
ENDMDL
MODEL 4
REMARK VINA RESULT:    -2.728      2.387      3.692
REMARK INTER + INTRA:          -3.236
REMARK INTER:                  -3.117
REMARK INTRA:                  -0.119
REMARK UNBOUND:                -0.030
REMARK SMILES O=C([O-])CCC(=O)[O-]
REMARK SMILES IDX 4 1 2 2 1 3 3 4 5 5 6 6 7 7 8 8
REMARK H PARENT
REMARK Flexibility Score: inf
ROOT
ATOM      1  C   UNL     1      38.578  39.011  18.496  1.00  0.00     0.059 C 
ENDROOT
BRANCH   1   2
ATOM      2  C   UNL     1      39.255  37.714  18.187  1.00  0.00     0.042 C 
ATOM      3  O   UNL     1      39.378  37.332  16.993  1.00  0.00    -0.550 OA
ATOM      4  O   UNL     1      39.794  36.949  19.214  1.00  0.00    -0.550 OA
ENDBRANCH   1   2
BRANCH   1   5
ATOM      5  C   UNL     1      38.202  39.078  19.977  1.00  0.00     0.059 C 
BRANCH   5   6
ATOM      6  C   UNL     1      36.809  38.573  20.187  1.00  0.00     0.042 C 
ATOM      7  O   UNL     1      35.831  39.361  20.109  1.00  0.00    -0.550 OA
ATOM      8  O   UNL     1      36.588  37.221  20.418  1.00  0.00    -0.550 OA
ENDBRANCH   5   6
ENDBRANCH   1   5
TORSDOF 3
ENDMDL
MODEL 5
REMARK VINA RESULT:    -2.655      2.541      3.740
REMARK INTER + INTRA:          -3.151
REMARK INTER:                  -3.090
REMARK INTRA:                  -0.061
REMARK UNBOUND:                -0.030
REMARK SMILES O=C([O-])CCC(=O)[O-]
REMARK SMILES IDX 4 1 2 2 1 3 3 4 5 5 6 6 7 7 8 8
REMARK H PARENT
REMARK Flexibility Score: inf
ROOT
ATOM      1  C   UNL     1      38.143  39.119  19.497  1.00  0.00     0.059 C 
ENDROOT
BRANCH   1   2
ATOM      2  C   UNL     1      36.848  38.645  20.074  1.00  0.00     0.042 C 
ATOM      3  O   UNL     1      36.691  37.430  20.366  1.00  0.00    -0.550 OA
ATOM      4  O   UNL     1      35.829  39.552  20.334  1.00  0.00    -0.550 OA
ENDBRANCH   1   2
BRANCH   1   5
ATOM      5  C   UNL     1      38.968  37.935  18.990  1.00  0.00     0.059 C 
BRANCH   5   6
ATOM      6  C   UNL     1      39.339  38.133  17.553  1.00  0.00     0.042 C 
ATOM      7  O   UNL     1      39.650  37.145  16.838  1.00  0.00    -0.550 OA
ATOM      8  O   UNL     1      39.293  39.403  16.993  1.00  0.00    -0.550 OA
ENDBRANCH   5   6
ENDBRANCH   1   5
TORSDOF 3
ENDMDL
MODEL 6
REMARK VINA RESULT:    -2.512      2.261      2.889
REMARK INTER + INTRA:          -2.983
REMARK INTER:                  -2.864
REMARK INTRA:                  -0.119
REMARK UNBOUND:                -0.030
REMARK SMILES O=C([O-])CCC(=O)[O-]
REMARK SMILES IDX 4 1 2 2 1 3 3 4 5 5 6 6 7 7 8 8
REMARK H PARENT
REMARK Flexibility Score: inf
ROOT
ATOM      1  C   UNL     1      39.227  36.876  19.036  1.00  0.00     0.059 C 
ENDROOT
BRANCH   1   2
ATOM      2  C   UNL     1      39.172  37.880  17.929  1.00  0.00     0.042 C 
ATOM      3  O   UNL     1      39.604  37.585  16.784  1.00  0.00    -0.550 OA
ATOM      4  O   UNL     1      38.598  39.126  18.149  1.00  0.00    -0.550 OA
ENDBRANCH   1   2
BRANCH   1   5
ATOM      5  C   UNL     1      37.931  36.064  19.087  1.00  0.00     0.059 C 
BRANCH   5   6
ATOM      6  C   UNL     1      37.155  36.395  20.324  1.00  0.00     0.042 C 
ATOM      7  O   UNL     1      36.739  37.568  20.515  1.00  0.00    -0.550 OA
ATOM      8  O   UNL     1      36.849  35.397  21.239  1.00  0.00    -0.550 OA
ENDBRANCH   5   6
ENDBRANCH   1   5
TORSDOF 3
ENDMDL
MODEL 7
REMARK VINA RESULT:    -2.378     15.515     16.277
REMARK INTER + INTRA:          -2.825
REMARK INTER:                  -2.742
REMARK INTRA:                  -0.084
REMARK UNBOUND:                -0.030
REMARK SMILES O=C([O-])CCC(=O)[O-]
REMARK SMILES IDX 4 1 2 2 1 3 3 4 5 5 6 6 7 7 8 8
REMARK H PARENT
REMARK Flexibility Score: inf
ROOT
ATOM      1  C   UNL     1      20.998  36.948  18.549  1.00  0.00     0.059 C 
ENDROOT
BRANCH   1   2
ATOM      2  C   UNL     1      20.249  36.018  19.448  1.00  0.00     0.042 C 
ATOM      3  O   UNL     1      19.888  34.886  19.029  1.00  0.00    -0.550 OA
ATOM      4  O   UNL     1      19.990  36.380  20.764  1.00  0.00    -0.550 OA
ENDBRANCH   1   2
BRANCH   1   5
ATOM      5  C   UNL     1      21.183  36.322  17.165  1.00  0.00     0.059 C 
BRANCH   5   6
ATOM      6  C   UNL     1      22.582  35.815  17.003  1.00  0.00     0.042 C 
ATOM      7  O   UNL     1      22.991  35.434  15.875  1.00  0.00    -0.550 OA
ATOM      8  O   UNL     1      23.449  35.810  18.088  1.00  0.00    -0.550 OA
ENDBRANCH   5   6
ENDBRANCH   1   5
TORSDOF 3
ENDMDL
MODEL 8
REMARK VINA RESULT:    -2.356     14.168     14.835
REMARK INTER + INTRA:          -2.799
REMARK INTER:                  -2.767
REMARK INTRA:                  -0.033
REMARK UNBOUND:                -0.030
REMARK SMILES O=C([O-])CCC(=O)[O-]
REMARK SMILES IDX 4 1 2 2 1 3 3 4 5 5 6 6 7 7 8 8
REMARK H PARENT
REMARK Flexibility Score: inf
ROOT
ATOM      1  C   UNL     1      22.482  36.406  17.464  1.00  0.00     0.059 C 
ENDROOT
BRANCH   1   2
ATOM      2  C   UNL     1      21.083  36.738  17.875  1.00  0.00     0.042 C 
ATOM      3  O   UNL     1      20.245  37.124  17.017  1.00  0.00    -0.550 OA
ATOM      4  O   UNL     1      20.689  36.576  19.197  1.00  0.00    -0.550 OA
ENDBRANCH   1   2
BRANCH   1   5
ATOM      5  C   UNL     1      23.083  35.363  18.408  1.00  0.00     0.059 C 
BRANCH   5   6
ATOM      6  C   UNL     1      24.557  35.239  18.180  1.00  0.00     0.042 C 
ATOM      7  O   UNL     1      24.995  34.875  17.058  1.00  0.00    -0.550 OA
ATOM      8  O   UNL     1      25.447  35.575  19.192  1.00  0.00    -0.550 OA
ENDBRANCH   5   6
ENDBRANCH   1   5
TORSDOF 3
ENDMDL
