MODEL 1
REMARK VINA RESULT:    -4.546      0.000      0.000
REMARK INTER + INTRA:          -5.564
REMARK INTER:                  -5.476
REMARK INTRA:                  -0.089
REMARK UNBOUND:                -0.089
REMARK SMILES CC[C@H](C)[C@H]([NH3+])C(=O)[O-]
REMARK SMILES IDX 3 1 4 2 5 3 6 4 7 8 8 9 9 10 2 11 1 12
REMARK H PARENT 6 5 6 6 6 7
REMARK Flexibility Score: inf
ROOT
ATOM      1  C   UNL     1      37.758  -6.763   4.532  1.00  0.00     0.050 C 
ATOM      2  C   UNL     1      38.347  -6.228   5.850  1.00  0.00     0.014 C 
ENDROOT
BRANCH   1   3
ATOM      3  C   UNL     1      36.217  -7.012   4.614  1.00  0.00     0.230 C 
BRANCH   3   4
ATOM      4  N   UNL     1      35.827  -8.264   3.948  1.00  0.00    -0.350 N 
ATOM      5  H   UNL     1      34.784  -8.345   3.941  1.00  0.00     0.345 HD
ATOM      6  H   UNL     1      36.212  -9.084   4.471  1.00  0.00     0.345 HD
ATOM      7  H   UNL     1      36.165  -8.296   2.960  1.00  0.00     0.345 HD
ENDBRANCH   3   4
BRANCH   3   8
ATOM      8  C   UNL     1      35.408  -5.853   4.078  1.00  0.00     0.099 C 
ATOM      9  O   UNL     1      35.887  -5.116   3.177  1.00  0.00    -0.544 OA
ATOM     10  O   UNL     1      34.126  -5.603   4.553  1.00  0.00    -0.544 OA
ENDBRANCH   3   8
ENDBRANCH   1   3
BRANCH   1  11
ATOM     11  C   UNL     1      38.551  -8.017   4.084  1.00  0.00     0.006 C 
ATOM     12  C   UNL     1      39.123  -8.822   5.252  1.00  0.00     0.004 C 
ENDBRANCH   1  11
TORSDOF 4
ENDMDL
MODEL 2
REMARK VINA RESULT:    -4.417      3.090      3.950
REMARK INTER + INTRA:          -5.409
REMARK INTER:                  -5.343
REMARK INTRA:                  -0.067
REMARK UNBOUND:                -0.089
REMARK SMILES CC[C@H](C)[C@H]([NH3+])C(=O)[O-]
REMARK SMILES IDX 3 1 4 2 5 3 6 4 7 8 8 9 9 10 2 11 1 12
REMARK H PARENT 6 5 6 6 6 7
REMARK Flexibility Score: inf
ROOT
ATOM      1  C   UNL     1      37.271  -7.951   4.919  1.00  0.00     0.050 C 
ATOM      2  C   UNL     1      38.334  -8.180   3.829  1.00  0.00     0.014 C 
ENDROOT
BRANCH   1   3
ATOM      3  C   UNL     1      37.041  -9.210   5.817  1.00  0.00     0.230 C 
BRANCH   3   4
ATOM      4  N   UNL     1      35.716  -9.808   5.593  1.00  0.00    -0.350 N 
ATOM      5  H   UNL     1      35.767 -10.474   4.788  1.00  0.00     0.345 HD
ATOM      6  H   UNL     1      35.022  -9.064   5.354  1.00  0.00     0.345 HD
ATOM      7  H   UNL     1      35.384 -10.334   6.433  1.00  0.00     0.345 HD
ENDBRANCH   3   4
BRANCH   3   8
ATOM      8  C   UNL     1      37.254  -8.926   7.285  1.00  0.00     0.099 C 
ATOM      9  O   UNL     1      38.338  -9.245   7.838  1.00  0.00    -0.544 OA
ATOM     10  O   UNL     1      36.269  -8.291   8.034  1.00  0.00    -0.544 OA
ENDBRANCH   3   8
ENDBRANCH   1   3
BRANCH   1  11
ATOM     11  C   UNL     1      35.967  -7.428   4.264  1.00  0.00     0.006 C 
ATOM     12  C   UNL     1      36.006  -5.932   3.944  1.00  0.00     0.004 C 
ENDBRANCH   1  11
TORSDOF 4
ENDMDL
MODEL 3
REMARK VINA RESULT:    -4.370      1.439      2.060
REMARK INTER + INTRA:          -5.353
REMARK INTER:                  -5.307
REMARK INTRA:                  -0.047
REMARK UNBOUND:                -0.089
REMARK SMILES CC[C@H](C)[C@H]([NH3+])C(=O)[O-]
REMARK SMILES IDX 3 1 4 2 5 3 6 4 7 8 8 9 9 10 2 11 1 12
REMARK H PARENT 6 5 6 6 6 7
REMARK Flexibility Score: inf
ROOT
ATOM      1  C   UNL     1      36.492  -8.047   4.357  1.00  0.00     0.050 C 
ATOM      2  C   UNL     1      37.964  -7.782   3.991  1.00  0.00     0.014 C 
ENDROOT
BRANCH   1   3
ATOM      3  C   UNL     1      35.850  -6.878   5.173  1.00  0.00     0.230 C 
BRANCH   3   4
ATOM      4  N   UNL     1      34.930  -7.372   6.209  1.00  0.00    -0.350 N 
ATOM      5  H   UNL     1      33.998  -7.575   5.778  1.00  0.00     0.345 HD
ATOM      6  H   UNL     1      34.794  -6.642   6.945  1.00  0.00     0.345 HD
ATOM      7  H   UNL     1      35.284  -8.249   6.653  1.00  0.00     0.345 HD
ENDBRANCH   3   4
BRANCH   3   8
ATOM      8  C   UNL     1      35.160  -5.862   4.292  1.00  0.00     0.099 C 
ATOM      9  O   UNL     1      33.957  -5.559   4.504  1.00  0.00    -0.544 OA
ATOM     10  O   UNL     1      35.848  -5.235   3.260  1.00  0.00    -0.544 OA
ENDBRANCH   3   8
ENDBRANCH   1   3
BRANCH   1  11
ATOM     11  C   UNL     1      36.378  -9.418   5.072  1.00  0.00     0.006 C 
ATOM     12  C   UNL     1      37.647  -9.817   5.826  1.00  0.00     0.004 C 
ENDBRANCH   1  11
TORSDOF 4
ENDMDL
MODEL 4
REMARK VINA RESULT:    -4.312      3.429      3.928
REMARK INTER + INTRA:          -5.283
REMARK INTER:                  -5.182
REMARK INTRA:                  -0.101
REMARK UNBOUND:                -0.089
REMARK SMILES CC[C@H](C)[C@H]([NH3+])C(=O)[O-]
REMARK SMILES IDX 3 1 4 2 5 3 6 4 7 8 8 9 9 10 2 11 1 12
REMARK H PARENT 6 5 6 6 6 7
REMARK Flexibility Score: inf
ROOT
ATOM      1  C   UNL     1      36.226  -8.937   5.351  1.00  0.00     0.050 C 
ATOM      2  C   UNL     1      35.741  -7.616   4.726  1.00  0.00     0.014 C 
ENDROOT
BRANCH   1   3
ATOM      3  C   UNL     1      36.176  -8.922   6.914  1.00  0.00     0.230 C 
BRANCH   3   4
ATOM      4  N   UNL     1      35.018  -8.170   7.419  1.00  0.00    -0.350 N 
ATOM      5  H   UNL     1      35.331  -7.226   7.743  1.00  0.00     0.345 HD
ATOM      6  H   UNL     1      34.594  -8.668   8.235  1.00  0.00     0.345 HD
ATOM      7  H   UNL     1      34.291  -8.038   6.680  1.00  0.00     0.345 HD
ENDBRANCH   3   4
BRANCH   3   8
ATOM      8  C   UNL     1      37.454  -8.407   7.534  1.00  0.00     0.099 C 
ATOM      9  O   UNL     1      37.682  -7.170   7.568  1.00  0.00    -0.544 OA
ATOM     10  O   UNL     1      38.376  -9.285   8.091  1.00  0.00    -0.544 OA
ENDBRANCH   3   8
ENDBRANCH   1   3
BRANCH   1  11
ATOM     11  C   UNL     1      37.629  -9.286   4.793  1.00  0.00     0.006 C 
ATOM     12  C   UNL     1      38.220  -8.188   3.907  1.00  0.00     0.004 C 
ENDBRANCH   1  11
TORSDOF 4
ENDMDL
MODEL 5
REMARK VINA RESULT:    -4.268      2.777      3.366
REMARK INTER + INTRA:          -5.231
REMARK INTER:                  -5.109
REMARK INTRA:                  -0.121
REMARK UNBOUND:                -0.089
REMARK SMILES CC[C@H](C)[C@H]([NH3+])C(=O)[O-]
REMARK SMILES IDX 3 1 4 2 5 3 6 4 7 8 8 9 9 10 2 11 1 12
REMARK H PARENT 6 5 6 6 6 7
REMARK Flexibility Score: inf
ROOT
ATOM      1  C   UNL     1      36.296  -7.033   4.428  1.00  0.00     0.050 C 
ATOM      2  C   UNL     1      35.681  -5.737   3.868  1.00  0.00     0.014 C 
ENDROOT
BRANCH   1   3
ATOM      3  C   UNL     1      35.736  -7.412   5.837  1.00  0.00     0.230 C 
BRANCH   3   4
ATOM      4  N   UNL     1      36.068  -6.398   6.850  1.00  0.00    -0.350 N 
ATOM      5  H   UNL     1      35.304  -5.685   6.892  1.00  0.00     0.345 HD
ATOM      6  H   UNL     1      36.954  -5.908   6.589  1.00  0.00     0.345 HD
ATOM      7  H   UNL     1      36.174  -6.822   7.799  1.00  0.00     0.345 HD
ENDBRANCH   3   4
BRANCH   3   8
ATOM      8  C   UNL     1      36.180  -8.782   6.293  1.00  0.00     0.099 C 
ATOM      9  O   UNL     1      35.874  -9.799   5.618  1.00  0.00    -0.544 OA
ATOM     10  O   UNL     1      36.947  -8.933   7.442  1.00  0.00    -0.544 OA
ENDBRANCH   3   8
ENDBRANCH   1   3
BRANCH   1  11
ATOM     11  C   UNL     1      37.842  -6.921   4.401  1.00  0.00     0.006 C 
ATOM     12  C   UNL     1      38.521  -8.072   3.656  1.00  0.00     0.004 C 
ENDBRANCH   1  11
TORSDOF 4
ENDMDL
MODEL 6
REMARK VINA RESULT:    -4.261      1.998      2.321
REMARK INTER + INTRA:          -5.221
REMARK INTER:                  -5.229
REMARK INTRA:                   0.008
REMARK UNBOUND:                -0.089
REMARK SMILES CC[C@H](C)[C@H]([NH3+])C(=O)[O-]
REMARK SMILES IDX 3 1 4 2 5 3 6 4 7 8 8 9 9 10 2 11 1 12
REMARK H PARENT 6 5 6 6 6 7
REMARK Flexibility Score: inf
ROOT
ATOM      1  C   UNL     1      36.883  -7.741   4.145  1.00  0.00     0.050 C 
ATOM      2  C   UNL     1      36.491  -6.261   3.986  1.00  0.00     0.014 C 
ENDROOT
BRANCH   1   3
ATOM      3  C   UNL     1      36.398  -8.354   5.499  1.00  0.00     0.230 C 
BRANCH   3   4
ATOM      4  N   UNL     1      35.389  -9.404   5.296  1.00  0.00    -0.350 N 
ATOM      5  H   UNL     1      35.344  -9.651   4.280  1.00  0.00     0.345 HD
ATOM      6  H   UNL     1      34.446  -9.056   5.586  1.00  0.00     0.345 HD
ATOM      7  H   UNL     1      35.618 -10.269   5.835  1.00  0.00     0.345 HD
ENDBRANCH   3   4
BRANCH   3   8
ATOM      8  C   UNL     1      35.889  -7.309   6.464  1.00  0.00     0.099 C 
ATOM      9  O   UNL     1      36.687  -6.740   7.254  1.00  0.00    -0.544 OA
ATOM     10  O   UNL     1      34.547  -6.947   6.474  1.00  0.00    -0.544 OA
ENDBRANCH   3   8
ENDBRANCH   1   3
BRANCH   1  11
ATOM     11  C   UNL     1      38.408  -7.897   3.921  1.00  0.00     0.006 C 
ATOM     12  C   UNL     1      39.125  -8.590   5.081  1.00  0.00     0.004 C 
ENDBRANCH   1  11
TORSDOF 4
ENDMDL
MODEL 7
REMARK VINA RESULT:    -4.253     22.881     23.893
REMARK INTER + INTRA:          -5.212
REMARK INTER:                  -5.267
REMARK INTRA:                   0.055
REMARK UNBOUND:                -0.089
REMARK SMILES CC[C@H](C)[C@H]([NH3+])C(=O)[O-]
REMARK SMILES IDX 3 1 4 2 5 3 6 4 7 8 8 9 9 10 2 11 1 12
REMARK H PARENT 6 5 6 6 6 7
REMARK Flexibility Score: inf
ROOT
ATOM      1  C   UNL     1      22.928   1.343  21.058  1.00  0.00     0.050 C 
ATOM      2  C   UNL     1      23.305   1.911  22.439  1.00  0.00     0.014 C 
ENDROOT
BRANCH   1   3
ATOM      3  C   UNL     1      21.488   0.737  21.025  1.00  0.00     0.230 C 
BRANCH   3   4
ATOM      4  N   UNL     1      20.604   1.473  20.109  1.00  0.00    -0.350 N 
ATOM      5  H   UNL     1      19.650   1.042  20.124  1.00  0.00     0.345 HD
ATOM      6  H   UNL     1      20.970   1.413  19.131  1.00  0.00     0.345 HD
ATOM      7  H   UNL     1      20.514   2.477  20.383  1.00  0.00     0.345 HD
ENDBRANCH   3   4
BRANCH   3   8
ATOM      8  C   UNL     1      20.864   0.638  22.398  1.00  0.00     0.099 C 
ATOM      9  O   UNL     1      21.098  -0.362  23.125  1.00  0.00    -0.544 OA
ATOM     10  O   UNL     1      20.049   1.656  22.881  1.00  0.00    -0.544 OA
ENDBRANCH   3   8
ENDBRANCH   1   3
BRANCH   1  11
ATOM     11  C   UNL     1      24.018   0.342  20.598  1.00  0.00     0.006 C 
ATOM     12  C   UNL     1      23.638  -0.430  19.333  1.00  0.00     0.004 C 
ENDBRANCH   1  11
TORSDOF 4
ENDMDL
MODEL 8
REMARK VINA RESULT:    -4.212      2.188      2.793
REMARK INTER + INTRA:          -5.163
REMARK INTER:                  -5.016
REMARK INTRA:                  -0.146
REMARK UNBOUND:                -0.089
REMARK SMILES CC[C@H](C)[C@H]([NH3+])C(=O)[O-]
REMARK SMILES IDX 3 1 4 2 5 3 6 4 7 8 8 9 9 10 2 11 1 12
REMARK H PARENT 6 5 6 6 6 7
REMARK Flexibility Score: inf
ROOT
ATOM      1  C   UNL     1      37.651  -8.487   6.493  1.00  0.00     0.050 C 
ATOM      2  C   UNL     1      38.537  -8.965   7.657  1.00  0.00     0.014 C 
ENDROOT
BRANCH   1   3
ATOM      3  C   UNL     1      36.124  -8.651   6.787  1.00  0.00     0.230 C 
BRANCH   3   4
ATOM      4  N   UNL     1      35.563  -9.840   6.125  1.00  0.00    -0.350 N 
ATOM      5  H   UNL     1      34.523  -9.839   6.233  1.00  0.00     0.345 HD
ATOM      6  H   UNL     1      35.934 -10.708   6.575  1.00  0.00     0.345 HD
ATOM      7  H   UNL     1      35.788  -9.855   5.105  1.00  0.00     0.345 HD
ENDBRANCH   3   4
BRANCH   3   8
ATOM      8  C   UNL     1      35.325  -7.420   6.429  1.00  0.00     0.099 C 
ATOM      9  O   UNL     1      34.733  -6.770   7.330  1.00  0.00    -0.544 OA
ATOM     10  O   UNL     1      35.254  -6.978   5.113  1.00  0.00    -0.544 OA
ENDBRANCH   3   8
ENDBRANCH   1   3
BRANCH   1  11
ATOM     11  C   UNL     1      38.095  -9.189   5.185  1.00  0.00     0.006 C 
ATOM     12  C   UNL     1      38.431  -8.214   4.056  1.00  0.00     0.004 C 
ENDBRANCH   1  11
TORSDOF 4
ENDMDL
MODEL 9
REMARK VINA RESULT:    -4.210      3.046      3.748
REMARK INTER + INTRA:          -5.161
REMARK INTER:                  -5.038
REMARK INTRA:                  -0.123
REMARK UNBOUND:                -0.089
REMARK SMILES CC[C@H](C)[C@H]([NH3+])C(=O)[O-]
REMARK SMILES IDX 3 1 4 2 5 3 6 4 7 8 8 9 9 10 2 11 1 12
REMARK H PARENT 6 5 6 6 6 7
REMARK Flexibility Score: inf
ROOT
ATOM      1  C   UNL     1      37.331  -9.381   5.483  1.00  0.00     0.050 C 
ATOM      2  C   UNL     1      35.880  -9.739   5.852  1.00  0.00     0.014 C 
ENDROOT
BRANCH   1   3
ATOM      3  C   UNL     1      38.057  -8.562   6.600  1.00  0.00     0.230 C 
BRANCH   3   4
ATOM      4  N   UNL     1      38.651  -9.436   7.623  1.00  0.00    -0.350 N 
ATOM      5  H   UNL     1      37.913  -9.722   8.307  1.00  0.00     0.345 HD
ATOM      6  H   UNL     1      39.395  -8.921   8.146  1.00  0.00     0.345 HD
ATOM      7  H   UNL     1      39.059 -10.300   7.201  1.00  0.00     0.345 HD
ENDBRANCH   3   4
BRANCH   3   8
ATOM      8  C   UNL     1      37.160  -7.529   7.241  1.00  0.00     0.099 C 
ATOM      9  O   UNL     1      36.733  -7.706   8.412  1.00  0.00    -0.544 OA
ATOM     10  O   UNL     1      36.818  -6.366   6.560  1.00  0.00    -0.544 OA
ENDBRANCH   3   8
ENDBRANCH   1   3
BRANCH   1  11
ATOM     11  C   UNL     1      37.352  -8.674   4.104  1.00  0.00     0.006 C 
ATOM     12  C   UNL     1      38.667  -7.949   3.812  1.00  0.00     0.004 C 
ENDBRANCH   1  11
TORSDOF 4
ENDMDL
