MODEL 1
REMARK VINA RESULT:    -3.387      0.000      0.000
REMARK INTER + INTRA:          -5.007
REMARK INTER:                  -4.575
REMARK INTRA:                  -0.432
REMARK UNBOUND:                -0.432
REMARK SMILES CCCCCCCC(=O)[O-]
REMARK SMILES IDX 5 1 6 2 7 3 8 4 9 5 10 6 4 7 3 8 2 9 1 10
REMARK H PARENT
REMARK Flexibility Score: inf
ROOT
ATOM      1  C   UNL     1      39.955  12.175  12.532  1.00  0.00     0.000 C 
ENDROOT
BRANCH   1   2
ATOM      2  C   UNL     1      41.091  11.835  13.508  1.00  0.00     0.006 C 
BRANCH   2   3
ATOM      3  C   UNL     1      40.644  11.884  14.976  1.00  0.00     0.053 C 
BRANCH   3   4
ATOM      4  C   UNL     1      41.382  12.958  15.710  1.00  0.00     0.041 C 
ATOM      5  O   UNL     1      42.374  12.668  16.428  1.00  0.00    -0.550 OA
ATOM      6  O   UNL     1      40.943  14.275  15.641  1.00  0.00    -0.550 OA
ENDBRANCH   3   4
ENDBRANCH   2   3
ENDBRANCH   1   2
BRANCH   1   7
ATOM      7  C   UNL     1      39.771  11.110  11.440  1.00  0.00     0.000 C 
BRANCH   7   8
ATOM      8  C   UNL     1      40.811   9.990  11.586  1.00  0.00    -0.000 C 
BRANCH   8   9
ATOM      9  C   UNL     1      40.175   8.591  11.625  1.00  0.00    -0.003 C 
ATOM     10  C   UNL     1      39.375   8.341  12.904  1.00  0.00     0.004 C 
ENDBRANCH   8   9
ENDBRANCH   7   8
ENDBRANCH   1   7
TORSDOF 6
ENDMDL
MODEL 2
REMARK VINA RESULT:    -3.376      0.987      1.637
REMARK INTER + INTRA:          -4.993
REMARK INTER:                  -4.565
REMARK INTRA:                  -0.428
REMARK UNBOUND:                -0.432
REMARK SMILES CCCCCCCC(=O)[O-]
REMARK SMILES IDX 5 1 6 2 7 3 8 4 9 5 10 6 4 7 3 8 2 9 1 10
REMARK H PARENT
REMARK Flexibility Score: inf
ROOT
ATOM      1  C   UNL     1      39.808  11.255  11.634  1.00  0.00     0.000 C 
ENDROOT
BRANCH   1   2
ATOM      2  C   UNL     1      40.143  12.286  12.723  1.00  0.00     0.006 C 
BRANCH   2   3
ATOM      3  C   UNL     1      41.443  11.955  13.469  1.00  0.00     0.053 C 
BRANCH   3   4
ATOM      4  C   UNL     1      41.221  11.995  14.948  1.00  0.00     0.041 C 
ATOM      5  O   UNL     1      40.058  11.879  15.417  1.00  0.00    -0.550 OA
ATOM      6  O   UNL     1      42.292  12.212  15.807  1.00  0.00    -0.550 OA
ENDBRANCH   3   4
ENDBRANCH   2   3
ENDBRANCH   1   2
BRANCH   1   7
ATOM      7  C   UNL     1      40.948  10.254  11.394  1.00  0.00     0.000 C 
BRANCH   7   8
ATOM      8  C   UNL     1      40.457   8.810  11.576  1.00  0.00    -0.000 C 
BRANCH   8   9
ATOM      9  C   UNL     1      38.994   8.735  12.038  1.00  0.00    -0.003 C 
ATOM     10  C   UNL     1      38.855   8.266  13.487  1.00  0.00     0.004 C 
ENDBRANCH   8   9
ENDBRANCH   7   8
ENDBRANCH   1   7
TORSDOF 6
ENDMDL
MODEL 3
REMARK VINA RESULT:    -3.271      0.986      1.847
REMARK INTER + INTRA:          -4.850
REMARK INTER:                  -4.571
REMARK INTRA:                  -0.279
REMARK UNBOUND:                -0.432
REMARK SMILES CCCCCCCC(=O)[O-]
REMARK SMILES IDX 5 1 6 2 7 3 8 4 9 5 10 6 4 7 3 8 2 9 1 10
REMARK H PARENT
REMARK Flexibility Score: inf
ROOT
ATOM      1  C   UNL     1      41.010  12.244  13.358  1.00  0.00     0.000 C 
ENDROOT
BRANCH   1   2
ATOM      2  C   UNL     1      40.774  12.140  14.872  1.00  0.00     0.006 C 
BRANCH   2   3
ATOM      3  C   UNL     1      42.082  12.027  15.667  1.00  0.00     0.053 C 
BRANCH   3   4
ATOM      4  C   UNL     1      41.964  12.751  16.971  1.00  0.00     0.041 C 
ATOM      5  O   UNL     1      41.118  13.673  17.110  1.00  0.00    -0.550 OA
ATOM      6  O   UNL     1      42.822  12.440  18.019  1.00  0.00    -0.550 OA
ENDBRANCH   3   4
ENDBRANCH   2   3
ENDBRANCH   1   2
BRANCH   1   7
ATOM      7  C   UNL     1      39.704  12.211  12.550  1.00  0.00     0.000 C 
BRANCH   7   8
ATOM      8  C   UNL     1      39.746  11.104  11.485  1.00  0.00    -0.000 C 
BRANCH   8   9
ATOM      9  C   UNL     1      40.859  10.077  11.742  1.00  0.00    -0.003 C 
ATOM     10  C   UNL     1      40.361   8.633  11.665  1.00  0.00     0.004 C 
ENDBRANCH   8   9
ENDBRANCH   7   8
ENDBRANCH   1   7
TORSDOF 6
ENDMDL
MODEL 4
REMARK VINA RESULT:    -3.234      1.058      1.683
REMARK INTER + INTRA:          -4.801
REMARK INTER:                  -4.461
REMARK INTRA:                  -0.340
REMARK UNBOUND:                -0.432
REMARK SMILES CCCCCCCC(=O)[O-]
REMARK SMILES IDX 5 1 6 2 7 3 8 4 9 5 10 6 4 7 3 8 2 9 1 10
REMARK H PARENT
REMARK Flexibility Score: inf
ROOT
ATOM      1  C   UNL     1      41.279  11.981  13.497  1.00  0.00     0.000 C 
ENDROOT
BRANCH   1   2
ATOM      2  C   UNL     1      40.961  11.764  14.984  1.00  0.00     0.006 C 
BRANCH   2   3
ATOM      3  C   UNL     1      41.721  12.735  15.899  1.00  0.00     0.053 C 
BRANCH   3   4
ATOM      4  C   UNL     1      40.895  13.953  16.167  1.00  0.00     0.041 C 
ATOM      5  O   UNL     1      40.181  14.019  17.203  1.00  0.00    -0.550 OA
ATOM      6  O   UNL     1      40.874  14.995  15.249  1.00  0.00    -0.550 OA
ENDBRANCH   3   4
ENDBRANCH   2   3
ENDBRANCH   1   2
BRANCH   1   7
ATOM      7  C   UNL     1      40.030  12.308  12.665  1.00  0.00     0.000 C 
BRANCH   7   8
ATOM      8  C   UNL     1      39.771  11.218  11.613  1.00  0.00    -0.000 C 
BRANCH   8   9
ATOM      9  C   UNL     1      40.894  10.171  11.557  1.00  0.00    -0.003 C 
ATOM     10  C   UNL     1      40.370   8.737  11.650  1.00  0.00     0.004 C 
ENDBRANCH   8   9
ENDBRANCH   7   8
ENDBRANCH   1   7
TORSDOF 6
ENDMDL
MODEL 5
REMARK VINA RESULT:    -3.158      2.909      4.670
REMARK INTER + INTRA:          -4.698
REMARK INTER:                  -4.360
REMARK INTRA:                  -0.339
REMARK UNBOUND:                -0.432
REMARK SMILES CCCCCCCC(=O)[O-]
REMARK SMILES IDX 5 1 6 2 7 3 8 4 9 5 10 6 4 7 3 8 2 9 1 10
REMARK H PARENT
REMARK Flexibility Score: inf
ROOT
ATOM      1  C   UNL     1      39.022  12.409  13.546  1.00  0.00     0.000 C 
ENDROOT
BRANCH   1   2
ATOM      2  C   UNL     1      39.808  12.096  12.264  1.00  0.00     0.006 C 
BRANCH   2   3
ATOM      3  C   UNL     1      39.385  10.768  11.621  1.00  0.00     0.053 C 
BRANCH   3   4
ATOM      4  C   UNL     1      40.523   9.797  11.631  1.00  0.00     0.041 C 
ATOM      5  O   UNL     1      41.711  10.214  11.621  1.00  0.00    -0.550 OA
ATOM      6  O   UNL     1      40.272   8.431  11.600  1.00  0.00    -0.550 OA
ENDBRANCH   3   4
ENDBRANCH   2   3
ENDBRANCH   1   2
BRANCH   1   7
ATOM      7  C   UNL     1      39.797  12.046  14.821  1.00  0.00     0.000 C 
BRANCH   7   8
ATOM      8  C   UNL     1      41.311  12.076  14.570  1.00  0.00    -0.000 C 
BRANCH   8   9
ATOM      9  C   UNL     1      42.126  12.168  15.869  1.00  0.00    -0.003 C 
ATOM     10  C   UNL     1      41.515  11.354  17.010  1.00  0.00     0.004 C 
ENDBRANCH   8   9
ENDBRANCH   7   8
ENDBRANCH   1   7
TORSDOF 6
ENDMDL
MODEL 6
REMARK VINA RESULT:    -3.099      2.196      2.797
REMARK INTER + INTRA:          -4.619
REMARK INTER:                  -4.071
REMARK INTRA:                  -0.547
REMARK UNBOUND:                -0.432
REMARK SMILES CCCCCCCC(=O)[O-]
REMARK SMILES IDX 5 1 6 2 7 3 8 4 9 5 10 6 4 7 3 8 2 9 1 10
REMARK H PARENT
REMARK Flexibility Score: inf
ROOT
ATOM      1  C   UNL     1      41.351  11.942  13.523  1.00  0.00     0.000 C 
ENDROOT
BRANCH   1   2
ATOM      2  C   UNL     1      41.047  11.932  15.029  1.00  0.00     0.006 C 
BRANCH   2   3
ATOM      3  C   UNL     1      39.563  11.676  15.330  1.00  0.00     0.053 C 
BRANCH   3   4
ATOM      4  C   UNL     1      39.344  10.239  15.683  1.00  0.00     0.041 C 
ATOM      5  O   UNL     1      38.982   9.417  14.801  1.00  0.00    -0.550 OA
ATOM      6  O   UNL     1      39.490   9.816  16.999  1.00  0.00    -0.550 OA
ENDBRANCH   3   4
ENDBRANCH   2   3
ENDBRANCH   1   2
BRANCH   1   7
ATOM      7  C   UNL     1      40.131  12.327  12.674  1.00  0.00     0.000 C 
BRANCH   7   8
ATOM      8  C   UNL     1      39.820  11.238  11.636  1.00  0.00    -0.000 C 
BRANCH   8   9
ATOM      9  C   UNL     1      40.922  10.171  11.549  1.00  0.00    -0.003 C 
ATOM     10  C   UNL     1      40.375   8.746  11.650  1.00  0.00     0.004 C 
ENDBRANCH   8   9
ENDBRANCH   7   8
ENDBRANCH   1   7
TORSDOF 6
ENDMDL
MODEL 7
REMARK VINA RESULT:    -3.026      2.046      2.982
REMARK INTER + INTRA:          -4.519
REMARK INTER:                  -4.270
REMARK INTRA:                  -0.249
REMARK UNBOUND:                -0.432
REMARK SMILES CCCCCCCC(=O)[O-]
REMARK SMILES IDX 5 1 6 2 7 3 8 4 9 5 10 6 4 7 3 8 2 9 1 10
REMARK H PARENT
REMARK Flexibility Score: inf
ROOT
ATOM      1  C   UNL     1      40.894  12.106  14.827  1.00  0.00     0.000 C 
ENDROOT
BRANCH   1   2
ATOM      2  C   UNL     1      40.552  13.342  15.672  1.00  0.00     0.006 C 
BRANCH   2   3
ATOM      3  C   UNL     1      40.883  14.659  14.955  1.00  0.00     0.053 C 
BRANCH   3   4
ATOM      4  C   UNL     1      40.101  15.787  15.549  1.00  0.00     0.041 C 
ATOM      5  O   UNL     1      38.843  15.770  15.522  1.00  0.00    -0.550 OA
ATOM      6  O   UNL     1      40.763  16.883  16.089  1.00  0.00    -0.550 OA
ENDBRANCH   3   4
ENDBRANCH   2   3
ENDBRANCH   1   2
BRANCH   1   7
ATOM      7  C   UNL     1      40.953  12.414  13.323  1.00  0.00     0.000 C 
BRANCH   7   8
ATOM      8  C   UNL     1      39.641  12.018  12.630  1.00  0.00    -0.000 C 
BRANCH   8   9
ATOM      9  C   UNL     1      39.852  11.012  11.489  1.00  0.00    -0.003 C 
ATOM     10  C   UNL     1      41.204  10.301  11.570  1.00  0.00     0.004 C 
ENDBRANCH   8   9
ENDBRANCH   7   8
ENDBRANCH   1   7
TORSDOF 6
ENDMDL
MODEL 8
REMARK VINA RESULT:    -2.985      3.022      5.269
REMARK INTER + INTRA:          -4.465
REMARK INTER:                  -4.186
REMARK INTRA:                  -0.279
REMARK UNBOUND:                -0.432
REMARK SMILES CCCCCCCC(=O)[O-]
REMARK SMILES IDX 5 1 6 2 7 3 8 4 9 5 10 6 4 7 3 8 2 9 1 10
REMARK H PARENT
REMARK Flexibility Score: inf
ROOT
ATOM      1  C   UNL     1      39.662  11.663  13.871  1.00  0.00     0.000 C 
ENDROOT
BRANCH   1   2
ATOM      2  C   UNL     1      39.762  12.015  12.379  1.00  0.00     0.006 C 
BRANCH   2   3
ATOM      3  C   UNL     1      39.545  10.799  11.469  1.00  0.00     0.053 C 
BRANCH   3   4
ATOM      4  C   UNL     1      40.662   9.817  11.635  1.00  0.00     0.041 C 
ATOM      5  O   UNL     1      41.856  10.215  11.659  1.00  0.00    -0.550 OA
ATOM      6  O   UNL     1      40.386   8.458  11.713  1.00  0.00    -0.550 OA
ENDBRANCH   3   4
ENDBRANCH   2   3
ENDBRANCH   1   2
BRANCH   1   7
ATOM      7  C   UNL     1      40.870  12.159  14.680  1.00  0.00     0.000 C 
BRANCH   7   8
ATOM      8  C   UNL     1      40.511  13.413  15.490  1.00  0.00    -0.000 C 
BRANCH   8   9
ATOM      9  C   UNL     1      40.852  14.715  14.749  1.00  0.00    -0.003 C 
ATOM     10  C   UNL     1      40.190  15.943  15.375  1.00  0.00     0.004 C 
ENDBRANCH   8   9
ENDBRANCH   7   8
ENDBRANCH   1   7
TORSDOF 6
ENDMDL
MODEL 9
REMARK VINA RESULT:    -2.838      3.252      4.500
REMARK INTER + INTRA:          -4.265
REMARK INTER:                  -3.708
REMARK INTRA:                  -0.557
REMARK UNBOUND:                -0.432
REMARK SMILES CCCCCCCC(=O)[O-]
REMARK SMILES IDX 5 1 6 2 7 3 8 4 9 5 10 6 4 7 3 8 2 9 1 10
REMARK H PARENT
REMARK Flexibility Score: inf
ROOT
ATOM      1  C   UNL     1      40.724  12.764  13.338  1.00  0.00     0.000 C 
ENDROOT
BRANCH   1   2
ATOM      2  C   UNL     1      39.925  11.944  12.314  1.00  0.00     0.006 C 
BRANCH   2   3
ATOM      3  C   UNL     1      40.702  10.724  11.799  1.00  0.00     0.053 C 
BRANCH   3   4
ATOM      4  C   UNL     1      39.792   9.545  11.665  1.00  0.00     0.041 C 
ATOM      5  O   UNL     1      38.580   9.710  11.366  1.00  0.00    -0.550 OA
ATOM      6  O   UNL     1      40.270   8.265  11.918  1.00  0.00    -0.550 OA
ENDBRANCH   3   4
ENDBRANCH   2   3
ENDBRANCH   1   2
BRANCH   1   7
ATOM      7  C   UNL     1      40.826  12.070  14.705  1.00  0.00     0.000 C 
BRANCH   7   8
ATOM      8  C   UNL     1      39.433  11.709  15.242  1.00  0.00    -0.000 C 
BRANCH   8   9
ATOM      9  C   UNL     1      39.276  10.206  15.521  1.00  0.00    -0.003 C 
ATOM     10  C   UNL     1      38.012   9.617  14.894  1.00  0.00     0.004 C 
ENDBRANCH   8   9
ENDBRANCH   7   8
ENDBRANCH   1   7
TORSDOF 6
ENDMDL
