MODEL 1
REMARK VINA RESULT:    -4.904      0.000      0.000
REMARK INTER + INTRA:          -5.286
REMARK INTER:                  -5.190
REMARK INTRA:                  -0.096
REMARK UNBOUND:                -0.096
REMARK SMILES C=C(C)[C@@H]1CC=C(C)C(=O)C1
REMARK SMILES IDX 8 1 7 2 6 3 5 4 4 5 11 6 9 7 10 8 2 9 1 10 3 11
REMARK H PARENT
REMARK Flexibility Score: inf
ROOT
ATOM      1  C   UNL     1       4.720 -27.580  22.645  1.00  0.00     0.048 C 
ATOM      2  C   UNL     1       3.568 -26.656  22.928  1.00  0.00    -0.012 C 
ATOM      3  C   UNL     1       2.350 -27.166  23.183  1.00  0.00    -0.019 C 
ATOM      4  C   UNL     1       1.166 -26.287  23.491  1.00  0.00     0.036 C 
ATOM      5  C   UNL     1       1.259 -24.947  22.737  1.00  0.00     0.025 C 
ATOM      6  C   UNL     1       2.597 -24.251  23.047  1.00  0.00     0.089 C 
ATOM      7  C   UNL     1       3.748 -25.189  22.804  1.00  0.00     0.158 C 
ATOM      8  O   UNL     1       4.882 -24.711  22.530  1.00  0.00    -0.295 OA
ENDROOT
BRANCH   5   9
ATOM      9  C   UNL     1       0.071 -24.045  23.047  1.00  0.00    -0.077 C 
ATOM     10  C   UNL     1      -1.102 -24.552  23.462  1.00  0.00     0.008 C 
ATOM     11  C   UNL     1       0.196 -22.551  22.892  1.00  0.00     0.039 C 
ENDBRANCH   5   9
TORSDOF 1
ENDMDL
MODEL 2
REMARK VINA RESULT:    -4.748      9.959     11.553
REMARK INTER + INTRA:          -5.122
REMARK INTER:                  -5.025
REMARK INTRA:                  -0.096
REMARK UNBOUND:                -0.096
REMARK SMILES C=C(C)[C@@H]1CC=C(C)C(=O)C1
REMARK SMILES IDX 8 1 7 2 6 3 5 4 4 5 11 6 9 7 10 8 2 9 1 10 3 11
REMARK H PARENT
REMARK Flexibility Score: inf
ROOT
ATOM      1  C   UNL     1       2.400 -18.055  30.125  1.00  0.00     0.048 C 
ATOM      2  C   UNL     1       3.496 -17.218  29.526  1.00  0.00    -0.012 C 
ATOM      3  C   UNL     1       3.806 -16.031  30.075  1.00  0.00    -0.019 C 
ATOM      4  C   UNL     1       4.907 -15.161  29.528  1.00  0.00     0.036 C 
ATOM      5  C   UNL     1       5.029 -15.318  27.999  1.00  0.00     0.025 C 
ATOM      6  C   UNL     1       5.217 -16.800  27.627  1.00  0.00     0.089 C 
ATOM      7  C   UNL     1       4.146 -17.644  28.261  1.00  0.00     0.158 C 
ATOM      8  O   UNL     1       3.830 -18.741  27.725  1.00  0.00    -0.295 OA
ENDROOT
BRANCH   5   9
ATOM      9  C   UNL     1       6.145 -14.450  27.433  1.00  0.00    -0.077 C 
ATOM     10  C   UNL     1       6.877 -13.648  28.225  1.00  0.00     0.008 C 
ATOM     11  C   UNL     1       6.449 -14.477  25.957  1.00  0.00     0.039 C 
ENDBRANCH   5   9
TORSDOF 1
ENDMDL
MODEL 3
REMARK VINA RESULT:    -4.696     10.530     12.130
REMARK INTER + INTRA:          -5.066
REMARK INTER:                  -4.970
REMARK INTRA:                  -0.096
REMARK UNBOUND:                -0.096
REMARK SMILES C=C(C)[C@@H]1CC=C(C)C(=O)C1
REMARK SMILES IDX 8 1 7 2 6 3 5 4 4 5 11 6 9 7 10 8 2 9 1 10 3 11
REMARK H PARENT
REMARK Flexibility Score: inf
ROOT
ATOM      1  C   UNL     1       3.881 -15.873  30.124  1.00  0.00     0.048 C 
ATOM      2  C   UNL     1       4.858 -15.626  29.007  1.00  0.00    -0.012 C 
ATOM      3  C   UNL     1       5.567 -14.484  28.981  1.00  0.00    -0.019 C 
ATOM      4  C   UNL     1       6.571 -14.193  27.896  1.00  0.00     0.036 C 
ATOM      5  C   UNL     1       6.139 -14.821  26.557  1.00  0.00     0.025 C 
ATOM      6  C   UNL     1       5.889 -16.330  26.731  1.00  0.00     0.089 C 
ATOM      7  C   UNL     1       4.946 -16.582  27.875  1.00  0.00     0.158 C 
ATOM      8  O   UNL     1       4.255 -17.636  27.881  1.00  0.00    -0.295 OA
ENDROOT
BRANCH   5   9
ATOM      9  C   UNL     1       7.150 -14.542  25.453  1.00  0.00    -0.077 C 
ATOM     10  C   UNL     1       8.271 -13.839  25.694  1.00  0.00     0.008 C 
ATOM     11  C   UNL     1       6.908 -15.056  24.058  1.00  0.00     0.039 C 
ENDBRANCH   5   9
TORSDOF 1
ENDMDL
MODEL 4
REMARK VINA RESULT:    -4.673     10.647     12.044
REMARK INTER + INTRA:          -5.042
REMARK INTER:                  -4.948
REMARK INTRA:                  -0.094
REMARK UNBOUND:                -0.096
REMARK SMILES C=C(C)[C@@H]1CC=C(C)C(=O)C1
REMARK SMILES IDX 8 1 7 2 6 3 5 4 4 5 11 6 9 7 10 8 2 9 1 10 3 11
REMARK H PARENT
REMARK Flexibility Score: inf
ROOT
ATOM      1  C   UNL     1       6.405 -15.340  29.730  1.00  0.00     0.048 C 
ATOM      2  C   UNL     1       6.544 -15.196  28.239  1.00  0.00    -0.012 C 
ATOM      3  C   UNL     1       7.024 -14.052  27.721  1.00  0.00    -0.019 C 
ATOM      4  C   UNL     1       7.201 -13.860  26.238  1.00  0.00     0.036 C 
ATOM      5  C   UNL     1       6.127 -14.631  25.447  1.00  0.00     0.025 C 
ATOM      6  C   UNL     1       6.133 -16.118  25.847  1.00  0.00     0.089 C 
ATOM      7  C   UNL     1       6.037 -16.263  27.342  1.00  0.00     0.158 C 
ATOM      8  O   UNL     1       5.554 -17.321  27.826  1.00  0.00    -0.295 OA
ENDROOT
BRANCH   5   9
ATOM      9  C   UNL     1       6.300 -14.453  23.944  1.00  0.00    -0.077 C 
ATOM     10  C   UNL     1       7.244 -15.127  23.264  1.00  0.00     0.008 C 
ATOM     11  C   UNL     1       5.403 -13.508  23.187  1.00  0.00     0.039 C 
ENDBRANCH   5   9
TORSDOF 1
ENDMDL
MODEL 5
REMARK VINA RESULT:    -4.667     11.044     12.303
REMARK INTER + INTRA:          -5.036
REMARK INTER:                  -4.940
REMARK INTRA:                  -0.096
REMARK UNBOUND:                -0.096
REMARK SMILES C=C(C)[C@@H]1CC=C(C)C(=O)C1
REMARK SMILES IDX 8 1 7 2 6 3 5 4 4 5 11 6 9 7 10 8 2 9 1 10 3 11
REMARK H PARENT
REMARK Flexibility Score: inf
ROOT
ATOM      1  C   UNL     1       8.300 -13.959  25.964  1.00  0.00     0.048 C 
ATOM      2  C   UNL     1       7.084 -14.219  26.809  1.00  0.00    -0.012 C 
ATOM      3  C   UNL     1       6.949 -13.598  27.994  1.00  0.00    -0.019 C 
ATOM      4  C   UNL     1       5.743 -13.808  28.872  1.00  0.00     0.036 C 
ATOM      5  C   UNL     1       5.192 -15.239  28.725  1.00  0.00     0.025 C 
ATOM      6  C   UNL     1       4.897 -15.549  27.246  1.00  0.00     0.089 C 
ATOM      7  C   UNL     1       6.100 -15.249  26.393  1.00  0.00     0.158 C 
ATOM      8  O   UNL     1       6.244 -15.857  25.299  1.00  0.00    -0.295 OA
ENDROOT
BRANCH   5   9
ATOM      9  C   UNL     1       3.966 -15.462  29.601  1.00  0.00    -0.077 C 
ATOM     10  C   UNL     1       3.284 -14.429  30.125  1.00  0.00     0.008 C 
ATOM     11  C   UNL     1       3.493 -16.862  29.897  1.00  0.00     0.039 C 
ENDBRANCH   5   9
TORSDOF 1
ENDMDL
MODEL 6
REMARK VINA RESULT:    -4.631      2.101      2.675
REMARK INTER + INTRA:          -4.997
REMARK INTER:                  -4.903
REMARK INTRA:                  -0.095
REMARK UNBOUND:                -0.096
REMARK SMILES C=C(C)[C@@H]1CC=C(C)C(=O)C1
REMARK SMILES IDX 8 1 7 2 6 3 5 4 4 5 11 6 9 7 10 8 2 9 1 10 3 11
REMARK H PARENT
REMARK Flexibility Score: inf
ROOT
ATOM      1  C   UNL     1       6.429 -24.739  24.972  1.00  0.00     0.048 C 
ATOM      2  C   UNL     1       5.007 -24.733  24.484  1.00  0.00    -0.012 C 
ATOM      3  C   UNL     1       4.745 -24.962  23.185  1.00  0.00    -0.019 C 
ATOM      4  C   UNL     1       3.339 -24.985  22.646  1.00  0.00     0.036 C 
ATOM      5  C   UNL     1       2.433 -24.005  23.417  1.00  0.00     0.025 C 
ATOM      6  C   UNL     1       2.484 -24.304  24.927  1.00  0.00     0.089 C 
ATOM      7  C   UNL     1       3.909 -24.353  25.407  1.00  0.00     0.158 C 
ATOM      8  O   UNL     1       4.157 -24.104  26.618  1.00  0.00    -0.295 OA
ENDROOT
BRANCH   5   9
ATOM      9  C   UNL     1       1.005 -24.024  22.888  1.00  0.00    -0.077 C 
ATOM     10  C   UNL     1       0.477 -25.134  22.342  1.00  0.00     0.008 C 
ATOM     11  C   UNL     1       0.151 -22.786  22.970  1.00  0.00     0.039 C 
ENDBRANCH   5   9
TORSDOF 1
ENDMDL
MODEL 7
REMARK VINA RESULT:    -4.573      9.732     11.647
REMARK INTER + INTRA:          -4.936
REMARK INTER:                  -4.845
REMARK INTRA:                  -0.091
REMARK UNBOUND:                -0.096
REMARK SMILES C=C(C)[C@@H]1CC=C(C)C(=O)C1
REMARK SMILES IDX 8 1 7 2 6 3 5 4 4 5 11 6 9 7 10 8 2 9 1 10 3 11
REMARK H PARENT
REMARK Flexibility Score: inf
ROOT
ATOM      1  C   UNL     1       7.247 -17.736  17.101  1.00  0.00     0.048 C 
ATOM      2  C   UNL     1       8.373 -18.081  18.036  1.00  0.00    -0.012 C 
ATOM      3  C   UNL     1       9.510 -17.365  18.006  1.00  0.00    -0.019 C 
ATOM      4  C   UNL     1      10.662 -17.656  18.932  1.00  0.00     0.036 C 
ATOM      5  C   UNL     1      10.750 -19.161  19.251  1.00  0.00     0.025 C 
ATOM      6  C   UNL     1       9.408 -19.668  19.812  1.00  0.00     0.089 C 
ATOM      7  C   UNL     1       8.276 -19.285  18.898  1.00  0.00     0.158 C 
ATOM      8  O   UNL     1       7.224 -19.979  18.901  1.00  0.00    -0.295 OA
ENDROOT
BRANCH   5   9
ATOM      9  C   UNL     1      11.906 -19.468  20.194  1.00  0.00    -0.077 C 
ATOM     10  C   UNL     1      13.180 -19.455  19.766  1.00  0.00     0.008 C 
ATOM     11  C   UNL     1      11.635 -19.796  21.640  1.00  0.00     0.039 C 
ENDBRANCH   5   9
TORSDOF 1
ENDMDL
MODEL 8
REMARK VINA RESULT:    -4.551      2.392      4.640
REMARK INTER + INTRA:          -4.913
REMARK INTER:                  -4.817
REMARK INTRA:                  -0.096
REMARK UNBOUND:                -0.096
REMARK SMILES C=C(C)[C@@H]1CC=C(C)C(=O)C1
REMARK SMILES IDX 8 1 7 2 6 3 5 4 4 5 11 6 9 7 10 8 2 9 1 10 3 11
REMARK H PARENT
REMARK Flexibility Score: inf
ROOT
ATOM      1  C   UNL     1      -1.378 -23.974  23.583  1.00  0.00     0.048 C 
ATOM      2  C   UNL     1       0.124 -24.057  23.599  1.00  0.00    -0.012 C 
ATOM      3  C   UNL     1       0.773 -24.609  22.559  1.00  0.00    -0.019 C 
ATOM      4  C   UNL     1       2.276 -24.701  22.514  1.00  0.00     0.036 C 
ATOM      5  C   UNL     1       2.863 -24.883  23.927  1.00  0.00     0.025 C 
ATOM      6  C   UNL     1       2.375 -23.756  24.857  1.00  0.00     0.089 C 
ATOM      7  C   UNL     1       0.876 -23.644  24.810  1.00  0.00     0.158 C 
ATOM      8  O   UNL     1       0.265 -23.159  25.800  1.00  0.00    -0.295 OA
ENDROOT
BRANCH   5   9
ATOM      9  C   UNL     1       4.383 -24.968  23.897  1.00  0.00    -0.077 C 
ATOM     10  C   UNL     1       5.073 -24.763  22.762  1.00  0.00     0.008 C 
ATOM     11  C   UNL     1       5.147 -25.288  25.156  1.00  0.00     0.039 C 
ENDBRANCH   5   9
TORSDOF 1
ENDMDL
MODEL 9
REMARK VINA RESULT:    -4.443      1.637      2.068
REMARK INTER + INTRA:          -4.799
REMARK INTER:                  -4.710
REMARK INTRA:                  -0.088
REMARK UNBOUND:                -0.096
REMARK SMILES C=C(C)[C@@H]1CC=C(C)C(=O)C1
REMARK SMILES IDX 8 1 7 2 6 3 5 4 4 5 11 6 9 7 10 8 2 9 1 10 3 11
REMARK H PARENT
REMARK Flexibility Score: inf
ROOT
ATOM      1  C   UNL     1       5.301 -24.831  24.912  1.00  0.00     0.048 C 
ATOM      2  C   UNL     1       3.848 -24.702  24.545  1.00  0.00    -0.012 C 
ATOM      3  C   UNL     1       2.914 -24.685  25.512  1.00  0.00    -0.019 C 
ATOM      4  C   UNL     1       1.447 -24.539  25.202  1.00  0.00     0.036 C 
ATOM      5  C   UNL     1       1.097 -25.196  23.853  1.00  0.00     0.025 C 
ATOM      6  C   UNL     1       1.989 -24.628  22.734  1.00  0.00     0.089 C 
ATOM      7  C   UNL     1       3.441 -24.718  23.118  1.00  0.00     0.158 C 
ATOM      8  O   UNL     1       4.314 -24.769  22.211  1.00  0.00    -0.295 OA
ENDROOT
BRANCH   5   9
ATOM      9  C   UNL     1      -0.382 -25.048  23.522  1.00  0.00    -0.077 C 
ATOM     10  C   UNL     1      -1.182 -26.122  23.401  1.00  0.00     0.008 C 
ATOM     11  C   UNL     1      -0.979 -23.679  23.325  1.00  0.00     0.039 C 
ENDBRANCH   5   9
TORSDOF 1
ENDMDL
