MODEL 1
REMARK VINA RESULT:    -5.541      0.000      0.000
REMARK INTER + INTRA:          -6.699
REMARK INTER:                  -6.674
REMARK INTRA:                  -0.025
REMARK UNBOUND:                -0.025
REMARK SMILES O=c1c(O)c(-c2ccc(O)c(O)c2)oc2cc(O)cc(O)c12
REMARK SMILES IDX 5 1 3 2 2 3 1 4 22 5 20 6 19 7 17 8 16 9 15 10 14 11 6 12
REMARK SMILES IDX 7 13 8 14 9 15 13 16 11 17 10 18 12 20 4 22 21 24 18 26
REMARK H PARENT 10 19 12 21 4 23 21 25 18 27
REMARK Flexibility Score: inf
ROOT
ATOM      1  C   UNL     1      -6.564  -5.002   1.173  1.00  0.00     0.180 A 
ATOM      2  C   UNL     1      -6.890  -6.183   1.861  1.00  0.00     0.208 A 
ATOM      3  C   UNL     1      -8.196  -6.690   1.763  1.00  0.00     0.238 A 
ATOM      4  O   UNL     1      -8.467  -7.777   2.338  1.00  0.00    -0.285 OA
ATOM      5  C   UNL     1      -9.164  -6.000   0.994  1.00  0.00     0.111 A 
ATOM      6  C   UNL     1     -10.527  -6.401   0.860  1.00  0.00     0.134 A 
ATOM      7  C   UNL     1     -11.363  -5.715  -0.031  1.00  0.00     0.093 A 
ATOM      8  C   UNL     1     -10.903  -4.607  -0.742  1.00  0.00     0.123 A 
ATOM      9  C   UNL     1      -9.589  -4.170  -0.572  1.00  0.00     0.094 A 
ATOM     10  C   UNL     1      -8.721  -4.855   0.282  1.00  0.00     0.146 A 
ATOM     11  O   UNL     1      -7.475  -4.413   0.407  1.00  0.00    -0.452 OA
ENDROOT
BRANCH   1  12
ATOM     12  C   UNL     1      -5.216  -4.394   1.248  1.00  0.00     0.025 A 
ATOM     13  C   UNL     1      -4.092  -5.160   0.897  1.00  0.00     0.016 A 
ATOM     14  C   UNL     1      -2.813  -4.601   0.940  1.00  0.00     0.051 A 
ATOM     15  C   UNL     1      -2.637  -3.266   1.318  1.00  0.00     0.157 A 
ATOM     16  C   UNL     1      -5.039  -3.046   1.608  1.00  0.00     0.062 A 
ATOM     17  C   UNL     1      -3.754  -2.483   1.650  1.00  0.00     0.158 A 
BRANCH  15  18
ATOM     18  O   UNL     1      -1.347  -2.737   1.353  1.00  0.00    -0.504 OA
ATOM     19  H   UNL     1      -1.176  -1.739   1.393  1.00  0.00     0.293 HD
ENDBRANCH  15  18
BRANCH  17  20
ATOM     20  O   UNL     1      -3.587  -1.148   2.013  1.00  0.00    -0.504 OA
ATOM     21  H   UNL     1      -2.703  -0.668   1.882  1.00  0.00     0.293 HD
ENDBRANCH  17  20
ENDBRANCH   1  12
BRANCH   2  22
ATOM     22  O   UNL     1      -5.913  -6.861   2.597  1.00  0.00    -0.502 OA
ATOM     23  H   UNL     1      -5.513  -6.484   3.447  1.00  0.00     0.293 HD
ENDBRANCH   2  22
BRANCH   6  24
ATOM     24  O   UNL     1     -11.112  -7.437   1.591  1.00  0.00    -0.507 OA
ATOM     25  H   UNL     1     -11.038  -7.547   2.591  1.00  0.00     0.293 HD
ENDBRANCH   6  24
BRANCH   8  26
ATOM     26  O   UNL     1     -11.767  -3.940  -1.609  1.00  0.00    -0.508 OA
ATOM     27  H   UNL     1     -12.598  -3.470  -1.271  1.00  0.00     0.293 HD
ENDBRANCH   8  26
TORSDOF 6
ENDMDL
MODEL 2
REMARK VINA RESULT:    -5.303      0.820      1.553
REMARK INTER + INTRA:          -6.413
REMARK INTER:                  -6.322
REMARK INTRA:                  -0.091
REMARK UNBOUND:                -0.025
REMARK SMILES O=c1c(O)c(-c2ccc(O)c(O)c2)oc2cc(O)cc(O)c12
REMARK SMILES IDX 5 1 3 2 2 3 1 4 22 5 20 6 19 7 17 8 16 9 15 10 14 11 6 12
REMARK SMILES IDX 7 13 8 14 9 15 13 16 11 17 10 18 12 20 4 22 21 24 18 26
REMARK H PARENT 10 19 12 21 4 23 21 25 18 27
REMARK Flexibility Score: inf
ROOT
ATOM      1  C   UNL     1      -6.108  -4.860   1.225  1.00  0.00     0.180 A 
ATOM      2  C   UNL     1      -6.418  -5.977   2.021  1.00  0.00     0.208 A 
ATOM      3  C   UNL     1      -7.730  -6.479   2.008  1.00  0.00     0.238 A 
ATOM      4  O   UNL     1      -7.987  -7.511   2.680  1.00  0.00    -0.285 OA
ATOM      5  C   UNL     1      -8.718  -5.848   1.215  1.00  0.00     0.111 A 
ATOM      6  C   UNL     1     -10.087  -6.247   1.159  1.00  0.00     0.134 A 
ATOM      7  C   UNL     1     -10.947  -5.632   0.240  1.00  0.00     0.093 A 
ATOM      8  C   UNL     1     -10.505  -4.592  -0.576  1.00  0.00     0.123 A 
ATOM      9  C   UNL     1      -9.184  -4.153  -0.485  1.00  0.00     0.094 A 
ATOM     10  C   UNL     1      -8.292  -4.771   0.395  1.00  0.00     0.146 A 
ATOM     11  O   UNL     1      -7.041  -4.331   0.442  1.00  0.00    -0.452 OA
ENDROOT
BRANCH   1  12
ATOM     12  C   UNL     1      -4.755  -4.259   1.205  1.00  0.00     0.025 A 
ATOM     13  C   UNL     1      -4.584  -2.929   1.623  1.00  0.00     0.016 A 
ATOM     14  C   UNL     1      -3.313  -2.348   1.631  1.00  0.00     0.051 A 
ATOM     15  C   UNL     1      -2.194  -3.090   1.241  1.00  0.00     0.157 A 
ATOM     16  C   UNL     1      -3.625  -5.010   0.832  1.00  0.00     0.062 A 
ATOM     17  C   UNL     1      -2.349  -4.428   0.843  1.00  0.00     0.158 A 
BRANCH  15  18
ATOM     18  O   UNL     1      -0.939  -2.482   1.259  1.00  0.00    -0.504 OA
ATOM     19  H   UNL     1      -0.703  -1.753   1.922  1.00  0.00     0.293 HD
ENDBRANCH  15  18
BRANCH  17  20
ATOM     20  O   UNL     1      -1.235  -5.177   0.466  1.00  0.00    -0.504 OA
ATOM     21  H   UNL     1      -0.473  -4.767  -0.064  1.00  0.00     0.293 HD
ENDBRANCH  17  20
ENDBRANCH   1  12
BRANCH   2  22
ATOM     22  O   UNL     1      -5.421  -6.598   2.779  1.00  0.00    -0.502 OA
ATOM     23  H   UNL     1      -4.929  -7.423   2.459  1.00  0.00     0.293 HD
ENDBRANCH   2  22
BRANCH   6  24
ATOM     24  O   UNL     1     -10.654  -7.214   1.993  1.00  0.00    -0.507 OA
ATOM     25  H   UNL     1     -11.309  -7.018   2.736  1.00  0.00     0.293 HD
ENDBRANCH   6  24
BRANCH   8  26
ATOM     26  O   UNL     1     -11.393  -3.992  -1.467  1.00  0.00    -0.508 OA
ATOM     27  H   UNL     1     -12.310  -4.384  -1.646  1.00  0.00     0.293 HD
ENDBRANCH   8  26
TORSDOF 6
ENDMDL
MODEL 3
REMARK VINA RESULT:    -5.207     11.177     14.275
REMARK INTER + INTRA:          -6.297
REMARK INTER:                  -5.983
REMARK INTRA:                  -0.314
REMARK UNBOUND:                -0.025
REMARK SMILES O=c1c(O)c(-c2ccc(O)c(O)c2)oc2cc(O)cc(O)c12
REMARK SMILES IDX 5 1 3 2 2 3 1 4 22 5 20 6 19 7 17 8 16 9 15 10 14 11 6 12
REMARK SMILES IDX 7 13 8 14 9 15 13 16 11 17 10 18 12 20 4 22 21 24 18 26
REMARK H PARENT 10 19 12 21 4 23 21 25 18 27
REMARK Flexibility Score: inf
ROOT
ATOM      1  C   UNL     1       2.869   0.439   7.195  1.00  0.00     0.180 A 
ATOM      2  C   UNL     1       3.756   0.812   8.219  1.00  0.00     0.208 A 
ATOM      3  C   UNL     1       4.951   0.091   8.381  1.00  0.00     0.238 A 
ATOM      4  O   UNL     1       5.766   0.464   9.265  1.00  0.00    -0.285 OA
ATOM      5  C   UNL     1       5.233  -1.004   7.530  1.00  0.00     0.111 A 
ATOM      6  C   UNL     1       6.393  -1.830   7.631  1.00  0.00     0.134 A 
ATOM      7  C   UNL     1       6.634  -2.803   6.653  1.00  0.00     0.093 A 
ATOM      8  C   UNL     1       5.727  -3.024   5.617  1.00  0.00     0.123 A 
ATOM      9  C   UNL     1       4.560  -2.263   5.544  1.00  0.00     0.094 A 
ATOM     10  C   UNL     1       4.309  -1.259   6.483  1.00  0.00     0.146 A 
ATOM     11  O   UNL     1       3.193  -0.550   6.371  1.00  0.00    -0.452 OA
ENDROOT
BRANCH   1  12
ATOM     12  C   UNL     1       1.580   1.136   6.978  1.00  0.00     0.025 A 
ATOM     13  C   UNL     1       1.545   2.293   6.182  1.00  0.00     0.016 A 
ATOM     14  C   UNL     1       0.337   2.954   5.948  1.00  0.00     0.051 A 
ATOM     15  C   UNL     1      -0.854   2.463   6.489  1.00  0.00     0.157 A 
ATOM     16  C   UNL     1       0.377   0.632   7.505  1.00  0.00     0.062 A 
ATOM     17  C   UNL     1      -0.837   1.294   7.268  1.00  0.00     0.158 A 
BRANCH  15  18
ATOM     18  O   UNL     1      -2.045   3.146   6.238  1.00  0.00    -0.504 OA
ATOM     19  H   UNL     1      -2.163   4.124   6.475  1.00  0.00     0.293 HD
ENDBRANCH  15  18
BRANCH  17  20
ATOM     20  O   UNL     1      -2.024   0.791   7.798  1.00  0.00    -0.504 OA
ATOM     21  H   UNL     1      -2.098  -0.167   8.120  1.00  0.00     0.293 HD
ENDBRANCH  17  20
ENDBRANCH   1  12
BRANCH   2  22
ATOM     22  O   UNL     1       3.468   1.911   9.035  1.00  0.00    -0.502 OA
ATOM     23  H   UNL     1       3.751   1.957  10.006  1.00  0.00     0.293 HD
ENDBRANCH   2  22
BRANCH   6  24
ATOM     24  O   UNL     1       7.317  -1.754   8.676  1.00  0.00    -0.507 OA
ATOM     25  H   UNL     1       7.239  -1.133   9.468  1.00  0.00     0.293 HD
ENDBRANCH   6  24
BRANCH   8  26
ATOM     26  O   UNL     1       5.991  -4.012   4.671  1.00  0.00    -0.508 OA
ATOM     27  H   UNL     1       6.142  -4.977   4.939  1.00  0.00     0.293 HD
ENDBRANCH   8  26
TORSDOF 6
ENDMDL
MODEL 4
REMARK VINA RESULT:    -4.961     13.984     15.510
REMARK INTER + INTRA:          -6.001
REMARK INTER:                  -5.683
REMARK INTRA:                  -0.318
REMARK UNBOUND:                -0.025
REMARK SMILES O=c1c(O)c(-c2ccc(O)c(O)c2)oc2cc(O)cc(O)c12
REMARK SMILES IDX 5 1 3 2 2 3 1 4 22 5 20 6 19 7 17 8 16 9 15 10 14 11 6 12
REMARK SMILES IDX 7 13 8 14 9 15 13 16 11 17 10 18 12 20 4 22 21 24 18 26
REMARK H PARENT 10 19 12 21 4 23 21 25 18 27
REMARK Flexibility Score: inf
ROOT
ATOM      1  C   UNL     1       5.090   1.210  -4.946  1.00  0.00     0.180 A 
ATOM      2  C   UNL     1       5.820   1.757  -6.015  1.00  0.00     0.208 A 
ATOM      3  C   UNL     1       5.350   2.929  -6.631  1.00  0.00     0.238 A 
ATOM      4  O   UNL     1       6.036   3.443  -7.552  1.00  0.00    -0.285 OA
ATOM      5  C   UNL     1       4.149   3.528  -6.182  1.00  0.00     0.111 A 
ATOM      6  C   UNL     1       3.560   4.693  -6.759  1.00  0.00     0.134 A 
ATOM      7  C   UNL     1       2.440   5.274  -6.150  1.00  0.00     0.093 A 
ATOM      8  C   UNL     1       1.851   4.696  -5.026  1.00  0.00     0.123 A 
ATOM      9  C   UNL     1       2.384   3.524  -4.489  1.00  0.00     0.094 A 
ATOM     10  C   UNL     1       3.522   2.941  -5.052  1.00  0.00     0.146 A 
ATOM     11  O   UNL     1       4.003   1.832  -4.504  1.00  0.00    -0.452 OA
ENDROOT
BRANCH   1  12
ATOM     12  C   UNL     1       5.508  -0.036  -4.263  1.00  0.00     0.025 A 
ATOM     13  C   UNL     1       5.135  -1.278  -4.804  1.00  0.00     0.016 A 
ATOM     14  C   UNL     1       5.536  -2.466  -4.188  1.00  0.00     0.051 A 
ATOM     15  C   UNL     1       6.328  -2.434  -3.036  1.00  0.00     0.157 A 
ATOM     16  C   UNL     1       6.322  -0.006  -3.116  1.00  0.00     0.062 A 
ATOM     17  C   UNL     1       6.726  -1.199  -2.499  1.00  0.00     0.158 A 
BRANCH  15  18
ATOM     18  O   UNL     1       6.711  -3.637  -2.443  1.00  0.00    -0.504 OA
ATOM     19  H   UNL     1       6.926  -4.462  -2.991  1.00  0.00     0.293 HD
ENDBRANCH  15  18
BRANCH  17  20
ATOM     20  O   UNL     1       7.527  -1.160  -1.359  1.00  0.00    -0.504 OA
ATOM     21  H   UNL     1       7.656  -0.305  -0.829  1.00  0.00     0.293 HD
ENDBRANCH  17  20
ENDBRANCH   1  12
BRANCH   2  22
ATOM     22  O   UNL     1       7.015   1.161  -6.429  1.00  0.00    -0.502 OA
ATOM     23  H   UNL     1       7.103   0.164  -6.578  1.00  0.00     0.293 HD
ENDBRANCH   2  22
BRANCH   6  24
ATOM     24  O   UNL     1       4.014   5.297  -7.934  1.00  0.00    -0.507 OA
ATOM     25  H   UNL     1       4.875   5.816  -8.017  1.00  0.00     0.293 HD
ENDBRANCH   6  24
BRANCH   8  26
ATOM     26  O   UNL     1       0.729   5.293  -4.455  1.00  0.00    -0.508 OA
ATOM     27  H   UNL     1       0.586   5.303  -3.452  1.00  0.00     0.293 HD
ENDBRANCH   8  26
TORSDOF 6
ENDMDL
MODEL 5
REMARK VINA RESULT:    -4.937      5.653     10.874
REMARK INTER + INTRA:          -5.973
REMARK INTER:                  -5.668
REMARK INTRA:                  -0.304
REMARK UNBOUND:                -0.025
REMARK SMILES O=c1c(O)c(-c2ccc(O)c(O)c2)oc2cc(O)cc(O)c12
REMARK SMILES IDX 5 1 3 2 2 3 1 4 22 5 20 6 19 7 17 8 16 9 15 10 14 11 6 12
REMARK SMILES IDX 7 13 8 14 9 15 13 16 11 17 10 18 12 20 4 22 21 24 18 26
REMARK H PARENT 10 19 12 21 4 23 21 25 18 27
REMARK Flexibility Score: inf
ROOT
ATOM      1  C   UNL     1       1.092  -4.595   1.251  1.00  0.00     0.180 A 
ATOM      2  C   UNL     1       1.334  -5.628   0.329  1.00  0.00     0.208 A 
ATOM      3  C   UNL     1       2.620  -6.190   0.259  1.00  0.00     0.238 A 
ATOM      4  O   UNL     1       2.816  -7.151  -0.530  1.00  0.00    -0.285 OA
ATOM      5  C   UNL     1       3.649  -5.701   1.098  1.00  0.00     0.111 A 
ATOM      6  C   UNL     1       4.997  -6.168   1.082  1.00  0.00     0.134 A 
ATOM      7  C   UNL     1       5.900  -5.703   2.047  1.00  0.00     0.093 A 
ATOM      8  C   UNL     1       5.522  -4.742   2.983  1.00  0.00     0.123 A 
ATOM      9  C   UNL     1       4.222  -4.234   2.969  1.00  0.00     0.094 A 
ATOM     10  C   UNL     1       3.289  -4.705   2.043  1.00  0.00     0.146 A 
ATOM     11  O   UNL     1       2.060  -4.203   2.070  1.00  0.00    -0.452 OA
ENDROOT
BRANCH   1  12
ATOM     12  C   UNL     1      -0.230  -3.937   1.365  1.00  0.00     0.025 A 
ATOM     13  C   UNL     1      -0.473  -2.749   0.657  1.00  0.00     0.016 A 
ATOM     14  C   UNL     1      -1.719  -2.122   0.734  1.00  0.00     0.051 A 
ATOM     15  C   UNL     1      -2.745  -2.679   1.503  1.00  0.00     0.157 A 
ATOM     16  C   UNL     1      -1.270  -4.507   2.122  1.00  0.00     0.062 A 
ATOM     17  C   UNL     1      -2.522  -3.879   2.198  1.00  0.00     0.158 A 
BRANCH  15  18
ATOM     18  O   UNL     1      -3.978  -2.029   1.562  1.00  0.00    -0.504 OA
ATOM     19  H   UNL     1      -4.344  -1.646   2.426  1.00  0.00     0.293 HD
ENDBRANCH  15  18
BRANCH  17  20
ATOM     20  O   UNL     1      -3.545  -4.447   2.955  1.00  0.00    -0.504 OA
ATOM     21  H   UNL     1      -3.353  -5.127   3.683  1.00  0.00     0.293 HD
ENDBRANCH  17  20
ENDBRANCH   1  12
BRANCH   2  22
ATOM     22  O   UNL     1       0.297  -6.112  -0.475  1.00  0.00    -0.502 OA
ATOM     23  H   UNL     1      -0.656  -6.194  -0.143  1.00  0.00     0.293 HD
ENDBRANCH   2  22
BRANCH   6  24
ATOM     24  O   UNL     1       5.504  -7.060   0.133  1.00  0.00    -0.507 OA
ATOM     25  H   UNL     1       5.004  -7.858  -0.230  1.00  0.00     0.293 HD
ENDBRANCH   6  24
BRANCH   8  26
ATOM     26  O   UNL     1       6.451  -4.290   3.919  1.00  0.00    -0.508 OA
ATOM     27  H   UNL     1       7.422  -4.141   3.672  1.00  0.00     0.293 HD
ENDBRANCH   8  26
TORSDOF 6
ENDMDL
MODEL 6
REMARK VINA RESULT:    -4.871     11.572     14.009
REMARK INTER + INTRA:          -5.893
REMARK INTER:                  -5.609
REMARK INTRA:                  -0.285
REMARK UNBOUND:                -0.025
REMARK SMILES O=c1c(O)c(-c2ccc(O)c(O)c2)oc2cc(O)cc(O)c12
REMARK SMILES IDX 5 1 3 2 2 3 1 4 22 5 20 6 19 7 17 8 16 9 15 10 14 11 6 12
REMARK SMILES IDX 7 13 8 14 9 15 13 16 11 17 10 18 12 20 4 22 21 24 18 26
REMARK H PARENT 10 19 12 21 4 23 21 25 18 27
REMARK Flexibility Score: inf
ROOT
ATOM      1  C   UNL     1      -3.204   8.278   1.031  1.00  0.00     0.180 A 
ATOM      2  C   UNL     1      -2.643   8.868   2.176  1.00  0.00     0.208 A 
ATOM      3  C   UNL     1      -3.256   8.653   3.422  1.00  0.00     0.238 A 
ATOM      4  O   UNL     1      -2.719   9.139   4.451  1.00  0.00    -0.285 OA
ATOM      5  C   UNL     1      -4.431   7.867   3.503  1.00  0.00     0.111 A 
ATOM      6  C   UNL     1      -5.157   7.619   4.706  1.00  0.00     0.134 A 
ATOM      7  C   UNL     1      -6.231   6.720   4.691  1.00  0.00     0.093 A 
ATOM      8  C   UNL     1      -6.644   6.112   3.506  1.00  0.00     0.123 A 
ATOM      9  C   UNL     1      -5.978   6.394   2.313  1.00  0.00     0.094 A 
ATOM     10  C   UNL     1      -4.880   7.258   2.302  1.00  0.00     0.146 A 
ATOM     11  O   UNL     1      -4.268   7.493   1.148  1.00  0.00    -0.452 OA
ENDROOT
BRANCH   1  12
ATOM     12  C   UNL     1      -2.629   8.479  -0.320  1.00  0.00     0.025 A 
ATOM     13  C   UNL     1      -2.864   9.687  -0.997  1.00  0.00     0.016 A 
ATOM     14  C   UNL     1      -2.314   9.906  -2.263  1.00  0.00     0.051 A 
ATOM     15  C   UNL     1      -1.510   8.933  -2.863  1.00  0.00     0.157 A 
ATOM     16  C   UNL     1      -1.804   7.510  -0.916  1.00  0.00     0.062 A 
ATOM     17  C   UNL     1      -1.250   7.730  -2.186  1.00  0.00     0.158 A 
BRANCH  15  18
ATOM     18  O   UNL     1      -0.977   9.180  -4.128  1.00  0.00    -0.504 OA
ATOM     19  H   UNL     1      -0.073   8.821  -4.410  1.00  0.00     0.293 HD
ENDBRANCH  15  18
BRANCH  17  20
ATOM     20  O   UNL     1      -0.438   6.761  -2.773  1.00  0.00    -0.504 OA
ATOM     21  H   UNL     1       0.023   6.047  -2.220  1.00  0.00     0.293 HD
ENDBRANCH  17  20
ENDBRANCH   1  12
BRANCH   2  22
ATOM     22  O   UNL     1      -1.470   9.622   2.077  1.00  0.00    -0.502 OA
ATOM     23  H   UNL     1      -1.099  10.155   2.854  1.00  0.00     0.293 HD
ENDBRANCH   2  22
BRANCH   6  24
ATOM     24  O   UNL     1      -4.885   8.244   5.926  1.00  0.00    -0.507 OA
ATOM     25  H   UNL     1      -4.711   9.232   6.039  1.00  0.00     0.293 HD
ENDBRANCH   6  24
BRANCH   8  26
ATOM     26  O   UNL     1      -7.726   5.234   3.524  1.00  0.00    -0.508 OA
ATOM     27  H   UNL     1      -8.467   5.291   2.836  1.00  0.00     0.293 HD
ENDBRANCH   8  26
TORSDOF 6
ENDMDL
MODEL 7
REMARK VINA RESULT:    -4.806     13.936     15.433
REMARK INTER + INTRA:          -5.814
REMARK INTER:                  -5.487
REMARK INTRA:                  -0.328
REMARK UNBOUND:                -0.025
REMARK SMILES O=c1c(O)c(-c2ccc(O)c(O)c2)oc2cc(O)cc(O)c12
REMARK SMILES IDX 5 1 3 2 2 3 1 4 22 5 20 6 19 7 17 8 16 9 15 10 14 11 6 12
REMARK SMILES IDX 7 13 8 14 9 15 13 16 11 17 10 18 12 20 4 22 21 24 18 26
REMARK H PARENT 10 19 12 21 4 23 21 25 18 27
REMARK Flexibility Score: inf
ROOT
ATOM      1  C   UNL     1       4.572   1.638  -5.163  1.00  0.00     0.180 A 
ATOM      2  C   UNL     1       5.740   1.779  -4.394  1.00  0.00     0.208 A 
ATOM      3  C   UNL     1       6.466   0.629  -4.042  1.00  0.00     0.238 A 
ATOM      4  O   UNL     1       7.539   0.766  -3.400  1.00  0.00    -0.285 OA
ATOM      5  C   UNL     1       6.005  -0.647  -4.447  1.00  0.00     0.111 A 
ATOM      6  C   UNL     1       6.638  -1.880  -4.111  1.00  0.00     0.134 A 
ATOM      7  C   UNL     1       6.169  -3.073  -4.676  1.00  0.00     0.093 A 
ATOM      8  C   UNL     1       5.052  -3.084  -5.510  1.00  0.00     0.123 A 
ATOM      9  C   UNL     1       4.388  -1.891  -5.797  1.00  0.00     0.094 A 
ATOM     10  C   UNL     1       4.855  -0.680  -5.278  1.00  0.00     0.146 A 
ATOM     11  O   UNL     1       4.201   0.434  -5.584  1.00  0.00    -0.452 OA
ENDROOT
BRANCH   1  12
ATOM     12  C   UNL     1       3.741   2.801  -5.553  1.00  0.00     0.025 A 
ATOM     13  C   UNL     1       3.895   3.363  -6.831  1.00  0.00     0.016 A 
ATOM     14  C   UNL     1       3.108   4.447  -7.226  1.00  0.00     0.051 A 
ATOM     15  C   UNL     1       2.145   4.975  -6.361  1.00  0.00     0.157 A 
ATOM     16  C   UNL     1       2.758   3.320  -4.691  1.00  0.00     0.062 A 
ATOM     17  C   UNL     1       1.966   4.407  -5.089  1.00  0.00     0.158 A 
BRANCH  15  18
ATOM     18  O   UNL     1       1.375   6.058  -6.784  1.00  0.00    -0.504 OA
ATOM     19  H   UNL     1       0.726   6.530  -6.166  1.00  0.00     0.293 HD
ENDBRANCH  15  18
BRANCH  17  20
ATOM     20  O   UNL     1       0.997   4.920  -4.227  1.00  0.00    -0.504 OA
ATOM     21  H   UNL     1       0.102   5.250  -4.570  1.00  0.00     0.293 HD
ENDBRANCH  17  20
ENDBRANCH   1  12
BRANCH   2  22
ATOM     22  O   UNL     1       6.189   3.050  -4.024  1.00  0.00    -0.502 OA
ATOM     23  H   UNL     1       6.447   3.755  -4.703  1.00  0.00     0.293 HD
ENDBRANCH   2  22
BRANCH   6  24
ATOM     24  O   UNL     1       7.705  -1.992  -3.216  1.00  0.00    -0.507 OA
ATOM     25  H   UNL     1       7.768  -2.682  -2.482  1.00  0.00     0.293 HD
ENDBRANCH   6  24
BRANCH   8  26
ATOM     26  O   UNL     1       4.602  -4.291  -6.042  1.00  0.00    -0.508 OA
ATOM     27  H   UNL     1       5.120  -4.778  -6.764  1.00  0.00     0.293 HD
ENDBRANCH   8  26
TORSDOF 6
ENDMDL
MODEL 8
REMARK VINA RESULT:    -4.720     13.933     15.296
REMARK INTER + INTRA:          -5.710
REMARK INTER:                  -5.388
REMARK INTRA:                  -0.322
REMARK UNBOUND:                -0.025
REMARK SMILES O=c1c(O)c(-c2ccc(O)c(O)c2)oc2cc(O)cc(O)c12
REMARK SMILES IDX 5 1 3 2 2 3 1 4 22 5 20 6 19 7 17 8 16 9 15 10 14 11 6 12
REMARK SMILES IDX 7 13 8 14 9 15 13 16 11 17 10 18 12 20 4 22 21 24 18 26
REMARK H PARENT 10 19 12 21 4 23 21 25 18 27
REMARK Flexibility Score: inf
ROOT
ATOM      1  C   UNL     1       4.448   0.887  -5.175  1.00  0.00     0.180 A 
ATOM      2  C   UNL     1       4.154  -0.234  -5.970  1.00  0.00     0.208 A 
ATOM      3  C   UNL     1       4.759  -1.464  -5.663  1.00  0.00     0.238 A 
ATOM      4  O   UNL     1       4.451  -2.475  -6.346  1.00  0.00    -0.285 OA
ATOM      5  C   UNL     1       5.664  -1.552  -4.578  1.00  0.00     0.111 A 
ATOM      6  C   UNL     1       6.365  -2.737  -4.204  1.00  0.00     0.134 A 
ATOM      7  C   UNL     1       7.135  -2.743  -3.033  1.00  0.00     0.093 A 
ATOM      8  C   UNL     1       7.279  -1.591  -2.261  1.00  0.00     0.123 A 
ATOM      9  C   UNL     1       6.646  -0.411  -2.651  1.00  0.00     0.094 A 
ATOM     10  C   UNL     1       5.842  -0.383  -3.793  1.00  0.00     0.146 A 
ATOM     11  O   UNL     1       5.249   0.757  -4.124  1.00  0.00    -0.452 OA
ENDROOT
BRANCH   1  12
ATOM     12  C   UNL     1       3.868   2.222  -5.451  1.00  0.00     0.025 A 
ATOM     13  C   UNL     1       4.508   3.078  -6.362  1.00  0.00     0.016 A 
ATOM     14  C   UNL     1       3.968   4.333  -6.653  1.00  0.00     0.051 A 
ATOM     15  C   UNL     1       2.774   4.745  -6.054  1.00  0.00     0.157 A 
ATOM     16  C   UNL     1       2.657   2.630  -4.864  1.00  0.00     0.062 A 
ATOM     17  C   UNL     1       2.113   3.889  -5.158  1.00  0.00     0.158 A 
BRANCH  15  18
ATOM     18  O   UNL     1       2.261   6.004  -6.363  1.00  0.00    -0.504 OA
ATOM     19  H   UNL     1       1.268   6.165  -6.483  1.00  0.00     0.293 HD
ENDBRANCH  15  18
BRANCH  17  20
ATOM     20  O   UNL     1       0.915   4.289  -4.568  1.00  0.00    -0.504 OA
ATOM     21  H   UNL     1       0.137   4.629  -5.122  1.00  0.00     0.293 HD
ENDBRANCH  17  20
ENDBRANCH   1  12
BRANCH   2  22
ATOM     22  O   UNL     1       3.241  -0.129  -7.024  1.00  0.00    -0.502 OA
ATOM     23  H   UNL     1       2.243  -0.043  -6.872  1.00  0.00     0.293 HD
ENDBRANCH   2  22
BRANCH   6  24
ATOM     24  O   UNL     1       6.363  -3.916  -4.953  1.00  0.00    -0.507 OA
ATOM     25  H   UNL     1       6.775  -4.788  -4.655  1.00  0.00     0.293 HD
ENDBRANCH   6  24
BRANCH   8  26
ATOM     26  O   UNL     1       8.065  -1.629  -1.110  1.00  0.00    -0.508 OA
ATOM     27  H   UNL     1       7.874  -1.027  -0.319  1.00  0.00     0.293 HD
ENDBRANCH   8  26
TORSDOF 6
ENDMDL
MODEL 9
REMARK VINA RESULT:    -4.650     10.330     14.878
REMARK INTER + INTRA:          -5.627
REMARK INTER:                  -5.333
REMARK INTRA:                  -0.294
REMARK UNBOUND:                -0.025
REMARK SMILES O=c1c(O)c(-c2ccc(O)c(O)c2)oc2cc(O)cc(O)c12
REMARK SMILES IDX 5 1 3 2 2 3 1 4 22 5 20 6 19 7 17 8 16 9 15 10 14 11 6 12
REMARK SMILES IDX 7 13 8 14 9 15 13 16 11 17 10 18 12 20 4 22 21 24 18 26
REMARK H PARENT 10 19 12 21 4 23 21 25 18 27
REMARK Flexibility Score: inf
ROOT
ATOM      1  C   UNL     1       1.568   1.773  -5.967  1.00  0.00     0.180 A 
ATOM      2  C   UNL     1       1.665   3.119  -5.576  1.00  0.00     0.208 A 
ATOM      3  C   UNL     1       2.892   3.599  -5.087  1.00  0.00     0.238 A 
ATOM      4  O   UNL     1       2.988   4.818  -4.790  1.00  0.00    -0.285 OA
ATOM      5  C   UNL     1       3.998   2.723  -4.979  1.00  0.00     0.111 A 
ATOM      6  C   UNL     1       5.275   3.092  -4.459  1.00  0.00     0.134 A 
ATOM      7  C   UNL     1       6.335   2.178  -4.520  1.00  0.00     0.093 A 
ATOM      8  C   UNL     1       6.148   0.891  -5.022  1.00  0.00     0.123 A 
ATOM      9  C   UNL     1       4.889   0.500  -5.477  1.00  0.00     0.094 A 
ATOM     10  C   UNL     1       3.821   1.401  -5.463  1.00  0.00     0.146 A 
ATOM     11  O   UNL     1       2.641   0.993  -5.915  1.00  0.00    -0.452 OA
ENDROOT
BRANCH   1  12
ATOM     12  C   UNL     1       0.303   1.189  -6.469  1.00  0.00     0.025 A 
ATOM     13  C   UNL     1      -0.062   1.381  -7.811  1.00  0.00     0.016 A 
ATOM     14  C   UNL     1      -1.241   0.822  -8.311  1.00  0.00     0.051 A 
ATOM     15  C   UNL     1      -2.063   0.050  -7.485  1.00  0.00     0.157 A 
ATOM     16  C   UNL     1      -0.515   0.395  -5.645  1.00  0.00     0.062 A 
ATOM     17  C   UNL     1      -1.698  -0.168  -6.147  1.00  0.00     0.158 A 
BRANCH  15  18
ATOM     18  O   UNL     1      -3.235  -0.493  -8.013  1.00  0.00    -0.504 OA
ATOM     19  H   UNL     1      -3.247  -1.392  -8.480  1.00  0.00     0.293 HD
ENDBRANCH  15  18
BRANCH  17  20
ATOM     20  O   UNL     1      -2.506  -0.949  -5.322  1.00  0.00    -0.504 OA
ATOM     21  H   UNL     1      -3.511  -0.818  -5.285  1.00  0.00     0.293 HD
ENDBRANCH  17  20
ENDBRANCH   1  12
BRANCH   2  22
ATOM     22  O   UNL     1       0.567   3.973  -5.712  1.00  0.00    -0.502 OA
ATOM     23  H   UNL     1       0.128   4.426  -4.920  1.00  0.00     0.293 HD
ENDBRANCH   2  22
BRANCH   6  24
ATOM     24  O   UNL     1       5.546   4.321  -3.852  1.00  0.00    -0.507 OA
ATOM     25  H   UNL     1       5.784   4.441  -2.878  1.00  0.00     0.293 HD
ENDBRANCH   6  24
BRANCH   8  26
ATOM     26  O   UNL     1       7.222   0.002  -5.054  1.00  0.00    -0.508 OA
ATOM     27  H   UNL     1       8.125   0.248  -4.666  1.00  0.00     0.293 HD
ENDBRANCH   8  26
TORSDOF 6
ENDMDL
