MODEL 1
REMARK VINA RESULT:    -9.311      0.000      0.000
REMARK INTER + INTRA:         -10.940
REMARK INTER:                 -11.217
REMARK INTRA:                   0.277
REMARK UNBOUND:                 0.277
REMARK SMILES O=c1c(O)c(-c2ccc(O)cc2O)oc2cc(O)cc(O)c12
REMARK SMILES IDX 5 1 3 2 2 3 1 4 22 5 20 6 19 7 17 8 16 9 15 10 14 11 6 12
REMARK SMILES IDX 8 13 7 14 9 15 11 16 12 17 10 18 13 20 4 22 21 24 18 26
REMARK H PARENT 10 19 13 21 4 23 21 25 18 27
REMARK Flexibility Score: inf
ROOT
ATOM      1  C   UNL     1     -42.282 -10.851   5.547  1.00  0.00     0.184 A 
ATOM      2  C   UNL     1     -43.645 -10.682   5.839  1.00  0.00     0.208 A 
ATOM      3  C   UNL     1     -44.564 -10.607   4.781  1.00  0.00     0.238 A 
ATOM      4  O   UNL     1     -45.777 -10.398   5.047  1.00  0.00    -0.285 OA
ATOM      5  C   UNL     1     -44.110 -10.721   3.445  1.00  0.00     0.111 A 
ATOM      6  C   UNL     1     -44.958 -10.698   2.296  1.00  0.00     0.134 A 
ATOM      7  C   UNL     1     -44.387 -10.691   1.017  1.00  0.00     0.093 A 
ATOM      8  C   UNL     1     -43.003 -10.772   0.845  1.00  0.00     0.123 A 
ATOM      9  C   UNL     1     -42.171 -10.854   1.959  1.00  0.00     0.094 A 
ATOM     10  C   UNL     1     -42.709 -10.826   3.248  1.00  0.00     0.146 A 
ATOM     11  O   UNL     1     -41.879 -10.894   4.283  1.00  0.00    -0.451 OA
ENDROOT
BRANCH   1  12
ATOM     12  C   UNL     1     -41.262 -10.963   6.616  1.00  0.00     0.063 A 
ATOM     13  C   UNL     1     -40.543 -10.526   8.900  1.00  0.00     0.047 A 
ATOM     14  C   UNL     1     -41.492 -10.397   7.883  1.00  0.00     0.020 A 
ATOM     15  C   UNL     1     -39.357 -11.228   8.672  1.00  0.00     0.119 A 
ATOM     16  C   UNL     1     -39.124 -11.807   7.418  1.00  0.00     0.093 A 
ATOM     17  C   UNL     1     -40.070 -11.682   6.390  1.00  0.00     0.130 A 
BRANCH  15  18
ATOM     18  O   UNL     1     -38.421 -11.348   9.695  1.00  0.00    -0.508 OA
ATOM     19  H   UNL     1     -37.865 -10.558  10.003  1.00  0.00     0.293 HD
ENDBRANCH  15  18
BRANCH  17  20
ATOM     20  O   UNL     1     -39.822 -12.258   5.144  1.00  0.00    -0.507 OA
ATOM     21  H   UNL     1     -39.107 -12.966   5.019  1.00  0.00     0.293 HD
ENDBRANCH  17  20
ENDBRANCH   1  12
BRANCH   2  22
ATOM     22  O   UNL     1     -44.068 -10.558   7.166  1.00  0.00    -0.502 OA
ATOM     23  H   UNL     1     -44.329 -11.357   7.730  1.00  0.00     0.293 HD
ENDBRANCH   2  22
BRANCH   6  24
ATOM     24  O   UNL     1     -46.354 -10.710   2.356  1.00  0.00    -0.507 OA
ATOM     25  H   UNL     1     -46.915 -10.019   2.831  1.00  0.00     0.293 HD
ENDBRANCH   6  24
BRANCH   8  26
ATOM     26  O   UNL     1     -42.444 -10.780  -0.431  1.00  0.00    -0.508 OA
ATOM     27  H   UNL     1     -42.004  -9.956  -0.823  1.00  0.00     0.293 HD
ENDBRANCH   8  26
TORSDOF 6
ENDMDL
MODEL 2
REMARK VINA RESULT:    -8.957      2.120      6.165
REMARK INTER + INTRA:         -10.513
REMARK INTER:                 -10.273
REMARK INTRA:                  -0.240
REMARK UNBOUND:                 0.277
REMARK SMILES O=c1c(O)c(-c2ccc(O)cc2O)oc2cc(O)cc(O)c12
REMARK SMILES IDX 5 1 3 2 2 3 1 4 22 5 20 6 19 7 17 8 16 9 15 10 14 11 6 12
REMARK SMILES IDX 8 13 7 14 9 15 11 16 12 17 10 18 13 20 4 22 21 24 18 26
REMARK H PARENT 10 19 13 21 4 23 21 25 18 27
REMARK Flexibility Score: inf
ROOT
ATOM      1  C   UNL     1     -43.365 -10.210   4.829  1.00  0.00     0.184 A 
ATOM      2  C   UNL     1     -42.907  -9.730   6.066  1.00  0.00     0.208 A 
ATOM      3  C   UNL     1     -41.746 -10.286   6.624  1.00  0.00     0.238 A 
ATOM      4  O   UNL     1     -41.372  -9.891   7.760  1.00  0.00    -0.285 OA
ATOM      5  C   UNL     1     -41.046 -11.302   5.928  1.00  0.00     0.111 A 
ATOM      6  C   UNL     1     -39.836 -11.909   6.381  1.00  0.00     0.134 A 
ATOM      7  C   UNL     1     -39.301 -12.993   5.675  1.00  0.00     0.093 A 
ATOM      8  C   UNL     1     -39.896 -13.448   4.495  1.00  0.00     0.123 A 
ATOM      9  C   UNL     1     -41.044 -12.824   4.013  1.00  0.00     0.094 A 
ATOM     10  C   UNL     1     -41.622 -11.764   4.716  1.00  0.00     0.146 A 
ATOM     11  O   UNL     1     -42.723 -11.205   4.228  1.00  0.00    -0.451 OA
ENDROOT
BRANCH   1  12
ATOM     12  C   UNL     1     -44.570  -9.651   4.171  1.00  0.00     0.063 A 
ATOM     13  C   UNL     1     -46.914  -9.002   4.263  1.00  0.00     0.047 A 
ATOM     14  C   UNL     1     -45.785  -9.555   4.873  1.00  0.00     0.020 A 
ATOM     15  C   UNL     1     -46.845  -8.530   2.951  1.00  0.00     0.119 A 
ATOM     16  C   UNL     1     -45.636  -8.608   2.246  1.00  0.00     0.093 A 
ATOM     17  C   UNL     1     -44.498  -9.163   2.850  1.00  0.00     0.130 A 
BRANCH  15  18
ATOM     18  O   UNL     1     -47.979  -7.981   2.356  1.00  0.00    -0.508 OA
ATOM     19  H   UNL     1     -48.858  -7.910   2.855  1.00  0.00     0.293 HD
ENDBRANCH  15  18
BRANCH  17  20
ATOM     20  O   UNL     1     -43.302  -9.241   2.136  1.00  0.00    -0.507 OA
ATOM     21  H   UNL     1     -43.143  -9.965   1.444  1.00  0.00     0.293 HD
ENDBRANCH  17  20
ENDBRANCH   1  12
BRANCH   2  22
ATOM     22  O   UNL     1     -43.622  -8.736   6.740  1.00  0.00    -0.502 OA
ATOM     23  H   UNL     1     -43.920  -7.879   6.289  1.00  0.00     0.293 HD
ENDBRANCH   2  22
BRANCH   6  24
ATOM     24  O   UNL     1     -39.113 -11.473   7.495  1.00  0.00    -0.507 OA
ATOM     25  H   UNL     1     -39.501 -11.337   8.416  1.00  0.00     0.293 HD
ENDBRANCH   6  24
BRANCH   8  26
ATOM     26  O   UNL     1     -39.348 -14.517   3.789  1.00  0.00    -0.508 OA
ATOM     27  H   UNL     1     -38.529 -14.402   3.204  1.00  0.00     0.293 HD
ENDBRANCH   8  26
TORSDOF 6
ENDMDL
MODEL 3
REMARK VINA RESULT:    -8.857      1.784      2.323
REMARK INTER + INTRA:         -10.392
REMARK INTER:                 -10.150
REMARK INTRA:                  -0.243
REMARK UNBOUND:                 0.277
REMARK SMILES O=c1c(O)c(-c2ccc(O)cc2O)oc2cc(O)cc(O)c12
REMARK SMILES IDX 5 1 3 2 2 3 1 4 22 5 20 6 19 7 17 8 16 9 15 10 14 11 6 12
REMARK SMILES IDX 8 13 7 14 9 15 11 16 12 17 10 18 13 20 4 22 21 24 18 26
REMARK H PARENT 10 19 13 21 4 23 21 25 18 27
REMARK Flexibility Score: inf
ROOT
ATOM      1  C   UNL     1     -41.697 -10.848   5.076  1.00  0.00     0.184 A 
ATOM      2  C   UNL     1     -42.050 -12.004   4.361  1.00  0.00     0.208 A 
ATOM      3  C   UNL     1     -42.682 -11.866   3.115  1.00  0.00     0.238 A 
ATOM      4  O   UNL     1     -43.048 -12.906   2.505  1.00  0.00    -0.285 OA
ATOM      5  C   UNL     1     -42.935 -10.576   2.592  1.00  0.00     0.111 A 
ATOM      6  C   UNL     1     -43.534 -10.318   1.321  1.00  0.00     0.134 A 
ATOM      7  C   UNL     1     -43.852  -9.003   0.962  1.00  0.00     0.093 A 
ATOM      8  C   UNL     1     -43.534  -7.931   1.798  1.00  0.00     0.123 A 
ATOM      9  C   UNL     1     -42.896  -8.166   3.013  1.00  0.00     0.094 A 
ATOM     10  C   UNL     1     -42.599  -9.471   3.416  1.00  0.00     0.146 A 
ATOM     11  O   UNL     1     -42.001  -9.652   4.588  1.00  0.00    -0.451 OA
ENDROOT
BRANCH   1  12
ATOM     12  C   UNL     1     -41.006 -10.920   6.385  1.00  0.00     0.063 A 
ATOM     13  C   UNL     1     -41.015 -10.589   8.796  1.00  0.00     0.047 A 
ATOM     14  C   UNL     1     -41.655 -10.496   7.558  1.00  0.00     0.020 A 
ATOM     15  C   UNL     1     -39.725 -11.116   8.884  1.00  0.00     0.119 A 
ATOM     16  C   UNL     1     -39.073 -11.555   7.723  1.00  0.00     0.093 A 
ATOM     17  C   UNL     1     -39.708 -11.464   6.476  1.00  0.00     0.130 A 
BRANCH  15  18
ATOM     18  O   UNL     1     -39.099 -11.203  10.125  1.00  0.00    -0.508 OA
ATOM     19  H   UNL     1     -39.478 -11.773  10.872  1.00  0.00     0.293 HD
ENDBRANCH  15  18
BRANCH  17  20
ATOM     20  O   UNL     1     -39.046 -11.898   5.327  1.00  0.00    -0.507 OA
ATOM     21  H   UNL     1     -39.047 -12.873   5.050  1.00  0.00     0.293 HD
ENDBRANCH  17  20
ENDBRANCH   1  12
BRANCH   2  22
ATOM     22  O   UNL     1     -41.803 -13.268   4.904  1.00  0.00    -0.502 OA
ATOM     23  H   UNL     1     -41.009 -13.833   4.627  1.00  0.00     0.293 HD
ENDBRANCH   2  22
BRANCH   6  24
ATOM     24  O   UNL     1     -43.809 -11.308   0.374  1.00  0.00    -0.507 OA
ATOM     25  H   UNL     1     -43.149 -11.655  -0.305  1.00  0.00     0.293 HD
ENDBRANCH   6  24
BRANCH   8  26
ATOM     26  O   UNL     1     -43.840  -6.623   1.426  1.00  0.00    -0.508 OA
ATOM     27  H   UNL     1     -43.163  -5.874   1.515  1.00  0.00     0.293 HD
ENDBRANCH   8  26
TORSDOF 6
ENDMDL
MODEL 4
REMARK VINA RESULT:    -8.835      1.821      2.723
REMARK INTER + INTRA:         -10.366
REMARK INTER:                  -9.947
REMARK INTRA:                  -0.419
REMARK UNBOUND:                 0.277
REMARK SMILES O=c1c(O)c(-c2ccc(O)cc2O)oc2cc(O)cc(O)c12
REMARK SMILES IDX 5 1 3 2 2 3 1 4 22 5 20 6 19 7 17 8 16 9 15 10 14 11 6 12
REMARK SMILES IDX 8 13 7 14 9 15 11 16 12 17 10 18 13 20 4 22 21 24 18 26
REMARK H PARENT 10 19 13 21 4 23 21 25 18 27
REMARK Flexibility Score: inf
ROOT
ATOM      1  C   UNL     1     -41.763 -10.892   5.035  1.00  0.00     0.184 A 
ATOM      2  C   UNL     1     -42.111 -12.027   4.285  1.00  0.00     0.208 A 
ATOM      3  C   UNL     1     -42.737 -11.854   3.040  1.00  0.00     0.238 A 
ATOM      4  O   UNL     1     -43.099 -12.876   2.399  1.00  0.00    -0.285 OA
ATOM      5  C   UNL     1     -42.987 -10.549   2.552  1.00  0.00     0.111 A 
ATOM      6  C   UNL     1     -43.579 -10.256   1.286  1.00  0.00     0.134 A 
ATOM      7  C   UNL     1     -43.896  -8.932   0.963  1.00  0.00     0.093 A 
ATOM      8  C   UNL     1     -43.582  -7.883   1.831  1.00  0.00     0.123 A 
ATOM      9  C   UNL     1     -42.951  -8.153   3.042  1.00  0.00     0.094 A 
ATOM     10  C   UNL     1     -42.656  -9.468   3.409  1.00  0.00     0.146 A 
ATOM     11  O   UNL     1     -42.064  -9.683   4.579  1.00  0.00    -0.451 OA
ENDROOT
BRANCH   1  12
ATOM     12  C   UNL     1     -41.079 -11.001   6.345  1.00  0.00     0.063 A 
ATOM     13  C   UNL     1     -39.132 -11.632   7.661  1.00  0.00     0.047 A 
ATOM     14  C   UNL     1     -39.789 -11.554   6.431  1.00  0.00     0.020 A 
ATOM     15  C   UNL     1     -39.746 -11.152   8.820  1.00  0.00     0.119 A 
ATOM     16  C   UNL     1     -41.026 -10.586   8.743  1.00  0.00     0.093 A 
ATOM     17  C   UNL     1     -41.694 -10.505   7.513  1.00  0.00     0.130 A 
BRANCH  15  18
ATOM     18  O   UNL     1     -39.079 -11.236  10.039  1.00  0.00    -0.508 OA
ATOM     19  H   UNL     1     -39.237 -10.561  10.778  1.00  0.00     0.293 HD
ENDBRANCH  15  18
BRANCH  17  20
ATOM     20  O   UNL     1     -42.970  -9.945   7.451  1.00  0.00    -0.507 OA
ATOM     21  H   UNL     1     -43.251  -9.193   8.070  1.00  0.00     0.293 HD
ENDBRANCH  17  20
ENDBRANCH   1  12
BRANCH   2  22
ATOM     22  O   UNL     1     -41.867 -13.306   4.793  1.00  0.00    -0.502 OA
ATOM     23  H   UNL     1     -41.609 -13.467   5.759  1.00  0.00     0.293 HD
ENDBRANCH   2  22
BRANCH   6  24
ATOM     24  O   UNL     1     -43.849 -11.219   0.310  1.00  0.00    -0.507 OA
ATOM     25  H   UNL     1     -44.771 -11.530   0.048  1.00  0.00     0.293 HD
ENDBRANCH   6  24
BRANCH   8  26
ATOM     26  O   UNL     1     -43.887  -6.565   1.494  1.00  0.00    -0.508 OA
ATOM     27  H   UNL     1     -44.135  -5.882   2.199  1.00  0.00     0.293 HD
ENDBRANCH   8  26
TORSDOF 6
ENDMDL
MODEL 5
REMARK VINA RESULT:    -8.779      1.439      6.537
REMARK INTER + INTRA:         -10.298
REMARK INTER:                  -9.895
REMARK INTRA:                  -0.403
REMARK UNBOUND:                 0.277
REMARK SMILES O=c1c(O)c(-c2ccc(O)cc2O)oc2cc(O)cc(O)c12
REMARK SMILES IDX 5 1 3 2 2 3 1 4 22 5 20 6 19 7 17 8 16 9 15 10 14 11 6 12
REMARK SMILES IDX 8 13 7 14 9 15 11 16 12 17 10 18 13 20 4 22 21 24 18 26
REMARK H PARENT 10 19 13 21 4 23 21 25 18 27
REMARK Flexibility Score: inf
ROOT
ATOM      1  C   UNL     1     -41.850 -11.109   4.929  1.00  0.00     0.184 A 
ATOM      2  C   UNL     1     -42.491 -10.535   6.039  1.00  0.00     0.208 A 
ATOM      3  C   UNL     1     -41.821 -10.508   7.272  1.00  0.00     0.238 A 
ATOM      4  O   UNL     1     -42.423 -10.044   8.277  1.00  0.00    -0.285 OA
ATOM      5  C   UNL     1     -40.512 -11.036   7.375  1.00  0.00     0.111 A 
ATOM      6  C   UNL     1     -39.724 -11.025   8.566  1.00  0.00     0.134 A 
ATOM      7  C   UNL     1     -38.493 -11.691   8.585  1.00  0.00     0.093 A 
ATOM      8  C   UNL     1     -37.991 -12.310   7.437  1.00  0.00     0.123 A 
ATOM      9  C   UNL     1     -38.725 -12.275   6.255  1.00  0.00     0.094 A 
ATOM     10  C   UNL     1     -39.974 -11.651   6.215  1.00  0.00     0.146 A 
ATOM     11  O   UNL     1     -40.647 -11.651   5.070  1.00  0.00    -0.451 OA
ENDROOT
BRANCH   1  12
ATOM     12  C   UNL     1     -42.489 -11.149   3.593  1.00  0.00     0.063 A 
ATOM     13  C   UNL     1     -44.237 -11.976   2.114  1.00  0.00     0.047 A 
ATOM     14  C   UNL     1     -43.617 -11.959   3.366  1.00  0.00     0.020 A 
ATOM     15  C   UNL     1     -43.749 -11.181   1.075  1.00  0.00     0.119 A 
ATOM     16  C   UNL     1     -42.634 -10.360   1.294  1.00  0.00     0.093 A 
ATOM     17  C   UNL     1     -42.004 -10.337   2.547  1.00  0.00     0.130 A 
BRANCH  15  18
ATOM     18  O   UNL     1     -44.377 -11.209  -0.167  1.00  0.00    -0.508 OA
ATOM     19  H   UNL     1     -44.299 -12.009  -0.784  1.00  0.00     0.293 HD
ENDBRANCH  15  18
BRANCH  17  20
ATOM     20  O   UNL     1     -40.892  -9.521   2.749  1.00  0.00    -0.507 OA
ATOM     21  H   UNL     1     -40.859  -8.844   3.503  1.00  0.00     0.293 HD
ENDBRANCH  17  20
ENDBRANCH   1  12
BRANCH   2  22
ATOM     22  O   UNL     1     -43.789 -10.032   5.917  1.00  0.00    -0.502 OA
ATOM     23  H   UNL     1     -44.054  -9.384   5.185  1.00  0.00     0.293 HD
ENDBRANCH   2  22
BRANCH   6  24
ATOM     24  O   UNL     1     -40.091 -10.359   9.738  1.00  0.00    -0.507 OA
ATOM     25  H   UNL     1     -39.458  -9.840  10.327  1.00  0.00     0.293 HD
ENDBRANCH   6  24
BRANCH   8  26
ATOM     26  O   UNL     1     -36.756 -12.956   7.460  1.00  0.00    -0.508 OA
ATOM     27  H   UNL     1     -36.294 -13.246   6.607  1.00  0.00     0.293 HD
ENDBRANCH   8  26
TORSDOF 6
ENDMDL
MODEL 6
REMARK VINA RESULT:    -8.639      2.606      4.183
REMARK INTER + INTRA:         -10.130
REMARK INTER:                  -9.664
REMARK INTRA:                  -0.465
REMARK UNBOUND:                 0.277
REMARK SMILES O=c1c(O)c(-c2ccc(O)cc2O)oc2cc(O)cc(O)c12
REMARK SMILES IDX 5 1 3 2 2 3 1 4 22 5 20 6 19 7 17 8 16 9 15 10 14 11 6 12
REMARK SMILES IDX 8 13 7 14 9 15 11 16 12 17 10 18 13 20 4 22 21 24 18 26
REMARK H PARENT 10 19 13 21 4 23 21 25 18 27
REMARK Flexibility Score: inf
ROOT
ATOM      1  C   UNL     1     -42.628 -10.910   3.151  1.00  0.00     0.184 A 
ATOM      2  C   UNL     1     -42.693 -10.657   1.771  1.00  0.00     0.208 A 
ATOM      3  C   UNL     1     -43.783  -9.933   1.263  1.00  0.00     0.238 A 
ATOM      4  O   UNL     1     -43.865  -9.760   0.018  1.00  0.00    -0.285 OA
ATOM      5  C   UNL     1     -44.782  -9.453   2.143  1.00  0.00     0.111 A 
ATOM      6  C   UNL     1     -45.910  -8.674   1.742  1.00  0.00     0.134 A 
ATOM      7  C   UNL     1     -46.902  -8.362   2.679  1.00  0.00     0.093 A 
ATOM      8  C   UNL     1     -46.775  -8.746   4.017  1.00  0.00     0.123 A 
ATOM      9  C   UNL     1     -45.651  -9.455   4.430  1.00  0.00     0.094 A 
ATOM     10  C   UNL     1     -44.661  -9.812   3.510  1.00  0.00     0.146 A 
ATOM     11  O   UNL     1     -43.611 -10.500   3.944  1.00  0.00    -0.451 OA
ENDROOT
BRANCH   1  12
ATOM     12  C   UNL     1     -41.495 -11.647   3.758  1.00  0.00     0.063 A 
ATOM     13  C   UNL     1     -39.250 -11.661   4.699  1.00  0.00     0.047 A 
ATOM     14  C   UNL     1     -40.309 -10.973   4.101  1.00  0.00     0.020 A 
ATOM     15  C   UNL     1     -39.362 -13.026   4.972  1.00  0.00     0.119 A 
ATOM     16  C   UNL     1     -40.544 -13.705   4.647  1.00  0.00     0.093 A 
ATOM     17  C   UNL     1     -41.612 -13.023   4.045  1.00  0.00     0.130 A 
BRANCH  15  18
ATOM     18  O   UNL     1     -38.299 -13.699   5.568  1.00  0.00    -0.508 OA
ATOM     19  H   UNL     1     -37.841 -13.339   6.397  1.00  0.00     0.293 HD
ENDBRANCH  15  18
BRANCH  17  20
ATOM     20  O   UNL     1     -42.781 -13.711   3.721  1.00  0.00    -0.507 OA
ATOM     21  H   UNL     1     -43.578 -13.730   4.347  1.00  0.00     0.293 HD
ENDBRANCH  17  20
ENDBRANCH   1  12
BRANCH   2  22
ATOM     22  O   UNL     1     -41.701 -11.153   0.920  1.00  0.00    -0.502 OA
ATOM     23  H   UNL     1     -41.176 -10.557   0.292  1.00  0.00     0.293 HD
ENDBRANCH   2  22
BRANCH   6  24
ATOM     24  O   UNL     1     -46.086  -8.163   0.453  1.00  0.00    -0.507 OA
ATOM     25  H   UNL     1     -46.963  -8.148  -0.044  1.00  0.00     0.293 HD
ENDBRANCH   6  24
BRANCH   8  26
ATOM     26  O   UNL     1     -47.760  -8.418   4.947  1.00  0.00    -0.508 OA
ATOM     27  H   UNL     1     -48.342  -9.128   5.375  1.00  0.00     0.293 HD
ENDBRANCH   8  26
TORSDOF 6
ENDMDL
MODEL 7
REMARK VINA RESULT:    -8.610      1.699      6.859
REMARK INTER + INTRA:         -10.095
REMARK INTER:                  -9.910
REMARK INTRA:                  -0.186
REMARK UNBOUND:                 0.277
REMARK SMILES O=c1c(O)c(-c2ccc(O)cc2O)oc2cc(O)cc(O)c12
REMARK SMILES IDX 5 1 3 2 2 3 1 4 22 5 20 6 19 7 17 8 16 9 15 10 14 11 6 12
REMARK SMILES IDX 8 13 7 14 9 15 11 16 12 17 10 18 13 20 4 22 21 24 18 26
REMARK H PARENT 10 19 13 21 4 23 21 25 18 27
REMARK Flexibility Score: inf
ROOT
ATOM      1  C   UNL     1     -42.747 -10.413   4.954  1.00  0.00     0.184 A 
ATOM      2  C   UNL     1     -41.869 -11.155   4.146  1.00  0.00     0.208 A 
ATOM      3  C   UNL     1     -40.696 -11.674   4.715  1.00  0.00     0.238 A 
ATOM      4  O   UNL     1     -39.885 -12.289   3.972  1.00  0.00    -0.285 OA
ATOM      5  C   UNL     1     -40.425 -11.463   6.088  1.00  0.00     0.111 A 
ATOM      6  C   UNL     1     -39.286 -11.978   6.779  1.00  0.00     0.134 A 
ATOM      7  C   UNL     1     -39.055 -11.598   8.107  1.00  0.00     0.093 A 
ATOM      8  C   UNL     1     -39.956 -10.777   8.789  1.00  0.00     0.123 A 
ATOM      9  C   UNL     1     -41.100 -10.318   8.142  1.00  0.00     0.094 A 
ATOM     10  C   UNL     1     -41.340 -10.649   6.806  1.00  0.00     0.146 A 
ATOM     11  O   UNL     1     -42.437 -10.180   6.223  1.00  0.00    -0.451 OA
ENDROOT
BRANCH   1  12
ATOM     12  C   UNL     1     -44.014  -9.857   4.424  1.00  0.00     0.063 A 
ATOM     13  C   UNL     1     -45.225  -8.633   2.703  1.00  0.00     0.047 A 
ATOM     14  C   UNL     1     -44.026  -9.135   3.218  1.00  0.00     0.020 A 
ATOM     15  C   UNL     1     -46.427  -8.854   3.378  1.00  0.00     0.119 A 
ATOM     16  C   UNL     1     -46.429  -9.585   4.573  1.00  0.00     0.093 A 
ATOM     17  C   UNL     1     -45.231 -10.091   5.098  1.00  0.00     0.130 A 
BRANCH  15  18
ATOM     18  O   UNL     1     -47.614  -8.349   2.853  1.00  0.00    -0.508 OA
ATOM     19  H   UNL     1     -47.846  -7.365   2.917  1.00  0.00     0.293 HD
ENDBRANCH  15  18
BRANCH  17  20
ATOM     20  O   UNL     1     -45.245 -10.811   6.293  1.00  0.00    -0.507 OA
ATOM     21  H   UNL     1     -45.290 -11.823   6.302  1.00  0.00     0.293 HD
ENDBRANCH  17  20
ENDBRANCH   1  12
BRANCH   2  22
ATOM     22  O   UNL     1     -42.151 -11.339   2.789  1.00  0.00    -0.502 OA
ATOM     23  H   UNL     1     -41.484 -11.749   2.146  1.00  0.00     0.293 HD
ENDBRANCH   2  22
BRANCH   6  24
ATOM     24  O   UNL     1     -38.375 -12.877   6.219  1.00  0.00    -0.507 OA
ATOM     25  H   UNL     1     -38.254 -13.833   6.516  1.00  0.00     0.293 HD
ENDBRANCH   6  24
BRANCH   8  26
ATOM     26  O   UNL     1     -39.726 -10.418  10.116  1.00  0.00    -0.508 OA
ATOM     27  H   UNL     1     -38.789 -10.269  10.470  1.00  0.00     0.293 HD
ENDBRANCH   8  26
TORSDOF 6
ENDMDL
MODEL 8
REMARK VINA RESULT:    -8.442      1.437      3.235
REMARK INTER + INTRA:          -9.893
REMARK INTER:                 -10.446
REMARK INTRA:                   0.553
REMARK UNBOUND:                 0.277
REMARK SMILES O=c1c(O)c(-c2ccc(O)cc2O)oc2cc(O)cc(O)c12
REMARK SMILES IDX 5 1 3 2 2 3 1 4 22 5 20 6 19 7 17 8 16 9 15 10 14 11 6 12
REMARK SMILES IDX 8 13 7 14 9 15 11 16 12 17 10 18 13 20 4 22 21 24 18 26
REMARK H PARENT 10 19 13 21 4 23 21 25 18 27
REMARK Flexibility Score: inf
ROOT
ATOM      1  C   UNL     1     -42.104 -11.103   5.250  1.00  0.00     0.184 A 
ATOM      2  C   UNL     1     -42.039 -11.733   3.996  1.00  0.00     0.208 A 
ATOM      3  C   UNL     1     -43.082 -11.530   3.079  1.00  0.00     0.238 A 
ATOM      4  O   UNL     1     -43.046 -12.142   1.979  1.00  0.00    -0.285 OA
ATOM      5  C   UNL     1     -44.165 -10.684   3.418  1.00  0.00     0.111 A 
ATOM      6  C   UNL     1     -45.256 -10.375   2.550  1.00  0.00     0.134 A 
ATOM      7  C   UNL     1     -46.336  -9.629   3.038  1.00  0.00     0.093 A 
ATOM      8  C   UNL     1     -46.334  -9.126   4.341  1.00  0.00     0.123 A 
ATOM      9  C   UNL     1     -45.248  -9.371   5.176  1.00  0.00     0.094 A 
ATOM     10  C   UNL     1     -44.172 -10.143   4.730  1.00  0.00     0.146 A 
ATOM     11  O   UNL     1     -43.161 -10.364   5.563  1.00  0.00    -0.451 OA
ENDROOT
BRANCH   1  12
ATOM     12  C   UNL     1     -41.027 -11.255   6.256  1.00  0.00     0.063 A 
ATOM     13  C   UNL     1     -38.786 -11.994   6.853  1.00  0.00     0.047 A 
ATOM     14  C   UNL     1     -39.813 -11.876   5.913  1.00  0.00     0.020 A 
ATOM     15  C   UNL     1     -38.951 -11.487   8.144  1.00  0.00     0.119 A 
ATOM     16  C   UNL     1     -40.151 -10.853   8.493  1.00  0.00     0.093 A 
ATOM     17  C   UNL     1     -41.188 -10.731   7.556  1.00  0.00     0.130 A 
BRANCH  15  18
ATOM     18  O   UNL     1     -37.919 -11.612   9.070  1.00  0.00    -0.508 OA
ATOM     19  H   UNL     1     -37.380 -10.810   9.376  1.00  0.00     0.293 HD
ENDBRANCH  15  18
BRANCH  17  20
ATOM     20  O   UNL     1     -42.380 -10.104   7.918  1.00  0.00    -0.507 OA
ATOM     21  H   UNL     1     -43.200 -10.635   8.188  1.00  0.00     0.293 HD
ENDBRANCH  17  20
ENDBRANCH   1  12
BRANCH   2  22
ATOM     22  O   UNL     1     -40.966 -12.574   3.688  1.00  0.00    -0.502 OA
ATOM     23  H   UNL     1     -40.261 -12.827   4.370  1.00  0.00     0.293 HD
ENDBRANCH   2  22
BRANCH   6  24
ATOM     24  O   UNL     1     -45.314 -10.752   1.206  1.00  0.00    -0.507 OA
ATOM     25  H   UNL     1     -45.893 -11.492   0.840  1.00  0.00     0.293 HD
ENDBRANCH   6  24
BRANCH   8  26
ATOM     26  O   UNL     1     -47.406  -8.370   4.813  1.00  0.00    -0.508 OA
ATOM     27  H   UNL     1     -48.355  -8.545   4.503  1.00  0.00     0.293 HD
ENDBRANCH   8  26
TORSDOF 6
ENDMDL
MODEL 9
REMARK VINA RESULT:    -7.713      2.186      2.686
REMARK INTER + INTRA:          -9.015
REMARK INTER:                  -8.593
REMARK INTRA:                  -0.422
REMARK UNBOUND:                 0.277
REMARK SMILES O=c1c(O)c(-c2ccc(O)cc2O)oc2cc(O)cc(O)c12
REMARK SMILES IDX 5 1 3 2 2 3 1 4 22 5 20 6 19 7 17 8 16 9 15 10 14 11 6 12
REMARK SMILES IDX 8 13 7 14 9 15 11 16 12 17 10 18 13 20 4 22 21 24 18 26
REMARK H PARENT 10 19 13 21 4 23 21 25 18 27
REMARK Flexibility Score: inf
ROOT
ATOM      1  C   UNL     1     -42.711 -10.995   4.311  1.00  0.00     0.184 A 
ATOM      2  C   UNL     1     -43.720 -10.770   5.260  1.00  0.00     0.208 A 
ATOM      3  C   UNL     1     -44.864 -10.051   4.880  1.00  0.00     0.238 A 
ATOM      4  O   UNL     1     -45.739  -9.803   5.752  1.00  0.00    -0.285 OA
ATOM      5  C   UNL     1     -44.993  -9.583   3.551  1.00  0.00     0.111 A 
ATOM      6  C   UNL     1     -46.126  -8.877   3.045  1.00  0.00     0.134 A 
ATOM      7  C   UNL     1     -46.090  -8.351   1.748  1.00  0.00     0.093 A 
ATOM      8  C   UNL     1     -44.988  -8.561   0.916  1.00  0.00     0.123 A 
ATOM      9  C   UNL     1     -43.901  -9.298   1.379  1.00  0.00     0.094 A 
ATOM     10  C   UNL     1     -43.893  -9.805   2.682  1.00  0.00     0.146 A 
ATOM     11  O   UNL     1     -42.831 -10.492   3.088  1.00  0.00    -0.451 OA
ENDROOT
BRANCH   1  12
ATOM     12  C   UNL     1     -41.489 -11.767   4.637  1.00  0.00     0.063 A 
ATOM     13  C   UNL     1     -39.358 -11.952   5.799  1.00  0.00     0.047 A 
ATOM     14  C   UNL     1     -40.497 -11.215   5.468  1.00  0.00     0.020 A 
ATOM     15  C   UNL     1     -39.195 -13.252   5.316  1.00  0.00     0.119 A 
ATOM     16  C   UNL     1     -40.183 -13.818   4.499  1.00  0.00     0.093 A 
ATOM     17  C   UNL     1     -41.330 -13.084   4.160  1.00  0.00     0.130 A 
BRANCH  15  18
ATOM     18  O   UNL     1     -38.055 -13.975   5.654  1.00  0.00    -0.508 OA
ATOM     19  H   UNL     1     -38.039 -14.598   6.453  1.00  0.00     0.293 HD
ENDBRANCH  15  18
BRANCH  17  20
ATOM     20  O   UNL     1     -42.303 -13.657   3.340  1.00  0.00    -0.507 OA
ATOM     21  H   UNL     1     -42.167 -13.752   2.340  1.00  0.00     0.293 HD
ENDBRANCH  17  20
ENDBRANCH   1  12
BRANCH   2  22
ATOM     22  O   UNL     1     -43.565 -11.230   6.571  1.00  0.00    -0.502 OA
ATOM     23  H   UNL     1     -42.721 -11.067   7.108  1.00  0.00     0.293 HD
ENDBRANCH   2  22
BRANCH   6  24
ATOM     24  O   UNL     1     -47.312  -8.691   3.761  1.00  0.00    -0.507 OA
ATOM     25  H   UNL     1     -48.090  -8.130   3.450  1.00  0.00     0.293 HD
ENDBRANCH   6  24
BRANCH   8  26
ATOM     26  O   UNL     1     -44.966  -8.047  -0.379  1.00  0.00    -0.508 OA
ATOM     27  H   UNL     1     -44.181  -7.506  -0.722  1.00  0.00     0.293 HD
ENDBRANCH   8  26
TORSDOF 6
ENDMDL
