MODEL 1
REMARK VINA RESULT:    -4.902      0.000      0.000
REMARK INTER + INTRA:         -11.258
REMARK INTER:                  -8.628
REMARK INTRA:                  -2.630
REMARK UNBOUND:                -2.630
REMARK SMILES CCCCCCC=CCCCCCCCC(=O)[O-]
REMARK SMILES IDX 10 1 11 2 12 3 13 4 14 5 15 6 16 7 17 8 18 9 9 10 8 11 7 12
REMARK SMILES IDX 6 13 5 14 4 15 3 16 2 17 1 18
REMARK H PARENT
REMARK Flexibility Score: inf
ROOT
ATOM      1  C   UNL     1     148.985 170.665 152.918  1.00  0.00     0.004 C 
ENDROOT
BRANCH   1   2
ATOM      2  C   UNL     1     150.305 170.309 153.618  1.00  0.00     0.000 C 
BRANCH   2   3
ATOM      3  C   UNL     1     151.439 171.232 153.158  1.00  0.00     0.000 C 
BRANCH   3   4
ATOM      4  C   UNL     1     152.700 170.426 152.814  1.00  0.00     0.000 C 
BRANCH   4   5
ATOM      5  C   UNL     1     152.485 168.904 152.901  1.00  0.00     0.006 C 
BRANCH   5   6
ATOM      6  C   UNL     1     153.555 168.167 153.726  1.00  0.00     0.053 C 
BRANCH   6   7
ATOM      7  C   UNL     1     154.901 168.172 153.067  1.00  0.00     0.041 C 
ATOM      8  O   UNL     1     155.921 168.545 153.705  1.00  0.00    -0.550 OA
ATOM      9  O   UNL     1     155.025 167.794 151.736  1.00  0.00    -0.550 OA
ENDBRANCH   6   7
ENDBRANCH   5   6
ENDBRANCH   4   5
ENDBRANCH   3   4
ENDBRANCH   2   3
ENDBRANCH   1   2
BRANCH   1  10
ATOM     10  C   UNL     1     149.216 171.334 151.555  1.00  0.00     0.027 C 
BRANCH  10  11
ATOM     11  C   UNL     1     148.468 170.635 150.445  1.00  0.00    -0.031 C 
ATOM     12  C   UNL     1     148.960 169.627 149.701  1.00  0.00    -0.031 C 
BRANCH  12  13
ATOM     13  C   UNL     1     150.359 169.067 149.810  1.00  0.00     0.027 C 
BRANCH  13  14
ATOM     14  C   UNL     1     150.337 167.552 150.041  1.00  0.00     0.004 C 
BRANCH  14  15
ATOM     15  C   UNL     1     149.060 167.095 150.760  1.00  0.00     0.000 C 
BRANCH  15  16
ATOM     16  C   UNL     1     149.320 166.871 152.255  1.00  0.00    -0.000 C 
BRANCH  16  17
ATOM     17  C   UNL     1     148.057 167.145 153.080  1.00  0.00    -0.003 C 
ATOM     18  C   UNL     1     146.905 167.601 152.189  1.00  0.00     0.004 C 
ENDBRANCH  16  17
ENDBRANCH  15  16
ENDBRANCH  14  15
ENDBRANCH  13  14
ENDBRANCH  12  13
ENDBRANCH  10  11
ENDBRANCH   1  10
TORSDOF 13
ENDMDL
MODEL 2
REMARK VINA RESULT:    -4.876      1.562      2.355
REMARK INTER + INTRA:         -11.212
REMARK INTER:                  -9.229
REMARK INTRA:                  -1.983
REMARK UNBOUND:                -2.630
REMARK SMILES CCCCCCC=CCCCCCCCC(=O)[O-]
REMARK SMILES IDX 10 1 11 2 12 3 13 4 14 5 15 6 16 7 17 8 18 9 9 10 8 11 7 12
REMARK SMILES IDX 6 13 5 14 4 15 3 16 2 17 1 18
REMARK H PARENT
REMARK Flexibility Score: inf
ROOT
ATOM      1  C   UNL     1     150.759 168.821 152.550  1.00  0.00     0.004 C 
ENDROOT
BRANCH   1   2
ATOM      2  C   UNL     1     151.320 169.744 153.642  1.00  0.00     0.000 C 
BRANCH   2   3
ATOM      3  C   UNL     1     152.203 170.841 153.035  1.00  0.00     0.000 C 
BRANCH   3   4
ATOM      4  C   UNL     1     153.680 170.621 153.397  1.00  0.00     0.000 C 
BRANCH   4   5
ATOM      5  C   UNL     1     154.508 170.052 152.231  1.00  0.00     0.006 C 
BRANCH   5   6
ATOM      6  C   UNL     1     154.391 168.526 152.066  1.00  0.00     0.053 C 
BRANCH   6   7
ATOM      7  C   UNL     1     155.190 167.770 153.084  1.00  0.00     0.041 C 
ATOM      8  O   UNL     1     154.853 166.603 153.419  1.00  0.00    -0.550 OA
ATOM      9  O   UNL     1     156.290 168.366 153.686  1.00  0.00    -0.550 OA
ENDBRANCH   6   7
ENDBRANCH   5   6
ENDBRANCH   4   5
ENDBRANCH   3   4
ENDBRANCH   2   3
ENDBRANCH   1   2
BRANCH   1  10
ATOM     10  C   UNL     1     150.678 169.523 151.186  1.00  0.00     0.027 C 
BRANCH  10  11
ATOM     11  C   UNL     1     150.999 168.587 150.046  1.00  0.00    -0.031 C 
ATOM     12  C   UNL     1     150.247 168.434 148.940  1.00  0.00    -0.031 C 
BRANCH  12  13
ATOM     13  C   UNL     1     148.929 169.124 148.682  1.00  0.00     0.027 C 
BRANCH  13  14
ATOM     14  C   UNL     1     147.756 168.319 149.254  1.00  0.00     0.004 C 
BRANCH  14  15
ATOM     15  C   UNL     1     146.880 169.159 150.195  1.00  0.00     0.000 C 
BRANCH  15  16
ATOM     16  C   UNL     1     146.908 168.597 151.621  1.00  0.00    -0.000 C 
BRANCH  16  17
ATOM     17  C   UNL     1     147.191 169.703 152.643  1.00  0.00    -0.003 C 
ATOM     18  C   UNL     1     147.597 171.001 151.952  1.00  0.00     0.004 C 
ENDBRANCH  16  17
ENDBRANCH  15  16
ENDBRANCH  14  15
ENDBRANCH  13  14
ENDBRANCH  12  13
ENDBRANCH  10  11
ENDBRANCH   1  10
TORSDOF 13
ENDMDL
MODEL 3
REMARK VINA RESULT:    -4.868      1.168      2.791
REMARK INTER + INTRA:         -11.197
REMARK INTER:                  -9.387
REMARK INTRA:                  -1.811
REMARK UNBOUND:                -2.630
REMARK SMILES CCCCCCC=CCCCCCCCC(=O)[O-]
REMARK SMILES IDX 10 1 11 2 12 3 13 4 14 5 15 6 16 7 17 8 18 9 9 10 8 11 7 12
REMARK SMILES IDX 6 13 5 14 4 15 3 16 2 17 1 18
REMARK H PARENT
REMARK Flexibility Score: inf
ROOT
ATOM      1  C   UNL     1     149.599 171.168 152.272  1.00  0.00     0.004 C 
ENDROOT
BRANCH   1   2
ATOM      2  C   UNL     1     150.608 171.888 153.178  1.00  0.00     0.000 C 
BRANCH   2   3
ATOM      3  C   UNL     1     151.652 170.909 153.728  1.00  0.00     0.000 C 
BRANCH   3   4
ATOM      4  C   UNL     1     152.684 170.544 152.651  1.00  0.00     0.000 C 
BRANCH   4   5
ATOM      5  C   UNL     1     152.823 169.026 152.437  1.00  0.00     0.006 C 
BRANCH   5   6
ATOM      6  C   UNL     1     153.505 168.289 153.603  1.00  0.00     0.053 C 
BRANCH   6   7
ATOM      7  C   UNL     1     154.915 167.888 153.290  1.00  0.00     0.041 C 
ATOM      8  O   UNL     1     155.148 166.825 152.656  1.00  0.00    -0.550 OA
ATOM      9  O   UNL     1     155.974 168.674 153.726  1.00  0.00    -0.550 OA
ENDBRANCH   6   7
ENDBRANCH   5   6
ENDBRANCH   4   5
ENDBRANCH   3   4
ENDBRANCH   2   3
ENDBRANCH   1   2
BRANCH   1  10
ATOM     10  C   UNL     1     148.533 170.413 153.079  1.00  0.00     0.027 C 
BRANCH  10  11
ATOM     11  C   UNL     1     148.676 168.916 152.949  1.00  0.00    -0.031 C 
ATOM     12  C   UNL     1     147.851 168.121 152.242  1.00  0.00    -0.031 C 
BRANCH  12  13
ATOM     13  C   UNL     1     146.612 168.584 151.512  1.00  0.00     0.027 C 
BRANCH  13  14
ATOM     14  C   UNL     1     146.964 169.197 150.150  1.00  0.00     0.004 C 
BRANCH  14  15
ATOM     15  C   UNL     1     147.947 168.322 149.359  1.00  0.00     0.000 C 
BRANCH  15  16
ATOM     16  C   UNL     1     149.137 169.149 148.855  1.00  0.00    -0.000 C 
BRANCH  16  17
ATOM     17  C   UNL     1     150.405 168.832 149.654  1.00  0.00    -0.003 C 
ATOM     18  C   UNL     1     151.251 167.776 148.950  1.00  0.00     0.004 C 
ENDBRANCH  16  17
ENDBRANCH  15  16
ENDBRANCH  14  15
ENDBRANCH  13  14
ENDBRANCH  12  13
ENDBRANCH  10  11
ENDBRANCH   1  10
TORSDOF 13
ENDMDL
MODEL 4
REMARK VINA RESULT:    -4.811      1.388      2.413
REMARK INTER + INTRA:         -11.097
REMARK INTER:                  -8.805
REMARK INTRA:                  -2.292
REMARK UNBOUND:                -2.630
REMARK SMILES CCCCCCC=CCCCCCCCC(=O)[O-]
REMARK SMILES IDX 10 1 11 2 12 3 13 4 14 5 15 6 16 7 17 8 18 9 9 10 8 11 7 12
REMARK SMILES IDX 6 13 5 14 4 15 3 16 2 17 1 18
REMARK H PARENT
REMARK Flexibility Score: inf
ROOT
ATOM      1  C   UNL     1     150.593 168.418 152.000  1.00  0.00     0.004 C 
ENDROOT
BRANCH   1   2
ATOM      2  C   UNL     1     150.139 169.525 152.963  1.00  0.00     0.000 C 
BRANCH   2   3
ATOM      3  C   UNL     1     150.222 170.903 152.296  1.00  0.00     0.000 C 
BRANCH   3   4
ATOM      4  C   UNL     1     151.305 171.770 152.957  1.00  0.00     0.000 C 
BRANCH   4   5
ATOM      5  C   UNL     1     152.319 170.949 153.775  1.00  0.00     0.006 C 
BRANCH   5   6
ATOM      6  C   UNL     1     153.649 170.691 153.045  1.00  0.00     0.053 C 
BRANCH   6   7
ATOM      7  C   UNL     1     154.237 169.350 153.368  1.00  0.00     0.041 C 
ATOM      8  O   UNL     1     153.551 168.485 153.973  1.00  0.00    -0.550 OA
ATOM      9  O   UNL     1     155.554 169.068 153.027  1.00  0.00    -0.550 OA
ENDBRANCH   6   7
ENDBRANCH   5   6
ENDBRANCH   4   5
ENDBRANCH   3   4
ENDBRANCH   2   3
ENDBRANCH   1   2
BRANCH   1  10
ATOM     10  C   UNL     1     151.239 168.988 150.728  1.00  0.00     0.027 C 
BRANCH  10  11
ATOM     11  C   UNL     1     150.784 168.262 149.486  1.00  0.00    -0.031 C 
ATOM     12  C   UNL     1     149.686 168.571 148.771  1.00  0.00    -0.031 C 
BRANCH  12  13
ATOM     13  C   UNL     1     148.694 169.654 149.126  1.00  0.00     0.027 C 
BRANCH  13  14
ATOM     14  C   UNL     1     147.373 169.058 149.627  1.00  0.00     0.004 C 
BRANCH  14  15
ATOM     15  C   UNL     1     147.013 169.553 151.036  1.00  0.00     0.000 C 
BRANCH  15  16
ATOM     16  C   UNL     1     146.666 168.379 151.960  1.00  0.00    -0.000 C 
BRANCH  16  17
ATOM     17  C   UNL     1     147.301 167.077 151.457  1.00  0.00    -0.003 C 
ATOM     18  C   UNL     1     146.288 165.937 151.448  1.00  0.00     0.004 C 
ENDBRANCH  16  17
ENDBRANCH  15  16
ENDBRANCH  14  15
ENDBRANCH  13  14
ENDBRANCH  12  13
ENDBRANCH  10  11
ENDBRANCH   1  10
TORSDOF 13
ENDMDL
MODEL 5
REMARK VINA RESULT:    -4.774      2.814      5.776
REMARK INTER + INTRA:         -11.033
REMARK INTER:                  -8.748
REMARK INTRA:                  -2.285
REMARK UNBOUND:                -2.630
REMARK SMILES CCCCCCC=CCCCCCCCC(=O)[O-]
REMARK SMILES IDX 10 1 11 2 12 3 13 4 14 5 15 6 16 7 17 8 18 9 9 10 8 11 7 12
REMARK SMILES IDX 6 13 5 14 4 15 3 16 2 17 1 18
REMARK H PARENT
REMARK Flexibility Score: inf
ROOT
ATOM      1  C   UNL     1     149.728 168.670 149.071  1.00  0.00     0.004 C 
ENDROOT
BRANCH   1   2
ATOM      2  C   UNL     1     148.725 169.782 149.415  1.00  0.00     0.000 C 
BRANCH   2   3
ATOM      3  C   UNL     1     147.363 169.193 149.800  1.00  0.00     0.000 C 
BRANCH   3   4
ATOM      4  C   UNL     1     147.086 169.381 151.299  1.00  0.00     0.000 C 
BRANCH   4   5
ATOM      5  C   UNL     1     147.073 168.055 152.081  1.00  0.00     0.006 C 
BRANCH   5   6
ATOM      6  C   UNL     1     147.022 166.802 151.188  1.00  0.00     0.053 C 
BRANCH   6   7
ATOM      7  C   UNL     1     148.042 165.774 151.573  1.00  0.00     0.041 C 
ATOM      8  O   UNL     1     148.056 165.296 152.738  1.00  0.00    -0.550 OA
ATOM      9  O   UNL     1     148.999 165.366 150.652  1.00  0.00    -0.550 OA
ENDBRANCH   6   7
ENDBRANCH   5   6
ENDBRANCH   4   5
ENDBRANCH   3   4
ENDBRANCH   2   3
ENDBRANCH   1   2
BRANCH   1  10
ATOM     10  C   UNL     1     150.989 168.740 149.945  1.00  0.00     0.027 C 
BRANCH  10  11
ATOM     11  C   UNL     1     150.705 168.379 151.383  1.00  0.00    -0.031 C 
ATOM     12  C   UNL     1     150.675 169.255 152.405  1.00  0.00    -0.031 C 
BRANCH  12  13
ATOM     13  C   UNL     1     150.977 170.731 152.295  1.00  0.00     0.027 C 
BRANCH  13  14
ATOM     14  C   UNL     1     152.192 171.116 153.148  1.00  0.00     0.004 C 
BRANCH  14  15
ATOM     15  C   UNL     1     153.007 169.889 153.581  1.00  0.00     0.000 C 
BRANCH  15  16
ATOM     16  C   UNL     1     154.323 169.798 152.799  1.00  0.00    -0.000 C 
BRANCH  16  17
ATOM     17  C   UNL     1     154.575 168.368 152.309  1.00  0.00    -0.003 C 
ATOM     18  C   UNL     1     154.599 168.303 150.785  1.00  0.00     0.004 C 
ENDBRANCH  16  17
ENDBRANCH  15  16
ENDBRANCH  14  15
ENDBRANCH  13  14
ENDBRANCH  12  13
ENDBRANCH  10  11
ENDBRANCH   1  10
TORSDOF 13
ENDMDL
MODEL 6
REMARK VINA RESULT:    -4.770      1.327      2.449
REMARK INTER + INTRA:         -11.025
REMARK INTER:                  -8.799
REMARK INTRA:                  -2.226
REMARK UNBOUND:                -2.630
REMARK SMILES CCCCCCC=CCCCCCCCC(=O)[O-]
REMARK SMILES IDX 10 1 11 2 12 3 13 4 14 5 15 6 16 7 17 8 18 9 9 10 8 11 7 12
REMARK SMILES IDX 6 13 5 14 4 15 3 16 2 17 1 18
REMARK H PARENT
REMARK Flexibility Score: inf
ROOT
ATOM      1  C   UNL     1     151.378 168.757 150.837  1.00  0.00     0.004 C 
ENDROOT
BRANCH   1   2
ATOM      2  C   UNL     1     150.835 169.864 151.753  1.00  0.00     0.000 C 
BRANCH   2   3
ATOM      3  C   UNL     1     151.491 169.803 153.138  1.00  0.00     0.000 C 
BRANCH   3   4
ATOM      4  C   UNL     1     152.557 170.898 153.291  1.00  0.00     0.000 C 
BRANCH   4   5
ATOM      5  C   UNL     1     153.981 170.402 152.977  1.00  0.00     0.006 C 
BRANCH   5   6
ATOM      6  C   UNL     1     154.262 168.965 153.450  1.00  0.00     0.053 C 
BRANCH   6   7
ATOM      7  C   UNL     1     154.927 168.128 152.399  1.00  0.00     0.041 C 
ATOM      8  O   UNL     1     155.093 168.582 151.236  1.00  0.00    -0.550 OA
ATOM      9  O   UNL     1     155.335 166.834 152.696  1.00  0.00    -0.550 OA
ENDBRANCH   6   7
ENDBRANCH   5   6
ENDBRANCH   4   5
ENDBRANCH   3   4
ENDBRANCH   2   3
ENDBRANCH   1   2
BRANCH   1  10
ATOM     10  C   UNL     1     150.270 168.113 149.991  1.00  0.00     0.027 C 
BRANCH  10  11
ATOM     11  C   UNL     1     149.550 169.125 149.132  1.00  0.00    -0.031 C 
ATOM     12  C   UNL     1     148.280 169.531 149.321  1.00  0.00    -0.031 C 
BRANCH  12  13
ATOM     13  C   UNL     1     147.346 169.000 150.382  1.00  0.00     0.027 C 
BRANCH  13  14
ATOM     14  C   UNL     1     147.214 169.983 151.552  1.00  0.00     0.004 C 
BRANCH  14  15
ATOM     15  C   UNL     1     147.402 169.294 152.911  1.00  0.00     0.000 C 
BRANCH  15  16
ATOM     16  C   UNL     1     147.528 167.775 152.745  1.00  0.00    -0.000 C 
BRANCH  16  17
ATOM     17  C   UNL     1     148.790 167.248 153.438  1.00  0.00    -0.003 C 
ATOM     18  C   UNL     1     149.268 165.948 152.799  1.00  0.00     0.004 C 
ENDBRANCH  16  17
ENDBRANCH  15  16
ENDBRANCH  14  15
ENDBRANCH  13  14
ENDBRANCH  12  13
ENDBRANCH  10  11
ENDBRANCH   1  10
TORSDOF 13
ENDMDL
MODEL 7
REMARK VINA RESULT:    -4.757      1.518      2.886
REMARK INTER + INTRA:         -11.003
REMARK INTER:                  -8.556
REMARK INTRA:                  -2.447
REMARK UNBOUND:                -2.630
REMARK SMILES CCCCCCC=CCCCCCCCC(=O)[O-]
REMARK SMILES IDX 10 1 11 2 12 3 13 4 14 5 15 6 16 7 17 8 18 9 9 10 8 11 7 12
REMARK SMILES IDX 6 13 5 14 4 15 3 16 2 17 1 18
REMARK H PARENT
REMARK Flexibility Score: inf
ROOT
ATOM      1  C   UNL     1     149.804 168.750 148.917  1.00  0.00     0.004 C 
ENDROOT
BRANCH   1   2
ATOM      2  C   UNL     1     150.837 168.463 150.018  1.00  0.00     0.000 C 
BRANCH   2   3
ATOM      3  C   UNL     1     150.761 169.514 151.131  1.00  0.00     0.000 C 
BRANCH   3   4
ATOM      4  C   UNL     1     151.134 168.904 152.490  1.00  0.00     0.000 C 
BRANCH   4   5
ATOM      5  C   UNL     1     151.664 169.944 153.493  1.00  0.00     0.006 C 
BRANCH   5   6
ATOM      6  C   UNL     1     152.924 170.689 153.016  1.00  0.00     0.053 C 
BRANCH   6   7
ATOM      7  C   UNL     1     154.161 169.847 153.098  1.00  0.00     0.041 C 
ATOM      8  O   UNL     1     155.107 170.026 152.287  1.00  0.00    -0.550 OA
ATOM      9  O   UNL     1     154.256 168.842 154.052  1.00  0.00    -0.550 OA
ENDBRANCH   6   7
ENDBRANCH   5   6
ENDBRANCH   4   5
ENDBRANCH   3   4
ENDBRANCH   2   3
ENDBRANCH   1   2
BRANCH   1  10
ATOM     10  C   UNL     1     148.732 169.748 149.378  1.00  0.00     0.027 C 
BRANCH  10  11
ATOM     11  C   UNL     1     147.387 169.090 149.569  1.00  0.00    -0.031 C 
ATOM     12  C   UNL     1     146.702 169.060 150.727  1.00  0.00    -0.031 C 
BRANCH  12  13
ATOM     13  C   UNL     1     147.189 169.625 152.041  1.00  0.00     0.027 C 
BRANCH  13  14
ATOM     14  C   UNL     1     147.097 168.585 153.164  1.00  0.00     0.004 C 
BRANCH  14  15
ATOM     15  C   UNL     1     147.129 167.147 152.626  1.00  0.00     0.000 C 
BRANCH  15  16
ATOM     16  C   UNL     1     148.443 166.450 152.997  1.00  0.00    -0.000 C 
BRANCH  16  17
ATOM     17  C   UNL     1     149.051 165.738 151.783  1.00  0.00    -0.003 C 
ATOM     18  C   UNL     1     148.032 165.606 150.655  1.00  0.00     0.004 C 
ENDBRANCH  16  17
ENDBRANCH  15  16
ENDBRANCH  14  15
ENDBRANCH  13  14
ENDBRANCH  12  13
ENDBRANCH  10  11
ENDBRANCH   1  10
TORSDOF 13
ENDMDL
MODEL 8
REMARK VINA RESULT:    -4.752      3.262      6.215
REMARK INTER + INTRA:         -10.994
REMARK INTER:                  -9.020
REMARK INTRA:                  -1.974
REMARK UNBOUND:                -2.630
REMARK SMILES CCCCCCC=CCCCCCCCC(=O)[O-]
REMARK SMILES IDX 10 1 11 2 12 3 13 4 14 5 15 6 16 7 17 8 18 9 9 10 8 11 7 12
REMARK SMILES IDX 6 13 5 14 4 15 3 16 2 17 1 18
REMARK H PARENT
REMARK Flexibility Score: inf
ROOT
ATOM      1  C   UNL     1     150.253 168.022 149.634  1.00  0.00     0.004 C 
ENDROOT
BRANCH   1   2
ATOM      2  C   UNL     1     149.496 169.012 148.736  1.00  0.00     0.000 C 
BRANCH   2   3
ATOM      3  C   UNL     1     148.441 169.784 149.536  1.00  0.00     0.000 C 
BRANCH   3   4
ATOM      4  C   UNL     1     147.160 168.954 149.704  1.00  0.00     0.000 C 
BRANCH   4   5
ATOM      5  C   UNL     1     146.710 168.827 151.171  1.00  0.00     0.006 C 
BRANCH   5   6
ATOM      6  C   UNL     1     147.137 170.009 152.061  1.00  0.00     0.053 C 
BRANCH   6   7
ATOM      7  C   UNL     1     146.806 169.795 153.507  1.00  0.00     0.041 C 
ATOM      8  O   UNL     1     145.773 169.153 153.835  1.00  0.00    -0.550 OA
ATOM      9  O   UNL     1     147.624 170.330 154.494  1.00  0.00    -0.550 OA
ENDBRANCH   6   7
ENDBRANCH   5   6
ENDBRANCH   4   5
ENDBRANCH   3   4
ENDBRANCH   2   3
ENDBRANCH   1   2
BRANCH   1  10
ATOM     10  C   UNL     1     151.233 168.732 150.579  1.00  0.00     0.027 C 
BRANCH  10  11
ATOM     11  C   UNL     1     150.819 168.610 152.025  1.00  0.00    -0.031 C 
ATOM     12  C   UNL     1     150.664 169.645 152.872  1.00  0.00    -0.031 C 
BRANCH  12  13
ATOM     13  C   UNL     1     150.935 171.092 152.536  1.00  0.00     0.027 C 
BRANCH  13  14
ATOM     14  C   UNL     1     152.121 171.639 153.340  1.00  0.00     0.004 C 
BRANCH  14  15
ATOM     15  C   UNL     1     153.107 170.533 153.741  1.00  0.00     0.000 C 
BRANCH  15  16
ATOM     16  C   UNL     1     154.166 170.319 152.652  1.00  0.00    -0.000 C 
BRANCH  16  17
ATOM     17  C   UNL     1     154.946 169.021 152.891  1.00  0.00    -0.003 C 
ATOM     18  C   UNL     1     154.173 168.073 153.803  1.00  0.00     0.004 C 
ENDBRANCH  16  17
ENDBRANCH  15  16
ENDBRANCH  14  15
ENDBRANCH  13  14
ENDBRANCH  12  13
ENDBRANCH  10  11
ENDBRANCH   1  10
TORSDOF 13
ENDMDL
MODEL 9
REMARK VINA RESULT:    -4.745      1.611      2.998
REMARK INTER + INTRA:         -10.981
REMARK INTER:                  -8.727
REMARK INTRA:                  -2.254
REMARK UNBOUND:                -2.630
REMARK SMILES CCCCCCC=CCCCCCCCC(=O)[O-]
REMARK SMILES IDX 10 1 11 2 12 3 13 4 14 5 15 6 16 7 17 8 18 9 9 10 8 11 7 12
REMARK SMILES IDX 6 13 5 14 4 15 3 16 2 17 1 18
REMARK H PARENT
REMARK Flexibility Score: inf
ROOT
ATOM      1  C   UNL     1     149.940 168.800 149.205  1.00  0.00     0.004 C 
ENDROOT
BRANCH   1   2
ATOM      2  C   UNL     1     150.276 168.249 150.599  1.00  0.00     0.000 C 
BRANCH   2   3
ATOM      3  C   UNL     1     151.529 168.923 151.170  1.00  0.00     0.000 C 
BRANCH   3   4
ATOM      4  C   UNL     1     151.155 169.994 152.204  1.00  0.00     0.000 C 
BRANCH   4   5
ATOM      5  C   UNL     1     152.311 170.342 153.158  1.00  0.00     0.006 C 
BRANCH   5   6
ATOM      6  C   UNL     1     153.189 169.138 153.543  1.00  0.00     0.053 C 
BRANCH   6   7
ATOM      7  C   UNL     1     154.643 169.366 153.260  1.00  0.00     0.041 C 
ATOM      8  O   UNL     1     155.524 168.782 153.945  1.00  0.00    -0.550 OA
ATOM      9  O   UNL     1     155.026 170.250 152.258  1.00  0.00    -0.550 OA
ENDBRANCH   6   7
ENDBRANCH   5   6
ENDBRANCH   4   5
ENDBRANCH   3   4
ENDBRANCH   2   3
ENDBRANCH   1   2
BRANCH   1  10
ATOM     10  C   UNL     1     148.732 169.747 149.234  1.00  0.00     0.027 C 
BRANCH  10  11
ATOM     11  C   UNL     1     147.452 169.026 149.582  1.00  0.00    -0.031 C 
ATOM     12  C   UNL     1     146.763 169.188 150.727  1.00  0.00    -0.031 C 
BRANCH  12  13
ATOM     13  C   UNL     1     147.184 170.071 151.878  1.00  0.00     0.027 C 
BRANCH  13  14
ATOM     14  C   UNL     1     147.122 169.316 153.211  1.00  0.00     0.004 C 
BRANCH  14  15
ATOM     15  C   UNL     1     148.093 169.896 154.250  1.00  0.00     0.000 C 
BRANCH  15  16
ATOM     16  C   UNL     1     148.950 168.790 154.879  1.00  0.00    -0.000 C 
BRANCH  16  17
ATOM     17  C   UNL     1     148.937 167.525 154.014  1.00  0.00    -0.003 C 
ATOM     18  C   UNL     1     150.261 166.774 154.118  1.00  0.00     0.004 C 
ENDBRANCH  16  17
ENDBRANCH  15  16
ENDBRANCH  14  15
ENDBRANCH  13  14
ENDBRANCH  12  13
ENDBRANCH  10  11
ENDBRANCH   1  10
TORSDOF 13
ENDMDL
