MODEL 1
REMARK VINA RESULT:    -3.925      0.000      0.000
REMARK INTER + INTRA:          -4.676
REMARK INTER:                  -4.499
REMARK INTRA:                  -0.177
REMARK UNBOUND:                -0.177
REMARK SMILES CC=Cc1ccc(O)c(OC)c1
REMARK SMILES IDX 4 1 12 2 9 3 7 4 6 5 5 6 3 7 1 8 2 9 10 10 11 11 8 12
REMARK H PARENT 8 13
REMARK Flexibility Score: inf
ROOT
ATOM      1  C   UNL     1       1.035 -14.053  10.005  1.00  0.00    -0.022 A 
ATOM      2  C   UNL     1       1.106 -13.909  11.406  1.00  0.00     0.058 A 
ATOM      3  C   UNL     1       1.462 -15.000  12.225  1.00  0.00     0.161 A 
ATOM      4  C   UNL     1       1.739 -16.244  11.631  1.00  0.00     0.157 A 
ATOM      5  C   UNL     1       1.652 -16.392  10.244  1.00  0.00     0.051 A 
ATOM      6  C   UNL     1       1.299 -15.309   9.438  1.00  0.00     0.012 A 
ENDROOT
BRANCH   1   7
ATOM      7  C   UNL     1       0.656 -12.936   9.105  1.00  0.00     0.003 C 
ATOM      8  C   UNL     1       0.163 -11.875   6.937  1.00  0.00     0.035 C 
ATOM      9  C   UNL     1       0.566 -13.046   7.775  1.00  0.00    -0.030 C 
ENDBRANCH   1   7
BRANCH   3  10
ATOM     10  O   UNL     1       1.546 -14.884  13.622  1.00  0.00    -0.493 OA
ATOM     11  C   UNL     1       1.339 -13.678  14.349  1.00  0.00     0.278 C 
ENDBRANCH   3  10
BRANCH   4  12
ATOM     12  O   UNL     1       2.098 -17.348  12.403  1.00  0.00    -0.504 OA
ATOM     13  H   UNL     1       2.689 -17.266  13.222  1.00  0.00     0.293 HD
ENDBRANCH   4  12
TORSDOF 3
ENDMDL
MODEL 2
REMARK VINA RESULT:    -3.900      3.001      5.141
REMARK INTER + INTRA:          -4.647
REMARK INTER:                  -4.483
REMARK INTRA:                  -0.164
REMARK UNBOUND:                -0.177
REMARK SMILES CC=Cc1ccc(O)c(OC)c1
REMARK SMILES IDX 4 1 12 2 9 3 7 4 6 5 5 6 3 7 1 8 2 9 10 10 11 11 8 12
REMARK H PARENT 8 13
REMARK Flexibility Score: inf
ROOT
ATOM      1  C   UNL     1       1.423 -15.397   9.908  1.00  0.00    -0.022 A 
ATOM      2  C   UNL     1       2.131 -14.194   9.710  1.00  0.00     0.058 A 
ATOM      3  C   UNL     1       1.700 -13.254   8.750  1.00  0.00     0.161 A 
ATOM      4  C   UNL     1       0.556 -13.532   7.982  1.00  0.00     0.157 A 
ATOM      5  C   UNL     1      -0.136 -14.732   8.167  1.00  0.00     0.051 A 
ATOM      6  C   UNL     1       0.295 -15.658   9.117  1.00  0.00     0.012 A 
ENDROOT
BRANCH   1   7
ATOM      7  C   UNL     1       1.845 -16.417  10.899  1.00  0.00     0.003 C 
ATOM      8  C   UNL     1       2.376 -17.269  13.149  1.00  0.00     0.035 C 
ATOM      9  C   UNL     1       1.959 -16.181  12.211  1.00  0.00    -0.030 C 
ENDBRANCH   1   7
BRANCH   3  10
ATOM     10  O   UNL     1       2.381 -12.045   8.535  1.00  0.00    -0.493 OA
ATOM     11  C   UNL     1       3.553 -11.906   7.738  1.00  0.00     0.278 C 
ENDBRANCH   3  10
BRANCH   4  12
ATOM     12  O   UNL     1       0.093 -12.629   7.025  1.00  0.00    -0.504 OA
ATOM     13  H   UNL     1       0.606 -12.432   6.174  1.00  0.00     0.293 HD
ENDBRANCH   4  12
TORSDOF 3
ENDMDL
MODEL 3
REMARK VINA RESULT:    -3.758      1.660      1.986
REMARK INTER + INTRA:          -4.485
REMARK INTER:                  -4.291
REMARK INTRA:                  -0.194
REMARK UNBOUND:                -0.177
REMARK SMILES CC=Cc1ccc(O)c(OC)c1
REMARK SMILES IDX 4 1 12 2 9 3 7 4 6 5 5 6 3 7 1 8 2 9 10 10 11 11 8 12
REMARK H PARENT 8 13
REMARK Flexibility Score: inf
ROOT
ATOM      1  C   UNL     1       1.719 -14.270   9.401  1.00  0.00    -0.022 A 
ATOM      2  C   UNL     1       1.327 -15.180  10.405  1.00  0.00     0.058 A 
ATOM      3  C   UNL     1       2.292 -15.877  11.161  1.00  0.00     0.161 A 
ATOM      4  C   UNL     1       3.656 -15.664  10.899  1.00  0.00     0.157 A 
ATOM      5  C   UNL     1       4.045 -14.775   9.893  1.00  0.00     0.051 A 
ATOM      6  C   UNL     1       3.086 -14.089   9.147  1.00  0.00     0.012 A 
ENDROOT
BRANCH   1   7
ATOM      7  C   UNL     1       0.740 -13.523   8.575  1.00  0.00     0.003 C 
ATOM      8  C   UNL     1       0.033 -11.910   6.851  1.00  0.00     0.035 C 
ATOM      9  C   UNL     1       1.080 -12.612   7.655  1.00  0.00    -0.030 C 
ENDBRANCH   1   7
BRANCH   3  10
ATOM     10  O   UNL     1       1.931 -16.784  12.171  1.00  0.00    -0.493 OA
ATOM     11  C   UNL     1       1.609 -16.420  13.510  1.00  0.00     0.278 C 
ENDBRANCH   3  10
BRANCH   4  12
ATOM     12  O   UNL     1       4.643 -16.330  11.626  1.00  0.00    -0.504 OA
ATOM     13  H   UNL     1       5.346 -16.907  11.180  1.00  0.00     0.293 HD
ENDBRANCH   4  12
TORSDOF 3
ENDMDL
MODEL 4
REMARK VINA RESULT:    -3.642      4.057      5.871
REMARK INTER + INTRA:          -4.351
REMARK INTER:                  -4.188
REMARK INTRA:                  -0.164
REMARK UNBOUND:                -0.177
REMARK SMILES CC=Cc1ccc(O)c(OC)c1
REMARK SMILES IDX 4 1 12 2 9 3 7 4 6 5 5 6 3 7 1 8 2 9 10 10 11 11 8 12
REMARK H PARENT 8 13
REMARK Flexibility Score: inf
ROOT
ATOM      1  C   UNL     1       1.708 -17.587  13.879  1.00  0.00    -0.022 A 
ATOM      2  C   UNL     1       2.749 -18.538  13.855  1.00  0.00     0.058 A 
ATOM      3  C   UNL     1       2.742 -19.636  14.739  1.00  0.00     0.161 A 
ATOM      4  C   UNL     1       1.686 -19.773  15.657  1.00  0.00     0.157 A 
ATOM      5  C   UNL     1       0.663 -18.822  15.693  1.00  0.00     0.051 A 
ATOM      6  C   UNL     1       0.675 -17.737  14.816  1.00  0.00     0.012 A 
ENDROOT
BRANCH   1   7
ATOM      7  C   UNL     1       1.679 -16.412  12.975  1.00  0.00     0.003 C 
ATOM      8  C   UNL     1       1.943 -15.230  10.828  1.00  0.00     0.035 C 
ATOM      9  C   UNL     1       2.014 -16.458  11.680  1.00  0.00    -0.030 C 
ENDBRANCH   1   7
BRANCH   3  10
ATOM     10  O   UNL     1       3.762 -20.602  14.734  1.00  0.00    -0.493 OA
ATOM     11  C   UNL     1       3.861 -21.671  13.798  1.00  0.00     0.278 C 
ENDBRANCH   3  10
BRANCH   4  12
ATOM     12  O   UNL     1       1.638 -20.846  16.547  1.00  0.00    -0.504 OA
ATOM     13  H   UNL     1       2.457 -21.399  16.771  1.00  0.00     0.293 HD
ENDBRANCH   4  12
TORSDOF 3
ENDMDL
MODEL 5
REMARK VINA RESULT:    -3.599      2.716      4.777
REMARK INTER + INTRA:          -4.302
REMARK INTER:                  -4.136
REMARK INTRA:                  -0.166
REMARK UNBOUND:                -0.177
REMARK SMILES CC=Cc1ccc(O)c(OC)c1
REMARK SMILES IDX 4 1 12 2 9 3 7 4 6 5 5 6 3 7 1 8 2 9 10 10 11 11 8 12
REMARK H PARENT 8 13
REMARK Flexibility Score: inf
ROOT
ATOM      1  C   UNL     1       1.812 -15.787  11.136  1.00  0.00    -0.022 A 
ATOM      2  C   UNL     1       1.416 -14.438  11.039  1.00  0.00     0.058 A 
ATOM      3  C   UNL     1       0.700 -13.977   9.914  1.00  0.00     0.161 A 
ATOM      4  C   UNL     1       0.390 -14.877   8.881  1.00  0.00     0.157 A 
ATOM      5  C   UNL     1       0.798 -16.211   8.969  1.00  0.00     0.051 A 
ATOM      6  C   UNL     1       1.506 -16.662  10.083  1.00  0.00     0.012 A 
ENDROOT
BRANCH   1   7
ATOM      7  C   UNL     1       2.574 -16.314  12.295  1.00  0.00     0.003 C 
ATOM      8  C   UNL     1       2.986 -17.803  14.215  1.00  0.00     0.035 C 
ATOM      9  C   UNL     1       2.152 -17.318  13.072  1.00  0.00    -0.030 C 
ENDBRANCH   1   7
BRANCH   3  10
ATOM     10  O   UNL     1       0.287 -12.640   9.793  1.00  0.00    -0.493 OA
ATOM     11  C   UNL     1      -0.301 -11.875  10.840  1.00  0.00     0.278 C 
ENDBRANCH   3  10
BRANCH   4  12
ATOM     12  O   UNL     1      -0.319 -14.465   7.753  1.00  0.00    -0.504 OA
ATOM     13  H   UNL     1      -1.275 -14.133   7.807  1.00  0.00     0.293 HD
ENDBRANCH   4  12
TORSDOF 3
ENDMDL
MODEL 6
REMARK VINA RESULT:    -3.576      2.500      3.420
REMARK INTER + INTRA:          -4.276
REMARK INTER:                  -4.120
REMARK INTRA:                  -0.156
REMARK UNBOUND:                -0.177
REMARK SMILES CC=Cc1ccc(O)c(OC)c1
REMARK SMILES IDX 4 1 12 2 9 3 7 4 6 5 5 6 3 7 1 8 2 9 10 10 11 11 8 12
REMARK H PARENT 8 13
REMARK Flexibility Score: inf
ROOT
ATOM      1  C   UNL     1       2.359 -15.769  10.938  1.00  0.00    -0.022 A 
ATOM      2  C   UNL     1       2.114 -16.554  12.083  1.00  0.00     0.058 A 
ATOM      3  C   UNL     1       3.149 -16.835  12.998  1.00  0.00     0.161 A 
ATOM      4  C   UNL     1       4.438 -16.330  12.754  1.00  0.00     0.157 A 
ATOM      5  C   UNL     1       4.686 -15.567  11.610  1.00  0.00     0.051 A 
ATOM      6  C   UNL     1       3.657 -15.292  10.707  1.00  0.00     0.012 A 
ENDROOT
BRANCH   1   7
ATOM      7  C   UNL     1       1.303 -15.456   9.944  1.00  0.00     0.003 C 
ATOM      8  C   UNL     1      -0.416 -15.987   8.259  1.00  0.00     0.035 C 
ATOM      9  C   UNL     1       0.649 -16.382   9.232  1.00  0.00    -0.030 C 
ENDBRANCH   1   7
BRANCH   3  10
ATOM     10  O   UNL     1       2.934 -17.608  14.150  1.00  0.00    -0.493 OA
ATOM     11  C   UNL     1       2.452 -18.948  14.149  1.00  0.00     0.278 C 
ENDBRANCH   3  10
BRANCH   4  12
ATOM     12  O   UNL     1       5.491 -16.581  13.634  1.00  0.00    -0.504 OA
ATOM     13  H   UNL     1       5.458 -16.304  14.608  1.00  0.00     0.293 HD
ENDBRANCH   4  12
TORSDOF 3
ENDMDL
MODEL 7
REMARK VINA RESULT:    -3.493      2.311      2.619
REMARK INTER + INTRA:          -4.181
REMARK INTER:                  -4.017
REMARK INTRA:                  -0.164
REMARK UNBOUND:                -0.177
REMARK SMILES CC=Cc1ccc(O)c(OC)c1
REMARK SMILES IDX 4 1 12 2 9 3 7 4 6 5 5 6 3 7 1 8 2 9 10 10 11 11 8 12
REMARK H PARENT 8 13
REMARK Flexibility Score: inf
ROOT
ATOM      1  C   UNL     1       1.578 -14.341   9.417  1.00  0.00    -0.022 A 
ATOM      2  C   UNL     1       2.854 -13.857   9.774  1.00  0.00     0.058 A 
ATOM      3  C   UNL     1       3.681 -14.586  10.653  1.00  0.00     0.161 A 
ATOM      4  C   UNL     1       3.217 -15.803  11.182  1.00  0.00     0.157 A 
ATOM      5  C   UNL     1       1.947 -16.275  10.843  1.00  0.00     0.051 A 
ATOM      6  C   UNL     1       1.132 -15.549   9.972  1.00  0.00     0.012 A 
ENDROOT
BRANCH   1   7
ATOM      7  C   UNL     1       0.672 -13.604   8.504  1.00  0.00     0.003 C 
ATOM      8  C   UNL     1       0.108 -11.990   6.729  1.00  0.00     0.035 C 
ATOM      9  C   UNL     1       1.084 -12.679   7.628  1.00  0.00    -0.030 C 
ENDBRANCH   1   7
BRANCH   3  10
ATOM     10  O   UNL     1       4.957 -14.132  11.021  1.00  0.00    -0.493 OA
ATOM     11  C   UNL     1       6.139 -14.322  10.250  1.00  0.00     0.278 C 
ENDBRANCH   3  10
BRANCH   4  12
ATOM     12  O   UNL     1       4.004 -16.558  12.053  1.00  0.00    -0.504 OA
ATOM     13  H   UNL     1       3.686 -17.436  12.445  1.00  0.00     0.293 HD
ENDBRANCH   4  12
TORSDOF 3
ENDMDL
MODEL 8
REMARK VINA RESULT:    -3.462      3.543      5.219
REMARK INTER + INTRA:          -4.146
REMARK INTER:                  -3.972
REMARK INTRA:                  -0.173
REMARK UNBOUND:                -0.177
REMARK SMILES CC=Cc1ccc(O)c(OC)c1
REMARK SMILES IDX 4 1 12 2 9 3 7 4 6 5 5 6 3 7 1 8 2 9 10 10 11 11 8 12
REMARK H PARENT 8 13
REMARK Flexibility Score: inf
ROOT
ATOM      1  C   UNL     1       1.897 -16.991  13.398  1.00  0.00    -0.022 A 
ATOM      2  C   UNL     1       2.085 -18.292  13.907  1.00  0.00     0.058 A 
ATOM      3  C   UNL     1       1.444 -18.699  15.096  1.00  0.00     0.161 A 
ATOM      4  C   UNL     1       0.618 -17.789  15.778  1.00  0.00     0.157 A 
ATOM      5  C   UNL     1       0.445 -16.494  15.282  1.00  0.00     0.051 A 
ATOM      6  C   UNL     1       1.082 -16.096  14.106  1.00  0.00     0.012 A 
ENDROOT
BRANCH   1   7
ATOM      7  C   UNL     1       2.558 -16.516  12.157  1.00  0.00     0.003 C 
ATOM      8  C   UNL     1       2.670 -15.903   9.773  1.00  0.00     0.035 C 
ATOM      9  C   UNL     1       1.937 -16.405  10.977  1.00  0.00    -0.030 C 
ENDBRANCH   1   7
BRANCH   3  10
ATOM     10  O   UNL     1       1.608 -19.990  15.623  1.00  0.00    -0.493 OA
ATOM     11  C   UNL     1       2.779 -20.452  16.289  1.00  0.00     0.278 C 
ENDBRANCH   3  10
BRANCH   4  12
ATOM     12  O   UNL     1      -0.038 -18.152  16.954  1.00  0.00    -0.504 OA
ATOM     13  H   UNL     1      -0.357 -19.098  17.125  1.00  0.00     0.293 HD
ENDBRANCH   4  12
TORSDOF 3
ENDMDL
MODEL 9
REMARK VINA RESULT:    -3.418      3.173      5.229
REMARK INTER + INTRA:          -4.095
REMARK INTER:                  -3.923
REMARK INTRA:                  -0.171
REMARK UNBOUND:                -0.177
REMARK SMILES CC=Cc1ccc(O)c(OC)c1
REMARK SMILES IDX 4 1 12 2 9 3 7 4 6 5 5 6 3 7 1 8 2 9 10 10 11 11 8 12
REMARK H PARENT 8 13
REMARK Flexibility Score: inf
ROOT
ATOM      1  C   UNL     1       2.603 -15.434  10.193  1.00  0.00    -0.022 A 
ATOM      2  C   UNL     1       1.767 -14.376   9.781  1.00  0.00     0.058 A 
ATOM      3  C   UNL     1       2.221 -13.420   8.850  1.00  0.00     0.161 A 
ATOM      4  C   UNL     1       3.526 -13.526   8.337  1.00  0.00     0.157 A 
ATOM      5  C   UNL     1       4.361 -14.565   8.757  1.00  0.00     0.051 A 
ATOM      6  C   UNL     1       3.906 -15.508   9.680  1.00  0.00     0.012 A 
ENDROOT
BRANCH   1   7
ATOM      7  C   UNL     1       2.170 -16.457  11.177  1.00  0.00     0.003 C 
ATOM      8  C   UNL     1       1.792 -17.376  13.432  1.00  0.00     0.035 C 
ATOM      9  C   UNL     1       2.265 -16.303  12.503  1.00  0.00    -0.030 C 
ENDBRANCH   1   7
BRANCH   3  10
ATOM     10  O   UNL     1       1.409 -12.359   8.417  1.00  0.00    -0.493 OA
ATOM     11  C   UNL     1       0.392 -12.469   7.426  1.00  0.00     0.278 C 
ENDBRANCH   3  10
BRANCH   4  12
ATOM     12  O   UNL     1       4.014 -12.605   7.411  1.00  0.00    -0.504 OA
ATOM     13  H   UNL     1       4.421 -11.720   7.691  1.00  0.00     0.293 HD
ENDBRANCH   4  12
TORSDOF 3
ENDMDL
