MODEL 1
REMARK VINA RESULT:    -7.338      0.000      0.000
REMARK INTER + INTRA:          -7.982
REMARK INTER:                  -7.982
REMARK INTRA:                   0.000
REMARK UNBOUND:                 0.000
REMARK SMILES Cc1cc(O)c2c(c1)C(=O)c1cc(O)cc(O)c1C2=O
REMARK SMILES IDX 1 1 2 2 8 3 7 4 6 5 4 6 3 7 19 8 20 9 18 10 11 11 9 12 10 13
REMARK SMILES IDX 12 14 13 15 15 16 16 17 5 18 17 20 14 22
REMARK H PARENT 5 19 17 21 14 23
REMARK Flexibility Score: inf
ROOT
ATOM      1  C   UNL     1      28.663 -11.534  -2.553  1.00  0.00     0.044 C 
ATOM      2  C   UNL     1      27.670 -10.562  -3.120  1.00  0.00    -0.047 A 
ATOM      3  C   UNL     1      26.792 -10.964  -4.134  1.00  0.00     0.016 A 
ATOM      4  C   UNL     1      25.878 -10.055  -4.690  1.00  0.00     0.038 A 
ATOM      5  C   UNL     1      25.841  -8.720  -4.226  1.00  0.00     0.076 A 
ATOM      6  C   UNL     1      26.789  -8.298  -3.260  1.00  0.00     0.127 A 
ATOM      7  C   UNL     1      27.676  -9.227  -2.705  1.00  0.00     0.050 A 
ATOM      8  C   UNL     1      24.765  -7.830  -4.732  1.00  0.00     0.201 C 
ATOM      9  O   UNL     1      24.323  -6.903  -4.002  1.00  0.00    -0.288 OA
ATOM     10  C   UNL     1      24.084  -8.150  -6.014  1.00  0.00     0.076 A 
ATOM     11  C   UNL     1      24.125  -9.485  -6.477  1.00  0.00     0.041 A 
ATOM     12  C   UNL     1      24.956 -10.487  -5.769  1.00  0.00     0.194 C 
ATOM     13  O   UNL     1      24.899 -11.702  -6.100  1.00  0.00    -0.289 OA
ATOM     14  C   UNL     1      23.381  -9.855  -7.610  1.00  0.00     0.059 A 
ATOM     15  C   UNL     1      22.611  -8.908  -8.293  1.00  0.00     0.120 A 
ATOM     16  C   UNL     1      22.600  -7.583  -7.862  1.00  0.00     0.093 A 
ATOM     17  C   UNL     1      23.348  -7.185  -6.750  1.00  0.00     0.131 A 
ENDROOT
BRANCH   6  18
ATOM     18  O   UNL     1      26.909  -6.968  -2.851  1.00  0.00    -0.507 OA
ATOM     19  H   UNL     1      26.246  -6.247  -3.096  1.00  0.00     0.293 HD
ENDBRANCH   6  18
BRANCH  17  20
ATOM     20  O   UNL     1      23.360  -5.823  -6.435  1.00  0.00    -0.507 OA
ATOM     21  H   UNL     1      22.523  -5.280  -6.271  1.00  0.00     0.293 HD
ENDBRANCH  17  20
BRANCH  15  22
ATOM     22  O   UNL     1      21.862  -9.274  -9.409  1.00  0.00    -0.508 OA
ATOM     23  H   UNL     1      22.294  -9.422 -10.313  1.00  0.00     0.293 HD
ENDBRANCH  15  22
TORSDOF 3
ENDMDL
MODEL 2
REMARK VINA RESULT:    -5.550      1.716      5.861
REMARK INTER + INTRA:          -6.037
REMARK INTER:                  -6.037
REMARK INTRA:                   0.000
REMARK UNBOUND:                 0.000
REMARK SMILES Cc1cc(O)c2c(c1)C(=O)c1cc(O)cc(O)c1C2=O
REMARK SMILES IDX 1 1 2 2 8 3 7 4 6 5 4 6 3 7 19 8 20 9 18 10 11 11 9 12 10 13
REMARK SMILES IDX 12 14 13 15 15 16 16 17 5 18 17 20 14 22
REMARK H PARENT 5 19 17 21 14 23
REMARK Flexibility Score: inf
ROOT
ATOM      1  C   UNL     1      22.250  -4.376  -5.570  1.00  0.00     0.044 C 
ATOM      2  C   UNL     1      22.711  -5.764  -5.906  1.00  0.00    -0.047 A 
ATOM      3  C   UNL     1      23.568  -6.450  -5.037  1.00  0.00     0.016 A 
ATOM      4  C   UNL     1      24.027  -7.738  -5.355  1.00  0.00     0.038 A 
ATOM      5  C   UNL     1      23.624  -8.351  -6.563  1.00  0.00     0.076 A 
ATOM      6  C   UNL     1      22.826  -7.618  -7.477  1.00  0.00     0.127 A 
ATOM      7  C   UNL     1      22.363  -6.344  -7.129  1.00  0.00     0.050 A 
ATOM      8  C   UNL     1      24.009  -9.767  -6.795  1.00  0.00     0.201 C 
ATOM      9  O   UNL     1      23.266 -10.514  -7.487  1.00  0.00    -0.288 OA
ATOM     10  C   UNL     1      25.163 -10.349  -6.060  1.00  0.00     0.076 A 
ATOM     11  C   UNL     1      25.565  -9.731  -4.854  1.00  0.00     0.041 A 
ATOM     12  C   UNL     1      24.940  -8.456  -4.432  1.00  0.00     0.194 C 
ATOM     13  O   UNL     1      25.203  -7.967  -3.299  1.00  0.00    -0.289 OA
ATOM     14  C   UNL     1      26.560 -10.329  -4.061  1.00  0.00     0.059 A 
ATOM     15  C   UNL     1      27.167 -11.522  -4.465  1.00  0.00     0.120 A 
ATOM     16  C   UNL     1      26.801 -12.111  -5.674  1.00  0.00     0.093 A 
ATOM     17  C   UNL     1      25.828 -11.526  -6.490  1.00  0.00     0.131 A 
ENDROOT
BRANCH   6  18
ATOM     18  O   UNL     1      22.500  -8.097  -8.748  1.00  0.00    -0.507 OA
ATOM     19  H   UNL     1      23.097  -7.989  -9.555  1.00  0.00     0.293 HD
ENDBRANCH   6  18
BRANCH  17  20
ATOM     20  O   UNL     1      25.580 -12.125  -7.728  1.00  0.00    -0.507 OA
ATOM     21  H   UNL     1      25.353 -13.103  -7.840  1.00  0.00     0.293 HD
ENDBRANCH  17  20
BRANCH  15  22
ATOM     22  O   UNL     1      28.144 -12.123  -3.676  1.00  0.00    -0.508 OA
ATOM     23  H   UNL     1      29.019 -12.448  -4.070  1.00  0.00     0.293 HD
ENDBRANCH  15  22
TORSDOF 3
ENDMDL
MODEL 3
REMARK VINA RESULT:    -5.508      2.492      5.202
REMARK INTER + INTRA:          -5.991
REMARK INTER:                  -5.991
REMARK INTRA:                   0.000
REMARK UNBOUND:                 0.000
REMARK SMILES Cc1cc(O)c2c(c1)C(=O)c1cc(O)cc(O)c1C2=O
REMARK SMILES IDX 1 1 2 2 8 3 7 4 6 5 4 6 3 7 19 8 20 9 18 10 11 11 9 12 10 13
REMARK SMILES IDX 12 14 13 15 15 16 16 17 5 18 17 20 14 22
REMARK H PARENT 5 19 17 21 14 23
REMARK Flexibility Score: inf
ROOT
ATOM      1  C   UNL     1      25.474 -11.454  -6.109  1.00  0.00     0.044 C 
ATOM      2  C   UNL     1      24.618 -10.283  -6.491  1.00  0.00    -0.047 A 
ATOM      3  C   UNL     1      24.558  -9.155  -5.664  1.00  0.00     0.016 A 
ATOM      4  C   UNL     1      23.738  -8.065  -6.000  1.00  0.00     0.038 A 
ATOM      5  C   UNL     1      22.964  -8.104  -7.181  1.00  0.00     0.076 A 
ATOM      6  C   UNL     1      22.963  -9.284  -7.969  1.00  0.00     0.127 A 
ATOM      7  C   UNL     1      23.804 -10.348  -7.626  1.00  0.00     0.050 A 
ATOM      8  C   UNL     1      22.225  -6.878  -7.578  1.00  0.00     0.201 C 
ATOM      9  O   UNL     1      22.017  -6.638  -8.797  1.00  0.00    -0.288 OA
ATOM     10  C   UNL     1      21.902  -5.848  -6.556  1.00  0.00     0.076 A 
ATOM     11  C   UNL     1      22.677  -5.814  -5.374  1.00  0.00     0.041 A 
ATOM     12  C   UNL     1      23.676  -6.877  -5.115  1.00  0.00     0.194 C 
ATOM     13  O   UNL     1      24.455  -6.784  -4.128  1.00  0.00    -0.289 OA
ATOM     14  C   UNL     1      22.493  -4.773  -4.448  1.00  0.00     0.059 A 
ATOM     15  C   UNL     1      21.538  -3.778  -4.679  1.00  0.00     0.120 A 
ATOM     16  C   UNL     1      20.744  -3.832  -5.824  1.00  0.00     0.093 A 
ATOM     17  C   UNL     1      20.893  -4.868  -6.751  1.00  0.00     0.131 A 
ENDROOT
BRANCH   6  18
ATOM     18  O   UNL     1      22.123  -9.454  -9.072  1.00  0.00    -0.507 OA
ATOM     19  H   UNL     1      21.116  -9.408  -9.019  1.00  0.00     0.293 HD
ENDBRANCH   6  18
BRANCH  17  20
ATOM     20  O   UNL     1      20.001  -4.905  -7.825  1.00  0.00    -0.507 OA
ATOM     21  H   UNL     1      19.921  -4.167  -8.512  1.00  0.00     0.293 HD
ENDBRANCH  17  20
BRANCH  15  22
ATOM     22  O   UNL     1      21.362  -2.738  -3.770  1.00  0.00    -0.508 OA
ATOM     23  H   UNL     1      22.140  -2.350  -3.249  1.00  0.00     0.293 HD
ENDBRANCH  15  22
TORSDOF 3
ENDMDL
MODEL 4
REMARK VINA RESULT:    -5.422      3.758      6.211
REMARK INTER + INTRA:          -5.897
REMARK INTER:                  -5.897
REMARK INTRA:                   0.000
REMARK UNBOUND:                 0.000
REMARK SMILES Cc1cc(O)c2c(c1)C(=O)c1cc(O)cc(O)c1C2=O
REMARK SMILES IDX 1 1 2 2 8 3 7 4 6 5 4 6 3 7 19 8 20 9 18 10 11 11 9 12 10 13
REMARK SMILES IDX 12 14 13 15 15 16 16 17 5 18 17 20 14 22
REMARK H PARENT 5 19 17 21 14 23
REMARK Flexibility Score: inf
ROOT
ATOM      1  C   UNL     1      25.506  -8.401  -4.490  1.00  0.00     0.044 C 
ATOM      2  C   UNL     1      24.409  -7.723  -5.257  1.00  0.00    -0.047 A 
ATOM      3  C   UNL     1      23.779  -6.589  -4.730  1.00  0.00     0.016 A 
ATOM      4  C   UNL     1      22.733  -5.964  -5.428  1.00  0.00     0.038 A 
ATOM      5  C   UNL     1      22.309  -6.479  -6.673  1.00  0.00     0.076 A 
ATOM      6  C   UNL     1      22.895  -7.676  -7.160  1.00  0.00     0.127 A 
ATOM      7  C   UNL     1      23.949  -8.270  -6.458  1.00  0.00     0.050 A 
ATOM      8  C   UNL     1      21.305  -5.708  -7.449  1.00  0.00     0.201 C 
ATOM      9  O   UNL     1      21.310  -5.759  -8.708  1.00  0.00    -0.288 OA
ATOM     10  C   UNL     1      20.423  -4.734  -6.753  1.00  0.00     0.076 A 
ATOM     11  C   UNL     1      20.848  -4.222  -5.506  1.00  0.00     0.041 A 
ATOM     12  C   UNL     1      22.066  -4.767  -4.859  1.00  0.00     0.194 C 
ATOM     13  O   UNL     1      22.519  -4.230  -3.812  1.00  0.00    -0.289 OA
ATOM     14  C   UNL     1      20.112  -3.201  -4.882  1.00  0.00     0.059 A 
ATOM     15  C   UNL     1      18.952  -2.697  -5.479  1.00  0.00     0.120 A 
ATOM     16  C   UNL     1      18.508  -3.228  -6.689  1.00  0.00     0.093 A 
ATOM     17  C   UNL     1      19.212  -4.259  -7.319  1.00  0.00     0.131 A 
ENDROOT
BRANCH   6  18
ATOM     18  O   UNL     1      22.439  -8.325  -8.311  1.00  0.00    -0.507 OA
ATOM     19  H   UNL     1      22.187  -7.843  -9.161  1.00  0.00     0.293 HD
ENDBRANCH   6  18
BRANCH  17  20
ATOM     20  O   UNL     1      18.656  -4.802  -8.481  1.00  0.00    -0.507 OA
ATOM     21  H   UNL     1      18.237  -4.246  -9.213  1.00  0.00     0.293 HD
ENDBRANCH  17  20
BRANCH  15  22
ATOM     22  O   UNL     1      18.227  -1.676  -4.870  1.00  0.00    -0.508 OA
ATOM     23  H   UNL     1      17.602  -1.080  -5.400  1.00  0.00     0.293 HD
ENDBRANCH  15  22
TORSDOF 3
ENDMDL
MODEL 5
REMARK VINA RESULT:    -5.185      1.398      6.263
REMARK INTER + INTRA:          -5.640
REMARK INTER:                  -5.640
REMARK INTRA:                   0.000
REMARK UNBOUND:                 0.000
REMARK SMILES Cc1cc(O)c2c(c1)C(=O)c1cc(O)cc(O)c1C2=O
REMARK SMILES IDX 1 1 2 2 8 3 7 4 6 5 4 6 3 7 19 8 20 9 18 10 11 11 9 12 10 13
REMARK SMILES IDX 12 14 13 15 15 16 16 17 5 18 17 20 14 22
REMARK H PARENT 5 19 17 21 14 23
REMARK Flexibility Score: inf
ROOT
ATOM      1  C   UNL     1      21.728  -5.745  -7.022  1.00  0.00     0.044 C 
ATOM      2  C   UNL     1      22.615  -6.908  -6.691  1.00  0.00    -0.047 A 
ATOM      3  C   UNL     1      23.510  -6.828  -5.617  1.00  0.00     0.016 A 
ATOM      4  C   UNL     1      24.364  -7.901  -5.316  1.00  0.00     0.038 A 
ATOM      5  C   UNL     1      24.324  -9.075  -6.102  1.00  0.00     0.076 A 
ATOM      6  C   UNL     1      23.477  -9.117  -7.239  1.00  0.00     0.127 A 
ATOM      7  C   UNL     1      22.620  -8.044  -7.506  1.00  0.00     0.050 A 
ATOM      8  C   UNL     1      25.133 -10.241  -5.665  1.00  0.00     0.201 C 
ATOM      9  O   UNL     1      24.741 -11.410  -5.926  1.00  0.00    -0.288 OA
ATOM     10  C   UNL     1      26.296 -10.037  -4.762  1.00  0.00     0.076 A 
ATOM     11  C   UNL     1      26.335  -8.860  -3.980  1.00  0.00     0.041 A 
ATOM     12  C   UNL     1      25.313  -7.805  -4.181  1.00  0.00     0.194 C 
ATOM     13  O   UNL     1      25.268  -6.814  -3.402  1.00  0.00    -0.289 OA
ATOM     14  C   UNL     1      27.345  -8.694  -3.017  1.00  0.00     0.059 A 
ATOM     15  C   UNL     1      28.322  -9.677  -2.837  1.00  0.00     0.120 A 
ATOM     16  C   UNL     1      28.310 -10.820  -3.636  1.00  0.00     0.093 A 
ATOM     17  C   UNL     1      27.328 -11.000  -4.614  1.00  0.00     0.131 A 
ENDROOT
BRANCH   6  18
ATOM     18  O   UNL     1      23.480 -10.181  -8.143  1.00  0.00    -0.507 OA
ATOM     19  H   UNL     1      22.640 -10.621  -8.490  1.00  0.00     0.293 HD
ENDBRANCH   6  18
BRANCH  17  20
ATOM     20  O   UNL     1      27.435 -12.125  -5.436  1.00  0.00    -0.507 OA
ATOM     21  H   UNL     1      27.289 -12.103  -6.436  1.00  0.00     0.293 HD
ENDBRANCH  17  20
BRANCH  15  22
ATOM     22  O   UNL     1      29.317  -9.522  -1.875  1.00  0.00    -0.508 OA
ATOM     23  H   UNL     1      30.291  -9.707  -2.085  1.00  0.00     0.293 HD
ENDBRANCH  15  22
TORSDOF 3
ENDMDL
