MODEL 1
REMARK VINA RESULT:    -3.746      0.000      0.000
REMARK INTER + INTRA:          -4.436
REMARK INTER:                  -4.403
REMARK INTRA:                  -0.034
REMARK UNBOUND:                -0.034
REMARK SMILES O=C([O-])CCC(=O)[O-]
REMARK SMILES IDX 4 1 2 2 1 3 3 4 5 5 6 6 7 7 8 8
REMARK H PARENT
REMARK Flexibility Score: inf
ROOT
ATOM      1  C   UNL     1      -2.900  37.504  17.419  1.00  0.00     0.059 C 
ENDROOT
BRANCH   1   2
ATOM      2  C   UNL     1      -3.312  37.152  18.816  1.00  0.00     0.042 C 
ATOM      3  O   UNL     1      -4.336  36.447  19.016  1.00  0.00    -0.550 OA
ATOM      4  O   UNL     1      -2.541  37.567  19.895  1.00  0.00    -0.550 OA
ENDBRANCH   1   2
BRANCH   1   5
ATOM      5  C   UNL     1      -3.219  36.374  16.434  1.00  0.00     0.059 C 
BRANCH   5   6
ATOM      6  C   UNL     1      -3.131  36.838  15.013  1.00  0.00     0.042 C 
ATOM      7  O   UNL     1      -2.175  36.465  14.283  1.00  0.00    -0.550 OA
ATOM      8  O   UNL     1      -4.127  37.648  14.481  1.00  0.00    -0.550 OA
ENDBRANCH   5   6
ENDBRANCH   1   5
TORSDOF 3
ENDMDL
MODEL 2
REMARK VINA RESULT:    -3.719      0.114      1.151
REMARK INTER + INTRA:          -4.405
REMARK INTER:                  -4.374
REMARK INTRA:                  -0.031
REMARK UNBOUND:                -0.034
REMARK SMILES O=C([O-])CCC(=O)[O-]
REMARK SMILES IDX 4 1 2 2 1 3 3 4 5 5 6 6 7 7 8 8
REMARK H PARENT
REMARK Flexibility Score: inf
ROOT
ATOM      1  C   UNL     1      -2.864  37.531  17.490  1.00  0.00     0.059 C 
ENDROOT
BRANCH   1   2
ATOM      2  C   UNL     1      -3.265  37.168  18.888  1.00  0.00     0.042 C 
ATOM      3  O   UNL     1      -2.589  37.578  19.868  1.00  0.00    -0.550 OA
ATOM      4  O   UNL     1      -4.410  36.412  19.109  1.00  0.00    -0.550 OA
ENDBRANCH   1   2
BRANCH   1   5
ATOM      5  C   UNL     1      -3.228  36.425  16.494  1.00  0.00     0.059 C 
BRANCH   5   6
ATOM      6  C   UNL     1      -3.119  36.900  15.077  1.00  0.00     0.042 C 
ATOM      7  O   UNL     1      -2.229  36.433  14.319  1.00  0.00    -0.550 OA
ATOM      8  O   UNL     1      -4.028  37.827  14.582  1.00  0.00    -0.550 OA
ENDBRANCH   5   6
ENDBRANCH   1   5
TORSDOF 3
ENDMDL
MODEL 3
REMARK VINA RESULT:    -3.718      0.115      4.282
REMARK INTER + INTRA:          -4.403
REMARK INTER:                  -4.372
REMARK INTRA:                  -0.031
REMARK UNBOUND:                -0.034
REMARK SMILES O=C([O-])CCC(=O)[O-]
REMARK SMILES IDX 4 1 2 2 1 3 3 4 5 5 6 6 7 7 8 8
REMARK H PARENT
REMARK Flexibility Score: inf
ROOT
ATOM      1  C   UNL     1      -3.234  36.431  16.497  1.00  0.00     0.059 C 
ENDROOT
BRANCH   1   2
ATOM      2  C   UNL     1      -3.111  36.908  15.081  1.00  0.00     0.042 C 
ATOM      3  O   UNL     1      -2.204  36.453  14.336  1.00  0.00    -0.550 OA
ATOM      4  O   UNL     1      -4.025  37.824  14.574  1.00  0.00    -0.550 OA
ENDBRANCH   1   2
BRANCH   1   5
ATOM      5  C   UNL     1      -2.869  37.532  17.497  1.00  0.00     0.059 C 
BRANCH   5   6
ATOM      6  C   UNL     1      -3.269  37.166  18.893  1.00  0.00     0.042 C 
ATOM      7  O   UNL     1      -2.586  37.565  19.873  1.00  0.00    -0.550 OA
ATOM      8  O   UNL     1      -4.420  36.421  19.115  1.00  0.00    -0.550 OA
ENDBRANCH   5   6
ENDBRANCH   1   5
TORSDOF 3
ENDMDL
MODEL 4
REMARK VINA RESULT:    -3.643      1.224      1.319
REMARK INTER + INTRA:          -4.316
REMARK INTER:                  -4.290
REMARK INTRA:                  -0.026
REMARK UNBOUND:                -0.034
REMARK SMILES O=C([O-])CCC(=O)[O-]
REMARK SMILES IDX 4 1 2 2 1 3 3 4 5 5 6 6 7 7 8 8
REMARK H PARENT
REMARK Flexibility Score: inf
ROOT
ATOM      1  C   UNL     1      -3.184  37.431  18.403  1.00  0.00     0.059 C 
ENDROOT
BRANCH   1   2
ATOM      2  C   UNL     1      -4.079  37.180  19.579  1.00  0.00     0.042 C 
ATOM      3  O   UNL     1      -5.071  37.925  19.791  1.00  0.00    -0.550 OA
ATOM      4  O   UNL     1      -3.839  36.097  20.416  1.00  0.00    -0.550 OA
ENDBRANCH   1   2
BRANCH   1   5
ATOM      5  C   UNL     1      -3.512  36.496  17.235  1.00  0.00     0.059 C 
BRANCH   5   6
ATOM      6  C   UNL     1      -2.917  36.986  15.950  1.00  0.00     0.042 C 
ATOM      7  O   UNL     1      -1.807  36.540  15.555  1.00  0.00    -0.550 OA
ATOM      8  O   UNL     1      -3.607  37.904  15.168  1.00  0.00    -0.550 OA
ENDBRANCH   5   6
ENDBRANCH   1   5
TORSDOF 3
ENDMDL
MODEL 5
REMARK VINA RESULT:    -3.596      1.357      4.321
REMARK INTER + INTRA:          -4.260
REMARK INTER:                  -4.233
REMARK INTRA:                  -0.027
REMARK UNBOUND:                -0.034
REMARK SMILES O=C([O-])CCC(=O)[O-]
REMARK SMILES IDX 4 1 2 2 1 3 3 4 5 5 6 6 7 7 8 8
REMARK H PARENT
REMARK Flexibility Score: inf
ROOT
ATOM      1  C   UNL     1      -3.617  36.349  17.236  1.00  0.00     0.059 C 
ENDROOT
BRANCH   1   2
ATOM      2  C   UNL     1      -2.936  36.926  16.032  1.00  0.00     0.042 C 
ATOM      3  O   UNL     1      -1.755  36.594  15.753  1.00  0.00    -0.550 OA
ATOM      4  O   UNL     1      -3.623  37.799  15.197  1.00  0.00    -0.550 OA
ENDBRANCH   1   2
BRANCH   1   5
ATOM      5  C   UNL     1      -3.395  37.215  18.480  1.00  0.00     0.059 C 
BRANCH   5   6
ATOM      6  C   UNL     1      -4.363  36.875  19.571  1.00  0.00     0.042 C 
ATOM      7  O   UNL     1      -4.463  35.689  19.983  1.00  0.00    -0.550 OA
ATOM      8  O   UNL     1      -5.125  37.875  20.163  1.00  0.00    -0.550 OA
ENDBRANCH   5   6
ENDBRANCH   1   5
TORSDOF 3
ENDMDL
MODEL 6
REMARK VINA RESULT:    -3.479      2.635      4.378
REMARK INTER + INTRA:          -4.123
REMARK INTER:                  -4.046
REMARK INTRA:                  -0.077
REMARK UNBOUND:                -0.034
REMARK SMILES O=C([O-])CCC(=O)[O-]
REMARK SMILES IDX 4 1 2 2 1 3 3 4 5 5 6 6 7 7 8 8
REMARK H PARENT
REMARK Flexibility Score: inf
ROOT
ATOM      1  C   UNL     1      -2.933  37.496  19.880  1.00  0.00     0.059 C 
ENDROOT
BRANCH   1   2
ATOM      2  C   UNL     1      -2.079  37.659  18.659  1.00  0.00     0.042 C 
ATOM      3  O   UNL     1      -0.856  37.931  18.773  1.00  0.00    -0.550 OA
ATOM      4  O   UNL     1      -2.628  37.469  17.396  1.00  0.00    -0.550 OA
ENDBRANCH   1   2
BRANCH   1   5
ATOM      5  C   UNL     1      -4.395  37.224  19.514  1.00  0.00     0.059 C 
BRANCH   5   6
ATOM      6  C   UNL     1      -4.829  35.857  19.948  1.00  0.00     0.042 C 
ATOM      7  O   UNL     1      -4.974  35.597  21.171  1.00  0.00    -0.550 OA
ATOM      8  O   UNL     1      -5.114  34.883  18.999  1.00  0.00    -0.550 OA
ENDBRANCH   5   6
ENDBRANCH   1   5
TORSDOF 3
ENDMDL
MODEL 7
REMARK VINA RESULT:    -3.472      2.147      3.020
REMARK INTER + INTRA:          -4.114
REMARK INTER:                  -4.063
REMARK INTRA:                  -0.051
REMARK UNBOUND:                -0.034
REMARK SMILES O=C([O-])CCC(=O)[O-]
REMARK SMILES IDX 4 1 2 2 1 3 3 4 5 5 6 6 7 7 8 8
REMARK H PARENT
REMARK Flexibility Score: inf
ROOT
ATOM      1  C   UNL     1      -3.781  37.075  19.783  1.00  0.00     0.059 C 
ENDROOT
BRANCH   1   2
ATOM      2  C   UNL     1      -4.714  35.977  20.198  1.00  0.00     0.042 C 
ATOM      3  O   UNL     1      -5.124  35.141  19.351  1.00  0.00    -0.550 OA
ATOM      4  O   UNL     1      -5.095  35.855  21.528  1.00  0.00    -0.550 OA
ENDBRANCH   1   2
BRANCH   1   5
ATOM      5  C   UNL     1      -3.610  37.125  18.261  1.00  0.00     0.059 C 
BRANCH   5   6
ATOM      6  C   UNL     1      -2.183  37.363  17.873  1.00  0.00     0.042 C 
ATOM      7  O   UNL     1      -1.799  37.128  16.697  1.00  0.00    -0.550 OA
ATOM      8  O   UNL     1      -1.287  37.883  18.798  1.00  0.00    -0.550 OA
ENDBRANCH   5   6
ENDBRANCH   1   5
TORSDOF 3
ENDMDL
MODEL 8
REMARK VINA RESULT:    -3.471      2.661      4.251
REMARK INTER + INTRA:          -4.113
REMARK INTER:                  -4.026
REMARK INTRA:                  -0.087
REMARK UNBOUND:                -0.034
REMARK SMILES O=C([O-])CCC(=O)[O-]
REMARK SMILES IDX 4 1 2 2 1 3 3 4 5 5 6 6 7 7 8 8
REMARK H PARENT
REMARK Flexibility Score: inf
ROOT
ATOM      1  C   UNL     1      -2.902  37.496  19.868  1.00  0.00     0.059 C 
ENDROOT
BRANCH   1   2
ATOM      2  C   UNL     1      -2.050  37.584  18.638  1.00  0.00     0.042 C 
ATOM      3  O   UNL     1      -2.565  37.434  17.499  1.00  0.00    -0.550 OA
ATOM      4  O   UNL     1      -0.695  37.872  18.750  1.00  0.00    -0.550 OA
ENDBRANCH   1   2
BRANCH   1   5
ATOM      5  C   UNL     1      -4.376  37.267  19.519  1.00  0.00     0.059 C 
BRANCH   5   6
ATOM      6  C   UNL     1      -4.846  35.915  19.963  1.00  0.00     0.042 C 
ATOM      7  O   UNL     1      -5.125  35.030  19.112  1.00  0.00    -0.550 OA
ATOM      8  O   UNL     1      -4.936  35.620  21.318  1.00  0.00    -0.550 OA
ENDBRANCH   5   6
ENDBRANCH   1   5
TORSDOF 3
ENDMDL
