MODEL 1
REMARK VINA RESULT:    -3.500      0.000      0.000
REMARK INTER + INTRA:          -4.490
REMARK INTER:                  -4.523
REMARK INTRA:                   0.033
REMARK UNBOUND:                 0.033
REMARK SMILES CCCCCCC(=O)[O-]
REMARK SMILES IDX 5 1 6 2 7 3 8 4 9 5 4 6 3 7 2 8 1 9
REMARK H PARENT
REMARK Flexibility Score: inf
ROOT
ATOM      1  C   UNL     1      13.345  20.230  -0.534  1.00  0.00     0.006 C 
ENDROOT
BRANCH   1   2
ATOM      2  C   UNL     1      13.826  19.091   0.370  1.00  0.00     0.053 C 
BRANCH   2   3
ATOM      3  C   UNL     1      12.837  17.969   0.371  1.00  0.00     0.041 C 
ATOM      4  O   UNL     1      11.854  17.990  -0.416  1.00  0.00    -0.550 OA
ATOM      5  O   UNL     1      12.973  16.922   1.274  1.00  0.00    -0.550 OA
ENDBRANCH   2   3
ENDBRANCH   1   2
BRANCH   1   6
ATOM      6  C   UNL     1      14.531  21.002  -1.125  1.00  0.00     0.000 C 
BRANCH   6   7
ATOM      7  C   UNL     1      15.610  21.251  -0.061  1.00  0.00    -0.000 C 
BRANCH   7   8
ATOM      8  C   UNL     1      16.940  20.556  -0.395  1.00  0.00    -0.003 C 
ATOM      9  C   UNL     1      17.125  19.240   0.360  1.00  0.00     0.004 C 
ENDBRANCH   7   8
ENDBRANCH   6   7
ENDBRANCH   1   6
TORSDOF 5
ENDMDL
MODEL 2
REMARK VINA RESULT:    -3.467      3.124      4.612
REMARK INTER + INTRA:          -4.447
REMARK INTER:                  -4.266
REMARK INTRA:                  -0.181
REMARK UNBOUND:                 0.033
REMARK SMILES CCCCCCC(=O)[O-]
REMARK SMILES IDX 5 1 6 2 7 3 8 4 9 5 4 6 3 7 2 8 1 9
REMARK H PARENT
REMARK Flexibility Score: inf
ROOT
ATOM      1  C   UNL     1      15.671  19.919   0.090  1.00  0.00     0.006 C 
ENDROOT
BRANCH   1   2
ATOM      2  C   UNL     1      14.867  21.098  -0.466  1.00  0.00     0.053 C 
BRANCH   2   3
ATOM      3  C   UNL     1      15.646  21.810  -1.525  1.00  0.00     0.041 C 
ATOM      4  O   UNL     1      15.096  22.125  -2.613  1.00  0.00    -0.550 OA
ATOM      5  O   UNL     1      16.994  22.085  -1.331  1.00  0.00    -0.550 OA
ENDBRANCH   2   3
ENDBRANCH   1   2
BRANCH   1   6
ATOM      6  C   UNL     1      14.743  18.832   0.645  1.00  0.00     0.000 C 
BRANCH   6   7
ATOM      7  C   UNL     1      13.320  18.985   0.086  1.00  0.00    -0.000 C 
BRANCH   7   8
ATOM      8  C   UNL     1      12.502  17.688   0.191  1.00  0.00    -0.003 C 
ATOM      9  C   UNL     1      12.874  16.852   1.415  1.00  0.00     0.004 C 
ENDBRANCH   7   8
ENDBRANCH   6   7
ENDBRANCH   1   6
TORSDOF 5
ENDMDL
MODEL 3
REMARK VINA RESULT:    -3.441      2.651      4.206
REMARK INTER + INTRA:          -4.414
REMARK INTER:                  -4.173
REMARK INTRA:                  -0.241
REMARK UNBOUND:                 0.033
REMARK SMILES CCCCCCC(=O)[O-]
REMARK SMILES IDX 5 1 6 2 7 3 8 4 9 5 4 6 3 7 2 8 1 9
REMARK H PARENT
REMARK Flexibility Score: inf
ROOT
ATOM      1  C   UNL     1      13.324  20.315  -0.249  1.00  0.00     0.006 C 
ENDROOT
BRANCH   1   2
ATOM      2  C   UNL     1      14.331  20.986  -1.187  1.00  0.00     0.053 C 
BRANCH   2   3
ATOM      3  C   UNL     1      15.712  20.908  -0.617  1.00  0.00     0.041 C 
ATOM      4  O   UNL     1      16.560  21.799  -0.885  1.00  0.00    -0.550 OA
ATOM      5  O   UNL     1      16.078  19.825   0.173  1.00  0.00    -0.550 OA
ENDBRANCH   2   3
ENDBRANCH   1   2
BRANCH   1   6
ATOM      6  C   UNL     1      12.324  19.458  -1.034  1.00  0.00     0.000 C 
BRANCH   6   7
ATOM      7  C   UNL     1      12.206  18.053  -0.424  1.00  0.00    -0.000 C 
BRANCH   7   8
ATOM      8  C   UNL     1      13.202  17.822   0.723  1.00  0.00    -0.003 C 
ATOM      9  C   UNL     1      12.808  16.647   1.619  1.00  0.00     0.004 C 
ENDBRANCH   7   8
ENDBRANCH   6   7
ENDBRANCH   1   6
TORSDOF 5
ENDMDL
MODEL 4
REMARK VINA RESULT:    -3.167      9.798     10.924
REMARK INTER + INTRA:          -4.060
REMARK INTER:                  -3.797
REMARK INTRA:                  -0.263
REMARK UNBOUND:                 0.033
REMARK SMILES CCCCCCC(=O)[O-]
REMARK SMILES IDX 5 1 6 2 7 3 8 4 9 5 4 6 3 7 2 8 1 9
REMARK H PARENT
REMARK Flexibility Score: inf
ROOT
ATOM      1  C   UNL     1      13.975  12.863   8.260  1.00  0.00     0.006 C 
ENDROOT
BRANCH   1   2
ATOM      2  C   UNL     1      14.427  13.395   9.622  1.00  0.00     0.053 C 
BRANCH   2   3
ATOM      3  C   UNL     1      14.078  12.425  10.706  1.00  0.00     0.041 C 
ATOM      4  O   UNL     1      13.257  12.747  11.604  1.00  0.00    -0.550 OA
ATOM      5  O   UNL     1      14.696  11.182  10.752  1.00  0.00    -0.550 OA
ENDBRANCH   2   3
ENDBRANCH   1   2
BRANCH   1   6
ATOM      6  C   UNL     1      14.819  13.460   7.127  1.00  0.00     0.000 C 
BRANCH   6   7
ATOM      7  C   UNL     1      15.988  14.284   7.688  1.00  0.00    -0.000 C 
BRANCH   7   8
ATOM      8  C   UNL     1      16.010  15.721   7.147  1.00  0.00    -0.003 C 
ATOM      9  C   UNL     1      15.578  16.752   8.190  1.00  0.00     0.004 C 
ENDBRANCH   7   8
ENDBRANCH   6   7
ENDBRANCH   1   6
TORSDOF 5
ENDMDL
MODEL 5
REMARK VINA RESULT:    -3.132      9.483     10.996
REMARK INTER + INTRA:          -4.014
REMARK INTER:                  -3.818
REMARK INTRA:                  -0.197
REMARK UNBOUND:                 0.033
REMARK SMILES CCCCCCC(=O)[O-]
REMARK SMILES IDX 5 1 6 2 7 3 8 4 9 5 4 6 3 7 2 8 1 9
REMARK H PARENT
REMARK Flexibility Score: inf
ROOT
ATOM      1  C   UNL     1      15.239  13.487   7.141  1.00  0.00     0.006 C 
ENDROOT
BRANCH   1   2
ATOM      2  C   UNL     1      16.256  14.298   7.949  1.00  0.00     0.053 C 
BRANCH   2   3
ATOM      3  C   UNL     1      16.279  15.720   7.487  1.00  0.00     0.041 C 
ATOM      4  O   UNL     1      17.081  16.081   6.586  1.00  0.00    -0.550 OA
ATOM      5  O   UNL     1      15.449  16.659   8.085  1.00  0.00    -0.550 OA
ENDBRANCH   2   3
ENDBRANCH   1   2
BRANCH   1   6
ATOM      6  C   UNL     1      14.117  12.957   8.041  1.00  0.00     0.000 C 
BRANCH   6   7
ATOM      7  C   UNL     1      14.434  13.210   9.523  1.00  0.00    -0.000 C 
BRANCH   7   8
ATOM      8  C   UNL     1      13.931  12.081  10.435  1.00  0.00    -0.003 C 
ATOM      9  C   UNL     1      13.561  12.572  11.835  1.00  0.00     0.004 C 
ENDBRANCH   7   8
ENDBRANCH   6   7
ENDBRANCH   1   6
TORSDOF 5
ENDMDL
MODEL 6
REMARK VINA RESULT:    -3.121     10.571     11.804
REMARK INTER + INTRA:          -4.000
REMARK INTER:                  -3.831
REMARK INTRA:                  -0.169
REMARK UNBOUND:                 0.033
REMARK SMILES CCCCCCC(=O)[O-]
REMARK SMILES IDX 5 1 6 2 7 3 8 4 9 5 4 6 3 7 2 8 1 9
REMARK H PARENT
REMARK Flexibility Score: inf
ROOT
ATOM      1  C   UNL     1      14.408  13.125   9.583  1.00  0.00     0.006 C 
ENDROOT
BRANCH   1   2
ATOM      2  C   UNL     1      13.862  12.140  10.621  1.00  0.00     0.053 C 
BRANCH   2   3
ATOM      3  C   UNL     1      13.888  12.749  11.986  1.00  0.00     0.041 C 
ATOM      4  O   UNL     1      12.897  12.627  12.754  1.00  0.00    -0.550 OA
ATOM      5  O   UNL     1      14.987  13.494  12.395  1.00  0.00    -0.550 OA
ENDBRANCH   2   3
ENDBRANCH   1   2
BRANCH   1   6
ATOM      6  C   UNL     1      13.890  12.790   8.179  1.00  0.00     0.000 C 
BRANCH   6   7
ATOM      7  C   UNL     1      14.883  13.251   7.102  1.00  0.00    -0.000 C 
BRANCH   7   8
ATOM      8  C   UNL     1      16.043  14.075   7.682  1.00  0.00    -0.003 C 
ATOM      9  C   UNL     1      16.012  15.537   7.235  1.00  0.00     0.004 C 
ENDBRANCH   7   8
ENDBRANCH   6   7
ENDBRANCH   1   6
TORSDOF 5
ENDMDL
MODEL 7
REMARK VINA RESULT:    -3.035      2.986      4.698
REMARK INTER + INTRA:          -3.889
REMARK INTER:                  -3.764
REMARK INTRA:                  -0.125
REMARK UNBOUND:                 0.033
REMARK SMILES CCCCCCC(=O)[O-]
REMARK SMILES IDX 5 1 6 2 7 3 8 4 9 5 4 6 3 7 2 8 1 9
REMARK H PARENT
REMARK Flexibility Score: inf
ROOT
ATOM      1  C   UNL     1      15.948  19.160   0.649  1.00  0.00     0.006 C 
ENDROOT
BRANCH   1   2
ATOM      2  C   UNL     1      16.856  19.860  -0.367  1.00  0.00     0.053 C 
BRANCH   2   3
ATOM      3  C   UNL     1      16.452  21.292  -0.531  1.00  0.00     0.041 C 
ATOM      4  O   UNL     1      16.684  22.124   0.384  1.00  0.00    -0.550 OA
ATOM      5  O   UNL     1      15.776  21.696  -1.675  1.00  0.00    -0.550 OA
ENDBRANCH   2   3
ENDBRANCH   1   2
BRANCH   1   6
ATOM      6  C   UNL     1      14.470  19.350   0.290  1.00  0.00     0.000 C 
BRANCH   6   7
ATOM      7  C   UNL     1      13.643  18.119   0.695  1.00  0.00    -0.000 C 
BRANCH   7   8
ATOM      8  C   UNL     1      12.341  17.992  -0.110  1.00  0.00    -0.003 C 
ATOM      9  C   UNL     1      12.149  19.134  -1.108  1.00  0.00     0.004 C 
ENDBRANCH   7   8
ENDBRANCH   6   7
ENDBRANCH   1   6
TORSDOF 5
ENDMDL
