MODEL 1
REMARK VINA RESULT:     0.000      0.000      0.000
REMARK INTER + INTRA:          -0.950
REMARK INTER:                   0.000
REMARK INTRA:                  -0.950
REMARK UNBOUND:                -0.950
REMARK SMILES CCCCCCCCC(=O)[O-]
REMARK SMILES IDX 6 1 7 2 8 3 9 4 10 5 11 6 5 7 4 8 3 9 2 10 1 11
REMARK H PARENT
REMARK Flexibility Score: inf
ROOT
ATOM      1  C   UNL     1     175.559 194.787 191.110  1.00  0.00     0.000 C 
ENDROOT
BRANCH   1   2
ATOM      2  C   UNL     1     176.490 193.629 191.510  1.00  0.00     0.006 C 
BRANCH   2   3
ATOM      3  C   UNL     1     176.820 193.575 193.009  1.00  0.00     0.053 C 
BRANCH   3   4
ATOM      4  C   UNL     1     178.186 194.113 193.304  1.00  0.00     0.041 C 
ATOM      5  O   UNL     1     178.989 194.355 192.365  1.00  0.00    -0.550 OA
ATOM      6  O   UNL     1     178.560 194.378 194.616  1.00  0.00    -0.550 OA
ENDBRANCH   3   4
ENDBRANCH   2   3
ENDBRANCH   1   2
BRANCH   1   7
ATOM      7  C   UNL     1     176.320 195.979 190.502  1.00  0.00     0.000 C 
BRANCH   7   8
ATOM      8  C   UNL     1     176.206 197.255 191.354  1.00  0.00    -0.000 C 
BRANCH   8   9
ATOM      9  C   UNL     1     177.458 197.596 192.186  1.00  0.00    -0.000 C 
BRANCH   9  10
ATOM     10  C   UNL     1     177.229 197.669 193.706  1.00  0.00    -0.003 C 
ATOM     11  C   UNL     1     175.909 197.032 194.140  1.00  0.00     0.004 C 
ENDBRANCH   9  10
ENDBRANCH   8   9
ENDBRANCH   7   8
ENDBRANCH   1   7
TORSDOF 7
ENDMDL
MODEL 2
REMARK VINA RESULT:     0.000      6.784      8.268
REMARK INTER + INTRA:          -0.950
REMARK INTER:                   0.000
REMARK INTRA:                  -0.950
REMARK UNBOUND:                -0.950
REMARK SMILES CCCCCCCCC(=O)[O-]
REMARK SMILES IDX 6 1 7 2 8 3 9 4 10 5 11 6 5 7 4 8 3 9 2 10 1 11
REMARK H PARENT
REMARK Flexibility Score: inf
ROOT
ATOM      1  C   UNL     1     175.600 188.455 189.627  1.00  0.00     0.000 C 
ENDROOT
BRANCH   1   2
ATOM      2  C   UNL     1     174.847 189.203 188.513  1.00  0.00     0.006 C 
BRANCH   2   3
ATOM      3  C   UNL     1     174.224 190.534 188.959  1.00  0.00     0.053 C 
BRANCH   3   4
ATOM      4  C   UNL     1     172.748 190.415 189.189  1.00  0.00     0.041 C 
ATOM      5  O   UNL     1     172.132 189.379 188.826  1.00  0.00    -0.550 OA
ATOM      6  O   UNL     1     172.061 191.434 189.835  1.00  0.00    -0.550 OA
ENDBRANCH   3   4
ENDBRANCH   2   3
ENDBRANCH   1   2
BRANCH   1   7
ATOM      7  C   UNL     1     174.770 187.313 190.242  1.00  0.00     0.000 C 
BRANCH   7   8
ATOM      8  C   UNL     1     174.451 187.544 191.729  1.00  0.00    -0.000 C 
BRANCH   8   9
ATOM      9  C   UNL     1     173.009 188.004 192.023  1.00  0.00    -0.000 C 
BRANCH   9  10
ATOM     10  C   UNL     1     172.892 189.360 192.739  1.00  0.00    -0.003 C 
ATOM     11  C   UNL     1     174.187 190.172 192.692  1.00  0.00     0.004 C 
ENDBRANCH   9  10
ENDBRANCH   8   9
ENDBRANCH   7   8
ENDBRANCH   1   7
TORSDOF 7
ENDMDL
MODEL 3
REMARK VINA RESULT:     0.000      6.745      7.989
REMARK INTER + INTRA:          -0.950
REMARK INTER:                   0.000
REMARK INTRA:                  -0.950
REMARK UNBOUND:                -0.950
REMARK SMILES CCCCCCCCC(=O)[O-]
REMARK SMILES IDX 6 1 7 2 8 3 9 4 10 5 11 6 5 7 4 8 3 9 2 10 1 11
REMARK H PARENT
REMARK Flexibility Score: inf
ROOT
ATOM      1  C   UNL     1     172.195 191.056 198.686  1.00  0.00     0.000 C 
ENDROOT
BRANCH   1   2
ATOM      2  C   UNL     1     172.828 190.224 197.557  1.00  0.00     0.006 C 
BRANCH   2   3
ATOM      3  C   UNL     1     173.676 191.042 196.571  1.00  0.00     0.053 C 
BRANCH   3   4
ATOM      4  C   UNL     1     172.949 191.305 195.288  1.00  0.00     0.041 C 
ATOM      5  O   UNL     1     171.872 190.705 195.036  1.00  0.00    -0.550 OA
ATOM      6  O   UNL     1     173.447 192.236 194.386  1.00  0.00    -0.550 OA
ENDBRANCH   3   4
ENDBRANCH   2   3
ENDBRANCH   1   2
BRANCH   1   7
ATOM      7  C   UNL     1     170.713 191.378 198.427  1.00  0.00     0.000 C 
BRANCH   7   8
ATOM      8  C   UNL     1     170.451 192.886 198.267  1.00  0.00    -0.000 C 
BRANCH   8   9
ATOM      9  C   UNL     1     170.240 193.360 196.815  1.00  0.00    -0.000 C 
BRANCH   9  10
ATOM     10  C   UNL     1     171.238 194.424 196.327  1.00  0.00    -0.003 C 
ATOM     11  C   UNL     1     172.474 194.536 197.220  1.00  0.00     0.004 C 
ENDBRANCH   9  10
ENDBRANCH   8   9
ENDBRANCH   7   8
ENDBRANCH   1   7
TORSDOF 7
ENDMDL
MODEL 4
REMARK VINA RESULT:     0.000      7.051      8.413
REMARK INTER + INTRA:          -0.950
REMARK INTER:                   0.000
REMARK INTRA:                  -0.950
REMARK UNBOUND:                -0.950
REMARK SMILES CCCCCCCCC(=O)[O-]
REMARK SMILES IDX 6 1 7 2 8 3 9 4 10 5 11 6 5 7 4 8 3 9 2 10 1 11
REMARK H PARENT
REMARK Flexibility Score: inf
ROOT
ATOM      1  C   UNL     1     177.143 193.905 198.600  1.00  0.00     0.000 C 
ENDROOT
BRANCH   1   2
ATOM      2  C   UNL     1     177.605 193.742 200.059  1.00  0.00     0.006 C 
BRANCH   2   3
ATOM      3  C   UNL     1     178.152 192.346 200.395  1.00  0.00     0.053 C 
BRANCH   3   4
ATOM      4  C   UNL     1     177.155 191.518 201.145  1.00  0.00     0.041 C 
ATOM      5  O   UNL     1     176.108 192.046 201.602  1.00  0.00    -0.550 OA
ATOM      6  O   UNL     1     177.368 190.155 201.311  1.00  0.00    -0.550 OA
ENDBRANCH   3   4
ENDBRANCH   2   3
ENDBRANCH   1   2
BRANCH   1   7
ATOM      7  C   UNL     1     175.616 193.794 198.445  1.00  0.00     0.000 C 
BRANCH   7   8
ATOM      8  C   UNL     1     175.191 192.584 197.594  1.00  0.00    -0.000 C 
BRANCH   8   9
ATOM      9  C   UNL     1     174.641 191.386 198.394  1.00  0.00    -0.000 C 
BRANCH   9  10
ATOM     10  C   UNL     1     175.417 190.071 198.210  1.00  0.00    -0.003 C 
ATOM     11  C   UNL     1     176.794 190.275 197.578  1.00  0.00     0.004 C 
ENDBRANCH   9  10
ENDBRANCH   8   9
ENDBRANCH   7   8
ENDBRANCH   1   7
TORSDOF 7
ENDMDL
MODEL 5
REMARK VINA RESULT:     0.000      7.068      8.320
REMARK INTER + INTRA:          -0.950
REMARK INTER:                   0.000
REMARK INTRA:                  -0.950
REMARK UNBOUND:                -0.950
REMARK SMILES CCCCCCCCC(=O)[O-]
REMARK SMILES IDX 6 1 7 2 8 3 9 4 10 5 11 6 5 7 4 8 3 9 2 10 1 11
REMARK H PARENT
REMARK Flexibility Score: inf
ROOT
ATOM      1  C   UNL     1     171.333 192.233 197.019  1.00  0.00     0.000 C 
ENDROOT
BRANCH   1   2
ATOM      2  C   UNL     1     170.568 190.924 196.755  1.00  0.00     0.006 C 
BRANCH   2   3
ATOM      3  C   UNL     1     171.041 189.736 197.606  1.00  0.00     0.053 C 
BRANCH   3   4
ATOM      4  C   UNL     1     171.912 188.799 196.828  1.00  0.00     0.041 C 
ATOM      5  O   UNL     1     172.013 188.916 195.579  1.00  0.00    -0.550 OA
ATOM      6  O   UNL     1     172.639 187.816 197.489  1.00  0.00    -0.550 OA
ENDBRANCH   3   4
ENDBRANCH   2   3
ENDBRANCH   1   2
BRANCH   1   7
ATOM      7  C   UNL     1     172.410 192.517 195.957  1.00  0.00     0.000 C 
BRANCH   7   8
ATOM      8  C   UNL     1     173.834 192.517 196.539  1.00  0.00    -0.000 C 
BRANCH   8   9
ATOM      9  C   UNL     1     174.660 191.249 196.241  1.00  0.00    -0.000 C 
BRANCH   9  10
ATOM     10  C   UNL     1     175.147 190.483 197.483  1.00  0.00    -0.003 C 
ATOM     11  C   UNL     1     174.417 190.894 198.761  1.00  0.00     0.004 C 
ENDBRANCH   9  10
ENDBRANCH   8   9
ENDBRANCH   7   8
ENDBRANCH   1   7
TORSDOF 7
ENDMDL
MODEL 6
REMARK VINA RESULT:     0.000     10.503     11.995
REMARK INTER + INTRA:          -0.950
REMARK INTER:                   0.000
REMARK INTRA:                  -0.950
REMARK UNBOUND:                -0.950
REMARK SMILES CCCCCCCCC(=O)[O-]
REMARK SMILES IDX 6 1 7 2 8 3 9 4 10 5 11 6 5 7 4 8 3 9 2 10 1 11
REMARK H PARENT
REMARK Flexibility Score: inf
ROOT
ATOM      1  C   UNL     1     173.058 191.286 200.143  1.00  0.00     0.000 C 
ENDROOT
BRANCH   1   2
ATOM      2  C   UNL     1     171.574 190.901 200.280  1.00  0.00     0.006 C 
BRANCH   2   3
ATOM      3  C   UNL     1     171.129 190.611 201.721  1.00  0.00     0.053 C 
BRANCH   3   4
ATOM      4  C   UNL     1     171.020 189.142 201.991  1.00  0.00     0.041 C 
ATOM      5  O   UNL     1     171.079 188.316 201.042  1.00  0.00    -0.550 OA
ATOM      6  O   UNL     1     170.887 188.683 203.296  1.00  0.00    -0.550 OA
ENDBRANCH   3   4
ENDBRANCH   2   3
ENDBRANCH   1   2
BRANCH   1   7
ATOM      7  C   UNL     1     173.935 190.113 199.669  1.00  0.00     0.000 C 
BRANCH   7   8
ATOM      8  C   UNL     1     174.980 189.690 200.716  1.00  0.00    -0.000 C 
BRANCH   8   9
ATOM      9  C   UNL     1     174.639 188.402 201.493  1.00  0.00    -0.000 C 
BRANCH   9  10
ATOM     10  C   UNL     1     174.537 188.570 203.018  1.00  0.00    -0.003 C 
ATOM     11  C   UNL     1     174.409 190.031 203.450  1.00  0.00     0.004 C 
ENDBRANCH   9  10
ENDBRANCH   8   9
ENDBRANCH   7   8
ENDBRANCH   1   7
TORSDOF 7
ENDMDL
MODEL 7
REMARK VINA RESULT:     0.001      3.668      4.748
REMARK INTER + INTRA:          -0.950
REMARK INTER:                   0.000
REMARK INTRA:                  -0.950
REMARK UNBOUND:                -0.950
REMARK SMILES CCCCCCCCC(=O)[O-]
REMARK SMILES IDX 6 1 7 2 8 3 9 4 10 5 11 6 5 7 4 8 3 9 2 10 1 11
REMARK H PARENT
REMARK Flexibility Score: inf
ROOT
ATOM      1  C   UNL     1     175.160 195.766 192.189  1.00  0.00     0.000 C 
ENDROOT
BRANCH   1   2
ATOM      2  C   UNL     1     173.885 196.385 192.788  1.00  0.00     0.006 C 
BRANCH   2   3
ATOM      3  C   UNL     1     173.271 197.507 191.937  1.00  0.00     0.053 C 
BRANCH   3   4
ATOM      4  C   UNL     1     173.587 198.865 192.485  1.00  0.00     0.041 C 
ATOM      5  O   UNL     1     174.102 198.984 193.627  1.00  0.00    -0.550 OA
ATOM      6  O   UNL     1     173.342 199.997 191.719  1.00  0.00    -0.550 OA
ENDBRANCH   3   4
ENDBRANCH   2   3
ENDBRANCH   1   2
BRANCH   1   7
ATOM      7  C   UNL     1     176.446 196.307 192.838  1.00  0.00     0.000 C 
BRANCH   7   8
ATOM      8  C   UNL     1     177.332 197.083 191.848  1.00  0.00    -0.000 C 
BRANCH   8   9
ATOM      9  C   UNL     1     177.272 198.618 191.985  1.00  0.00    -0.000 C 
BRANCH   9  10
ATOM     10  C   UNL     1     176.811 199.367 190.723  1.00  0.00    -0.003 C 
ATOM     11  C   UNL     1     176.133 198.452 189.703  1.00  0.00     0.004 C 
ENDBRANCH   9  10
ENDBRANCH   8   9
ENDBRANCH   7   8
ENDBRANCH   1   7
TORSDOF 7
ENDMDL
MODEL 8
REMARK VINA RESULT:     0.001      6.867      8.843
REMARK INTER + INTRA:          -0.950
REMARK INTER:                   0.000
REMARK INTRA:                  -0.950
REMARK UNBOUND:                -0.950
REMARK SMILES CCCCCCCCC(=O)[O-]
REMARK SMILES IDX 6 1 7 2 8 3 9 4 10 5 11 6 5 7 4 8 3 9 2 10 1 11
REMARK H PARENT
REMARK Flexibility Score: inf
ROOT
ATOM      1  C   UNL     1     180.327 188.050 196.761  1.00  0.00     0.000 C 
ENDROOT
BRANCH   1   2
ATOM      2  C   UNL     1     179.147 187.071 196.635  1.00  0.00     0.006 C 
BRANCH   2   3
ATOM      3  C   UNL     1     177.857 187.706 196.092  1.00  0.00     0.053 C 
BRANCH   3   4
ATOM      4  C   UNL     1     176.865 187.981 197.180  1.00  0.00     0.041 C 
ATOM      5  O   UNL     1     177.046 187.515 198.335  1.00  0.00    -0.550 OA
ATOM      6  O   UNL     1     175.757 188.779 196.924  1.00  0.00    -0.550 OA
ENDBRANCH   3   4
ENDBRANCH   2   3
ENDBRANCH   1   2
BRANCH   1   7
ATOM      7  C   UNL     1     180.533 188.551 198.202  1.00  0.00     0.000 C 
BRANCH   7   8
ATOM      8  C   UNL     1     180.313 190.067 198.342  1.00  0.00    -0.000 C 
BRANCH   8   9
ATOM      9  C   UNL     1     178.970 190.475 198.981  1.00  0.00    -0.000 C 
BRANCH   9  10
ATOM     10  C   UNL     1     178.073 191.361 198.101  1.00  0.00    -0.003 C 
ATOM     11  C   UNL     1     178.496 191.363 196.631  1.00  0.00     0.004 C 
ENDBRANCH   9  10
ENDBRANCH   8   9
ENDBRANCH   7   8
ENDBRANCH   1   7
TORSDOF 7
ENDMDL
MODEL 9
REMARK VINA RESULT:     0.001      7.125      8.564
REMARK INTER + INTRA:          -0.950
REMARK INTER:                   0.000
REMARK INTRA:                  -0.950
REMARK UNBOUND:                -0.950
REMARK SMILES CCCCCCCCC(=O)[O-]
REMARK SMILES IDX 6 1 7 2 8 3 9 4 10 5 11 6 5 7 4 8 3 9 2 10 1 11
REMARK H PARENT
REMARK Flexibility Score: inf
ROOT
ATOM      1  C   UNL     1     173.228 190.142 193.845  1.00  0.00     0.000 C 
ENDROOT
BRANCH   1   2
ATOM      2  C   UNL     1     173.291 190.899 195.183  1.00  0.00     0.006 C 
BRANCH   2   3
ATOM      3  C   UNL     1     172.271 190.419 196.227  1.00  0.00     0.053 C 
BRANCH   3   4
ATOM      4  C   UNL     1     171.096 191.342 196.331  1.00  0.00     0.041 C 
ATOM      5  O   UNL     1     171.121 192.466 195.765  1.00  0.00    -0.550 OA
ATOM      6  O   UNL     1     169.961 190.946 197.026  1.00  0.00    -0.550 OA
ENDBRANCH   3   4
ENDBRANCH   2   3
ENDBRANCH   1   2
BRANCH   1   7
ATOM      7  C   UNL     1     172.465 190.919 192.757  1.00  0.00     0.000 C 
BRANCH   7   8
ATOM      8  C   UNL     1     171.187 190.197 192.296  1.00  0.00    -0.000 C 
BRANCH   8   9
ATOM      9  C   UNL     1     169.872 190.780 192.854  1.00  0.00    -0.000 C 
BRANCH   9  10
ATOM     10  C   UNL     1     169.023 189.796 193.677  1.00  0.00    -0.003 C 
ATOM     11  C   UNL     1     169.801 188.553 194.108  1.00  0.00     0.004 C 
ENDBRANCH   9  10
ENDBRANCH   8   9
ENDBRANCH   7   8
ENDBRANCH   1   7
TORSDOF 7
ENDMDL
