MODEL 1
REMARK VINA RESULT:    -3.689      0.000      0.000
REMARK INTER + INTRA:          -7.278
REMARK INTER:                  -6.708
REMARK INTRA:                  -0.570
REMARK UNBOUND:                -0.570
REMARK SMILES CCCCCCCCCCCCCCCC(=O)[O-]
REMARK SMILES IDX 9 1 10 2 11 3 12 4 13 5 14 6 15 7 16 8 17 9 18 10 8 11 7 12
REMARK SMILES IDX 6 13 5 14 4 15 3 16 2 17 1 18
REMARK H PARENT
REMARK Flexibility Score: inf
ROOT
ATOM      1  C   UNL     1    -116.917 -98.955  38.162  1.00  0.00     0.000 C 
ENDROOT
BRANCH   1   2
ATOM      2  C   UNL     1    -117.378 -99.920  39.266  1.00  0.00     0.000 C 
BRANCH   2   3
ATOM      3  C   UNL     1    -117.546 -99.233  40.633  1.00  0.00     0.000 C 
BRANCH   3   4
ATOM      4  C   UNL     1    -116.265 -99.143  41.489  1.00  0.00     0.000 C 
BRANCH   4   5
ATOM      5  C   UNL     1    -116.494 -98.809  42.974  1.00  0.00     0.000 C 
BRANCH   5   6
ATOM      6  C   UNL     1    -117.905 -99.174  43.457  1.00  0.00     0.006 C 
BRANCH   6   7
ATOM      7  C   UNL     1    -117.965 -99.223  44.986  1.00  0.00     0.053 C 
BRANCH   7   8
ATOM      8  C   UNL     1    -118.283 -97.872  45.542  1.00  0.00     0.041 C 
ATOM      9  O   UNL     1    -118.229 -97.669  46.785  1.00  0.00    -0.550 OA
ATOM     10  O   UNL     1    -118.687 -96.849  44.695  1.00  0.00    -0.550 OA
ENDBRANCH   7   8
ENDBRANCH   6   7
ENDBRANCH   5   6
ENDBRANCH   4   5
ENDBRANCH   3   4
ENDBRANCH   2   3
ENDBRANCH   1   2
BRANCH   1  11
ATOM     11  C   UNL     1    -116.539 -99.674  36.854  1.00  0.00     0.000 C 
BRANCH  11  12
ATOM     12  C   UNL     1    -115.910 -98.778  35.772  1.00  0.00    -0.000 C 
BRANCH  12  13
ATOM     13  C   UNL     1    -115.335 -99.576  34.592  1.00  0.00    -0.000 C 
BRANCH  13  14
ATOM     14  C   UNL     1    -115.972 -99.131  33.267  1.00  0.00    -0.000 C 
BRANCH  14  15
ATOM     15  C   UNL     1    -117.031 -98.030  33.452  1.00  0.00    -0.000 C 
BRANCH  15  16
ATOM     16  C   UNL     1    -116.882 -96.816  32.512  1.00  0.00    -0.000 C 
BRANCH  16  17
ATOM     17  C   UNL     1    -118.098 -96.541  31.609  1.00  0.00    -0.003 C 
ATOM     18  C   UNL     1    -118.570 -97.781  30.851  1.00  0.00     0.004 C 
ENDBRANCH  16  17
ENDBRANCH  15  16
ENDBRANCH  14  15
ENDBRANCH  13  14
ENDBRANCH  12  13
ENDBRANCH  11  12
ENDBRANCH   1  11
TORSDOF 14
ENDMDL
MODEL 2
REMARK VINA RESULT:    -3.555      4.686     10.360
REMARK INTER + INTRA:          -7.034
REMARK INTER:                  -6.338
REMARK INTRA:                  -0.696
REMARK UNBOUND:                -0.570
REMARK SMILES CCCCCCCCCCCCCCCC(=O)[O-]
REMARK SMILES IDX 9 1 10 2 11 3 12 4 13 5 14 6 15 7 16 8 17 9 18 10 8 11 7 12
REMARK SMILES IDX 6 13 5 14 4 15 3 16 2 17 1 18
REMARK H PARENT
REMARK Flexibility Score: inf
ROOT
ATOM      1  C   UNL     1    -116.958 -99.545  36.431  1.00  0.00     0.000 C 
ENDROOT
BRANCH   1   2
ATOM      2  C   UNL     1    -115.790 -98.642  36.002  1.00  0.00     0.000 C 
BRANCH   2   3
ATOM      3  C   UNL     1    -115.718 -98.438  34.479  1.00  0.00     0.000 C 
BRANCH   3   4
ATOM      4  C   UNL     1    -115.606 -99.730  33.643  1.00  0.00     0.000 C 
BRANCH   4   5
ATOM      5  C   UNL     1    -116.773 -99.985  32.672  1.00  0.00     0.000 C 
BRANCH   5   6
ATOM      6  C   UNL     1    -117.942 -99.011  32.878  1.00  0.00     0.006 C 
BRANCH   6   7
ATOM      7  C   UNL     1    -118.549 -98.593  31.536  1.00  0.00     0.053 C 
BRANCH   7   8
ATOM      8  C   UNL     1    -118.096 -97.218  31.161  1.00  0.00     0.041 C 
ATOM      9  O   UNL     1    -118.352 -96.756  30.017  1.00  0.00    -0.550 OA
ATOM     10  O   UNL     1    -117.348 -96.464  32.056  1.00  0.00    -0.550 OA
ENDBRANCH   7   8
ENDBRANCH   6   7
ENDBRANCH   5   6
ENDBRANCH   4   5
ENDBRANCH   3   4
ENDBRANCH   2   3
ENDBRANCH   1   2
BRANCH   1  11
ATOM     11  C   UNL     1    -116.781-100.124  37.847  1.00  0.00     0.000 C 
BRANCH  11  12
ATOM     12  C   UNL     1    -117.228 -99.200  38.994  1.00  0.00    -0.000 C 
BRANCH  12  13
ATOM     13  C   UNL     1    -117.196 -99.888  40.367  1.00  0.00    -0.000 C 
BRANCH  13  14
ATOM     14  C   UNL     1    -116.505 -98.998  41.410  1.00  0.00    -0.000 C 
BRANCH  14  15
ATOM     15  C   UNL     1    -117.477 -98.459  42.475  1.00  0.00    -0.000 C 
BRANCH  15  16
ATOM     16  C   UNL     1    -117.275 -99.031  43.894  1.00  0.00    -0.000 C 
BRANCH  16  17
ATOM     17  C   UNL     1    -118.297 -98.552  44.939  1.00  0.00    -0.003 C 
ATOM     18  C   UNL     1    -117.989 -99.055  46.349  1.00  0.00     0.004 C 
ENDBRANCH  16  17
ENDBRANCH  15  16
ENDBRANCH  14  15
ENDBRANCH  13  14
ENDBRANCH  12  13
ENDBRANCH  11  12
ENDBRANCH   1  11
TORSDOF 14
ENDMDL
MODEL 3
REMARK VINA RESULT:    -3.514      4.355     10.711
REMARK INTER + INTRA:          -6.960
REMARK INTER:                  -6.325
REMARK INTRA:                  -0.635
REMARK UNBOUND:                -0.570
REMARK SMILES CCCCCCCCCCCCCCCC(=O)[O-]
REMARK SMILES IDX 9 1 10 2 11 3 12 4 13 5 14 6 15 7 16 8 17 9 18 10 8 11 7 12
REMARK SMILES IDX 6 13 5 14 4 15 3 16 2 17 1 18
REMARK H PARENT
REMARK Flexibility Score: inf
ROOT
ATOM      1  C   UNL     1    -117.512 -98.806  40.744  1.00  0.00     0.000 C 
ENDROOT
BRANCH   1   2
ATOM      2  C   UNL     1    -117.263 -99.732  39.542  1.00  0.00     0.000 C 
BRANCH   2   3
ATOM      3  C   UNL     1    -116.927 -98.962  38.252  1.00  0.00     0.000 C 
BRANCH   3   4
ATOM      4  C   UNL     1    -116.584 -99.839  37.030  1.00  0.00     0.000 C 
BRANCH   4   5
ATOM      5  C   UNL     1    -115.909 -99.097  35.862  1.00  0.00     0.000 C 
BRANCH   5   6
ATOM      6  C   UNL     1    -116.602 -99.350  34.515  1.00  0.00     0.006 C 
BRANCH   6   7
ATOM      7  C   UNL     1    -117.581 -98.221  34.182  1.00  0.00     0.053 C 
BRANCH   7   8
ATOM      8  C   UNL     1    -117.042 -97.369  33.078  1.00  0.00     0.041 C 
ATOM      9  O   UNL     1    -117.338 -97.623  31.880  1.00  0.00    -0.550 OA
ATOM     10  O   UNL     1    -116.174 -96.324  33.365  1.00  0.00    -0.550 OA
ENDBRANCH   7   8
ENDBRANCH   6   7
ENDBRANCH   5   6
ENDBRANCH   4   5
ENDBRANCH   3   4
ENDBRANCH   2   3
ENDBRANCH   1   2
BRANCH   1  11
ATOM     11  C   UNL     1    -116.413 -98.908  41.818  1.00  0.00     0.000 C 
BRANCH  11  12
ATOM     12  C   UNL     1    -116.921 -99.076  43.262  1.00  0.00    -0.000 C 
BRANCH  12  13
ATOM     13  C   UNL     1    -117.998 -98.049  43.642  1.00  0.00    -0.000 C 
BRANCH  13  14
ATOM     14  C   UNL     1    -118.850 -98.556  44.815  1.00  0.00    -0.000 C 
BRANCH  14  15
ATOM     15  C   UNL     1    -118.096 -99.552  45.715  1.00  0.00    -0.000 C 
BRANCH  15  16
ATOM     16  C   UNL     1    -117.880 -99.083  47.169  1.00  0.00    -0.000 C 
BRANCH  16  17
ATOM     17  C   UNL     1    -118.190 -97.597  47.425  1.00  0.00    -0.003 C 
ATOM     18  C   UNL     1    -117.762 -97.130  48.815  1.00  0.00     0.004 C 
ENDBRANCH  16  17
ENDBRANCH  15  16
ENDBRANCH  14  15
ENDBRANCH  13  14
ENDBRANCH  12  13
ENDBRANCH  11  12
ENDBRANCH   1  11
TORSDOF 14
ENDMDL
MODEL 4
REMARK VINA RESULT:    -3.346      2.308      5.154
REMARK INTER + INTRA:          -6.654
REMARK INTER:                  -6.146
REMARK INTRA:                  -0.508
REMARK UNBOUND:                -0.570
REMARK SMILES CCCCCCCCCCCCCCCC(=O)[O-]
REMARK SMILES IDX 9 1 10 2 11 3 12 4 13 5 14 6 15 7 16 8 17 9 18 10 8 11 7 12
REMARK SMILES IDX 6 13 5 14 4 15 3 16 2 17 1 18
REMARK H PARENT
REMARK Flexibility Score: inf
ROOT
ATOM      1  C   UNL     1    -117.732 -98.507  42.877  1.00  0.00     0.000 C 
ENDROOT
BRANCH   1   2
ATOM      2  C   UNL     1    -117.368 -98.982  44.293  1.00  0.00     0.000 C 
BRANCH   2   3
ATOM      3  C   UNL     1    -118.425 -98.598  45.344  1.00  0.00     0.000 C 
BRANCH   3   4
ATOM      4  C   UNL     1    -118.147 -99.102  46.775  1.00  0.00     0.000 C 
BRANCH   4   5
ATOM      5  C   UNL     1    -118.646 -98.178  47.902  1.00  0.00     0.000 C 
BRANCH   5   6
ATOM      6  C   UNL     1    -117.550 -97.245  48.437  1.00  0.00     0.006 C 
BRANCH   6   7
ATOM      7  C   UNL     1    -118.160 -96.004  49.092  1.00  0.00     0.053 C 
BRANCH   7   8
ATOM      8  C   UNL     1    -118.448 -94.956  48.065  1.00  0.00     0.041 C 
ATOM      9  O   UNL     1    -118.037 -95.099  46.882  1.00  0.00    -0.550 OA
ATOM     10  O   UNL     1    -119.125 -93.798  48.423  1.00  0.00    -0.550 OA
ENDBRANCH   7   8
ENDBRANCH   6   7
ENDBRANCH   5   6
ENDBRANCH   4   5
ENDBRANCH   3   4
ENDBRANCH   2   3
ENDBRANCH   1   2
BRANCH   1  11
ATOM     11  C   UNL     1    -116.637 -98.817  41.839  1.00  0.00     0.000 C 
BRANCH  11  12
ATOM     12  C   UNL     1    -116.873-100.081  40.993  1.00  0.00    -0.000 C 
BRANCH  12  13
ATOM     13  C   UNL     1    -118.271-100.125  40.356  1.00  0.00    -0.000 C 
BRANCH  13  14
ATOM     14  C   UNL     1    -118.176-100.097  38.824  1.00  0.00    -0.000 C 
BRANCH  14  15
ATOM     15  C   UNL     1    -116.870 -99.459  38.316  1.00  0.00    -0.000 C 
BRANCH  15  16
ATOM     16  C   UNL     1    -116.483 -99.827  36.869  1.00  0.00    -0.000 C 
BRANCH  16  17
ATOM     17  C   UNL     1    -116.100 -98.634  35.976  1.00  0.00    -0.003 C 
ATOM     18  C   UNL     1    -115.236 -99.037  34.782  1.00  0.00     0.004 C 
ENDBRANCH  16  17
ENDBRANCH  15  16
ENDBRANCH  14  15
ENDBRANCH  13  14
ENDBRANCH  12  13
ENDBRANCH  11  12
ENDBRANCH   1  11
TORSDOF 14
ENDMDL
MODEL 5
REMARK VINA RESULT:    -3.317      4.164     11.250
REMARK INTER + INTRA:          -6.601
REMARK INTER:                  -6.064
REMARK INTRA:                  -0.538
REMARK UNBOUND:                -0.570
REMARK SMILES CCCCCCCCCCCCCCCC(=O)[O-]
REMARK SMILES IDX 9 1 10 2 11 3 12 4 13 5 14 6 15 7 16 8 17 9 18 10 8 11 7 12
REMARK SMILES IDX 6 13 5 14 4 15 3 16 2 17 1 18
REMARK H PARENT
REMARK Flexibility Score: inf
ROOT
ATOM      1  C   UNL     1    -117.337 -98.582  43.009  1.00  0.00     0.000 C 
ENDROOT
BRANCH   1   2
ATOM      2  C   UNL     1    -116.898 -99.453  41.820  1.00  0.00     0.000 C 
BRANCH   2   3
ATOM      3  C   UNL     1    -117.708 -99.174  40.541  1.00  0.00     0.000 C 
BRANCH   3   4
ATOM      4  C   UNL     1    -117.199 -99.884  39.269  1.00  0.00     0.000 C 
BRANCH   4   5
ATOM      5  C   UNL     1    -116.785 -98.948  38.119  1.00  0.00     0.000 C 
BRANCH   5   6
ATOM      6  C   UNL     1    -116.455 -99.705  36.824  1.00  0.00     0.006 C 
BRANCH   6   7
ATOM      7  C   UNL     1    -115.620 -98.837  35.880  1.00  0.00     0.053 C 
BRANCH   7   8
ATOM      8  C   UNL     1    -116.379 -98.547  34.625  1.00  0.00     0.041 C 
ATOM      9  O   UNL     1    -115.763 -98.246  33.567  1.00  0.00    -0.550 OA
ATOM     10  O   UNL     1    -117.767 -98.560  34.633  1.00  0.00    -0.550 OA
ENDBRANCH   7   8
ENDBRANCH   6   7
ENDBRANCH   5   6
ENDBRANCH   4   5
ENDBRANCH   3   4
ENDBRANCH   2   3
ENDBRANCH   1   2
BRANCH   1  11
ATOM     11  C   UNL     1    -117.646 -99.403  44.274  1.00  0.00     0.000 C 
BRANCH  11  12
ATOM     12  C   UNL     1    -118.003 -98.575  45.522  1.00  0.00    -0.000 C 
BRANCH  12  13
ATOM     13  C   UNL     1    -118.632 -99.418  46.642  1.00  0.00    -0.000 C 
BRANCH  13  14
ATOM     14  C   UNL     1    -117.610 -99.706  47.752  1.00  0.00    -0.000 C 
BRANCH  14  15
ATOM     15  C   UNL     1    -117.985 -99.053  49.094  1.00  0.00    -0.000 C 
BRANCH  15  16
ATOM     16  C   UNL     1    -118.828 -97.766  48.982  1.00  0.00    -0.000 C 
BRANCH  16  17
ATOM     17  C   UNL     1    -118.035 -96.455  49.125  1.00  0.00    -0.003 C 
ATOM     18  C   UNL     1    -118.757 -95.252  48.520  1.00  0.00     0.004 C 
ENDBRANCH  16  17
ENDBRANCH  15  16
ENDBRANCH  14  15
ENDBRANCH  13  14
ENDBRANCH  12  13
ENDBRANCH  11  12
ENDBRANCH   1  11
TORSDOF 14
ENDMDL
MODEL 6
REMARK VINA RESULT:    -3.159      1.378      2.589
REMARK INTER + INTRA:          -6.314
REMARK INTER:                  -5.811
REMARK INTRA:                  -0.503
REMARK UNBOUND:                -0.570
REMARK SMILES CCCCCCCCCCCCCCCC(=O)[O-]
REMARK SMILES IDX 9 1 10 2 11 3 12 4 13 5 14 6 15 7 16 8 17 9 18 10 8 11 7 12
REMARK SMILES IDX 6 13 5 14 4 15 3 16 2 17 1 18
REMARK H PARENT
REMARK Flexibility Score: inf
ROOT
ATOM      1  C   UNL     1    -117.315 -98.859  40.126  1.00  0.00     0.000 C 
ENDROOT
BRANCH   1   2
ATOM      2  C   UNL     1    -116.556 -98.914  41.462  1.00  0.00     0.000 C 
BRANCH   2   3
ATOM      3  C   UNL     1    -117.482 -99.161  42.667  1.00  0.00     0.000 C 
BRANCH   3   4
ATOM      4  C   UNL     1    -118.044 -97.891  43.339  1.00  0.00     0.000 C 
BRANCH   4   5
ATOM      5  C   UNL     1    -118.501 -98.070  44.798  1.00  0.00     0.000 C 
BRANCH   5   6
ATOM      6  C   UNL     1    -117.598 -99.024  45.593  1.00  0.00     0.006 C 
BRANCH   6   7
ATOM      7  C   UNL     1    -118.373 -99.691  46.732  1.00  0.00     0.053 C 
BRANCH   7   8
ATOM      8  C   UNL     1    -117.962 -99.119  48.051  1.00  0.00     0.041 C 
ATOM      9  O   UNL     1    -117.699 -99.882  49.018  1.00  0.00    -0.550 OA
ATOM     10  O   UNL     1    -117.918 -97.742  48.229  1.00  0.00    -0.550 OA
ENDBRANCH   7   8
ENDBRANCH   6   7
ENDBRANCH   5   6
ENDBRANCH   4   5
ENDBRANCH   3   4
ENDBRANCH   2   3
ENDBRANCH   1   2
BRANCH   1  11
ATOM     11  C   UNL     1    -117.119-100.125  39.271  1.00  0.00     0.000 C 
BRANCH  11  12
ATOM     12  C   UNL     1    -117.578-100.004  37.807  1.00  0.00    -0.000 C 
BRANCH  12  13
ATOM     13  C   UNL     1    -116.520 -99.363  36.896  1.00  0.00    -0.000 C 
BRANCH  13  14
ATOM     14  C   UNL     1    -116.707 -99.809  35.439  1.00  0.00    -0.000 C 
BRANCH  14  15
ATOM     15  C   UNL     1    -115.906 -98.951  34.443  1.00  0.00    -0.000 C 
BRANCH  15  16
ATOM     16  C   UNL     1    -116.385 -99.033  32.978  1.00  0.00    -0.000 C 
BRANCH  16  17
ATOM     17  C   UNL     1    -117.073 -97.762  32.449  1.00  0.00    -0.003 C 
ATOM     18  C   UNL     1    -116.499 -96.480  33.048  1.00  0.00     0.004 C 
ENDBRANCH  16  17
ENDBRANCH  15  16
ENDBRANCH  14  15
ENDBRANCH  13  14
ENDBRANCH  12  13
ENDBRANCH  11  12
ENDBRANCH   1  11
TORSDOF 14
ENDMDL
MODEL 7
REMARK VINA RESULT:    -3.133      4.779      9.859
REMARK INTER + INTRA:          -6.267
REMARK INTER:                  -5.343
REMARK INTRA:                  -0.924
REMARK UNBOUND:                -0.570
REMARK SMILES CCCCCCCCCCCCCCCC(=O)[O-]
REMARK SMILES IDX 9 1 10 2 11 3 12 4 13 5 14 6 15 7 16 8 17 9 18 10 8 11 7 12
REMARK SMILES IDX 6 13 5 14 4 15 3 16 2 17 1 18
REMARK H PARENT
REMARK Flexibility Score: inf
ROOT
ATOM      1  C   UNL     1    -115.406 -98.329  35.383  1.00  0.00     0.000 C 
ENDROOT
BRANCH   1   2
ATOM      2  C   UNL     1    -116.130 -98.340  34.027  1.00  0.00     0.000 C 
BRANCH   2   3
ATOM      3  C   UNL     1    -115.750 -99.549  33.154  1.00  0.00     0.000 C 
BRANCH   3   4
ATOM      4  C   UNL     1    -116.854-100.050  32.200  1.00  0.00     0.000 C 
BRANCH   4   5
ATOM      5  C   UNL     1    -118.278-100.037  32.785  1.00  0.00     0.000 C 
BRANCH   5   6
ATOM      6  C   UNL     1    -119.095 -98.816  32.339  1.00  0.00     0.006 C 
BRANCH   6   7
ATOM      7  C   UNL     1    -118.614 -98.303  30.979  1.00  0.00     0.053 C 
BRANCH   7   8
ATOM      8  C   UNL     1    -118.481 -96.813  30.998  1.00  0.00     0.041 C 
ATOM      9  O   UNL     1    -119.119 -96.109  30.170  1.00  0.00    -0.550 OA
ATOM     10  O   UNL     1    -117.615 -96.204  31.896  1.00  0.00    -0.550 OA
ENDBRANCH   7   8
ENDBRANCH   6   7
ENDBRANCH   5   6
ENDBRANCH   4   5
ENDBRANCH   3   4
ENDBRANCH   2   3
ENDBRANCH   1   2
BRANCH   1  11
ATOM     11  C   UNL     1    -115.760 -99.543  36.262  1.00  0.00     0.000 C 
BRANCH  11  12
ATOM     12  C   UNL     1    -117.252 -99.920  36.291  1.00  0.00    -0.000 C 
BRANCH  12  13
ATOM     13  C   UNL     1    -117.793-100.124  37.714  1.00  0.00    -0.000 C 
BRANCH  13  14
ATOM     14  C   UNL     1    -116.762 -99.679  38.761  1.00  0.00    -0.000 C 
BRANCH  14  15
ATOM     15  C   UNL     1    -117.392 -99.385  40.134  1.00  0.00    -0.000 C 
BRANCH  15  16
ATOM     16  C   UNL     1    -116.461 -99.613  41.343  1.00  0.00    -0.000 C 
BRANCH  16  17
ATOM     17  C   UNL     1    -116.552 -98.542  42.444  1.00  0.00    -0.003 C 
ATOM     18  C   UNL     1    -117.502 -98.930  43.576  1.00  0.00     0.004 C 
ENDBRANCH  16  17
ENDBRANCH  15  16
ENDBRANCH  14  15
ENDBRANCH  13  14
ENDBRANCH  12  13
ENDBRANCH  11  12
ENDBRANCH   1  11
TORSDOF 14
ENDMDL
MODEL 8
REMARK VINA RESULT:    -2.929      1.732      3.485
REMARK INTER + INTRA:          -5.896
REMARK INTER:                  -5.114
REMARK INTRA:                  -0.783
REMARK UNBOUND:                -0.570
REMARK SMILES CCCCCCCCCCCCCCCC(=O)[O-]
REMARK SMILES IDX 9 1 10 2 11 3 12 4 13 5 14 6 15 7 16 8 17 9 18 10 8 11 7 12
REMARK SMILES IDX 6 13 5 14 4 15 3 16 2 17 1 18
REMARK H PARENT
REMARK Flexibility Score: inf
ROOT
ATOM      1  C   UNL     1    -115.478 -97.957  35.305  1.00  0.00     0.000 C 
ENDROOT
BRANCH   1   2
ATOM      2  C   UNL     1    -115.027 -99.355  35.759  1.00  0.00     0.000 C 
BRANCH   2   3
ATOM      3  C   UNL     1    -116.128-100.125  36.510  1.00  0.00     0.000 C 
BRANCH   3   4
ATOM      4  C   UNL     1    -116.966 -99.286  37.497  1.00  0.00     0.000 C 
BRANCH   4   5
ATOM      5  C   UNL     1    -117.272 -99.971  38.841  1.00  0.00     0.000 C 
BRANCH   5   6
ATOM      6  C   UNL     1    -116.861 -99.120  40.052  1.00  0.00     0.006 C 
BRANCH   6   7
ATOM      7  C   UNL     1    -117.631 -99.543  41.305  1.00  0.00     0.053 C 
BRANCH   7   8
ATOM      8  C   UNL     1    -116.908 -99.102  42.538  1.00  0.00     0.041 C 
ATOM      9  O   UNL     1    -115.684 -98.811  42.484  1.00  0.00    -0.550 OA
ATOM     10  O   UNL     1    -117.573 -99.061  43.756  1.00  0.00    -0.550 OA
ENDBRANCH   7   8
ENDBRANCH   6   7
ENDBRANCH   5   6
ENDBRANCH   4   5
ENDBRANCH   3   4
ENDBRANCH   2   3
ENDBRANCH   1   2
BRANCH   1  11
ATOM     11  C   UNL     1    -115.883 -97.908  33.820  1.00  0.00     0.000 C 
BRANCH  11  12
ATOM     12  C   UNL     1    -117.278 -98.475  33.502  1.00  0.00    -0.000 C 
BRANCH  12  13
ATOM     13  C   UNL     1    -117.233 -99.910  32.955  1.00  0.00    -0.000 C 
BRANCH  13  14
ATOM     14  C   UNL     1    -117.747 -99.962  31.509  1.00  0.00    -0.000 C 
BRANCH  14  15
ATOM     15  C   UNL     1    -119.060 -99.182  31.312  1.00  0.00    -0.000 C 
BRANCH  15  16
ATOM     16  C   UNL     1    -119.124 -98.326  30.030  1.00  0.00    -0.000 C 
BRANCH  16  17
ATOM     17  C   UNL     1    -118.671 -96.866  30.201  1.00  0.00    -0.003 C 
ATOM     18  C   UNL     1    -118.761 -96.379  31.646  1.00  0.00     0.004 C 
ENDBRANCH  16  17
ENDBRANCH  15  16
ENDBRANCH  14  15
ENDBRANCH  13  14
ENDBRANCH  12  13
ENDBRANCH  11  12
ENDBRANCH   1  11
TORSDOF 14
ENDMDL
