MODEL 1
REMARK VINA RESULT:    -3.203      0.000      0.000
REMARK INTER + INTRA:          -3.808
REMARK INTER:                  -3.765
REMARK INTRA:                  -0.044
REMARK UNBOUND:                -0.044
REMARK SMILES CCCCC(=O)[O-]
REMARK SMILES IDX 4 1 5 2 6 3 7 4 3 5 2 6 1 7
REMARK H PARENT
REMARK Flexibility Score: inf
ROOT
ATOM      1  C   UNL     1      -6.627  16.936  -7.535  1.00  0.00     0.053 C 
ENDROOT
BRANCH   1   2
ATOM      2  C   UNL     1      -6.578  16.620  -8.999  1.00  0.00     0.041 C 
ATOM      3  O   UNL     1      -5.543  16.110  -9.502  1.00  0.00    -0.550 OA
ATOM      4  O   UNL     1      -7.664  16.919  -9.812  1.00  0.00    -0.550 OA
ENDBRANCH   1   2
BRANCH   1   5
ATOM      5  C   UNL     1      -5.368  16.450  -6.805  1.00  0.00     0.006 C 
BRANCH   5   6
ATOM      6  C   UNL     1      -4.601  17.601  -6.137  1.00  0.00    -0.003 C 
ATOM      7  C   UNL     1      -4.256  17.265  -4.689  1.00  0.00     0.004 C 
ENDBRANCH   5   6
ENDBRANCH   1   5
TORSDOF 3
ENDMDL
MODEL 2
REMARK VINA RESULT:    -2.959      1.271      1.644
REMARK INTER + INTRA:          -3.522
REMARK INTER:                  -3.482
REMARK INTRA:                  -0.040
REMARK UNBOUND:                -0.044
REMARK SMILES CCCCC(=O)[O-]
REMARK SMILES IDX 4 1 5 2 6 3 7 4 3 5 2 6 1 7
REMARK H PARENT
REMARK Flexibility Score: inf
ROOT
ATOM      1  C   UNL     1      -6.909  16.564  -8.823  1.00  0.00     0.053 C 
ENDROOT
BRANCH   1   2
ATOM      2  C   UNL     1      -7.252  17.673  -9.769  1.00  0.00     0.041 C 
ATOM      3  O   UNL     1      -6.539  18.709  -9.816  1.00  0.00    -0.550 OA
ATOM      4  O   UNL     1      -8.379  17.576 -10.576  1.00  0.00    -0.550 OA
ENDBRANCH   1   2
BRANCH   1   5
ATOM      5  C   UNL     1      -6.463  17.099  -7.456  1.00  0.00     0.006 C 
BRANCH   5   6
ATOM      6  C   UNL     1      -5.139  16.475  -6.990  1.00  0.00    -0.003 C 
ATOM      7  C   UNL     1      -4.672  17.093  -5.675  1.00  0.00     0.004 C 
ENDBRANCH   5   6
ENDBRANCH   1   5
TORSDOF 3
ENDMDL
MODEL 3
REMARK VINA RESULT:    -2.944      1.252      1.881
REMARK INTER + INTRA:          -3.504
REMARK INTER:                  -3.401
REMARK INTRA:                  -0.103
REMARK UNBOUND:                -0.044
REMARK SMILES CCCCC(=O)[O-]
REMARK SMILES IDX 4 1 5 2 6 3 7 4 3 5 2 6 1 7
REMARK H PARENT
REMARK Flexibility Score: inf
ROOT
ATOM      1  C   UNL     1      -6.677  16.563  -8.959  1.00  0.00     0.053 C 
ENDROOT
BRANCH   1   2
ATOM      2  C   UNL     1      -5.435  16.769  -9.770  1.00  0.00     0.041 C 
ATOM      3  O   UNL     1      -5.083  17.930 -10.106  1.00  0.00    -0.550 OA
ATOM      4  O   UNL     1      -4.683  15.676 -10.182  1.00  0.00    -0.550 OA
ENDBRANCH   1   2
BRANCH   1   5
ATOM      5  C   UNL     1      -6.502  17.051  -7.514  1.00  0.00     0.006 C 
BRANCH   5   6
ATOM      6  C   UNL     1      -5.295  16.399  -6.823  1.00  0.00    -0.003 C 
ATOM      7  C   UNL     1      -4.560  17.402  -5.939  1.00  0.00     0.004 C 
ENDBRANCH   5   6
ENDBRANCH   1   5
TORSDOF 3
ENDMDL
MODEL 4
REMARK VINA RESULT:    -2.923      2.584      4.057
REMARK INTER + INTRA:          -3.479
REMARK INTER:                  -3.417
REMARK INTRA:                  -0.062
REMARK UNBOUND:                -0.044
REMARK SMILES CCCCC(=O)[O-]
REMARK SMILES IDX 4 1 5 2 6 3 7 4 3 5 2 6 1 7
REMARK H PARENT
REMARK Flexibility Score: inf
ROOT
ATOM      1  C   UNL     1      -5.185  16.440  -6.896  1.00  0.00     0.053 C 
ENDROOT
BRANCH   1   2
ATOM      2  C   UNL     1      -4.629  17.390  -5.879  1.00  0.00     0.041 C 
ATOM      3  O   UNL     1      -4.422  18.593  -6.183  1.00  0.00    -0.550 OA
ATOM      4  O   UNL     1      -4.309  16.937  -4.605  1.00  0.00    -0.550 OA
ENDBRANCH   1   2
BRANCH   1   5
ATOM      5  C   UNL     1      -6.579  16.869  -7.373  1.00  0.00     0.006 C 
BRANCH   5   6
ATOM      6  C   UNL     1      -6.800  16.569  -8.864  1.00  0.00    -0.003 C 
ATOM      7  C   UNL     1      -5.472  16.353  -9.584  1.00  0.00     0.004 C 
ENDBRANCH   5   6
ENDBRANCH   1   5
TORSDOF 3
ENDMDL
MODEL 5
REMARK VINA RESULT:    -2.726      3.868      6.021
REMARK INTER + INTRA:          -3.248
REMARK INTER:                  -3.225
REMARK INTRA:                  -0.023
REMARK UNBOUND:                -0.044
REMARK SMILES CCCCC(=O)[O-]
REMARK SMILES IDX 4 1 5 2 6 3 7 4 3 5 2 6 1 7
REMARK H PARENT
REMARK Flexibility Score: inf
ROOT
ATOM      1  C   UNL     1      -8.888  17.912 -11.014  1.00  0.00     0.053 C 
ENDROOT
BRANCH   1   2
ATOM      2  C   UNL     1      -7.600  17.698 -10.280  1.00  0.00     0.041 C 
ATOM      3  O   UNL     1      -6.608  18.437 -10.513  1.00  0.00    -0.550 OA
ATOM      4  O   UNL     1      -7.485  16.660  -9.364  1.00  0.00    -0.550 OA
ENDBRANCH   1   2
BRANCH   1   5
ATOM      5  C   UNL     1      -9.851  16.731 -10.833  1.00  0.00     0.006 C 
BRANCH   5   6
ATOM      6  C   UNL     1     -10.711  16.485 -12.082  1.00  0.00    -0.003 C 
ATOM      7  C   UNL     1     -11.714  17.616 -12.290  1.00  0.00     0.004 C 
ENDBRANCH   5   6
ENDBRANCH   1   5
TORSDOF 3
ENDMDL
MODEL 6
REMARK VINA RESULT:    -2.698      2.077      3.866
REMARK INTER + INTRA:          -3.216
REMARK INTER:                  -3.120
REMARK INTRA:                  -0.095
REMARK UNBOUND:                -0.044
REMARK SMILES CCCCC(=O)[O-]
REMARK SMILES IDX 4 1 5 2 6 3 7 4 3 5 2 6 1 7
REMARK H PARENT
REMARK Flexibility Score: inf
ROOT
ATOM      1  C   UNL     1      -6.692  16.650  -7.850  1.00  0.00     0.053 C 
ENDROOT
BRANCH   1   2
ATOM      2  C   UNL     1      -5.270  16.510  -7.399  1.00  0.00     0.041 C 
ATOM      3  O   UNL     1      -5.000  16.439  -6.172  1.00  0.00    -0.550 OA
ATOM      4  O   UNL     1      -4.242  16.490  -8.333  1.00  0.00    -0.550 OA
ENDBRANCH   1   2
BRANCH   1   5
ATOM      5  C   UNL     1      -6.809  16.634  -9.380  1.00  0.00     0.006 C 
BRANCH   5   6
ATOM      6  C   UNL     1      -7.088  18.031  -9.956  1.00  0.00    -0.003 C 
ATOM      7  C   UNL     1      -6.075  18.391 -11.040  1.00  0.00     0.004 C 
ENDBRANCH   5   6
ENDBRANCH   1   5
TORSDOF 3
ENDMDL
MODEL 7
REMARK VINA RESULT:    -2.684      1.748      2.379
REMARK INTER + INTRA:          -3.198
REMARK INTER:                  -3.089
REMARK INTRA:                  -0.109
REMARK UNBOUND:                -0.044
REMARK SMILES CCCCC(=O)[O-]
REMARK SMILES IDX 4 1 5 2 6 3 7 4 3 5 2 6 1 7
REMARK H PARENT
REMARK Flexibility Score: inf
ROOT
ATOM      1  C   UNL     1      -5.905  16.954  -9.769  1.00  0.00     0.053 C 
ENDROOT
BRANCH   1   2
ATOM      2  C   UNL     1      -6.257  18.373 -10.097  1.00  0.00     0.041 C 
ATOM      3  O   UNL     1      -5.375  19.270 -10.054  1.00  0.00    -0.550 OA
ATOM      4  O   UNL     1      -7.566  18.709 -10.418  1.00  0.00    -0.550 OA
ENDBRANCH   1   2
BRANCH   1   5
ATOM      5  C   UNL     1      -6.776  16.398  -8.636  1.00  0.00     0.006 C 
BRANCH   5   6
ATOM      6  C   UNL     1      -6.469  17.064  -7.286  1.00  0.00    -0.003 C 
ATOM      7  C   UNL     1      -5.147  16.561  -6.712  1.00  0.00     0.004 C 
ENDBRANCH   5   6
ENDBRANCH   1   5
TORSDOF 3
ENDMDL
MODEL 8
REMARK VINA RESULT:    -2.671      6.410      7.758
REMARK INTER + INTRA:          -3.183
REMARK INTER:                  -3.075
REMARK INTRA:                  -0.108
REMARK UNBOUND:                -0.044
REMARK SMILES CCCCC(=O)[O-]
REMARK SMILES IDX 4 1 5 2 6 3 7 4 3 5 2 6 1 7
REMARK H PARENT
REMARK Flexibility Score: inf
ROOT
ATOM      1  C   UNL     1     -10.263  18.813 -11.471  1.00  0.00     0.053 C 
ENDROOT
BRANCH   1   2
ATOM      2  C   UNL     1     -10.901  17.458 -11.445  1.00  0.00     0.041 C 
ATOM      3  O   UNL     1     -11.924  17.227 -12.141  1.00  0.00    -0.550 OA
ATOM      4  O   UNL     1     -10.384  16.461 -10.627  1.00  0.00    -0.550 OA
ENDBRANCH   1   2
BRANCH   1   5
ATOM      5  C   UNL     1     -11.208  19.898 -10.937  1.00  0.00     0.006 C 
BRANCH   5   6
ATOM      6  C   UNL     1     -11.544  20.952 -12.002  1.00  0.00    -0.003 C 
ATOM      7  C   UNL     1     -12.879  20.647 -12.676  1.00  0.00     0.004 C 
ENDBRANCH   5   6
ENDBRANCH   1   5
TORSDOF 3
ENDMDL
MODEL 9
REMARK VINA RESULT:    -2.556      6.500      7.432
REMARK INTER + INTRA:          -3.048
REMARK INTER:                  -2.969
REMARK INTRA:                  -0.079
REMARK UNBOUND:                -0.044
REMARK SMILES CCCCC(=O)[O-]
REMARK SMILES IDX 4 1 5 2 6 3 7 4 3 5 2 6 1 7
REMARK H PARENT
REMARK Flexibility Score: inf
ROOT
ATOM      1  C   UNL     1     -10.204  19.096 -11.702  1.00  0.00     0.053 C 
ENDROOT
BRANCH   1   2
ATOM      2  C   UNL     1     -11.401  19.994 -11.627  1.00  0.00     0.041 C 
ATOM      3  O   UNL     1     -12.324  19.891 -12.476  1.00  0.00    -0.550 OA
ATOM      4  O   UNL     1     -11.481  20.966 -10.638  1.00  0.00    -0.550 OA
ENDBRANCH   1   2
BRANCH   1   5
ATOM      5  C   UNL     1     -10.362  18.026 -12.791  1.00  0.00     0.006 C 
BRANCH   5   6
ATOM      6  C   UNL     1     -10.616  16.631 -12.202  1.00  0.00    -0.003 C 
ATOM      7  C   UNL     1     -10.199  16.568 -10.736  1.00  0.00     0.004 C 
ENDBRANCH   5   6
ENDBRANCH   1   5
TORSDOF 3
ENDMDL
