MODEL 1
REMARK VINA RESULT:    -3.817      0.000      0.000
REMARK INTER + INTRA:          -7.078
REMARK INTER:                  -5.825
REMARK INTRA:                  -1.253
REMARK UNBOUND:                -1.253
REMARK SMILES CCCCCCCCCC=CC(=O)[O-]
REMARK SMILES IDX 7 1 8 2 9 3 10 4 11 5 12 6 13 7 14 8 6 9 5 10 4 11 3 12 2 13
REMARK SMILES IDX 1 14
REMARK H PARENT
REMARK Flexibility Score: inf
ROOT
ATOM      1  C   UNL     1      29.489  11.409 -14.422  1.00  0.00     0.000 C 
ENDROOT
BRANCH   1   2
ATOM      2  C   UNL     1      29.549  12.778 -13.724  1.00  0.00     0.004 C 
BRANCH   2   3
ATOM      3  C   UNL     1      28.179  13.466 -13.654  1.00  0.00     0.027 C 
BRANCH   3   4
ATOM      4  C   UNL     1      28.245  14.778 -12.914  1.00  0.00    -0.025 C 
ATOM      5  C   UNL     1      27.315  15.289 -12.089  1.00  0.00     0.020 C 
BRANCH   5   6
ATOM      6  C   UNL     1      26.021  14.684 -11.706  1.00  0.00     0.064 C 
ATOM      7  O   UNL     1      24.991  14.793 -12.419  1.00  0.00    -0.545 OA
ATOM      8  O   UNL     1      25.950  13.947 -10.531  1.00  0.00    -0.545 OA
ENDBRANCH   5   6
ENDBRANCH   3   4
ENDBRANCH   2   3
ENDBRANCH   1   2
BRANCH   1   9
ATOM      9  C   UNL     1      28.833  11.481 -15.810  1.00  0.00     0.000 C 
BRANCH   9  10
ATOM     10  C   UNL     1      29.650  12.312 -16.810  1.00  0.00     0.000 C 
BRANCH  10  11
ATOM     11  C   UNL     1      28.789  13.421 -17.434  1.00  0.00    -0.000 C 
BRANCH  11  12
ATOM     12  C   UNL     1      29.514  14.774 -17.490  1.00  0.00    -0.000 C 
BRANCH  12  13
ATOM     13  C   UNL     1      30.774  14.809 -16.611  1.00  0.00    -0.003 C 
ATOM     14  C   UNL     1      30.657  15.877 -15.528  1.00  0.00     0.004 C 
ENDBRANCH  12  13
ENDBRANCH  11  12
ENDBRANCH  10  11
ENDBRANCH   9  10
ENDBRANCH   1   9
TORSDOF 9
ENDMDL
MODEL 2
REMARK VINA RESULT:    -3.760      2.686      3.166
REMARK INTER + INTRA:          -6.991
REMARK INTER:                  -5.564
REMARK INTRA:                  -1.427
REMARK UNBOUND:                -1.253
REMARK SMILES CCCCCCCCCC=CC(=O)[O-]
REMARK SMILES IDX 7 1 8 2 9 3 10 4 11 5 12 6 13 7 14 8 6 9 5 10 4 11 3 12 2 13
REMARK SMILES IDX 1 14
REMARK H PARENT
REMARK Flexibility Score: inf
ROOT
ATOM      1  C   UNL     1      28.577  12.506 -15.469  1.00  0.00     0.000 C 
ENDROOT
BRANCH   1   2
ATOM      2  C   UNL     1      29.995  12.015 -15.135  1.00  0.00     0.004 C 
BRANCH   2   3
ATOM      3  C   UNL     1      30.457  12.452 -13.737  1.00  0.00     0.027 C 
BRANCH   3   4
ATOM      4  C   UNL     1      29.313  12.969 -12.902  1.00  0.00    -0.025 C 
ATOM      5  C   UNL     1      29.111  12.761 -11.589  1.00  0.00     0.020 C 
BRANCH   5   6
ATOM      6  C   UNL     1      29.965  11.992 -10.658  1.00  0.00     0.064 C 
ATOM      7  O   UNL     1      31.084  12.413 -10.269  1.00  0.00    -0.545 OA
ATOM      8  O   UNL     1      29.501  10.775 -10.177  1.00  0.00    -0.545 OA
ENDBRANCH   5   6
ENDBRANCH   3   4
ENDBRANCH   2   3
ENDBRANCH   1   2
BRANCH   1   9
ATOM      9  C   UNL     1      28.459  13.038 -16.906  1.00  0.00     0.000 C 
BRANCH   9  10
ATOM     10  C   UNL     1      29.772  13.638 -17.427  1.00  0.00     0.000 C 
BRANCH  10  11
ATOM     11  C   UNL     1      29.798  15.160 -17.227  1.00  0.00    -0.000 C 
BRANCH  11  12
ATOM     12  C   UNL     1      31.094  15.651 -16.564  1.00  0.00    -0.000 C 
BRANCH  12  13
ATOM     13  C   UNL     1      30.941  15.867 -15.051  1.00  0.00    -0.003 C 
ATOM     14  C   UNL     1      29.488  16.146 -14.682  1.00  0.00     0.004 C 
ENDBRANCH  12  13
ENDBRANCH  11  12
ENDBRANCH  10  11
ENDBRANCH   9  10
ENDBRANCH   1   9
TORSDOF 9
ENDMDL
MODEL 3
REMARK VINA RESULT:    -3.731      3.275      5.682
REMARK INTER + INTRA:          -6.948
REMARK INTER:                  -5.858
REMARK INTRA:                  -1.090
REMARK UNBOUND:                -1.253
REMARK SMILES CCCCCCCCCC=CC(=O)[O-]
REMARK SMILES IDX 7 1 8 2 9 3 10 4 11 5 12 6 13 7 14 8 6 9 5 10 4 11 3 12 2 13
REMARK SMILES IDX 1 14
REMARK H PARENT
REMARK Flexibility Score: inf
ROOT
ATOM      1  C   UNL     1      29.373  10.083 -13.279  1.00  0.00     0.000 C 
ENDROOT
BRANCH   1   2
ATOM      2  C   UNL     1      30.520  10.575 -14.175  1.00  0.00     0.004 C 
BRANCH   2   3
ATOM      3  C   UNL     1      30.258  11.973 -14.756  1.00  0.00     0.027 C 
BRANCH   3   4
ATOM      4  C   UNL     1      28.826  12.139 -15.196  1.00  0.00    -0.025 C 
ATOM      5  C   UNL     1      28.386  12.792 -16.286  1.00  0.00     0.020 C 
BRANCH   5   6
ATOM      6  C   UNL     1      29.198  13.487 -17.308  1.00  0.00     0.064 C 
ATOM      7  O   UNL     1      29.341  14.736 -17.318  1.00  0.00    -0.545 OA
ATOM      8  O   UNL     1      29.845  12.729 -18.275  1.00  0.00    -0.545 OA
ENDBRANCH   5   6
ENDBRANCH   3   4
ENDBRANCH   2   3
ENDBRANCH   1   2
BRANCH   1   9
ATOM      9  C   UNL     1      29.749  10.072 -11.789  1.00  0.00     0.000 C 
BRANCH   9  10
ATOM     10  C   UNL     1      28.889  11.031 -10.953  1.00  0.00     0.000 C 
BRANCH  10  11
ATOM     11  C   UNL     1      29.285  12.492 -11.214  1.00  0.00    -0.000 C 
BRANCH  11  12
ATOM     12  C   UNL     1      28.089  13.367 -11.621  1.00  0.00    -0.000 C 
BRANCH  12  13
ATOM     13  C   UNL     1      26.746  12.794 -11.144  1.00  0.00    -0.003 C 
ATOM     14  C   UNL     1      25.837  13.897 -10.612  1.00  0.00     0.004 C 
ENDBRANCH  12  13
ENDBRANCH  11  12
ENDBRANCH  10  11
ENDBRANCH   9  10
ENDBRANCH   1   9
TORSDOF 9
ENDMDL
MODEL 4
REMARK VINA RESULT:    -3.712      3.528      5.753
REMARK INTER + INTRA:          -6.918
REMARK INTER:                  -5.669
REMARK INTRA:                  -1.249
REMARK UNBOUND:                -1.253
REMARK SMILES CCCCCCCCCC=CC(=O)[O-]
REMARK SMILES IDX 7 1 8 2 9 3 10 4 11 5 12 6 13 7 14 8 6 9 5 10 4 11 3 12 2 13
REMARK SMILES IDX 1 14
REMARK H PARENT
REMARK Flexibility Score: inf
ROOT
ATOM      1  C   UNL     1      29.695   9.324 -14.195  1.00  0.00     0.000 C 
ENDROOT
BRANCH   1   2
ATOM      2  C   UNL     1      30.758  10.434 -14.191  1.00  0.00     0.004 C 
BRANCH   2   3
ATOM      3  C   UNL     1      30.476  11.526 -15.232  1.00  0.00     0.027 C 
BRANCH   3   4
ATOM      4  C   UNL     1      28.998  11.736 -15.441  1.00  0.00    -0.025 C 
ATOM      5  C   UNL     1      28.416  12.648 -16.239  1.00  0.00     0.020 C 
BRANCH   5   6
ATOM      6  C   UNL     1      29.083  13.646 -17.102  1.00  0.00     0.064 C 
ATOM      7  O   UNL     1      29.498  14.747 -16.660  1.00  0.00    -0.545 OA
ATOM      8  O   UNL     1      29.282  13.343 -18.443  1.00  0.00    -0.545 OA
ENDBRANCH   5   6
ENDBRANCH   3   4
ENDBRANCH   2   3
ENDBRANCH   1   2
BRANCH   1   9
ATOM      9  C   UNL     1      29.095   9.073 -12.802  1.00  0.00     0.000 C 
BRANCH   9  10
ATOM     10  C   UNL     1      30.143   8.612 -11.779  1.00  0.00     0.000 C 
BRANCH  10  11
ATOM     11  C   UNL     1      30.163   9.543 -10.557  1.00  0.00    -0.000 C 
BRANCH  11  12
ATOM     12  C   UNL     1      29.178  10.715 -10.687  1.00  0.00    -0.000 C 
BRANCH  12  13
ATOM     13  C   UNL     1      29.887  12.069 -10.847  1.00  0.00    -0.003 C 
ATOM     14  C   UNL     1      29.210  12.920 -11.916  1.00  0.00     0.004 C 
ENDBRANCH  12  13
ENDBRANCH  11  12
ENDBRANCH  10  11
ENDBRANCH   9  10
ENDBRANCH   1   9
TORSDOF 9
ENDMDL
MODEL 5
REMARK VINA RESULT:    -3.699      1.573      2.002
REMARK INTER + INTRA:          -6.898
REMARK INTER:                  -6.077
REMARK INTRA:                  -0.821
REMARK UNBOUND:                -1.253
REMARK SMILES CCCCCCCCCC=CC(=O)[O-]
REMARK SMILES IDX 7 1 8 2 9 3 10 4 11 5 12 6 13 7 14 8 6 9 5 10 4 11 3 12 2 13
REMARK SMILES IDX 1 14
REMARK H PARENT
REMARK Flexibility Score: inf
ROOT
ATOM      1  C   UNL     1      30.217  12.440 -13.573  1.00  0.00     0.000 C 
ENDROOT
BRANCH   1   2
ATOM      2  C   UNL     1      30.241  12.121 -12.069  1.00  0.00     0.004 C 
BRANCH   2   3
ATOM      3  C   UNL     1      29.132  12.847 -11.293  1.00  0.00     0.027 C 
BRANCH   3   4
ATOM      4  C   UNL     1      27.976  11.932 -10.975  1.00  0.00    -0.025 C 
ATOM      5  C   UNL     1      26.673  12.260 -10.931  1.00  0.00     0.020 C 
BRANCH   5   6
ATOM      6  C   UNL     1      26.069  13.583 -11.194  1.00  0.00     0.064 C 
ATOM      7  O   UNL     1      26.051  14.098 -12.341  1.00  0.00    -0.545 OA
ATOM      8  O   UNL     1      25.478  14.269 -10.141  1.00  0.00    -0.545 OA
ENDBRANCH   5   6
ENDBRANCH   3   4
ENDBRANCH   2   3
ENDBRANCH   1   2
BRANCH   1   9
ATOM      9  C   UNL     1      30.206  11.175 -14.445  1.00  0.00     0.000 C 
BRANCH   9  10
ATOM     10  C   UNL     1      29.143  11.227 -15.552  1.00  0.00     0.000 C 
BRANCH  10  11
ATOM     11  C   UNL     1      28.542  12.635 -15.672  1.00  0.00    -0.000 C 
BRANCH  11  12
ATOM     12  C   UNL     1      28.741  13.249 -17.066  1.00  0.00    -0.000 C 
BRANCH  12  13
ATOM     13  C   UNL     1      30.073  14.002 -17.198  1.00  0.00    -0.003 C 
ATOM     14  C   UNL     1      30.017  15.346 -16.480  1.00  0.00     0.004 C 
ENDBRANCH  12  13
ENDBRANCH  11  12
ENDBRANCH  10  11
ENDBRANCH   9  10
ENDBRANCH   1   9
TORSDOF 9
ENDMDL
MODEL 6
REMARK VINA RESULT:    -3.697      3.662      6.184
REMARK INTER + INTRA:          -6.896
REMARK INTER:                  -5.819
REMARK INTRA:                  -1.077
REMARK UNBOUND:                -1.253
REMARK SMILES CCCCCCCCCC=CC(=O)[O-]
REMARK SMILES IDX 7 1 8 2 9 3 10 4 11 5 12 6 13 7 14 8 6 9 5 10 4 11 3 12 2 13
REMARK SMILES IDX 1 14
REMARK H PARENT
REMARK Flexibility Score: inf
ROOT
ATOM      1  C   UNL     1      28.774  13.089 -12.854  1.00  0.00     0.000 C 
ENDROOT
BRANCH   1   2
ATOM      2  C   UNL     1      30.142  12.777 -13.480  1.00  0.00     0.004 C 
BRANCH   2   3
ATOM      3  C   UNL     1      30.023  12.079 -14.843  1.00  0.00     0.027 C 
BRANCH   3   4
ATOM      4  C   UNL     1      28.677  12.314 -15.479  1.00  0.00    -0.025 C 
ATOM      5  C   UNL     1      28.429  12.954 -16.635  1.00  0.00     0.020 C 
BRANCH   5   6
ATOM      6  C   UNL     1      29.413  13.566 -17.554  1.00  0.00     0.064 C 
ATOM      7  O   UNL     1      30.113  12.880 -18.342  1.00  0.00    -0.545 OA
ATOM      8  O   UNL     1      29.548  14.948 -17.565  1.00  0.00    -0.545 OA
ENDBRANCH   5   6
ENDBRANCH   3   4
ENDBRANCH   2   3
ENDBRANCH   1   2
BRANCH   1   9
ATOM      9  C   UNL     1      28.743  12.831 -11.339  1.00  0.00     0.000 C 
BRANCH   9  10
ATOM     10  C   UNL     1      28.210  11.436 -10.984  1.00  0.00     0.000 C 
BRANCH  10  11
ATOM     11  C   UNL     1      29.276  10.612 -10.246  1.00  0.00    -0.000 C 
BRANCH  11  12
ATOM     12  C   UNL     1      29.941   9.558 -11.145  1.00  0.00    -0.000 C 
BRANCH  12  13
ATOM     13  C   UNL     1      29.169   9.324 -12.453  1.00  0.00    -0.003 C 
ATOM     14  C   UNL     1      29.447   7.933 -13.012  1.00  0.00     0.004 C 
ENDBRANCH  12  13
ENDBRANCH  11  12
ENDBRANCH  10  11
ENDBRANCH   9  10
ENDBRANCH   1   9
TORSDOF 9
ENDMDL
MODEL 7
REMARK VINA RESULT:    -3.691      1.707      3.140
REMARK INTER + INTRA:          -6.886
REMARK INTER:                  -6.216
REMARK INTRA:                  -0.670
REMARK UNBOUND:                -1.253
REMARK SMILES CCCCCCCCCC=CC(=O)[O-]
REMARK SMILES IDX 7 1 8 2 9 3 10 4 11 5 12 6 13 7 14 8 6 9 5 10 4 11 3 12 2 13
REMARK SMILES IDX 1 14
REMARK H PARENT
REMARK Flexibility Score: inf
ROOT
ATOM      1  C   UNL     1      28.484  12.575 -15.996  1.00  0.00     0.000 C 
ENDROOT
BRANCH   1   2
ATOM      2  C   UNL     1      29.285  12.483 -14.688  1.00  0.00     0.004 C 
BRANCH   2   3
ATOM      3  C   UNL     1      28.465  12.908 -13.461  1.00  0.00     0.027 C 
BRANCH   3   4
ATOM      4  C   UNL     1      28.496  14.401 -13.254  1.00  0.00    -0.025 C 
ATOM      5  C   UNL     1      27.589  15.145 -12.597  1.00  0.00     0.020 C 
BRANCH   5   6
ATOM      6  C   UNL     1      26.361  14.676 -11.919  1.00  0.00     0.064 C 
ATOM      7  O   UNL     1      26.396  13.958 -10.888  1.00  0.00    -0.545 OA
ATOM      8  O   UNL     1      25.128  15.066 -12.425  1.00  0.00    -0.545 OA
ENDBRANCH   5   6
ENDBRANCH   3   4
ENDBRANCH   2   3
ENDBRANCH   1   2
BRANCH   1   9
ATOM      9  C   UNL     1      29.000  13.682 -16.930  1.00  0.00     0.000 C 
BRANCH   9  10
ATOM     10  C   UNL     1      29.453  13.144 -18.295  1.00  0.00     0.000 C 
BRANCH  10  11
ATOM     11  C   UNL     1      30.790  12.397 -18.174  1.00  0.00    -0.000 C 
BRANCH  11  12
ATOM     12  C   UNL     1      30.746  10.995 -18.801  1.00  0.00    -0.000 C 
BRANCH  12  13
ATOM     13  C   UNL     1      30.394   9.901 -17.782  1.00  0.00    -0.003 C 
ATOM     14  C   UNL     1      30.472   8.516 -18.415  1.00  0.00     0.004 C 
ENDBRANCH  12  13
ENDBRANCH  11  12
ENDBRANCH  10  11
ENDBRANCH   9  10
ENDBRANCH   1   9
TORSDOF 9
ENDMDL
MODEL 8
REMARK VINA RESULT:    -3.660     17.335     19.100
REMARK INTER + INTRA:          -6.839
REMARK INTER:                  -5.639
REMARK INTRA:                  -1.200
REMARK UNBOUND:                -1.253
REMARK SMILES CCCCCCCCCC=CC(=O)[O-]
REMARK SMILES IDX 7 1 8 2 9 3 10 4 11 5 12 6 13 7 14 8 6 9 5 10 4 11 3 12 2 13
REMARK SMILES IDX 1 14
REMARK H PARENT
REMARK Flexibility Score: inf
ROOT
ATOM      1  C   UNL     1      16.936  -1.676 -15.237  1.00  0.00     0.000 C 
ENDROOT
BRANCH   1   2
ATOM      2  C   UNL     1      16.084  -0.598 -15.926  1.00  0.00     0.004 C 
BRANCH   2   3
ATOM      3  C   UNL     1      16.626   0.821 -15.696  1.00  0.00     0.027 C 
BRANCH   3   4
ATOM      4  C   UNL     1      17.178   1.425 -16.962  1.00  0.00    -0.025 C 
ATOM      5  C   UNL     1      16.507   2.158 -17.867  1.00  0.00     0.020 C 
BRANCH   5   6
ATOM      6  C   UNL     1      15.082   2.551 -17.829  1.00  0.00     0.064 C 
ATOM      7  O   UNL     1      14.715   3.721 -17.552  1.00  0.00    -0.545 OA
ATOM      8  O   UNL     1      14.118   1.600 -18.136  1.00  0.00    -0.545 OA
ENDBRANCH   5   6
ENDBRANCH   3   4
ENDBRANCH   2   3
ENDBRANCH   1   2
BRANCH   1   9
ATOM      9  C   UNL     1      17.587  -1.174 -13.938  1.00  0.00     0.000 C 
BRANCH   9  10
ATOM     10  C   UNL     1      17.286  -2.079 -12.735  1.00  0.00     0.000 C 
BRANCH  10  11
ATOM     11  C   UNL     1      16.572  -1.295 -11.624  1.00  0.00    -0.000 C 
BRANCH  11  12
ATOM     12  C   UNL     1      15.992   0.040 -12.118  1.00  0.00    -0.000 C 
BRANCH  12  13
ATOM     13  C   UNL     1      14.471   0.133 -11.922  1.00  0.00    -0.003 C 
ATOM     14  C   UNL     1      13.732  -0.702 -12.963  1.00  0.00     0.004 C 
ENDBRANCH  12  13
ENDBRANCH  11  12
ENDBRANCH  10  11
ENDBRANCH   9  10
ENDBRANCH   1   9
TORSDOF 9
ENDMDL
MODEL 9
REMARK VINA RESULT:    -3.587     17.799     19.550
REMARK INTER + INTRA:          -6.728
REMARK INTER:                  -5.129
REMARK INTRA:                  -1.599
REMARK UNBOUND:                -1.253
REMARK SMILES CCCCCCCCCC=CC(=O)[O-]
REMARK SMILES IDX 7 1 8 2 9 3 10 4 11 5 12 6 13 7 14 8 6 9 5 10 4 11 3 12 2 13
REMARK SMILES IDX 1 14
REMARK H PARENT
REMARK Flexibility Score: inf
ROOT
ATOM      1  C   UNL     1      17.782  -0.942 -13.161  1.00  0.00     0.000 C 
ENDROOT
BRANCH   1   2
ATOM      2  C   UNL     1      17.665  -1.907 -14.352  1.00  0.00     0.004 C 
BRANCH   2   3
ATOM      3  C   UNL     1      17.421  -1.178 -15.681  1.00  0.00     0.027 C 
BRANCH   3   4
ATOM      4  C   UNL     1      17.309   0.314 -15.493  1.00  0.00    -0.025 C 
ATOM      5  C   UNL     1      16.891   1.214 -16.400  1.00  0.00     0.020 C 
BRANCH   5   6
ATOM      6  C   UNL     1      16.437   0.954 -17.782  1.00  0.00     0.064 C 
ATOM      7  O   UNL     1      17.220   0.566 -18.686  1.00  0.00    -0.545 OA
ATOM      8  O   UNL     1      15.092   1.119 -18.086  1.00  0.00    -0.545 OA
ENDBRANCH   5   6
ENDBRANCH   3   4
ENDBRANCH   2   3
ENDBRANCH   1   2
BRANCH   1   9
ATOM      9  C   UNL     1      16.626  -1.095 -12.160  1.00  0.00     0.000 C 
BRANCH   9  10
ATOM     10  C   UNL     1      15.703   0.132 -12.125  1.00  0.00     0.000 C 
BRANCH  10  11
ATOM     11  C   UNL     1      14.278  -0.239 -12.562  1.00  0.00    -0.000 C 
BRANCH  11  12
ATOM     12  C   UNL     1      14.173  -1.683 -13.077  1.00  0.00    -0.000 C 
BRANCH  12  13
ATOM     13  C   UNL     1      13.933  -1.755 -14.593  1.00  0.00    -0.003 C 
ATOM     14  C   UNL     1      13.618  -0.376 -15.164  1.00  0.00     0.004 C 
ENDBRANCH  12  13
ENDBRANCH  11  12
ENDBRANCH  10  11
ENDBRANCH   9  10
ENDBRANCH   1   9
TORSDOF 9
ENDMDL
