MODEL 1
REMARK VINA RESULT:    -4.377      0.000      0.000
REMARK INTER + INTRA:         -11.338
REMARK INTER:                  -8.470
REMARK INTRA:                  -2.868
REMARK UNBOUND:                -2.868
REMARK SMILES CCCCCC=CCC=CCCCCCCCCOC(C)=O
REMARK SMILES IDX 12 1 11 2 10 3 9 4 8 5 7 6 6 7 5 8 4 9 3 10 2 11 1 12 13 13
REMARK SMILES IDX 14 14 15 15 16 16 17 17 18 18 19 19 20 20 22 21 21 22
REMARK H PARENT
REMARK Flexibility Score: inf
ROOT
ATOM      1  C   UNL     1     -13.508 -22.233  12.612  1.00  0.00     0.004 C 
ENDROOT
BRANCH   1   2
ATOM      2  C   UNL     1     -14.767 -21.622  11.980  1.00  0.00     0.027 C 
BRANCH   2   3
ATOM      3  C   UNL     1     -16.031 -22.134  12.630  1.00  0.00    -0.031 C 
ATOM      4  C   UNL     1     -17.006 -21.360  13.145  1.00  0.00    -0.027 C 
BRANCH   4   5
ATOM      5  C   UNL     1     -16.972 -19.854  13.197  1.00  0.00     0.054 C 
BRANCH   5   6
ATOM      6  C   UNL     1     -16.494 -19.363  14.543  1.00  0.00    -0.027 C 
ATOM      7  C   UNL     1     -15.385 -18.626  14.722  1.00  0.00    -0.031 C 
BRANCH   7   8
ATOM      8  C   UNL     1     -14.465 -18.182  13.610  1.00  0.00     0.027 C 
BRANCH   8   9
ATOM      9  C   UNL     1     -14.455 -16.652  13.430  1.00  0.00     0.004 C 
BRANCH   9  10
ATOM     10  C   UNL     1     -15.844 -16.001  13.553  1.00  0.00     0.000 C 
BRANCH  10  11
ATOM     11  C   UNL     1     -16.460 -15.587  12.199  1.00  0.00    -0.003 C 
ATOM     12  C   UNL     1     -17.348 -16.681  11.608  1.00  0.00     0.004 C 
ENDBRANCH  10  11
ENDBRANCH   9  10
ENDBRANCH   8   9
ENDBRANCH   7   8
ENDBRANCH   5   6
ENDBRANCH   4   5
ENDBRANCH   2   3
ENDBRANCH   1   2
BRANCH   1  13
ATOM     13  C   UNL     1     -12.896 -21.329  13.696  1.00  0.00     0.000 C 
BRANCH  13  14
ATOM     14  C   UNL     1     -11.360 -21.315  13.652  1.00  0.00     0.000 C 
BRANCH  14  15
ATOM     15  C   UNL     1     -10.735 -20.928  15.004  1.00  0.00     0.000 C 
BRANCH  15  16
ATOM     16  C   UNL     1     -11.792 -20.628  16.078  1.00  0.00     0.003 C 
BRANCH  16  17
ATOM     17  C   UNL     1     -11.904 -19.127  16.392  1.00  0.00     0.042 C 
BRANCH  17  18
ATOM     18  C   UNL     1     -10.648 -18.363  15.957  1.00  0.00     0.233 C 
BRANCH  18  19
ATOM     19  O   UNL     1     -10.947 -17.418  14.930  1.00  0.00    -0.466 OA
BRANCH  19  20
ATOM     20  C   UNL     1     -10.273 -17.372  13.705  1.00  0.00     0.302 C 
ATOM     21  O   UNL     1      -9.105 -16.901  13.627  1.00  0.00    -0.253 OA
ATOM     22  C   UNL     1     -10.970 -17.833  12.470  1.00  0.00     0.139 C 
ENDBRANCH  19  20
ENDBRANCH  18  19
ENDBRANCH  17  18
ENDBRANCH  16  17
ENDBRANCH  15  16
ENDBRANCH  14  15
ENDBRANCH  13  14
ENDBRANCH   1  13
TORSDOF 16
ENDMDL
MODEL 2
REMARK VINA RESULT:    -4.241      1.588      2.543
REMARK INTER + INTRA:         -11.075
REMARK INTER:                  -8.186
REMARK INTRA:                  -2.890
REMARK UNBOUND:                -2.868
REMARK SMILES CCCCCC=CCC=CCCCCCCCCOC(C)=O
REMARK SMILES IDX 12 1 11 2 10 3 9 4 8 5 7 6 6 7 5 8 4 9 3 10 2 11 1 12 13 13
REMARK SMILES IDX 14 14 15 15 16 16 17 17 18 18 19 19 20 20 22 21 21 22
REMARK H PARENT
REMARK Flexibility Score: inf
ROOT
ATOM      1  C   UNL     1     -12.894 -21.188  13.716  1.00  0.00     0.004 C 
ENDROOT
BRANCH   1   2
ATOM      2  C   UNL     1     -13.525 -22.417  13.047  1.00  0.00     0.027 C 
BRANCH   2   3
ATOM      3  C   UNL     1     -13.929 -22.138  11.618  1.00  0.00    -0.031 C 
ATOM      4  C   UNL     1     -15.170 -21.801  11.215  1.00  0.00    -0.027 C 
BRANCH   4   5
ATOM      5  C   UNL     1     -16.368 -21.692  12.122  1.00  0.00     0.054 C 
BRANCH   5   6
ATOM      6  C   UNL     1     -16.970 -20.308  12.070  1.00  0.00    -0.027 C 
ATOM      7  C   UNL     1     -17.034 -19.478  13.125  1.00  0.00    -0.031 C 
BRANCH   7   8
ATOM      8  C   UNL     1     -16.513 -19.807  14.503  1.00  0.00     0.027 C 
BRANCH   8   9
ATOM      9  C   UNL     1     -15.553 -18.729  15.042  1.00  0.00     0.004 C 
BRANCH   9  10
ATOM     10  C   UNL     1     -15.180 -17.654  14.006  1.00  0.00     0.000 C 
BRANCH  10  11
ATOM     11  C   UNL     1     -13.738 -17.781  13.468  1.00  0.00    -0.003 C 
ATOM     12  C   UNL     1     -13.703 -18.151  11.986  1.00  0.00     0.004 C 
ENDBRANCH  10  11
ENDBRANCH   9  10
ENDBRANCH   8   9
ENDBRANCH   7   8
ENDBRANCH   5   6
ENDBRANCH   4   5
ENDBRANCH   2   3
ENDBRANCH   1   2
BRANCH   1  13
ATOM     13  C   UNL     1     -11.356 -21.246  13.720  1.00  0.00     0.000 C 
BRANCH  13  14
ATOM     14  C   UNL     1     -10.759 -20.901  15.093  1.00  0.00     0.000 C 
BRANCH  14  15
ATOM     15  C   UNL     1     -11.837 -20.578  16.142  1.00  0.00     0.000 C 
BRANCH  15  16
ATOM     16  C   UNL     1     -11.782 -19.117  16.613  1.00  0.00     0.003 C 
BRANCH  16  17
ATOM     17  C   UNL     1     -10.804 -18.267  15.785  1.00  0.00     0.042 C 
BRANCH  17  18
ATOM     18  C   UNL     1     -10.005 -17.303  16.669  1.00  0.00     0.233 C 
BRANCH  18  19
ATOM     19  O   UNL     1      -8.612 -17.613  16.645  1.00  0.00    -0.466 OA
BRANCH  19  20
ATOM     20  C   UNL     1      -7.807 -17.455  15.511  1.00  0.00     0.302 C 
ATOM     21  O   UNL     1      -7.557 -16.308  15.049  1.00  0.00    -0.253 OA
ATOM     22  C   UNL     1      -7.287 -18.664  14.810  1.00  0.00     0.139 C 
ENDBRANCH  19  20
ENDBRANCH  18  19
ENDBRANCH  17  18
ENDBRANCH  16  17
ENDBRANCH  15  16
ENDBRANCH  14  15
ENDBRANCH  13  14
ENDBRANCH   1  13
TORSDOF 16
ENDMDL
MODEL 3
REMARK VINA RESULT:    -4.226      1.570      2.107
REMARK INTER + INTRA:         -11.046
REMARK INTER:                  -9.016
REMARK INTRA:                  -2.031
REMARK UNBOUND:                -2.868
REMARK SMILES CCCCCC=CCC=CCCCCCCCCOC(C)=O
REMARK SMILES IDX 12 1 11 2 10 3 9 4 8 5 7 6 6 7 5 8 4 9 3 10 2 11 1 12 13 13
REMARK SMILES IDX 14 14 15 15 16 16 17 17 18 18 19 19 20 20 22 21 21 22
REMARK H PARENT
REMARK Flexibility Score: inf
ROOT
ATOM      1  C   UNL     1     -13.502 -21.896  13.018  1.00  0.00     0.004 C 
ENDROOT
BRANCH   1   2
ATOM      2  C   UNL     1     -14.629 -21.486  12.060  1.00  0.00     0.027 C 
BRANCH   2   3
ATOM      3  C   UNL     1     -15.964 -22.056  12.480  1.00  0.00    -0.031 C 
ATOM      4  C   UNL     1     -16.999 -21.336  12.956  1.00  0.00    -0.027 C 
BRANCH   4   5
ATOM      5  C   UNL     1     -16.975 -19.847  13.191  1.00  0.00     0.054 C 
BRANCH   5   6
ATOM      6  C   UNL     1     -16.545 -19.522  14.602  1.00  0.00    -0.027 C 
ATOM      7  C   UNL     1     -15.680 -18.542  14.916  1.00  0.00    -0.031 C 
BRANCH   7   8
ATOM      8  C   UNL     1     -15.023 -17.629  13.910  1.00  0.00     0.027 C 
BRANCH   8   9
ATOM      9  C   UNL     1     -15.787 -16.303  13.730  1.00  0.00     0.004 C 
BRANCH   9  10
ATOM     10  C   UNL     1     -14.992 -15.224  12.974  1.00  0.00     0.000 C 
BRANCH  10  11
ATOM     11  C   UNL     1     -13.830 -14.619  13.791  1.00  0.00    -0.003 C 
ATOM     12  C   UNL     1     -13.377 -13.267  13.242  1.00  0.00     0.004 C 
ENDBRANCH  10  11
ENDBRANCH   9  10
ENDBRANCH   8   9
ENDBRANCH   7   8
ENDBRANCH   5   6
ENDBRANCH   4   5
ENDBRANCH   2   3
ENDBRANCH   1   2
BRANCH   1  13
ATOM     13  C   UNL     1     -12.828 -20.684  13.685  1.00  0.00     0.000 C 
BRANCH  13  14
ATOM     14  C   UNL     1     -11.589 -21.078  14.505  1.00  0.00     0.000 C 
BRANCH  14  15
ATOM     15  C   UNL     1     -11.686 -20.625  15.972  1.00  0.00     0.000 C 
BRANCH  15  16
ATOM     16  C   UNL     1     -12.321 -19.234  16.119  1.00  0.00     0.003 C 
BRANCH  16  17
ATOM     17  C   UNL     1     -11.367 -18.103  15.700  1.00  0.00     0.042 C 
BRANCH  17  18
ATOM     18  C   UNL     1     -10.213 -17.939  16.695  1.00  0.00     0.233 C 
BRANCH  18  19
ATOM     19  O   UNL     1      -9.473 -16.746  16.438  1.00  0.00    -0.466 OA
BRANCH  19  20
ATOM     20  C   UNL     1     -10.023 -15.616  15.822  1.00  0.00     0.302 C 
ATOM     21  O   UNL     1      -9.863 -15.410  14.588  1.00  0.00    -0.253 OA
ATOM     22  C   UNL     1     -10.758 -14.617  16.650  1.00  0.00     0.139 C 
ENDBRANCH  19  20
ENDBRANCH  18  19
ENDBRANCH  17  18
ENDBRANCH  16  17
ENDBRANCH  15  16
ENDBRANCH  14  15
ENDBRANCH  13  14
ENDBRANCH   1  13
TORSDOF 16
ENDMDL
MODEL 4
REMARK VINA RESULT:    -4.171      1.681      2.856
REMARK INTER + INTRA:         -10.940
REMARK INTER:                  -8.293
REMARK INTRA:                  -2.647
REMARK UNBOUND:                -2.868
REMARK SMILES CCCCCC=CCC=CCCCCCCCCOC(C)=O
REMARK SMILES IDX 12 1 11 2 10 3 9 4 8 5 7 6 6 7 5 8 4 9 3 10 2 11 1 12 13 13
REMARK SMILES IDX 14 14 15 15 16 16 17 17 18 18 19 19 20 20 22 21 21 22
REMARK H PARENT
REMARK Flexibility Score: inf
ROOT
ATOM      1  C   UNL     1     -11.724 -21.301  13.520  1.00  0.00     0.004 C 
ENDROOT
BRANCH   1   2
ATOM      2  C   UNL     1     -13.227 -21.614  13.495  1.00  0.00     0.027 C 
BRANCH   2   3
ATOM      3  C   UNL     1     -13.704 -21.991  12.111  1.00  0.00    -0.031 C 
ATOM      4  C   UNL     1     -14.993 -22.056  11.727  1.00  0.00    -0.027 C 
BRANCH   4   5
ATOM      5  C   UNL     1     -16.174 -21.808  12.630  1.00  0.00     0.054 C 
BRANCH   5   6
ATOM      6  C   UNL     1     -16.869 -20.514  12.281  1.00  0.00    -0.027 C 
ATOM      7  C   UNL     1     -17.174 -19.561  13.178  1.00  0.00    -0.031 C 
BRANCH   7   8
ATOM      8  C   UNL     1     -16.864 -19.645  14.653  1.00  0.00     0.027 C 
BRANCH   8   9
ATOM      9  C   UNL     1     -15.633 -18.807  15.044  1.00  0.00     0.004 C 
BRANCH   9  10
ATOM     10  C   UNL     1     -15.261 -17.727  14.012  1.00  0.00     0.000 C 
BRANCH  10  11
ATOM     11  C   UNL     1     -13.829 -17.868  13.452  1.00  0.00    -0.003 C 
ATOM     12  C   UNL     1     -13.821 -18.219  11.965  1.00  0.00     0.004 C 
ENDBRANCH  10  11
ENDBRANCH   9  10
ENDBRANCH   8   9
ENDBRANCH   7   8
ENDBRANCH   5   6
ENDBRANCH   4   5
ENDBRANCH   2   3
ENDBRANCH   1   2
BRANCH   1  13
ATOM     13  C   UNL     1     -11.216 -20.970  14.934  1.00  0.00     0.000 C 
BRANCH  13  14
ATOM     14  C   UNL     1     -12.123 -19.969  15.666  1.00  0.00     0.000 C 
BRANCH  14  15
ATOM     15  C   UNL     1     -11.391 -19.228  16.798  1.00  0.00     0.000 C 
BRANCH  15  16
ATOM     16  C   UNL     1     -10.465 -18.120  16.275  1.00  0.00     0.003 C 
BRANCH  16  17
ATOM     17  C   UNL     1     -10.609 -16.809  17.065  1.00  0.00     0.042 C 
BRANCH  17  18
ATOM     18  C   UNL     1      -9.899 -15.645  16.364  1.00  0.00     0.233 C 
BRANCH  18  19
ATOM     19  O   UNL     1     -10.823 -14.620  15.999  1.00  0.00    -0.466 OA
BRANCH  19  20
ATOM     20  C   UNL     1     -11.344 -14.476  14.709  1.00  0.00     0.302 C 
ATOM     21  O   UNL     1     -10.637 -14.723  13.694  1.00  0.00    -0.253 OA
ATOM     22  C   UNL     1     -12.736 -13.970  14.535  1.00  0.00     0.139 C 
ENDBRANCH  19  20
ENDBRANCH  18  19
ENDBRANCH  17  18
ENDBRANCH  16  17
ENDBRANCH  15  16
ENDBRANCH  14  15
ENDBRANCH  13  14
ENDBRANCH   1  13
TORSDOF 16
ENDMDL
MODEL 5
REMARK VINA RESULT:    -4.167      2.177      5.272
REMARK INTER + INTRA:         -10.933
REMARK INTER:                  -8.371
REMARK INTRA:                  -2.562
REMARK UNBOUND:                -2.868
REMARK SMILES CCCCCC=CCC=CCCCCCCCCOC(C)=O
REMARK SMILES IDX 12 1 11 2 10 3 9 4 8 5 7 6 6 7 5 8 4 9 3 10 2 11 1 12 13 13
REMARK SMILES IDX 14 14 15 15 16 16 17 17 18 18 19 19 20 20 22 21 21 22
REMARK H PARENT
REMARK Flexibility Score: inf
ROOT
ATOM      1  C   UNL     1     -15.526 -21.543  11.371  1.00  0.00     0.004 C 
ENDROOT
BRANCH   1   2
ATOM      2  C   UNL     1     -14.711 -22.351  12.390  1.00  0.00     0.027 C 
BRANCH   2   3
ATOM      3  C   UNL     1     -13.245 -22.407  12.025  1.00  0.00    -0.031 C 
ATOM      4  C   UNL     1     -12.262 -21.748  12.668  1.00  0.00    -0.027 C 
BRANCH   4   5
ATOM      5  C   UNL     1     -12.470 -20.810  13.829  1.00  0.00     0.054 C 
BRANCH   5   6
ATOM      6  C   UNL     1     -11.744 -21.293  15.061  1.00  0.00    -0.027 C 
ATOM      7  C   UNL     1     -11.571 -20.551  16.169  1.00  0.00    -0.031 C 
BRANCH   7   8
ATOM      8  C   UNL     1     -12.079 -19.140  16.340  1.00  0.00     0.027 C 
BRANCH   8   9
ATOM      9  C   UNL     1     -10.981 -18.173  16.821  1.00  0.00     0.004 C 
BRANCH   9  10
ATOM     10  C   UNL     1     -10.473 -17.215  15.728  1.00  0.00     0.000 C 
BRANCH  10  11
ATOM     11  C   UNL     1     -11.186 -17.386  14.369  1.00  0.00    -0.003 C 
ATOM     12  C   UNL     1     -11.440 -16.048  13.676  1.00  0.00     0.004 C 
ENDBRANCH  10  11
ENDBRANCH   9  10
ENDBRANCH   8   9
ENDBRANCH   7   8
ENDBRANCH   5   6
ENDBRANCH   4   5
ENDBRANCH   2   3
ENDBRANCH   1   2
BRANCH   1  13
ATOM     13  C   UNL     1     -16.938 -21.207  11.881  1.00  0.00     0.000 C 
BRANCH  13  14
ATOM     14  C   UNL     1     -17.008 -21.139  13.414  1.00  0.00     0.000 C 
BRANCH  14  15
ATOM     15  C   UNL     1     -17.153 -19.698  13.935  1.00  0.00     0.000 C 
BRANCH  15  16
ATOM     16  C   UNL     1     -15.834 -19.133  14.481  1.00  0.00     0.003 C 
BRANCH  16  17
ATOM     17  C   UNL     1     -15.060 -18.320  13.429  1.00  0.00     0.042 C 
BRANCH  17  18
ATOM     18  C   UNL     1     -15.130 -16.816  13.714  1.00  0.00     0.233 C 
BRANCH  18  19
ATOM     19  O   UNL     1     -16.407 -16.282  13.367  1.00  0.00    -0.466 OA
BRANCH  19  20
ATOM     20  C   UNL     1     -16.827 -16.086  12.047  1.00  0.00     0.302 C 
ATOM     21  O   UNL     1     -16.380 -15.125  11.362  1.00  0.00    -0.253 OA
ATOM     22  C   UNL     1     -17.859 -16.991  11.466  1.00  0.00     0.139 C 
ENDBRANCH  19  20
ENDBRANCH  18  19
ENDBRANCH  17  18
ENDBRANCH  16  17
ENDBRANCH  15  16
ENDBRANCH  14  15
ENDBRANCH  13  14
ENDBRANCH   1  13
TORSDOF 16
ENDMDL
MODEL 6
REMARK VINA RESULT:    -4.142      2.161      5.364
REMARK INTER + INTRA:         -10.884
REMARK INTER:                  -7.575
REMARK INTRA:                  -3.308
REMARK UNBOUND:                -2.868
REMARK SMILES CCCCCC=CCC=CCCCCCCCCOC(C)=O
REMARK SMILES IDX 12 1 11 2 10 3 9 4 8 5 7 6 6 7 5 8 4 9 3 10 2 11 1 12 13 13
REMARK SMILES IDX 14 14 15 15 16 16 17 17 18 18 19 19 20 20 22 21 21 22
REMARK H PARENT
REMARK Flexibility Score: inf
ROOT
ATOM      1  C   UNL     1     -16.572 -19.293  14.601  1.00  0.00     0.004 C 
ENDROOT
BRANCH   1   2
ATOM      2  C   UNL     1     -16.770 -19.715  13.138  1.00  0.00     0.027 C 
BRANCH   2   3
ATOM      3  C   UNL     1     -17.067 -21.191  13.010  1.00  0.00    -0.031 C 
ATOM      4  C   UNL     1     -16.206 -22.118  12.546  1.00  0.00    -0.027 C 
BRANCH   4   5
ATOM      5  C   UNL     1     -14.820 -21.823  12.033  1.00  0.00     0.054 C 
BRANCH   5   6
ATOM      6  C   UNL     1     -13.773 -22.571  12.823  1.00  0.00    -0.027 C 
ATOM      7  C   UNL     1     -12.480 -22.208  12.887  1.00  0.00    -0.031 C 
BRANCH   7   8
ATOM      8  C   UNL     1     -11.894 -21.007  12.185  1.00  0.00     0.027 C 
BRANCH   8   9
ATOM      9  C   UNL     1     -10.760 -20.348  12.993  1.00  0.00     0.004 C 
BRANCH   9  10
ATOM     10  C   UNL     1     -10.552 -20.963  14.389  1.00  0.00     0.000 C 
BRANCH  10  11
ATOM     11  C   UNL     1     -10.925 -20.014  15.549  1.00  0.00    -0.003 C 
ATOM     12  C   UNL     1     -12.056 -20.571  16.412  1.00  0.00     0.004 C 
ENDBRANCH  10  11
ENDBRANCH   9  10
ENDBRANCH   8   9
ENDBRANCH   7   8
ENDBRANCH   5   6
ENDBRANCH   4   5
ENDBRANCH   2   3
ENDBRANCH   1   2
BRANCH   1  13
ATOM     13  C   UNL     1     -15.126 -18.859  14.896  1.00  0.00     0.000 C 
BRANCH  13  14
ATOM     14  C   UNL     1     -14.289 -18.692  13.619  1.00  0.00     0.000 C 
BRANCH  14  15
ATOM     15  C   UNL     1     -13.183 -17.632  13.772  1.00  0.00     0.000 C 
BRANCH  15  16
ATOM     16  C   UNL     1     -12.581 -17.210  12.424  1.00  0.00     0.003 C 
BRANCH  16  17
ATOM     17  C   UNL     1     -13.654 -16.813  11.397  1.00  0.00     0.042 C 
BRANCH  17  18
ATOM     18  C   UNL     1     -13.966 -15.314  11.457  1.00  0.00     0.233 C 
BRANCH  18  19
ATOM     19  O   UNL     1     -15.374 -15.078  11.444  1.00  0.00    -0.466 OA
BRANCH  19  20
ATOM     20  C   UNL     1     -16.273 -15.730  12.295  1.00  0.00     0.302 C 
ATOM     21  O   UNL     1     -16.091 -15.738  13.544  1.00  0.00    -0.253 OA
ATOM     22  C   UNL     1     -17.427 -16.471  11.710  1.00  0.00     0.139 C 
ENDBRANCH  19  20
ENDBRANCH  18  19
ENDBRANCH  17  18
ENDBRANCH  16  17
ENDBRANCH  15  16
ENDBRANCH  14  15
ENDBRANCH  13  14
ENDBRANCH   1  13
TORSDOF 16
ENDMDL
MODEL 7
REMARK VINA RESULT:    -4.119      1.516      5.073
REMARK INTER + INTRA:         -10.840
REMARK INTER:                  -8.920
REMARK INTRA:                  -1.920
REMARK UNBOUND:                -2.868
REMARK SMILES CCCCCC=CCC=CCCCCCCCCOC(C)=O
REMARK SMILES IDX 12 1 11 2 10 3 9 4 8 5 7 6 6 7 5 8 4 9 3 10 2 11 1 12 13 13
REMARK SMILES IDX 14 14 15 15 16 16 17 17 18 18 19 19 20 20 22 21 21 22
REMARK H PARENT
REMARK Flexibility Score: inf
ROOT
ATOM      1  C   UNL     1     -16.540 -20.981  11.615  1.00  0.00     0.004 C 
ENDROOT
BRANCH   1   2
ATOM      2  C   UNL     1     -15.757 -21.985  12.473  1.00  0.00     0.027 C 
BRANCH   2   3
ATOM      3  C   UNL     1     -14.453 -22.387  11.824  1.00  0.00    -0.031 C 
ATOM      4  C   UNL     1     -13.229 -22.167  12.342  1.00  0.00    -0.027 C 
BRANCH   4   5
ATOM      5  C   UNL     1     -12.961 -21.440  13.635  1.00  0.00     0.054 C 
BRANCH   5   6
ATOM      6  C   UNL     1     -11.480 -21.349  13.916  1.00  0.00    -0.027 C 
ATOM      7  C   UNL     1     -10.962 -20.994  15.104  1.00  0.00    -0.031 C 
BRANCH   7   8
ATOM      8  C   UNL     1     -11.782 -20.641  16.322  1.00  0.00     0.027 C 
BRANCH   8   9
ATOM      9  C   UNL     1     -12.116 -19.139  16.391  1.00  0.00     0.004 C 
BRANCH   9  10
ATOM     10  C   UNL     1     -10.955 -18.222  15.966  1.00  0.00     0.000 C 
BRANCH  10  11
ATOM     11  C   UNL     1     -10.382 -17.369  17.119  1.00  0.00    -0.003 C 
ATOM     12  C   UNL     1      -8.902 -17.047  16.921  1.00  0.00     0.004 C 
ENDBRANCH  10  11
ENDBRANCH   9  10
ENDBRANCH   8   9
ENDBRANCH   7   8
ENDBRANCH   5   6
ENDBRANCH   4   5
ENDBRANCH   2   3
ENDBRANCH   1   2
BRANCH   1  13
ATOM     13  C   UNL     1     -16.898 -19.701  12.388  1.00  0.00     0.000 C 
BRANCH  13  14
ATOM     14  C   UNL     1     -16.976 -19.932  13.905  1.00  0.00     0.000 C 
BRANCH  14  15
ATOM     15  C   UNL     1     -15.948 -19.092  14.683  1.00  0.00     0.000 C 
BRANCH  15  16
ATOM     16  C   UNL     1     -15.249 -18.048  13.799  1.00  0.00     0.003 C 
BRANCH  16  17
ATOM     17  C   UNL     1     -15.871 -16.649  13.935  1.00  0.00     0.042 C 
BRANCH  17  18
ATOM     18  C   UNL     1     -14.944 -15.561  13.381  1.00  0.00     0.233 C 
BRANCH  18  19
ATOM     19  O   UNL     1     -13.576 -15.961  13.458  1.00  0.00    -0.466 OA
BRANCH  19  20
ATOM     20  C   UNL     1     -12.526 -15.072  13.714  1.00  0.00     0.302 C 
ATOM     21  O   UNL     1     -11.342 -15.488  13.842  1.00  0.00    -0.253 OA
ATOM     22  C   UNL     1     -12.824 -13.622  13.895  1.00  0.00     0.139 C 
ENDBRANCH  19  20
ENDBRANCH  18  19
ENDBRANCH  17  18
ENDBRANCH  16  17
ENDBRANCH  15  16
ENDBRANCH  14  15
ENDBRANCH  13  14
ENDBRANCH   1  13
TORSDOF 16
ENDMDL
MODEL 8
REMARK VINA RESULT:    -4.087      1.410      2.491
REMARK INTER + INTRA:         -10.778
REMARK INTER:                  -7.517
REMARK INTRA:                  -3.260
REMARK UNBOUND:                -2.868
REMARK SMILES CCCCCC=CCC=CCCCCCCCCOC(C)=O
REMARK SMILES IDX 12 1 11 2 10 3 9 4 8 5 7 6 6 7 5 8 4 9 3 10 2 11 1 12 13 13
REMARK SMILES IDX 14 14 15 15 16 16 17 17 18 18 19 19 20 20 22 21 21 22
REMARK H PARENT
REMARK Flexibility Score: inf
ROOT
ATOM      1  C   UNL     1     -15.181 -21.636  11.444  1.00  0.00     0.004 C 
ENDROOT
BRANCH   1   2
ATOM      2  C   UNL     1     -16.691 -21.430  11.625  1.00  0.00     0.027 C 
BRANCH   2   3
ATOM      3  C   UNL     1     -17.049 -19.969  11.775  1.00  0.00    -0.031 C 
ATOM      4  C   UNL     1     -17.135 -19.308  12.946  1.00  0.00    -0.027 C 
BRANCH   4   5
ATOM      5  C   UNL     1     -16.933 -19.933  14.302  1.00  0.00     0.054 C 
BRANCH   5   6
ATOM      6  C   UNL     1     -16.189 -19.001  15.229  1.00  0.00    -0.027 C 
ATOM      7  C   UNL     1     -14.870 -18.757  15.147  1.00  0.00    -0.031 C 
BRANCH   7   8
ATOM      8  C   UNL     1     -13.950 -19.372  14.120  1.00  0.00     0.027 C 
BRANCH   8   9
ATOM      9  C   UNL     1     -13.612 -18.400  12.975  1.00  0.00     0.004 C 
BRANCH   9  10
ATOM     10  C   UNL     1     -13.530 -16.926  13.412  1.00  0.00     0.000 C 
BRANCH  10  11
ATOM     11  C   UNL     1     -14.476 -15.990  12.630  1.00  0.00    -0.003 C 
ATOM     12  C   UNL     1     -15.817 -15.799  13.338  1.00  0.00     0.004 C 
ENDBRANCH  10  11
ENDBRANCH   9  10
ENDBRANCH   8   9
ENDBRANCH   7   8
ENDBRANCH   5   6
ENDBRANCH   4   5
ENDBRANCH   2   3
ENDBRANCH   1   2
BRANCH   1  13
ATOM     13  C   UNL     1     -14.558 -22.454  12.588  1.00  0.00     0.000 C 
BRANCH  13  14
ATOM     14  C   UNL     1     -13.055 -22.703  12.384  1.00  0.00     0.000 C 
BRANCH  14  15
ATOM     15  C   UNL     1     -12.378 -21.588  11.568  1.00  0.00     0.000 C 
BRANCH  15  16
ATOM     16  C   UNL     1     -11.100 -21.061  12.237  1.00  0.00     0.003 C 
BRANCH  16  17
ATOM     17  C   UNL     1     -11.054 -21.367  13.743  1.00  0.00     0.042 C 
BRANCH  17  18
ATOM     18  C   UNL     1     -10.050 -20.467  14.472  1.00  0.00     0.233 C 
BRANCH  18  19
ATOM     19  O   UNL     1     -10.431 -19.094  14.388  1.00  0.00    -0.466 OA
BRANCH  19  20
ATOM     20  C   UNL     1     -10.564 -18.261  15.504  1.00  0.00     0.302 C 
ATOM     21  O   UNL     1     -10.000 -17.133  15.541  1.00  0.00    -0.253 OA
ATOM     22  C   UNL     1     -11.336 -18.741  16.687  1.00  0.00     0.139 C 
ENDBRANCH  19  20
ENDBRANCH  18  19
ENDBRANCH  17  18
ENDBRANCH  16  17
ENDBRANCH  15  16
ENDBRANCH  14  15
ENDBRANCH  13  14
ENDBRANCH   1  13
TORSDOF 16
ENDMDL
MODEL 9
REMARK VINA RESULT:    -4.015      1.449      3.379
REMARK INTER + INTRA:         -10.638
REMARK INTER:                  -7.565
REMARK INTRA:                  -3.073
REMARK UNBOUND:                -2.868
REMARK SMILES CCCCCC=CCC=CCCCCCCCCOC(C)=O
REMARK SMILES IDX 12 1 11 2 10 3 9 4 8 5 7 6 6 7 5 8 4 9 3 10 2 11 1 12 13 13
REMARK SMILES IDX 14 14 15 15 16 16 17 17 18 18 19 19 20 20 22 21 21 22
REMARK H PARENT
REMARK Flexibility Score: inf
ROOT
ATOM      1  C   UNL     1     -16.699 -20.246  12.157  1.00  0.00     0.004 C 
ENDROOT
BRANCH   1   2
ATOM      2  C   UNL     1     -17.356 -19.436  13.284  1.00  0.00     0.027 C 
BRANCH   2   3
ATOM      3  C   UNL     1     -16.552 -19.490  14.562  1.00  0.00    -0.031 C 
ATOM      4  C   UNL     1     -15.541 -18.657  14.877  1.00  0.00    -0.027 C 
BRANCH   4   5
ATOM      5  C   UNL     1     -15.018 -17.563  13.983  1.00  0.00     0.054 C 
BRANCH   5   6
ATOM      6  C   UNL     1     -13.550 -17.753  13.686  1.00  0.00    -0.027 C 
ATOM      7  C   UNL     1     -13.006 -17.610  12.465  1.00  0.00    -0.031 C 
BRANCH   7   8
ATOM      8  C   UNL     1     -13.781 -17.236  11.224  1.00  0.00     0.027 C 
BRANCH   8   9
ATOM      9  C   UNL     1     -13.842 -15.713  11.005  1.00  0.00     0.004 C 
BRANCH   9  10
ATOM     10  C   UNL     1     -15.257 -15.121  11.136  1.00  0.00     0.000 C 
BRANCH  10  11
ATOM     11  C   UNL     1     -16.386 -16.149  10.905  1.00  0.00    -0.003 C 
ATOM     12  C   UNL     1     -17.647 -15.812  11.699  1.00  0.00     0.004 C 
ENDBRANCH  10  11
ENDBRANCH   9  10
ENDBRANCH   8   9
ENDBRANCH   7   8
ENDBRANCH   5   6
ENDBRANCH   4   5
ENDBRANCH   2   3
ENDBRANCH   1   2
BRANCH   1  13
ATOM     13  C   UNL     1     -16.425 -21.704  12.563  1.00  0.00     0.000 C 
BRANCH  13  14
ATOM     14  C   UNL     1     -15.023 -22.177  12.150  1.00  0.00     0.000 C 
BRANCH  14  15
ATOM     15  C   UNL     1     -13.929 -21.152  12.498  1.00  0.00     0.000 C 
BRANCH  15  16
ATOM     16  C   UNL     1     -12.770 -21.774  13.291  1.00  0.00     0.003 C 
BRANCH  16  17
ATOM     17  C   UNL     1     -11.466 -20.972  13.157  1.00  0.00     0.042 C 
BRANCH  17  18
ATOM     18  C   UNL     1     -10.487 -21.288  14.294  1.00  0.00     0.233 C 
BRANCH  18  19
ATOM     19  O   UNL     1     -10.247 -20.139  15.105  1.00  0.00    -0.466 OA
BRANCH  19  20
ATOM     20  C   UNL     1     -11.170 -19.644  16.034  1.00  0.00     0.302 C 
ATOM     21  O   UNL     1     -11.242 -18.408  16.278  1.00  0.00    -0.253 OA
ATOM     22  C   UNL     1     -12.036 -20.598  16.783  1.00  0.00     0.139 C 
ENDBRANCH  19  20
ENDBRANCH  18  19
ENDBRANCH  17  18
ENDBRANCH  16  17
ENDBRANCH  15  16
ENDBRANCH  14  15
ENDBRANCH  13  14
ENDBRANCH   1  13
TORSDOF 16
ENDMDL
