MODEL 1
REMARK VINA RESULT:    -4.548      0.000      0.000
REMARK INTER + INTRA:          -5.263
REMARK INTER:                  -5.212
REMARK INTRA:                  -0.050
REMARK UNBOUND:                -0.050
REMARK SMILES O=C([O-])c1cc(O)c(O)c(O)c1
REMARK SMILES IDX 4 1 5 2 12 3 6 4 10 5 8 6 2 7 1 8 3 9 7 10 11 12 9 14
REMARK H PARENT 7 11 11 13 9 15
REMARK Flexibility Score: inf
ROOT
ATOM      1  C   UNL     1      28.591  14.932 -31.307  1.00  0.00     0.005 A 
ATOM      2  C   UNL     1      29.014  16.167 -31.824  1.00  0.00     0.060 A 
ATOM      3  C   UNL     1      27.429  14.886 -30.518  1.00  0.00     0.060 A 
ATOM      4  C   UNL     1      28.294  17.337 -31.561  1.00  0.00     0.162 A 
ATOM      5  C   UNL     1      26.701  16.052 -30.249  1.00  0.00     0.162 A 
ATOM      6  C   UNL     1      27.133  17.283 -30.771  1.00  0.00     0.200 A 
ENDROOT
BRANCH   1   7
ATOM      7  C   UNL     1      29.360  13.700 -31.591  1.00  0.00     0.072 C 
ATOM      8  O   UNL     1      29.392  12.757 -30.756  1.00  0.00    -0.545 OA
ATOM      9  O   UNL     1      30.059  13.565 -32.786  1.00  0.00    -0.545 OA
ENDBRANCH   1   7
BRANCH   4  10
ATOM     10  O   UNL     1      28.748  18.543 -32.093  1.00  0.00    -0.504 OA
ATOM     11  H   UNL     1      29.555  19.029 -31.717  1.00  0.00     0.293 HD
ENDBRANCH   4  10
BRANCH   5  12
ATOM     12  O   UNL     1      25.549  15.993 -29.465  1.00  0.00    -0.504 OA
ATOM     13  H   UNL     1      24.626  16.097 -29.869  1.00  0.00     0.293 HD
ENDBRANCH   5  12
BRANCH   6  14
ATOM     14  O   UNL     1      26.421  18.456 -30.514  1.00  0.00    -0.502 OA
ATOM     15  H   UNL     1      26.138  18.721 -29.578  1.00  0.00     0.293 HD
ENDBRANCH   6  14
TORSDOF 4
ENDMDL
MODEL 2
REMARK VINA RESULT:    -4.544      0.101      2.431
REMARK INTER + INTRA:          -5.258
REMARK INTER:                  -5.208
REMARK INTRA:                  -0.051
REMARK UNBOUND:                -0.050
REMARK SMILES O=C([O-])c1cc(O)c(O)c(O)c1
REMARK SMILES IDX 4 1 5 2 12 3 6 4 10 5 8 6 2 7 1 8 3 9 7 10 11 12 9 14
REMARK H PARENT 7 11 11 13 9 15
REMARK Flexibility Score: inf
ROOT
ATOM      1  C   UNL     1      28.543  15.013 -31.282  1.00  0.00     0.005 A 
ATOM      2  C   UNL     1      27.379  14.966 -30.498  1.00  0.00     0.060 A 
ATOM      3  C   UNL     1      28.970  16.250 -31.794  1.00  0.00     0.060 A 
ATOM      4  C   UNL     1      26.650  16.129 -30.229  1.00  0.00     0.162 A 
ATOM      5  C   UNL     1      28.246  17.421 -31.530  1.00  0.00     0.162 A 
ATOM      6  C   UNL     1      27.082  17.362 -30.745  1.00  0.00     0.200 A 
ENDROOT
BRANCH   1   7
ATOM      7  C   UNL     1      29.307  13.777 -31.560  1.00  0.00     0.072 C 
ATOM      8  O   UNL     1      29.296  12.819 -30.741  1.00  0.00    -0.545 OA
ATOM      9  O   UNL     1      30.047  13.653 -32.731  1.00  0.00    -0.545 OA
ENDBRANCH   1   7
BRANCH   4  10
ATOM     10  O   UNL     1      25.500  16.039 -29.447  1.00  0.00    -0.504 OA
ATOM     11  H   UNL     1      25.402  16.538 -28.570  1.00  0.00     0.293 HD
ENDBRANCH   4  10
BRANCH   5  12
ATOM     12  O   UNL     1      28.680  18.642 -32.045  1.00  0.00    -0.504 OA
ATOM     13  H   UNL     1      29.043  18.722 -32.987  1.00  0.00     0.293 HD
ENDBRANCH   5  12
BRANCH   6  14
ATOM     14  O   UNL     1      26.348  18.518 -30.472  1.00  0.00    -0.502 OA
ATOM     15  H   UNL     1      26.227  19.255 -31.157  1.00  0.00     0.293 HD
ENDBRANCH   6  14
TORSDOF 4
ENDMDL
MODEL 3
REMARK VINA RESULT:    -4.520      3.394      6.219
REMARK INTER + INTRA:          -5.231
REMARK INTER:                  -5.180
REMARK INTRA:                  -0.052
REMARK UNBOUND:                -0.050
REMARK SMILES O=C([O-])c1cc(O)c(O)c(O)c1
REMARK SMILES IDX 4 1 5 2 12 3 6 4 10 5 8 6 2 7 1 8 3 9 7 10 11 12 9 14
REMARK H PARENT 7 11 11 13 9 15
REMARK Flexibility Score: inf
ROOT
ATOM      1  C   UNL     1      30.509  12.814 -30.811  1.00  0.00     0.005 A 
ATOM      2  C   UNL     1      30.619  13.362 -29.522  1.00  0.00     0.060 A 
ATOM      3  C   UNL     1      31.111  11.572 -31.077  1.00  0.00     0.060 A 
ATOM      4  C   UNL     1      31.318  12.687 -28.515  1.00  0.00     0.162 A 
ATOM      5  C   UNL     1      31.812  10.889 -30.075  1.00  0.00     0.162 A 
ATOM      6  C   UNL     1      31.917  11.446 -28.789  1.00  0.00     0.200 A 
ENDROOT
BRANCH   1   7
ATOM      7  C   UNL     1      29.768  13.536 -31.868  1.00  0.00     0.072 C 
ATOM      8  O   UNL     1      29.971  13.277 -33.084  1.00  0.00    -0.545 OA
ATOM      9  O   UNL     1      28.835  14.511 -31.535  1.00  0.00    -0.545 OA
ENDBRANCH   1   7
BRANCH   4  10
ATOM     10  O   UNL     1      31.404  13.265 -27.250  1.00  0.00    -0.504 OA
ATOM     11  H   UNL     1      30.862  12.926 -26.464  1.00  0.00     0.293 HD
ENDBRANCH   4  10
BRANCH   5  12
ATOM     12  O   UNL     1      32.405   9.657 -30.352  1.00  0.00    -0.504 OA
ATOM     13  H   UNL     1      32.100   8.806 -29.895  1.00  0.00     0.293 HD
ENDBRANCH   5  12
BRANCH   6  14
ATOM     14  O   UNL     1      32.613  10.779 -27.778  1.00  0.00    -0.502 OA
ATOM     15  H   UNL     1      33.575  10.998 -27.551  1.00  0.00     0.293 HD
ENDBRANCH   6  14
TORSDOF 4
ENDMDL
MODEL 4
REMARK VINA RESULT:    -4.492      3.385      6.237
REMARK INTER + INTRA:          -5.199
REMARK INTER:                  -5.148
REMARK INTRA:                  -0.051
REMARK UNBOUND:                -0.050
REMARK SMILES O=C([O-])c1cc(O)c(O)c(O)c1
REMARK SMILES IDX 4 1 5 2 12 3 6 4 10 5 8 6 2 7 1 8 3 9 7 10 11 12 9 14
REMARK H PARENT 7 11 11 13 9 15
REMARK Flexibility Score: inf
ROOT
ATOM      1  C   UNL     1      30.505  12.776 -30.713  1.00  0.00     0.005 A 
ATOM      2  C   UNL     1      31.131  11.555 -31.015  1.00  0.00     0.060 A 
ATOM      3  C   UNL     1      30.633  13.304 -29.417  1.00  0.00     0.060 A 
ATOM      4  C   UNL     1      31.871  10.871 -30.045  1.00  0.00     0.162 A 
ATOM      5  C   UNL     1      31.372  12.626 -28.438  1.00  0.00     0.162 A 
ATOM      6  C   UNL     1      31.994  11.405 -28.751  1.00  0.00     0.200 A 
ENDROOT
BRANCH   1   7
ATOM      7  C   UNL     1      29.725  13.491 -31.746  1.00  0.00     0.072 C 
ATOM      8  O   UNL     1      29.966  13.312 -32.970  1.00  0.00    -0.545 OA
ATOM      9  O   UNL     1      28.712  14.372 -31.382  1.00  0.00    -0.545 OA
ENDBRANCH   1   7
BRANCH   4  10
ATOM     10  O   UNL     1      32.476   9.663 -30.386  1.00  0.00    -0.504 OA
ATOM     11  H   UNL     1      32.130   8.772 -30.050  1.00  0.00     0.293 HD
ENDBRANCH   4  10
BRANCH   5  12
ATOM     12  O   UNL     1      31.491  13.160 -27.156  1.00  0.00    -0.504 OA
ATOM     13  H   UNL     1      31.136  12.672 -26.342  1.00  0.00     0.293 HD
ENDBRANCH   5  12
BRANCH   6  14
ATOM     14  O   UNL     1      32.734  10.715 -27.789  1.00  0.00    -0.502 OA
ATOM     15  H   UNL     1      33.012  11.143 -26.913  1.00  0.00     0.293 HD
ENDBRANCH   6  14
TORSDOF 4
ENDMDL
MODEL 5
REMARK VINA RESULT:    -4.470      2.948      4.352
REMARK INTER + INTRA:          -5.174
REMARK INTER:                  -5.121
REMARK INTRA:                  -0.053
REMARK UNBOUND:                -0.050
REMARK SMILES O=C([O-])c1cc(O)c(O)c(O)c1
REMARK SMILES IDX 4 1 5 2 12 3 6 4 10 5 8 6 2 7 1 8 3 9 7 10 11 12 9 14
REMARK H PARENT 7 11 11 13 9 15
REMARK Flexibility Score: inf
ROOT
ATOM      1  C   UNL     1      31.201  12.242 -29.914  1.00  0.00     0.005 A 
ATOM      2  C   UNL     1      30.831  12.323 -31.267  1.00  0.00     0.060 A 
ATOM      3  C   UNL     1      30.943  13.335 -29.071  1.00  0.00     0.060 A 
ATOM      4  C   UNL     1      30.216  13.473 -31.773  1.00  0.00     0.162 A 
ATOM      5  C   UNL     1      30.327  14.492 -29.568  1.00  0.00     0.162 A 
ATOM      6  C   UNL     1      29.961  14.563 -30.923  1.00  0.00     0.200 A 
ENDROOT
BRANCH   1   7
ATOM      7  C   UNL     1      31.851  11.021 -29.390  1.00  0.00     0.072 C 
ATOM      8  O   UNL     1      32.259  10.973 -28.199  1.00  0.00    -0.545 OA
ATOM      9  O   UNL     1      32.021   9.906 -30.204  1.00  0.00    -0.545 OA
ENDBRANCH   1   7
BRANCH   4  10
ATOM     10  O   UNL     1      29.866  13.513 -33.121  1.00  0.00    -0.504 OA
ATOM     11  H   UNL     1      28.924  13.316 -33.440  1.00  0.00     0.293 HD
ENDBRANCH   4  10
BRANCH   5  12
ATOM     12  O   UNL     1      30.076  15.570 -28.721  1.00  0.00    -0.504 OA
ATOM     13  H   UNL     1      29.222  16.111 -28.788  1.00  0.00     0.293 HD
ENDBRANCH   5  12
BRANCH   6  14
ATOM     14  O   UNL     1      29.347  15.707 -31.436  1.00  0.00    -0.502 OA
ATOM     15  H   UNL     1      29.507  16.026 -32.385  1.00  0.00     0.293 HD
ENDBRANCH   6  14
TORSDOF 4
ENDMDL
MODEL 6
REMARK VINA RESULT:    -4.449      2.843      4.474
REMARK INTER + INTRA:          -5.150
REMARK INTER:                  -5.098
REMARK INTRA:                  -0.052
REMARK UNBOUND:                -0.050
REMARK SMILES O=C([O-])c1cc(O)c(O)c(O)c1
REMARK SMILES IDX 4 1 5 2 12 3 6 4 10 5 8 6 2 7 1 8 3 9 7 10 11 12 9 14
REMARK H PARENT 7 11 11 13 9 15
REMARK Flexibility Score: inf
ROOT
ATOM      1  C   UNL     1      31.085  12.238 -29.886  1.00  0.00     0.005 A 
ATOM      2  C   UNL     1      30.598  13.221 -29.009  1.00  0.00     0.060 A 
ATOM      3  C   UNL     1      30.834  12.369 -31.263  1.00  0.00     0.060 A 
ATOM      4  C   UNL     1      29.872  14.314 -29.492  1.00  0.00     0.162 A 
ATOM      5  C   UNL     1      30.108  13.461 -31.756  1.00  0.00     0.162 A 
ATOM      6  C   UNL     1      29.624  14.438 -30.870  1.00  0.00     0.200 A 
ENDROOT
BRANCH   1   7
ATOM      7  C   UNL     1      31.852  11.085 -29.365  1.00  0.00     0.072 C 
ATOM      8  O   UNL     1      32.286  11.086 -28.182  1.00  0.00    -0.545 OA
ATOM      9  O   UNL     1      32.105   9.982 -30.173  1.00  0.00    -0.545 OA
ENDBRANCH   1   7
BRANCH   4  10
ATOM     10  O   UNL     1      29.405  15.267 -28.588  1.00  0.00    -0.504 OA
ATOM     11  H   UNL     1      28.609  15.860 -28.792  1.00  0.00     0.293 HD
ENDBRANCH   4  10
BRANCH   5  12
ATOM     12  O   UNL     1      29.866  13.580 -33.124  1.00  0.00    -0.504 OA
ATOM     13  H   UNL     1      30.555  13.974 -33.753  1.00  0.00     0.293 HD
ENDBRANCH   5  12
BRANCH   6  14
ATOM     14  O   UNL     1      28.898  15.533 -31.343  1.00  0.00    -0.502 OA
ATOM     15  H   UNL     1      28.693  16.337 -30.761  1.00  0.00     0.293 HD
ENDBRANCH   6  14
TORSDOF 4
ENDMDL
MODEL 7
REMARK VINA RESULT:    -4.390      1.738      2.844
REMARK INTER + INTRA:          -5.082
REMARK INTER:                  -5.030
REMARK INTRA:                  -0.052
REMARK UNBOUND:                -0.050
REMARK SMILES O=C([O-])c1cc(O)c(O)c(O)c1
REMARK SMILES IDX 4 1 5 2 12 3 6 4 10 5 8 6 2 7 1 8 3 9 7 10 11 12 9 14
REMARK H PARENT 7 11 11 13 9 15
REMARK Flexibility Score: inf
ROOT
ATOM      1  C   UNL     1      29.058  13.990 -30.988  1.00  0.00     0.005 A 
ATOM      2  C   UNL     1      29.133  13.858 -29.592  1.00  0.00     0.060 A 
ATOM      3  C   UNL     1      28.264  15.013 -31.534  1.00  0.00     0.060 A 
ATOM      4  C   UNL     1      28.428  14.727 -28.753  1.00  0.00     0.162 A 
ATOM      5  C   UNL     1      27.554  15.889 -30.702  1.00  0.00     0.162 A 
ATOM      6  C   UNL     1      27.635  15.747 -29.306  1.00  0.00     0.200 A 
ENDROOT
BRANCH   1   7
ATOM      7  C   UNL     1      29.807  13.066 -31.867  1.00  0.00     0.072 C 
ATOM      8  O   UNL     1      30.011  13.354 -33.076  1.00  0.00    -0.545 OA
ATOM      9  O   UNL     1      30.299  11.863 -31.370  1.00  0.00    -0.545 OA
ENDBRANCH   1   7
BRANCH   4  10
ATOM     10  O   UNL     1      28.528  14.562 -27.372  1.00  0.00    -0.504 OA
ATOM     11  H   UNL     1      28.029  13.831 -26.878  1.00  0.00     0.293 HD
ENDBRANCH   4  10
BRANCH   5  12
ATOM     12  O   UNL     1      26.769  16.899 -31.256  1.00  0.00    -0.504 OA
ATOM     13  H   UNL     1      27.110  17.482 -32.011  1.00  0.00     0.293 HD
ENDBRANCH   5  12
BRANCH   6  14
ATOM     14  O   UNL     1      26.935  16.611 -28.461  1.00  0.00    -0.502 OA
ATOM     15  H   UNL     1      26.196  17.215 -28.799  1.00  0.00     0.293 HD
ENDBRANCH   6  14
TORSDOF 4
ENDMDL
MODEL 8
REMARK VINA RESULT:    -4.336      4.046      7.127
REMARK INTER + INTRA:          -5.020
REMARK INTER:                  -4.975
REMARK INTRA:                  -0.045
REMARK UNBOUND:                -0.050
REMARK SMILES O=C([O-])c1cc(O)c(O)c(O)c1
REMARK SMILES IDX 4 1 5 2 12 3 6 4 10 5 8 6 2 7 1 8 3 9 7 10 11 12 9 14
REMARK H PARENT 7 11 11 13 9 15
REMARK Flexibility Score: inf
ROOT
ATOM      1  C   UNL     1      31.360  12.459 -31.100  1.00  0.00     0.005 A 
ATOM      2  C   UNL     1      31.576  11.107 -30.785  1.00  0.00     0.060 A 
ATOM      3  C   UNL     1      32.392  13.385 -30.872  1.00  0.00     0.060 A 
ATOM      4  C   UNL     1      32.798  10.684 -30.252  1.00  0.00     0.162 A 
ATOM      5  C   UNL     1      33.619  12.971 -30.338  1.00  0.00     0.162 A 
ATOM      6  C   UNL     1      33.825  11.616 -30.026  1.00  0.00     0.200 A 
ENDROOT
BRANCH   1   7
ATOM      7  C   UNL     1      30.064  12.896 -31.663  1.00  0.00     0.072 C 
ATOM      8  O   UNL     1      29.968  13.215 -32.879  1.00  0.00    -0.545 OA
ATOM      9  O   UNL     1      28.931  12.961 -30.860  1.00  0.00    -0.545 OA
ENDBRANCH   1   7
BRANCH   4  10
ATOM     10  O   UNL     1      32.972   9.334 -29.953  1.00  0.00    -0.504 OA
ATOM     11  H   UNL     1      33.100   8.633 -30.674  1.00  0.00     0.293 HD
ENDBRANCH   4  10
BRANCH   5  12
ATOM     12  O   UNL     1      34.635  13.900 -30.116  1.00  0.00    -0.504 OA
ATOM     13  H   UNL     1      35.359  13.740 -29.425  1.00  0.00     0.293 HD
ENDBRANCH   5  12
BRANCH   6  14
ATOM     14  O   UNL     1      35.042  11.185 -29.493  1.00  0.00    -0.502 OA
ATOM     15  H   UNL     1      35.933  11.498 -29.860  1.00  0.00     0.293 HD
ENDBRANCH   6  14
TORSDOF 4
ENDMDL
MODEL 9
REMARK VINA RESULT:    -4.311      1.809      2.283
REMARK INTER + INTRA:          -4.991
REMARK INTER:                  -4.939
REMARK INTRA:                  -0.052
REMARK UNBOUND:                -0.050
REMARK SMILES O=C([O-])c1cc(O)c(O)c(O)c1
REMARK SMILES IDX 4 1 5 2 12 3 6 4 10 5 8 6 2 7 1 8 3 9 7 10 11 12 9 14
REMARK H PARENT 7 11 11 13 9 15
REMARK Flexibility Score: inf
ROOT
ATOM      1  C   UNL     1      29.055  13.940 -30.799  1.00  0.00     0.005 A 
ATOM      2  C   UNL     1      28.202  14.911 -31.351  1.00  0.00     0.060 A 
ATOM      3  C   UNL     1      29.178  13.856 -29.402  1.00  0.00     0.060 A 
ATOM      4  C   UNL     1      27.487  15.785 -30.526  1.00  0.00     0.162 A 
ATOM      5  C   UNL     1      28.465  14.728 -28.568  1.00  0.00     0.162 A 
ATOM      6  C   UNL     1      27.615  15.697 -29.130  1.00  0.00     0.200 A 
ENDROOT
BRANCH   1   7
ATOM      7  C   UNL     1      29.807  13.020 -31.680  1.00  0.00     0.072 C 
ATOM      8  O   UNL     1      30.241  11.922 -31.239  1.00  0.00    -0.545 OA
ATOM      9  O   UNL     1      30.046  13.353 -33.008  1.00  0.00    -0.545 OA
ENDBRANCH   1   7
BRANCH   4  10
ATOM     10  O   UNL     1      26.652  16.735 -31.113  1.00  0.00    -0.504 OA
ATOM     11  H   UNL     1      26.996  17.636 -31.426  1.00  0.00     0.293 HD
ENDBRANCH   4  10
BRANCH   5  12
ATOM     12  O   UNL     1      28.596  14.635 -27.183  1.00  0.00    -0.504 OA
ATOM     13  H   UNL     1      29.013  15.381 -26.638  1.00  0.00     0.293 HD
ENDBRANCH   5  12
BRANCH   6  14
ATOM     14  O   UNL     1      26.897  16.574 -28.315  1.00  0.00    -0.502 OA
ATOM     15  H   UNL     1      26.091  16.274 -27.779  1.00  0.00     0.293 HD
ENDBRANCH   6  14
TORSDOF 4
ENDMDL
