MODEL 1
REMARK VINA RESULT:    -3.415      0.000      0.000
REMARK INTER + INTRA:          -4.117
REMARK INTER:                  -4.014
REMARK INTRA:                  -0.103
REMARK UNBOUND:                -0.103
REMARK SMILES CCCCC(=O)[O-]
REMARK SMILES IDX 4 1 5 2 6 3 7 4 3 5 2 6 1 7
REMARK H PARENT
REMARK Flexibility Score: inf
ROOT
ATOM      1  C   UNL     1      -9.381   4.884  -8.016  1.00  0.00     0.053 C 
ENDROOT
BRANCH   1   2
ATOM      2  C   UNL     1      -8.369   3.781  -8.067  1.00  0.00     0.041 C 
ATOM      3  O   UNL     1      -7.144   4.050  -8.176  1.00  0.00    -0.550 OA
ATOM      4  O   UNL     1      -8.776   2.456  -7.962  1.00  0.00    -0.550 OA
ENDBRANCH   1   2
BRANCH   1   5
ATOM      5  C   UNL     1      -8.770   6.236  -8.405  1.00  0.00     0.006 C 
BRANCH   5   6
ATOM      6  C   UNL     1      -9.330   6.767  -9.733  1.00  0.00    -0.003 C 
ATOM      7  C   UNL     1      -8.515   6.255 -10.917  1.00  0.00     0.004 C 
ENDBRANCH   5   6
ENDBRANCH   1   5
TORSDOF 3
ENDMDL
MODEL 2
REMARK VINA RESULT:    -3.383      1.296      1.666
REMARK INTER + INTRA:          -4.078
REMARK INTER:                  -3.987
REMARK INTRA:                  -0.091
REMARK UNBOUND:                -0.103
REMARK SMILES CCCCC(=O)[O-]
REMARK SMILES IDX 4 1 5 2 6 3 7 4 3 5 2 6 1 7
REMARK H PARENT
REMARK Flexibility Score: inf
ROOT
ATOM      1  C   UNL     1      -7.622   5.376  -8.948  1.00  0.00     0.053 C 
ENDROOT
BRANCH   1   2
ATOM      2  C   UNL     1      -7.798   3.956  -8.504  1.00  0.00     0.041 C 
ATOM      3  O   UNL     1      -8.344   3.701  -7.399  1.00  0.00    -0.550 OA
ATOM      4  O   UNL     1      -7.387   2.913  -9.326  1.00  0.00    -0.550 OA
ENDBRANCH   1   2
BRANCH   1   5
ATOM      5  C   UNL     1      -8.755   6.276  -8.438  1.00  0.00     0.006 C 
BRANCH   5   6
ATOM      6  C   UNL     1      -9.761   6.627  -9.544  1.00  0.00    -0.003 C 
ATOM      7  C   UNL     1     -10.961   5.684  -9.514  1.00  0.00     0.004 C 
ENDBRANCH   5   6
ENDBRANCH   1   5
TORSDOF 3
ENDMDL
MODEL 3
REMARK VINA RESULT:    -3.368      2.355      3.386
REMARK INTER + INTRA:          -4.062
REMARK INTER:                  -3.961
REMARK INTRA:                  -0.100
REMARK UNBOUND:                -0.103
REMARK SMILES CCCCC(=O)[O-]
REMARK SMILES IDX 4 1 5 2 6 3 7 4 3 5 2 6 1 7
REMARK H PARENT
REMARK Flexibility Score: inf
ROOT
ATOM      1  C   UNL     1      -9.427   6.759  -9.387  1.00  0.00     0.053 C 
ENDROOT
BRANCH   1   2
ATOM      2  C   UNL     1      -7.945   6.789  -9.603  1.00  0.00     0.041 C 
ATOM      3  O   UNL     1      -7.173   7.098  -8.658  1.00  0.00    -0.550 OA
ATOM      4  O   UNL     1      -7.415   6.445 -10.841  1.00  0.00    -0.550 OA
ENDBRANCH   1   2
BRANCH   1   5
ATOM      5  C   UNL     1      -9.942   5.330  -9.172  1.00  0.00     0.006 C 
BRANCH   5   6
ATOM      6  C   UNL     1      -9.778   4.866  -7.718  1.00  0.00    -0.003 C 
ATOM      7  C   UNL     1      -8.694   3.797  -7.602  1.00  0.00     0.004 C 
ENDBRANCH   5   6
ENDBRANCH   1   5
TORSDOF 3
ENDMDL
MODEL 4
REMARK VINA RESULT:    -3.315      1.102      1.654
REMARK INTER + INTRA:          -3.999
REMARK INTER:                  -3.929
REMARK INTRA:                  -0.070
REMARK UNBOUND:                -0.103
REMARK SMILES CCCCC(=O)[O-]
REMARK SMILES IDX 4 1 5 2 6 3 7 4 3 5 2 6 1 7
REMARK H PARENT
REMARK Flexibility Score: inf
ROOT
ATOM      1  C   UNL     1      -9.259   4.898  -7.992  1.00  0.00     0.053 C 
ENDROOT
BRANCH   1   2
ATOM      2  C   UNL     1      -8.997   3.470  -8.363  1.00  0.00     0.041 C 
ATOM      3  O   UNL     1      -9.935   2.629  -8.347  1.00  0.00    -0.550 OA
ATOM      4  O   UNL     1      -7.725   3.074  -8.757  1.00  0.00    -0.550 OA
ENDBRANCH   1   2
BRANCH   1   5
ATOM      5  C   UNL     1      -9.879   5.683  -9.155  1.00  0.00     0.006 C 
BRANCH   5   6
ATOM      6  C   UNL     1      -9.076   6.947  -9.496  1.00  0.00    -0.003 C 
ATOM      7  C   UNL     1      -7.606   6.783  -9.119  1.00  0.00     0.004 C 
ENDBRANCH   5   6
ENDBRANCH   1   5
TORSDOF 3
ENDMDL
MODEL 5
REMARK VINA RESULT:    -3.271      1.519      1.946
REMARK INTER + INTRA:          -3.947
REMARK INTER:                  -3.885
REMARK INTRA:                  -0.062
REMARK UNBOUND:                -0.103
REMARK SMILES CCCCC(=O)[O-]
REMARK SMILES IDX 4 1 5 2 6 3 7 4 3 5 2 6 1 7
REMARK H PARENT
REMARK Flexibility Score: inf
ROOT
ATOM      1  C   UNL     1      -8.832   3.525  -8.271  1.00  0.00     0.053 C 
ENDROOT
BRANCH   1   2
ATOM      2  C   UNL     1      -8.045   3.106  -9.475  1.00  0.00     0.041 C 
ATOM      3  O   UNL     1      -7.123   2.256  -9.365  1.00  0.00    -0.550 OA
ATOM      4  O   UNL     1      -8.352   3.632 -10.725  1.00  0.00    -0.550 OA
ENDBRANCH   1   2
BRANCH   1   5
ATOM      5  C   UNL     1      -9.688   4.766  -8.554  1.00  0.00     0.006 C 
BRANCH   5   6
ATOM      6  C   UNL     1      -8.880   6.067  -8.446  1.00  0.00    -0.003 C 
ATOM      7  C   UNL     1      -9.145   6.979  -9.641  1.00  0.00     0.004 C 
ENDBRANCH   5   6
ENDBRANCH   1   5
TORSDOF 3
ENDMDL
MODEL 6
REMARK VINA RESULT:    -3.226      2.082      3.283
REMARK INTER + INTRA:          -3.894
REMARK INTER:                  -3.789
REMARK INTRA:                  -0.105
REMARK UNBOUND:                -0.103
REMARK SMILES CCCCC(=O)[O-]
REMARK SMILES IDX 4 1 5 2 6 3 7 4 3 5 2 6 1 7
REMARK H PARENT
REMARK Flexibility Score: inf
ROOT
ATOM      1  C   UNL     1      -9.085   6.494 -10.129  1.00  0.00     0.053 C 
ENDROOT
BRANCH   1   2
ATOM      2  C   UNL     1      -8.191   5.771 -11.089  1.00  0.00     0.041 C 
ATOM      3  O   UNL     1      -7.399   6.415 -11.827  1.00  0.00    -0.550 OA
ATOM      4  O   UNL     1      -8.209   4.382 -11.147  1.00  0.00    -0.550 OA
ENDBRANCH   1   2
BRANCH   1   5
ATOM      5  C   UNL     1      -8.674   6.247  -8.672  1.00  0.00     0.006 C 
BRANCH   5   6
ATOM      6  C   UNL     1      -9.563   5.200  -7.987  1.00  0.00    -0.003 C 
ATOM      7  C   UNL     1      -8.754   3.970  -7.583  1.00  0.00     0.004 C 
ENDBRANCH   5   6
ENDBRANCH   1   5
TORSDOF 3
ENDMDL
MODEL 7
REMARK VINA RESULT:    -3.097     17.657     19.001
REMARK INTER + INTRA:          -3.742
REMARK INTER:                  -3.625
REMARK INTRA:                  -0.117
REMARK UNBOUND:                -0.103
REMARK SMILES CCCCC(=O)[O-]
REMARK SMILES IDX 4 1 5 2 6 3 7 4 3 5 2 6 1 7
REMARK H PARENT
REMARK Flexibility Score: inf
ROOT
ATOM      1  C   UNL     1      -0.139 -13.053  -9.212  1.00  0.00     0.053 C 
ENDROOT
BRANCH   1   2
ATOM      2  C   UNL     1       0.739 -12.594 -10.336  1.00  0.00     0.041 C 
ATOM      3  O   UNL     1       1.811 -11.979 -10.092  1.00  0.00    -0.550 OA
ATOM      4  O   UNL     1       0.390 -12.873 -11.652  1.00  0.00    -0.550 OA
ENDBRANCH   1   2
BRANCH   1   5
ATOM      5  C   UNL     1      -1.548 -12.455  -9.310  1.00  0.00     0.006 C 
BRANCH   5   6
ATOM      6  C   UNL     1      -1.524 -10.922  -9.393  1.00  0.00    -0.003 C 
ATOM      7  C   UNL     1      -2.597 -10.406 -10.347  1.00  0.00     0.004 C 
ENDBRANCH   5   6
ENDBRANCH   1   5
TORSDOF 3
ENDMDL
MODEL 8
REMARK VINA RESULT:    -2.942     16.464     17.986
REMARK INTER + INTRA:          -3.561
REMARK INTER:                  -3.525
REMARK INTRA:                  -0.036
REMARK UNBOUND:                -0.103
REMARK SMILES CCCCC(=O)[O-]
REMARK SMILES IDX 4 1 5 2 6 3 7 4 3 5 2 6 1 7
REMARK H PARENT
REMARK Flexibility Score: inf
ROOT
ATOM      1  C   UNL     1      -1.700 -10.828  -9.436  1.00  0.00     0.053 C 
ENDROOT
BRANCH   1   2
ATOM      2  C   UNL     1      -2.698 -10.273 -10.405  1.00  0.00     0.041 C 
ATOM      3  O   UNL     1      -2.375  -9.334 -11.180  1.00  0.00    -0.550 OA
ATOM      4  O   UNL     1      -3.977 -10.813 -10.475  1.00  0.00    -0.550 OA
ENDBRANCH   1   2
BRANCH   1   5
ATOM      5  C   UNL     1      -1.606 -12.356  -9.529  1.00  0.00     0.006 C 
BRANCH   5   6
ATOM      6  C   UNL     1      -0.194 -12.872  -9.220  1.00  0.00    -0.003 C 
ATOM      7  C   UNL     1       0.790 -12.470 -10.315  1.00  0.00     0.004 C 
ENDBRANCH   5   6
ENDBRANCH   1   5
TORSDOF 3
ENDMDL
MODEL 9
REMARK VINA RESULT:    -2.405      2.386      3.456
REMARK INTER + INTRA:          -2.930
REMARK INTER:                  -2.880
REMARK INTRA:                  -0.050
REMARK UNBOUND:                -0.103
REMARK SMILES CCCCC(=O)[O-]
REMARK SMILES IDX 4 1 5 2 6 3 7 4 3 5 2 6 1 7
REMARK H PARENT
REMARK Flexibility Score: inf
ROOT
ATOM      1  C   UNL     1      -7.850   4.878  -8.452  1.00  0.00     0.053 C 
ENDROOT
BRANCH   1   2
ATOM      2  C   UNL     1      -8.046   6.320  -8.809  1.00  0.00     0.041 C 
ATOM      3  O   UNL     1      -7.080   7.125  -8.748  1.00  0.00    -0.550 OA
ATOM      4  O   UNL     1      -9.289   6.767  -9.241  1.00  0.00    -0.550 OA
ENDBRANCH   1   2
BRANCH   1   5
ATOM      5  C   UNL     1      -9.022   4.331  -7.627  1.00  0.00     0.006 C 
BRANCH   5   6
ATOM      6  C   UNL     1      -9.873   3.329  -8.420  1.00  0.00    -0.003 C 
ATOM      7  C   UNL     1      -9.249   1.936  -8.393  1.00  0.00     0.004 C 
ENDBRANCH   5   6
ENDBRANCH   1   5
TORSDOF 3
ENDMDL
