MODEL 1
REMARK VINA RESULT:    -8.639      0.000      0.000
REMARK INTER + INTRA:         -16.804
REMARK INTER:                 -14.195
REMARK INTRA:                  -2.609
REMARK UNBOUND:                -2.609
REMARK SMILES C[C@H]1O[C@@H](OC[C@@H]2O[C@@H](Oc3c(-c4ccc(O)c(O)c4)oc4cc(O)cc(O)c4c3=O)[C@H](O)[C@H](O)[C@@H]2O)[C@@H](O)[C@H](O)[C@H]1O
REMARK SMILES IDX 7 1 36 2 34 3 32 4 9 5 8 6 6 7 5 8 4 9 1 10 2 11 42 12 3 13
REMARK SMILES IDX 40 14 38 15 43 16 41 18 39 20 37 22 35 24 10 26 11 27 12 28
REMARK SMILES IDX 30 29 21 30 29 31 31 32 22 33 27 34 23 35 26 36 24 37 13 38
REMARK SMILES IDX 20 39 14 40 18 41 15 42 16 43 19 44 17 46 28 48 25 50 33 52
REMARK H PARENT 43 17 41 19 39 21 37 23 35 25 19 45 17 47 28 49 25 51 33 53
REMARK Flexibility Score: inf
ROOT
ATOM      1  C   UNL     1       4.412  -3.055  20.101  1.00  0.00     0.180 C 
ATOM      2  C   UNL     1       5.700  -2.282  20.491  1.00  0.00     0.177 C 
ATOM      3  C   UNL     1       6.145  -1.386  19.322  1.00  0.00     0.180 C 
ATOM      4  C   UNL     1       6.216  -2.186  18.004  1.00  0.00     0.214 C 
ATOM      5  C   UNL     1       4.924  -3.010  17.798  1.00  0.00     0.339 C 
ATOM      6  O   UNL     1       4.617  -3.824  18.921  1.00  0.00    -0.332 OA
ENDROOT
BRANCH   1   7
ATOM      7  C   UNL     1       3.966  -3.997  21.242  1.00  0.00     0.198 C 
BRANCH   7   8
ATOM      8  O   UNL     1       4.544  -5.283  21.080  1.00  0.00    -0.347 OA
BRANCH   8   9
ATOM      9  C   UNL     1       4.004  -6.192  22.025  1.00  0.00     0.281 C 
ATOM     10  C   UNL     1       1.472  -5.662  24.617  1.00  0.00     0.041 C 
ATOM     11  C   UNL     1       2.245  -6.452  23.552  1.00  0.00     0.150 C 
ATOM     12  C   UNL     1       3.067  -7.641  24.155  1.00  0.00     0.174 C 
ATOM     13  O   UNL     1       3.053  -5.524  22.837  1.00  0.00    -0.344 OA
ATOM     14  C   UNL     1       4.556  -7.239  24.285  1.00  0.00     0.179 C 
ATOM     15  C   UNL     1       5.130  -6.751  22.926  1.00  0.00     0.202 C 
BRANCH  12  16
ATOM     16  O   UNL     1       2.562  -8.033  25.409  1.00  0.00    -0.388 OA
ATOM     17  H   UNL     1       2.348  -7.202  25.913  1.00  0.00     0.211 HD
ENDBRANCH  12  16
BRANCH  14  18
ATOM     18  O   UNL     1       5.330  -8.296  24.803  1.00  0.00    -0.387 OA
ATOM     19  H   UNL     1       4.838  -8.699  25.565  1.00  0.00     0.211 HD
ENDBRANCH  14  18
BRANCH  15  20
ATOM     20  O   UNL     1       6.097  -5.757  23.163  1.00  0.00    -0.385 OA
ATOM     21  H   UNL     1       6.517  -5.978  24.033  1.00  0.00     0.211 HD
ENDBRANCH  15  20
ENDBRANCH   8   9
ENDBRANCH   7   8
ENDBRANCH   1   7
BRANCH   2  22
ATOM     22  O   UNL     1       6.742  -3.143  20.897  1.00  0.00    -0.387 OA
ATOM     23  H   UNL     1       6.775  -3.143  21.885  1.00  0.00     0.211 HD
ENDBRANCH   2  22
BRANCH   3  24
ATOM     24  O   UNL     1       7.383  -0.799  19.617  1.00  0.00    -0.387 OA
ATOM     25  H   UNL     1       7.365  -0.560  20.581  1.00  0.00     0.211 HD
ENDBRANCH   3  24
BRANCH   5  26
ATOM     26  O   UNL     1       3.816  -2.164  17.467  1.00  0.00    -0.454 OA
BRANCH  26  27
ATOM     27  C   UNL     1       2.940  -2.461  16.414  1.00  0.00     0.214 A 
ATOM     28  C   UNL     1       1.649  -2.955  16.660  1.00  0.00     0.180 A 
ATOM     29  C   UNL     1       3.351  -2.260  15.092  1.00  0.00     0.239 A 
ATOM     30  O   UNL     1       0.846  -3.254  15.648  1.00  0.00    -0.452 OA
ATOM     31  C   UNL     1       2.490  -2.625  14.026  1.00  0.00     0.111 A 
ATOM     32  O   UNL     1       4.477  -1.738  14.890  1.00  0.00    -0.285 OA
ATOM     33  C   UNL     1       1.198  -3.105  14.377  1.00  0.00     0.146 A 
ATOM     34  C   UNL     1       2.819  -2.525  12.638  1.00  0.00     0.134 A 
ATOM     35  C   UNL     1       0.259  -3.417  13.389  1.00  0.00     0.094 A 
ATOM     36  C   UNL     1       1.844  -2.818  11.674  1.00  0.00     0.093 A 
ATOM     37  C   UNL     1       0.572  -3.257  12.040  1.00  0.00     0.123 A 
BRANCH  28  38
ATOM     38  C   UNL     1       1.144  -3.114  18.030  1.00  0.00     0.025 A 
ATOM     39  C   UNL     1       1.202  -4.368  18.657  1.00  0.00     0.062 A 
ATOM     40  C   UNL     1       0.607  -2.011  18.714  1.00  0.00     0.016 A 
ATOM     41  C   UNL     1       0.742  -4.526  19.972  1.00  0.00     0.158 A 
ATOM     42  C   UNL     1       0.139  -2.165  20.020  1.00  0.00     0.051 A 
ATOM     43  C   UNL     1       0.204  -3.407  20.663  1.00  0.00     0.157 A 
BRANCH  41  44
ATOM     44  O   UNL     1       0.834  -5.797  20.547  1.00  0.00    -0.504 OA
ATOM     45  H   UNL     1       0.850  -5.961  21.543  1.00  0.00     0.293 HD
ENDBRANCH  41  44
BRANCH  43  46
ATOM     46  O   UNL     1      -0.254  -3.480  21.982  1.00  0.00    -0.504 OA
ATOM     47  H   UNL     1       0.260  -3.913  22.733  1.00  0.00     0.293 HD
ENDBRANCH  43  46
ENDBRANCH  28  38
BRANCH  34  48
ATOM     48  O   UNL     1       4.079  -2.161  12.152  1.00  0.00    -0.507 OA
ATOM     49  H   UNL     1       4.273  -1.346  11.593  1.00  0.00     0.293 HD
ENDBRANCH  34  48
BRANCH  37  50
ATOM     50  O   UNL     1      -0.379  -3.522  11.054  1.00  0.00    -0.508 OA
ATOM     51  H   UNL     1      -0.126  -3.558  10.073  1.00  0.00     0.293 HD
ENDBRANCH  37  50
ENDBRANCH  26  27
ENDBRANCH   5  26
BRANCH   4  52
ATOM     52  O   UNL     1       7.323  -3.052  18.008  1.00  0.00    -0.384 OA
ATOM     53  H   UNL     1       7.901  -2.785  17.247  1.00  0.00     0.211 HD
ENDBRANCH   4  52
TORSDOF 16
ENDMDL
MODEL 2
REMARK VINA RESULT:    -8.209      1.435      2.258
REMARK INTER + INTRA:         -16.096
REMARK INTER:                 -12.912
REMARK INTRA:                  -3.185
REMARK UNBOUND:                -2.609
REMARK SMILES C[C@H]1O[C@@H](OC[C@@H]2O[C@@H](Oc3c(-c4ccc(O)c(O)c4)oc4cc(O)cc(O)c4c3=O)[C@H](O)[C@H](O)[C@@H]2O)[C@@H](O)[C@H](O)[C@H]1O
REMARK SMILES IDX 7 1 36 2 34 3 32 4 9 5 8 6 6 7 5 8 4 9 1 10 2 11 42 12 3 13
REMARK SMILES IDX 40 14 38 15 43 16 41 18 39 20 37 22 35 24 10 26 11 27 12 28
REMARK SMILES IDX 30 29 21 30 29 31 31 32 22 33 27 34 23 35 26 36 24 37 13 38
REMARK SMILES IDX 20 39 14 40 18 41 15 42 16 43 19 44 17 46 28 48 25 50 33 52
REMARK H PARENT 43 17 41 19 39 21 37 23 35 25 19 45 17 47 28 49 25 51 33 53
REMARK Flexibility Score: inf
ROOT
ATOM      1  C   UNL     1       4.531  -2.896  20.084  1.00  0.00     0.180 C 
ATOM      2  C   UNL     1       5.850  -2.165  20.450  1.00  0.00     0.177 C 
ATOM      3  C   UNL     1       6.337  -1.335  19.250  1.00  0.00     0.180 C 
ATOM      4  C   UNL     1       6.377  -2.187  17.964  1.00  0.00     0.214 C 
ATOM      5  C   UNL     1       5.051  -2.962  17.783  1.00  0.00     0.339 C 
ATOM      6  O   UNL     1       4.706  -3.718  18.935  1.00  0.00    -0.332 OA
ENDROOT
BRANCH   1   7
ATOM      7  C   UNL     1       4.041  -3.774  21.258  1.00  0.00     0.198 C 
BRANCH   7   8
ATOM      8  O   UNL     1       3.531  -2.964  22.305  1.00  0.00    -0.347 OA
BRANCH   8   9
ATOM      9  C   UNL     1       3.039  -3.772  23.362  1.00  0.00     0.281 C 
ATOM     10  C   UNL     1       1.343  -7.015  23.250  1.00  0.00     0.041 C 
ATOM     11  C   UNL     1       2.255  -5.930  23.837  1.00  0.00     0.150 C 
ATOM     12  C   UNL     1       1.707  -5.335  25.178  1.00  0.00     0.174 C 
ATOM     13  O   UNL     1       2.445  -4.942  22.828  1.00  0.00    -0.344 OA
ATOM     14  C   UNL     1       1.021  -3.974  24.910  1.00  0.00     0.179 C 
ATOM     15  C   UNL     1       1.979  -2.994  24.174  1.00  0.00     0.202 C 
BRANCH  12  16
ATOM     16  O   UNL     1       0.803  -6.215  25.801  1.00  0.00    -0.388 OA
ATOM     17  H   UNL     1       1.343  -6.896  26.286  1.00  0.00     0.211 HD
ENDBRANCH  12  16
BRANCH  14  18
ATOM     18  O   UNL     1       0.537  -3.398  26.101  1.00  0.00    -0.387 OA
ATOM     19  H   UNL     1       0.333  -4.130  26.740  1.00  0.00     0.211 HD
ENDBRANCH  14  18
BRANCH  15  20
ATOM     20  O   UNL     1       1.227  -2.168  23.320  1.00  0.00    -0.385 OA
ATOM     21  H   UNL     1       1.746  -1.330  23.212  1.00  0.00     0.211 HD
ENDBRANCH  15  20
ENDBRANCH   8   9
ENDBRANCH   7   8
ENDBRANCH   1   7
BRANCH   2  22
ATOM     22  O   UNL     1       6.853  -3.054  20.893  1.00  0.00    -0.387 OA
ATOM     23  H   UNL     1       6.945  -2.952  21.873  1.00  0.00     0.211 HD
ENDBRANCH   2  22
BRANCH   3  24
ATOM     24  O   UNL     1       7.598  -0.790  19.528  1.00  0.00    -0.387 OA
ATOM     25  H   UNL     1       7.560  -0.439  20.456  1.00  0.00     0.211 HD
ENDBRANCH   3  24
BRANCH   5  26
ATOM     26  O   UNL     1       3.982  -2.082  17.414  1.00  0.00    -0.454 OA
BRANCH  26  27
ATOM     27  C   UNL     1       3.151  -2.338  16.316  1.00  0.00     0.214 A 
ATOM     28  C   UNL     1       1.890  -2.935  16.482  1.00  0.00     0.180 A 
ATOM     29  C   UNL     1       3.575  -1.993  15.029  1.00  0.00     0.239 A 
ATOM     30  O   UNL     1       1.130  -3.192  15.427  1.00  0.00    -0.452 OA
ATOM     31  C   UNL     1       2.763  -2.315  13.912  1.00  0.00     0.111 A 
ATOM     32  O   UNL     1       4.668  -1.383  14.904  1.00  0.00    -0.285 OA
ATOM     33  C   UNL     1       1.499  -2.907  14.183  1.00  0.00     0.146 A 
ATOM     34  C   UNL     1       3.114  -2.069  12.548  1.00  0.00     0.134 A 
ATOM     35  C   UNL     1       0.604  -3.189  13.146  1.00  0.00     0.094 A 
ATOM     36  C   UNL     1       2.181  -2.337  11.535  1.00  0.00     0.093 A 
ATOM     37  C   UNL     1       0.934  -2.888  11.826  1.00  0.00     0.123 A 
BRANCH  28  38
ATOM     38  C   UNL     1       1.368  -3.250  17.818  1.00  0.00     0.025 A 
ATOM     39  C   UNL     1       0.806  -2.235  18.608  1.00  0.00     0.062 A 
ATOM     40  C   UNL     1       1.426  -4.567  18.304  1.00  0.00     0.016 A 
ATOM     41  C   UNL     1       0.287  -2.528  19.877  1.00  0.00     0.158 A 
ATOM     42  C   UNL     1       0.918  -4.862  19.570  1.00  0.00     0.051 A 
ATOM     43  C   UNL     1       0.342  -3.863  20.363  1.00  0.00     0.157 A 
BRANCH  41  44
ATOM     44  O   UNL     1      -0.268  -1.478  20.613  1.00  0.00    -0.504 OA
ATOM     45  H   UNL     1      -0.487  -1.537  21.597  1.00  0.00     0.293 HD
ENDBRANCH  41  44
BRANCH  43  46
ATOM     46  O   UNL     1      -0.175  -4.238  21.607  1.00  0.00    -0.504 OA
ATOM     47  H   UNL     1      -0.471  -3.584  22.314  1.00  0.00     0.293 HD
ENDBRANCH  43  46
ENDBRANCH  28  38
BRANCH  34  48
ATOM     48  O   UNL     1       4.357  -1.582  12.130  1.00  0.00    -0.507 OA
ATOM     49  H   UNL     1       5.200  -2.128  12.056  1.00  0.00     0.293 HD
ENDBRANCH  34  48
BRANCH  37  50
ATOM     50  O   UNL     1       0.024  -3.124  10.795  1.00  0.00    -0.508 OA
ATOM     51  H   UNL     1      -0.970  -2.969  10.923  1.00  0.00     0.293 HD
ENDBRANCH  37  50
ENDBRANCH  26  27
ENDBRANCH   5  26
BRANCH   4  52
ATOM     52  O   UNL     1       7.445  -3.099  18.005  1.00  0.00    -0.384 OA
ATOM     53  H   UNL     1       8.137  -2.707  18.598  1.00  0.00     0.211 HD
ENDBRANCH   4  52
TORSDOF 16
ENDMDL
MODEL 3
REMARK VINA RESULT:    -7.493      2.099      9.307
REMARK INTER + INTRA:         -14.920
REMARK INTER:                 -14.060
REMARK INTRA:                  -0.860
REMARK UNBOUND:                -2.609
REMARK SMILES C[C@H]1O[C@@H](OC[C@@H]2O[C@@H](Oc3c(-c4ccc(O)c(O)c4)oc4cc(O)cc(O)c4c3=O)[C@H](O)[C@H](O)[C@@H]2O)[C@@H](O)[C@H](O)[C@H]1O
REMARK SMILES IDX 7 1 36 2 34 3 32 4 9 5 8 6 6 7 5 8 4 9 1 10 2 11 42 12 3 13
REMARK SMILES IDX 40 14 38 15 43 16 41 18 39 20 37 22 35 24 10 26 11 27 12 28
REMARK SMILES IDX 30 29 21 30 29 31 31 32 22 33 27 34 23 35 26 36 24 37 13 38
REMARK SMILES IDX 20 39 14 40 18 41 15 42 16 43 19 44 17 46 28 48 25 50 33 52
REMARK H PARENT 43 17 41 19 39 21 37 23 35 25 19 45 17 47 28 49 25 51 33 53
REMARK Flexibility Score: inf
ROOT
ATOM      1  C   UNL     1       1.352  -2.217  14.718  1.00  0.00     0.180 C 
ATOM      2  C   UNL     1       2.085  -1.686  13.457  1.00  0.00     0.177 C 
ATOM      3  C   UNL     1       3.606  -1.726  13.682  1.00  0.00     0.180 C 
ATOM      4  C   UNL     1       3.988  -1.048  15.015  1.00  0.00     0.214 C 
ATOM      5  C   UNL     1       3.099  -1.572  16.167  1.00  0.00     0.339 C 
ATOM      6  O   UNL     1       1.714  -1.465  15.870  1.00  0.00    -0.332 OA
ENDROOT
BRANCH   1   7
ATOM      7  C   UNL     1      -0.181  -2.147  14.536  1.00  0.00     0.198 C 
BRANCH   7   8
ATOM      8  O   UNL     1      -0.508  -1.733  13.219  1.00  0.00    -0.347 OA
BRANCH   8   9
ATOM      9  C   UNL     1      -1.002  -2.826  12.463  1.00  0.00     0.281 C 
ATOM     10  C   UNL     1      -0.234  -6.397  12.714  1.00  0.00     0.041 C 
ATOM     11  C   UNL     1      -1.110  -5.168  12.441  1.00  0.00     0.150 C 
ATOM     12  C   UNL     1      -1.530  -5.042  10.937  1.00  0.00     0.174 C 
ATOM     13  O   UNL     1      -0.403  -4.027  12.918  1.00  0.00    -0.344 OA
ATOM     14  C   UNL     1      -0.636  -3.998  10.226  1.00  0.00     0.179 C 
ATOM     15  C   UNL     1      -0.666  -2.631  10.966  1.00  0.00     0.202 C 
BRANCH  12  16
ATOM     16  O   UNL     1      -1.446  -6.280  10.273  1.00  0.00    -0.388 OA
ATOM     17  H   UNL     1      -2.301  -6.761  10.439  1.00  0.00     0.211 HD
ENDBRANCH  12  16
BRANCH  14  18
ATOM     18  O   UNL     1      -1.002  -3.841   8.875  1.00  0.00    -0.387 OA
ATOM     19  H   UNL     1      -0.542  -3.037   8.519  1.00  0.00     0.211 HD
ENDBRANCH  14  18
BRANCH  15  20
ATOM     20  O   UNL     1       0.587  -2.005  10.831  1.00  0.00    -0.385 OA
ATOM     21  H   UNL     1       0.423  -1.152  10.354  1.00  0.00     0.211 HD
ENDBRANCH  15  20
ENDBRANCH   8   9
ENDBRANCH   7   8
ENDBRANCH   1   7
BRANCH   2  22
ATOM     22  O   UNL     1       1.659  -0.392  13.090  1.00  0.00    -0.387 OA
ATOM     23  H   UNL     1       2.214  -0.088  12.331  1.00  0.00     0.211 HD
ENDBRANCH   2  22
BRANCH   3  24
ATOM     24  O   UNL     1       4.263  -1.116  12.605  1.00  0.00    -0.387 OA
ATOM     25  H   UNL     1       4.317  -0.147  12.813  1.00  0.00     0.211 HD
ENDBRANCH   3  24
BRANCH   5  26
ATOM     26  O   UNL     1       3.442  -2.919  16.515  1.00  0.00    -0.454 OA
BRANCH  26  27
ATOM     27  C   UNL     1       3.350  -3.395  17.829  1.00  0.00     0.214 A 
ATOM     28  C   UNL     1       4.446  -3.326  18.705  1.00  0.00     0.180 A 
ATOM     29  C   UNL     1       2.149  -3.946  18.286  1.00  0.00     0.239 A 
ATOM     30  O   UNL     1       4.346  -3.806  19.937  1.00  0.00    -0.452 OA
ATOM     31  C   UNL     1       2.078  -4.490  19.594  1.00  0.00     0.111 A 
ATOM     32  O   UNL     1       1.152  -3.924  17.519  1.00  0.00    -0.285 OA
ATOM     33  C   UNL     1       3.236  -4.361  20.409  1.00  0.00     0.146 A 
ATOM     34  C   UNL     1       0.928  -5.132  20.151  1.00  0.00     0.134 A 
ATOM     35  C   UNL     1       3.228  -4.802  21.736  1.00  0.00     0.094 A 
ATOM     36  C   UNL     1       0.945  -5.536  21.494  1.00  0.00     0.093 A 
ATOM     37  C   UNL     1       2.081  -5.371  22.285  1.00  0.00     0.123 A 
BRANCH  28  38
ATOM     38  C   UNL     1       5.706  -2.691  18.298  1.00  0.00     0.025 A 
ATOM     39  C   UNL     1       6.359  -1.808  19.170  1.00  0.00     0.062 A 
ATOM     40  C   UNL     1       6.260  -2.971  17.038  1.00  0.00     0.016 A 
ATOM     41  C   UNL     1       7.574  -1.211  18.799  1.00  0.00     0.158 A 
ATOM     42  C   UNL     1       7.463  -2.374  16.660  1.00  0.00     0.051 A 
ATOM     43  C   UNL     1       8.133  -1.501  17.526  1.00  0.00     0.157 A 
BRANCH  41  44
ATOM     44  O   UNL     1       8.182  -0.348  19.714  1.00  0.00    -0.504 OA
ATOM     45  H   UNL     1       7.812   0.559  19.960  1.00  0.00     0.293 HD
ENDBRANCH  41  44
BRANCH  43  46
ATOM     46  O   UNL     1       9.350  -0.965  17.093  1.00  0.00    -0.504 OA
ATOM     47  H   UNL     1      10.188  -1.508  16.958  1.00  0.00     0.293 HD
ENDBRANCH  43  46
ENDBRANCH  28  38
BRANCH  34  48
ATOM     48  O   UNL     1      -0.242  -5.411  19.436  1.00  0.00    -0.507 OA
ATOM     49  H   UNL     1      -0.814  -6.230  19.557  1.00  0.00     0.293 HD
ENDBRANCH  34  48
BRANCH  37  50
ATOM     50  O   UNL     1       2.057  -5.769  23.622  1.00  0.00    -0.508 OA
ATOM     51  H   UNL     1       2.799  -6.334  24.019  1.00  0.00     0.293 HD
ENDBRANCH  37  50
ENDBRANCH  26  27
ENDBRANCH   5  26
BRANCH   4  52
ATOM     52  O   UNL     1       3.850   0.347  14.920  1.00  0.00    -0.384 OA
ATOM     53  H   UNL     1       4.400   0.640  14.148  1.00  0.00     0.211 HD
ENDBRANCH   4  52
TORSDOF 16
ENDMDL
MODEL 4
REMARK VINA RESULT:    -7.063      2.225      5.962
REMARK INTER + INTRA:         -14.214
REMARK INTER:                 -13.494
REMARK INTRA:                  -0.720
REMARK UNBOUND:                -2.609
REMARK SMILES C[C@H]1O[C@@H](OC[C@@H]2O[C@@H](Oc3c(-c4ccc(O)c(O)c4)oc4cc(O)cc(O)c4c3=O)[C@H](O)[C@H](O)[C@@H]2O)[C@@H](O)[C@H](O)[C@H]1O
REMARK SMILES IDX 7 1 36 2 34 3 32 4 9 5 8 6 6 7 5 8 4 9 1 10 2 11 42 12 3 13
REMARK SMILES IDX 40 14 38 15 43 16 41 18 39 20 37 22 35 24 10 26 11 27 12 28
REMARK SMILES IDX 30 29 21 30 29 31 31 32 22 33 27 34 23 35 26 36 24 37 13 38
REMARK SMILES IDX 20 39 14 40 18 41 15 42 16 43 19 44 17 46 28 48 25 50 33 52
REMARK H PARENT 43 17 41 19 39 21 37 23 35 25 19 45 17 47 28 49 25 51 33 53
REMARK Flexibility Score: inf
ROOT
ATOM      1  C   UNL     1       2.279  -3.644  20.326  1.00  0.00     0.180 C 
ATOM      2  C   UNL     1       3.455  -3.865  21.315  1.00  0.00     0.177 C 
ATOM      3  C   UNL     1       4.795  -3.660  20.587  1.00  0.00     0.180 C 
ATOM      4  C   UNL     1       4.850  -4.483  19.283  1.00  0.00     0.214 C 
ATOM      5  C   UNL     1       3.565  -4.272  18.450  1.00  0.00     0.339 C 
ATOM      6  O   UNL     1       2.386  -4.513  19.205  1.00  0.00    -0.332 OA
ENDROOT
BRANCH   1   7
ATOM      7  C   UNL     1       0.920  -3.886  21.021  1.00  0.00     0.198 C 
BRANCH   7   8
ATOM      8  O   UNL     1      -0.114  -3.186  20.348  1.00  0.00    -0.347 OA
BRANCH   8   9
ATOM      9  C   UNL     1      -0.296  -1.900  20.919  1.00  0.00     0.281 C 
ATOM     10  C   UNL     1      -1.838  -0.937  24.097  1.00  0.00     0.041 C 
ATOM     11  C   UNL     1      -0.853  -0.825  22.927  1.00  0.00     0.150 C 
ATOM     12  C   UNL     1      -1.075   0.465  22.066  1.00  0.00     0.174 C 
ATOM     13  O   UNL     1      -0.958  -2.025  22.166  1.00  0.00    -0.344 OA
ATOM     14  C   UNL     1      -1.858   0.112  20.779  1.00  0.00     0.179 C 
ATOM     15  C   UNL     1      -1.153  -1.020  19.980  1.00  0.00     0.202 C 
BRANCH  12  16
ATOM     16  O   UNL     1      -1.760   1.457  22.791  1.00  0.00    -0.388 OA
ATOM     17  H   UNL     1      -2.278   1.996  22.135  1.00  0.00     0.211 HD
ENDBRANCH  12  16
BRANCH  14  18
ATOM     18  O   UNL     1      -2.055   1.247  19.969  1.00  0.00    -0.387 OA
ATOM     19  H   UNL     1      -1.908   0.984  19.023  1.00  0.00     0.211 HD
ENDBRANCH  14  18
BRANCH  15  20
ATOM     20  O   UNL     1      -2.125  -1.806  19.336  1.00  0.00    -0.385 OA
ATOM     21  H   UNL     1      -1.807  -2.743  19.388  1.00  0.00     0.211 HD
ENDBRANCH  15  20
ENDBRANCH   8   9
ENDBRANCH   7   8
ENDBRANCH   1   7
BRANCH   2  22
ATOM     22  O   UNL     1       3.403  -5.130  21.938  1.00  0.00    -0.387 OA
ATOM     23  H   UNL     1       3.547  -5.003  22.908  1.00  0.00     0.211 HD
ENDBRANCH   2  22
BRANCH   3  24
ATOM     24  O   UNL     1       5.855  -3.999  21.438  1.00  0.00    -0.387 OA
ATOM     25  H   UNL     1       6.521  -4.488  20.887  1.00  0.00     0.211 HD
ENDBRANCH   3  24
BRANCH   5  26
ATOM     26  O   UNL     1       3.535  -2.963  17.867  1.00  0.00    -0.454 OA
BRANCH  26  27
ATOM     27  C   UNL     1       3.372  -2.765  16.490  1.00  0.00     0.214 A 
ATOM     28  C   UNL     1       4.427  -2.288  15.694  1.00  0.00     0.180 A 
ATOM     29  C   UNL     1       2.142  -3.048  15.888  1.00  0.00     0.239 A 
ATOM     30  O   UNL     1       4.244  -2.083  14.397  1.00  0.00    -0.452 OA
ATOM     31  C   UNL     1       1.957  -2.782  14.507  1.00  0.00     0.111 A 
ATOM     32  O   UNL     1       1.234  -3.553  16.596  1.00  0.00    -0.285 OA
ATOM     33  C   UNL     1       3.088  -2.312  13.785  1.00  0.00     0.146 A 
ATOM     34  C   UNL     1       0.732  -2.972  13.795  1.00  0.00     0.134 A 
ATOM     35  C   UNL     1       3.016  -2.096  12.405  1.00  0.00     0.094 A 
ATOM     36  C   UNL     1       0.702  -2.774  12.407  1.00  0.00     0.093 A 
ATOM     37  C   UNL     1       1.832  -2.344  11.712  1.00  0.00     0.123 A 
BRANCH  28  38
ATOM     38  C   UNL     1       5.759  -2.045  16.263  1.00  0.00     0.025 A 
ATOM     39  C   UNL     1       5.896  -1.766  17.631  1.00  0.00     0.062 A 
ATOM     40  C   UNL     1       6.896  -2.097  15.440  1.00  0.00     0.016 A 
ATOM     41  C   UNL     1       7.165  -1.553  18.189  1.00  0.00     0.158 A 
ATOM     42  C   UNL     1       8.161  -1.877  15.988  1.00  0.00     0.051 A 
ATOM     43  C   UNL     1       8.313  -1.611  17.354  1.00  0.00     0.157 A 
BRANCH  41  44
ATOM     44  O   UNL     1       7.239  -1.288  19.559  1.00  0.00    -0.504 OA
ATOM     45  H   UNL     1       7.068  -0.380  19.965  1.00  0.00     0.293 HD
ENDBRANCH  41  44
BRANCH  43  46
ATOM     46  O   UNL     1       9.613  -1.433  17.839  1.00  0.00    -0.504 OA
ATOM     47  H   UNL     1      10.418  -1.289  17.251  1.00  0.00     0.293 HD
ENDBRANCH  43  46
ENDBRANCH  28  38
BRANCH  34  48
ATOM     48  O   UNL     1      -0.479  -3.337  14.393  1.00  0.00    -0.507 OA
ATOM     49  H   UNL     1      -1.096  -2.710  14.884  1.00  0.00     0.293 HD
ENDBRANCH  34  48
BRANCH  37  50
ATOM     50  O   UNL     1       1.771  -2.174  10.329  1.00  0.00    -0.508 OA
ATOM     51  H   UNL     1       2.073  -2.903   9.693  1.00  0.00     0.293 HD
ENDBRANCH  37  50
ENDBRANCH  26  27
ENDBRANCH   5  26
BRANCH   4  52
ATOM     52  O   UNL     1       4.999  -5.852  19.566  1.00  0.00    -0.384 OA
ATOM     53  H   UNL     1       5.465  -6.259  18.790  1.00  0.00     0.211 HD
ENDBRANCH   4  52
TORSDOF 16
ENDMDL
MODEL 5
REMARK VINA RESULT:    -6.828      2.271      7.659
REMARK INTER + INTRA:         -13.828
REMARK INTER:                 -12.329
REMARK INTRA:                  -1.499
REMARK UNBOUND:                -2.609
REMARK SMILES C[C@H]1O[C@@H](OC[C@@H]2O[C@@H](Oc3c(-c4ccc(O)c(O)c4)oc4cc(O)cc(O)c4c3=O)[C@H](O)[C@H](O)[C@@H]2O)[C@@H](O)[C@H](O)[C@H]1O
REMARK SMILES IDX 7 1 36 2 34 3 32 4 9 5 8 6 6 7 5 8 4 9 1 10 2 11 42 12 3 13
REMARK SMILES IDX 40 14 38 15 43 16 41 18 39 20 37 22 35 24 10 26 11 27 12 28
REMARK SMILES IDX 30 29 21 30 29 31 31 32 22 33 27 34 23 35 26 36 24 37 13 38
REMARK SMILES IDX 20 39 14 40 18 41 15 42 16 43 19 44 17 46 28 48 25 50 33 52
REMARK H PARENT 43 17 41 19 39 21 37 23 35 25 19 45 17 47 28 49 25 51 33 53
REMARK Flexibility Score: inf
ROOT
ATOM      1  C   UNL     1       0.505  -1.870  17.318  1.00  0.00     0.180 C 
ATOM      2  C   UNL     1       0.332  -1.525  15.815  1.00  0.00     0.177 C 
ATOM      3  C   UNL     1       1.485  -2.138  15.002  1.00  0.00     0.180 C 
ATOM      4  C   UNL     1       2.853  -1.777  15.619  1.00  0.00     0.214 C 
ATOM      5  C   UNL     1       2.852  -2.049  17.142  1.00  0.00     0.339 C 
ATOM      6  O   UNL     1       1.764  -1.417  17.802  1.00  0.00    -0.332 OA
ENDROOT
BRANCH   1   7
ATOM      7  C   UNL     1      -0.617  -1.230  18.166  1.00  0.00     0.198 C 
BRANCH   7   8
ATOM      8  O   UNL     1      -1.034  -2.118  19.191  1.00  0.00    -0.347 OA
BRANCH   8   9
ATOM      9  C   UNL     1      -1.511  -1.392  20.313  1.00  0.00     0.281 C 
ATOM     10  C   UNL     1      -1.622   2.220  20.900  1.00  0.00     0.041 C 
ATOM     11  C   UNL     1      -2.101   0.767  21.009  1.00  0.00     0.150 C 
ATOM     12  C   UNL     1      -2.033   0.213  22.473  1.00  0.00     0.174 C 
ATOM     13  O   UNL     1      -1.336  -0.003  20.088  1.00  0.00    -0.344 OA
ATOM     14  C   UNL     1      -0.773  -0.668  22.645  1.00  0.00     0.179 C 
ATOM     15  C   UNL     1      -0.724  -1.799  21.580  1.00  0.00     0.202 C 
BRANCH  12  16
ATOM     16  O   UNL     1      -2.027   1.255  23.419  1.00  0.00    -0.388 OA
ATOM     17  H   UNL     1      -2.975   1.495  23.598  1.00  0.00     0.211 HD
ENDBRANCH  12  16
BRANCH  14  18
ATOM     18  O   UNL     1      -0.693  -1.203  23.945  1.00  0.00    -0.387 OA
ATOM     19  H   UNL     1      -1.511  -0.938  24.443  1.00  0.00     0.211 HD
ENDBRANCH  14  18
BRANCH  15  20
ATOM     20  O   UNL     1       0.617  -2.066  21.251  1.00  0.00    -0.385 OA
ATOM     21  H   UNL     1       0.602  -2.539  20.379  1.00  0.00     0.211 HD
ENDBRANCH  15  20
ENDBRANCH   8   9
ENDBRANCH   7   8
ENDBRANCH   1   7
BRANCH   2  22
ATOM     22  O   UNL     1       0.232  -0.136  15.590  1.00  0.00    -0.387 OA
ATOM     23  H   UNL     1      -0.669   0.056  15.231  1.00  0.00     0.211 HD
ENDBRANCH   2  22
BRANCH   3  24
ATOM     24  O   UNL     1       1.408  -1.709  13.671  1.00  0.00    -0.387 OA
ATOM     25  H   UNL     1       2.330  -1.748  13.303  1.00  0.00     0.211 HD
ENDBRANCH   3  24
BRANCH   5  26
ATOM     26  O   UNL     1       2.865  -3.455  17.417  1.00  0.00    -0.454 OA
BRANCH  26  27
ATOM     27  C   UNL     1       2.784  -3.959  18.722  1.00  0.00     0.214 A 
ATOM     28  C   UNL     1       3.840  -3.792  19.633  1.00  0.00     0.180 A 
ATOM     29  C   UNL     1       1.633  -4.639  19.133  1.00  0.00     0.239 A 
ATOM     30  O   UNL     1       3.752  -4.299  20.855  1.00  0.00    -0.452 OA
ATOM     31  C   UNL     1       1.579  -5.209  20.431  1.00  0.00     0.111 A 
ATOM     32  O   UNL     1       0.663  -4.707  18.335  1.00  0.00    -0.285 OA
ATOM     33  C   UNL     1       2.692  -4.974  21.284  1.00  0.00     0.146 A 
ATOM     34  C   UNL     1       0.486  -5.975  20.943  1.00  0.00     0.134 A 
ATOM     35  C   UNL     1       2.691  -5.435  22.604  1.00  0.00     0.094 A 
ATOM     36  C   UNL     1       0.505  -6.397  22.280  1.00  0.00     0.093 A 
ATOM     37  C   UNL     1       1.593  -6.129  23.109  1.00  0.00     0.123 A 
BRANCH  28  38
ATOM     38  C   UNL     1       5.039  -3.023  19.275  1.00  0.00     0.025 A 
ATOM     39  C   UNL     1       5.389  -1.885  20.016  1.00  0.00     0.062 A 
ATOM     40  C   UNL     1       5.837  -3.430  18.193  1.00  0.00     0.016 A 
ATOM     41  C   UNL     1       6.543  -1.156  19.695  1.00  0.00     0.158 A 
ATOM     42  C   UNL     1       6.982  -2.703  17.862  1.00  0.00     0.051 A 
ATOM     43  C   UNL     1       7.351  -1.574  18.603  1.00  0.00     0.157 A 
BRANCH  41  44
ATOM     44  O   UNL     1       6.846  -0.037  20.475  1.00  0.00    -0.504 OA
ATOM     45  H   UNL     1       6.419   0.869  20.346  1.00  0.00     0.293 HD
ENDBRANCH  41  44
BRANCH  43  46
ATOM     46  O   UNL     1       8.528  -0.913  18.235  1.00  0.00    -0.504 OA
ATOM     47  H   UNL     1       8.737  -0.618  17.294  1.00  0.00     0.293 HD
ENDBRANCH  43  46
ENDBRANCH  28  38
BRANCH  34  48
ATOM     48  O   UNL     1      -0.627  -6.361  20.188  1.00  0.00    -0.507 OA
ATOM     49  H   UNL     1      -1.193  -5.744  19.630  1.00  0.00     0.293 HD
ENDBRANCH  34  48
BRANCH  37  50
ATOM     50  O   UNL     1       1.569  -6.548  24.440  1.00  0.00    -0.508 OA
ATOM     51  H   UNL     1       1.453  -5.887  25.200  1.00  0.00     0.293 HD
ENDBRANCH  37  50
ENDBRANCH  26  27
ENDBRANCH   5  26
BRANCH   4  52
ATOM     52  O   UNL     1       3.160  -0.425  15.390  1.00  0.00    -0.384 OA
ATOM     53  H   UNL     1       2.884   0.076  16.201  1.00  0.00     0.211 HD
ENDBRANCH   4  52
TORSDOF 16
ENDMDL
MODEL 6
REMARK VINA RESULT:    -6.785      3.071      5.821
REMARK INTER + INTRA:         -13.758
REMARK INTER:                 -11.914
REMARK INTRA:                  -1.843
REMARK UNBOUND:                -2.609
REMARK SMILES C[C@H]1O[C@@H](OC[C@@H]2O[C@@H](Oc3c(-c4ccc(O)c(O)c4)oc4cc(O)cc(O)c4c3=O)[C@H](O)[C@H](O)[C@@H]2O)[C@@H](O)[C@H](O)[C@H]1O
REMARK SMILES IDX 7 1 36 2 34 3 32 4 9 5 8 6 6 7 5 8 4 9 1 10 2 11 42 12 3 13
REMARK SMILES IDX 40 14 38 15 43 16 41 18 39 20 37 22 35 24 10 26 11 27 12 28
REMARK SMILES IDX 30 29 21 30 29 31 31 32 22 33 27 34 23 35 26 36 24 37 13 38
REMARK SMILES IDX 20 39 14 40 18 41 15 42 16 43 19 44 17 46 28 48 25 50 33 52
REMARK H PARENT 43 17 41 19 39 21 37 23 35 25 19 45 17 47 28 49 25 51 33 53
REMARK Flexibility Score: inf
ROOT
ATOM      1  C   UNL     1       0.410  -2.265  21.210  1.00  0.00     0.180 C 
ATOM      2  C   UNL     1       1.040  -3.570  21.765  1.00  0.00     0.177 C 
ATOM      3  C   UNL     1       1.979  -4.185  20.713  1.00  0.00     0.180 C 
ATOM      4  C   UNL     1       1.275  -4.309  19.345  1.00  0.00     0.214 C 
ATOM      5  C   UNL     1       0.580  -2.980  18.968  1.00  0.00     0.339 C 
ATOM      6  O   UNL     1      -0.285  -2.513  19.993  1.00  0.00    -0.332 OA
ENDROOT
BRANCH   1   7
ATOM      7  C   UNL     1      -0.573  -1.648  22.231  1.00  0.00     0.198 C 
BRANCH   7   8
ATOM      8  O   UNL     1      -0.219  -2.025  23.552  1.00  0.00    -0.347 OA
BRANCH   8   9
ATOM      9  C   UNL     1      -0.078  -0.877  24.374  1.00  0.00     0.281 C 
ATOM     10  C   UNL     1       0.406   2.632  23.449  1.00  0.00     0.041 C 
ATOM     11  C   UNL     1      -0.101   1.466  24.307  1.00  0.00     0.150 C 
ATOM     12  C   UNL     1       0.564   1.420  25.725  1.00  0.00     0.174 C 
ATOM     13  O   UNL     1       0.100   0.270  23.561  1.00  0.00    -0.344 OA
ATOM     14  C   UNL     1       1.685   0.354  25.747  1.00  0.00     0.179 C 
ATOM     15  C   UNL     1       1.153  -1.036  25.297  1.00  0.00     0.202 C 
BRANCH  12  16
ATOM     16  O   UNL     1       1.085   2.675  26.090  1.00  0.00    -0.388 OA
ATOM     17  H   UNL     1       1.888   2.836  25.525  1.00  0.00     0.211 HD
ENDBRANCH  12  16
BRANCH  14  18
ATOM     18  O   UNL     1       2.290   0.269  27.016  1.00  0.00    -0.387 OA
ATOM     19  H   UNL     1       2.674  -0.641  27.119  1.00  0.00     0.211 HD
ENDBRANCH  14  18
BRANCH  15  20
ATOM     20  O   UNL     1       2.176  -1.726  24.623  1.00  0.00    -0.385 OA
ATOM     21  H   UNL     1       1.756  -2.535  24.230  1.00  0.00     0.211 HD
ENDBRANCH  15  20
ENDBRANCH   8   9
ENDBRANCH   7   8
ENDBRANCH   1   7
BRANCH   2  22
ATOM     22  O   UNL     1       0.067  -4.502  22.184  1.00  0.00    -0.387 OA
ATOM     23  H   UNL     1      -0.826  -4.137  21.964  1.00  0.00     0.211 HD
ENDBRANCH   2  22
BRANCH   3  24
ATOM     24  O   UNL     1       2.436  -5.434  21.155  1.00  0.00    -0.387 OA
ATOM     25  H   UNL     1       1.985  -5.614  22.021  1.00  0.00     0.211 HD
ENDBRANCH   3  24
BRANCH   5  26
ATOM     26  O   UNL     1       1.540  -1.975  18.616  1.00  0.00    -0.454 OA
BRANCH  26  27
ATOM     27  C   UNL     1       2.119  -1.911  17.342  1.00  0.00     0.214 A 
ATOM     28  C   UNL     1       3.504  -2.061  17.165  1.00  0.00     0.180 A 
ATOM     29  C   UNL     1       1.310  -1.699  16.222  1.00  0.00     0.239 A 
ATOM     30  O   UNL     1       4.034  -1.971  15.953  1.00  0.00    -0.452 OA
ATOM     31  C   UNL     1       1.904  -1.565  14.941  1.00  0.00     0.111 A 
ATOM     32  O   UNL     1       0.063  -1.651  16.386  1.00  0.00    -0.285 OA
ATOM     33  C   UNL     1       3.312  -1.745  14.862  1.00  0.00     0.146 A 
ATOM     34  C   UNL     1       1.190  -1.288  13.734  1.00  0.00     0.134 A 
ATOM     35  C   UNL     1       3.970  -1.706  13.629  1.00  0.00     0.094 A 
ATOM     36  C   UNL     1       1.877  -1.284  12.511  1.00  0.00     0.093 A 
ATOM     37  C   UNL     1       3.254  -1.494  12.452  1.00  0.00     0.123 A 
BRANCH  28  38
ATOM     38  C   UNL     1       4.388  -2.358  18.299  1.00  0.00     0.025 A 
ATOM     39  C   UNL     1       4.992  -1.310  19.010  1.00  0.00     0.062 A 
ATOM     40  C   UNL     1       4.625  -3.691  18.676  1.00  0.00     0.016 A 
ATOM     41  C   UNL     1       5.822  -1.583  20.108  1.00  0.00     0.158 A 
ATOM     42  C   UNL     1       5.457  -3.968  19.762  1.00  0.00     0.051 A 
ATOM     43  C   UNL     1       6.055  -2.932  20.489  1.00  0.00     0.157 A 
BRANCH  41  44
ATOM     44  O   UNL     1       6.388  -0.498  20.782  1.00  0.00    -0.504 OA
ATOM     45  H   UNL     1       6.958  -0.588  21.611  1.00  0.00     0.293 HD
ENDBRANCH  41  44
BRANCH  43  46
ATOM     46  O   UNL     1       6.850  -3.283  21.585  1.00  0.00    -0.504 OA
ATOM     47  H   UNL     1       6.966  -4.227  21.917  1.00  0.00     0.293 HD
ENDBRANCH  43  46
ENDBRANCH  28  38
BRANCH  34  48
ATOM     48  O   UNL     1      -0.177  -0.996  13.676  1.00  0.00    -0.507 OA
ATOM     49  H   UNL     1      -0.675  -0.712  12.849  1.00  0.00     0.293 HD
ENDBRANCH  34  48
BRANCH  37  50
ATOM     50  O   UNL     1       3.901  -1.501  11.216  1.00  0.00    -0.508 OA
ATOM     51  H   UNL     1       3.384  -1.409  10.349  1.00  0.00     0.293 HD
ENDBRANCH  37  50
ENDBRANCH  26  27
ENDBRANCH   5  26
BRANCH   4  52
ATOM     52  O   UNL     1       0.320  -5.340  19.369  1.00  0.00    -0.384 OA
ATOM     53  H   UNL     1      -0.504  -4.962  19.772  1.00  0.00     0.211 HD
ENDBRANCH   4  52
TORSDOF 16
ENDMDL
MODEL 7
REMARK VINA RESULT:    -6.750      2.530      6.662
REMARK INTER + INTRA:         -13.700
REMARK INTER:                 -11.618
REMARK INTRA:                  -2.081
REMARK UNBOUND:                -2.609
REMARK SMILES C[C@H]1O[C@@H](OC[C@@H]2O[C@@H](Oc3c(-c4ccc(O)c(O)c4)oc4cc(O)cc(O)c4c3=O)[C@H](O)[C@H](O)[C@@H]2O)[C@@H](O)[C@H](O)[C@H]1O
REMARK SMILES IDX 7 1 36 2 34 3 32 4 9 5 8 6 6 7 5 8 4 9 1 10 2 11 42 12 3 13
REMARK SMILES IDX 40 14 38 15 43 16 41 18 39 20 37 22 35 24 10 26 11 27 12 28
REMARK SMILES IDX 30 29 21 30 29 31 31 32 22 33 27 34 23 35 26 36 24 37 13 38
REMARK SMILES IDX 20 39 14 40 18 41 15 42 16 43 19 44 17 46 28 48 25 50 33 52
REMARK H PARENT 43 17 41 19 39 21 37 23 35 25 19 45 17 47 28 49 25 51 33 53
REMARK Flexibility Score: inf
ROOT
ATOM      1  C   UNL     1       4.513  -4.419  21.231  1.00  0.00     0.180 C 
ATOM      2  C   UNL     1       4.909  -5.412  22.356  1.00  0.00     0.177 C 
ATOM      3  C   UNL     1       3.693  -5.694  23.255  1.00  0.00     0.180 C 
ATOM      4  C   UNL     1       3.031  -4.381  23.723  1.00  0.00     0.214 C 
ATOM      5  C   UNL     1       2.807  -3.428  22.526  1.00  0.00     0.339 C 
ATOM      6  O   UNL     1       3.995  -3.211  21.778  1.00  0.00    -0.332 OA
ENDROOT
BRANCH   1   7
ATOM      7  C   UNL     1       5.728  -4.083  20.337  1.00  0.00     0.198 C 
BRANCH   7   8
ATOM      8  O   UNL     1       5.524  -2.851  19.663  1.00  0.00    -0.347 OA
BRANCH   8   9
ATOM      9  C   UNL     1       5.875  -2.971  18.294  1.00  0.00     0.281 C 
ATOM     10  C   UNL     1       8.528  -1.311  16.393  1.00  0.00     0.041 C 
ATOM     11  C   UNL     1       7.573  -2.454  16.763  1.00  0.00     0.150 C 
ATOM     12  C   UNL     1       6.525  -2.759  15.639  1.00  0.00     0.174 C 
ATOM     13  O   UNL     1       6.970  -2.118  18.009  1.00  0.00    -0.344 OA
ATOM     14  C   UNL     1       5.165  -2.114  15.998  1.00  0.00     0.179 C 
ATOM     15  C   UNL     1       4.678  -2.569  17.403  1.00  0.00     0.202 C 
BRANCH  12  16
ATOM     16  O   UNL     1       6.964  -2.293  14.386  1.00  0.00    -0.388 OA
ATOM     17  H   UNL     1       7.772  -2.820  14.143  1.00  0.00     0.211 HD
ENDBRANCH  12  16
BRANCH  14  18
ATOM     18  O   UNL     1       4.191  -2.389  15.019  1.00  0.00    -0.387 OA
ATOM     19  H   UNL     1       3.577  -3.082  15.376  1.00  0.00     0.211 HD
ENDBRANCH  14  18
BRANCH  15  20
ATOM     20  O   UNL     1       3.960  -1.519  18.004  1.00  0.00    -0.385 OA
ATOM     21  H   UNL     1       3.625  -0.949  17.265  1.00  0.00     0.211 HD
ENDBRANCH  15  20
ENDBRANCH   8   9
ENDBRANCH   7   8
ENDBRANCH   1   7
BRANCH   2  22
ATOM     22  O   UNL     1       6.008  -4.956  23.115  1.00  0.00    -0.387 OA
ATOM     23  H   UNL     1       6.771  -4.816  22.501  1.00  0.00     0.211 HD
ENDBRANCH   2  22
BRANCH   3  24
ATOM     24  O   UNL     1       4.084  -6.475  24.352  1.00  0.00    -0.387 OA
ATOM     25  H   UNL     1       4.829  -7.054  24.041  1.00  0.00     0.211 HD
ENDBRANCH   3  24
BRANCH   5  26
ATOM     26  O   UNL     1       1.752  -3.900  21.678  1.00  0.00    -0.454 OA
BRANCH  26  27
ATOM     27  C   UNL     1       0.975  -3.031  20.902  1.00  0.00     0.214 A 
ATOM     28  C   UNL     1      -0.053  -2.266  21.476  1.00  0.00     0.180 A 
ATOM     29  C   UNL     1       1.223  -2.916  19.530  1.00  0.00     0.239 A 
ATOM     30  O   UNL     1      -0.794  -1.469  20.719  1.00  0.00    -0.452 OA
ATOM     31  C   UNL     1       0.391  -2.088  18.733  1.00  0.00     0.111 A 
ATOM     32  O   UNL     1       2.199  -3.543  19.046  1.00  0.00    -0.285 OA
ATOM     33  C   UNL     1      -0.614  -1.344  19.409  1.00  0.00     0.146 A 
ATOM     34  C   UNL     1       0.506  -1.936  17.317  1.00  0.00     0.134 A 
ATOM     35  C   UNL     1      -1.430  -0.447  18.712  1.00  0.00     0.094 A 
ATOM     36  C   UNL     1      -0.308  -1.006  16.653  1.00  0.00     0.093 A 
ATOM     37  C   UNL     1      -1.266  -0.263  17.340  1.00  0.00     0.123 A 
BRANCH  28  38
ATOM     38  C   UNL     1      -0.306  -2.296  22.923  1.00  0.00     0.025 A 
ATOM     39  C   UNL     1      -0.323  -1.100  23.656  1.00  0.00     0.062 A 
ATOM     40  C   UNL     1      -0.535  -3.521  23.572  1.00  0.00     0.016 A 
ATOM     41  C   UNL     1      -0.583  -1.116  25.034  1.00  0.00     0.158 A 
ATOM     42  C   UNL     1      -0.786  -3.543  24.944  1.00  0.00     0.051 A 
ATOM     43  C   UNL     1      -0.820  -2.356  25.686  1.00  0.00     0.157 A 
BRANCH  41  44
ATOM     44  O   UNL     1      -0.597   0.108  25.709  1.00  0.00    -0.504 OA
ATOM     45  H   UNL     1      -0.530   0.195  26.713  1.00  0.00     0.293 HD
ENDBRANCH  41  44
BRANCH  43  46
ATOM     46  O   UNL     1      -1.109  -2.452  27.051  1.00  0.00    -0.504 OA
ATOM     47  H   UNL     1      -0.604  -3.041  27.693  1.00  0.00     0.293 HD
ENDBRANCH  43  46
ENDBRANCH  28  38
BRANCH  34  48
ATOM     48  O   UNL     1       1.383  -2.674  16.514  1.00  0.00    -0.507 OA
ATOM     49  H   UNL     1       2.239  -3.099  16.828  1.00  0.00     0.293 HD
ENDBRANCH  34  48
BRANCH  37  50
ATOM     50  O   UNL     1      -2.047   0.666  16.651  1.00  0.00    -0.508 OA
ATOM     51  H   UNL     1      -2.215   1.594  17.023  1.00  0.00     0.293 HD
ENDBRANCH  37  50
ENDBRANCH  26  27
ENDBRANCH   5  26
BRANCH   4  52
ATOM     52  O   UNL     1       3.830  -3.737  24.684  1.00  0.00    -0.384 OA
ATOM     53  H   UNL     1       4.358  -3.047  24.206  1.00  0.00     0.211 HD
ENDBRANCH   4  52
TORSDOF 16
ENDMDL
MODEL 8
REMARK VINA RESULT:    -6.642      1.635      8.939
REMARK INTER + INTRA:         -13.522
REMARK INTER:                 -11.619
REMARK INTRA:                  -1.903
REMARK UNBOUND:                -2.609
REMARK SMILES C[C@H]1O[C@@H](OC[C@@H]2O[C@@H](Oc3c(-c4ccc(O)c(O)c4)oc4cc(O)cc(O)c4c3=O)[C@H](O)[C@H](O)[C@@H]2O)[C@@H](O)[C@H](O)[C@H]1O
REMARK SMILES IDX 7 1 36 2 34 3 32 4 9 5 8 6 6 7 5 8 4 9 1 10 2 11 42 12 3 13
REMARK SMILES IDX 40 14 38 15 43 16 41 18 39 20 37 22 35 24 10 26 11 27 12 28
REMARK SMILES IDX 30 29 21 30 29 31 31 32 22 33 27 34 23 35 26 36 24 37 13 38
REMARK SMILES IDX 20 39 14 40 18 41 15 42 16 43 19 44 17 46 28 48 25 50 33 52
REMARK H PARENT 43 17 41 19 39 21 37 23 35 25 19 45 17 47 28 49 25 51 33 53
REMARK Flexibility Score: inf
ROOT
ATOM      1  C   UNL     1       3.354  -3.113  18.680  1.00  0.00     0.180 C 
ATOM      2  C   UNL     1       4.760  -2.870  18.071  1.00  0.00     0.177 C 
ATOM      3  C   UNL     1       5.820  -3.634  18.885  1.00  0.00     0.180 C 
ATOM      4  C   UNL     1       5.682  -3.338  20.393  1.00  0.00     0.214 C 
ATOM      5  C   UNL     1       4.212  -3.492  20.845  1.00  0.00     0.339 C 
ATOM      6  O   UNL     1       3.319  -2.726  20.049  1.00  0.00    -0.332 OA
ENDROOT
BRANCH   1   7
ATOM      7  C   UNL     1       2.273  -2.322  17.908  1.00  0.00     0.198 C 
BRANCH   7   8
ATOM      8  O   UNL     1       2.779  -1.879  16.659  1.00  0.00    -0.347 OA
BRANCH   8   9
ATOM      9  C   UNL     1       1.949  -2.330  15.600  1.00  0.00     0.281 C 
ATOM     10  C   UNL     1       2.752  -2.940  12.080  1.00  0.00     0.041 C 
ATOM     11  C   UNL     1       2.026  -3.168  13.413  1.00  0.00     0.150 C 
ATOM     12  C   UNL     1       0.495  -2.845  13.334  1.00  0.00     0.174 C 
ATOM     13  O   UNL     1       2.705  -2.404  14.404  1.00  0.00    -0.344 OA
ATOM     14  C   UNL     1       0.220  -1.450  13.945  1.00  0.00     0.179 C 
ATOM     15  C   UNL     1       0.774  -1.347  15.394  1.00  0.00     0.202 C 
BRANCH  12  16
ATOM     16  O   UNL     1       0.026  -2.892  12.009  1.00  0.00    -0.388 OA
ATOM     17  H   UNL     1      -0.771  -2.299  11.957  1.00  0.00     0.211 HD
ENDBRANCH  12  16
BRANCH  14  18
ATOM     18  O   UNL     1      -1.153  -1.136  13.912  1.00  0.00    -0.387 OA
ATOM     19  H   UNL     1      -1.643  -1.826  14.432  1.00  0.00     0.211 HD
ENDBRANCH  14  18
BRANCH  15  20
ATOM     20  O   UNL     1       1.199  -0.029  15.633  1.00  0.00    -0.385 OA
ATOM     21  H   UNL     1       0.856   0.218  16.531  1.00  0.00     0.211 HD
ENDBRANCH  15  20
ENDBRANCH   8   9
ENDBRANCH   7   8
ENDBRANCH   1   7
BRANCH   2  22
ATOM     22  O   UNL     1       5.079  -1.499  17.982  1.00  0.00    -0.387 OA
ATOM     23  H   UNL     1       5.087  -1.245  17.026  1.00  0.00     0.211 HD
ENDBRANCH   2  22
BRANCH   3  24
ATOM     24  O   UNL     1       7.102  -3.303  18.425  1.00  0.00    -0.387 OA
ATOM     25  H   UNL     1       6.988  -2.586  17.747  1.00  0.00     0.211 HD
ENDBRANCH   3  24
BRANCH   5  26
ATOM     26  O   UNL     1       3.818  -4.870  20.868  1.00  0.00    -0.454 OA
BRANCH  26  27
ATOM     27  C   UNL     1       3.331  -5.486  22.028  1.00  0.00     0.214 A 
ATOM     28  C   UNL     1       2.036  -5.222  22.504  1.00  0.00     0.180 A 
ATOM     29  C   UNL     1       4.142  -6.385  22.729  1.00  0.00     0.239 A 
ATOM     30  O   UNL     1       1.605  -5.797  23.618  1.00  0.00    -0.452 OA
ATOM     31  C   UNL     1       3.675  -6.956  23.940  1.00  0.00     0.111 A 
ATOM     32  O   UNL     1       5.266  -6.676  22.245  1.00  0.00    -0.285 OA
ATOM     33  C   UNL     1       2.346  -6.637  24.332  1.00  0.00     0.146 A 
ATOM     34  C   UNL     1       4.431  -7.838  24.773  1.00  0.00     0.134 A 
ATOM     35  C   UNL     1       1.779  -7.215  25.472  1.00  0.00     0.094 A 
ATOM     36  C   UNL     1       3.822  -8.422  25.894  1.00  0.00     0.093 A 
ATOM     37  C   UNL     1       2.507  -8.120  26.243  1.00  0.00     0.123 A 
BRANCH  28  38
ATOM     38  C   UNL     1       1.120  -4.344  21.766  1.00  0.00     0.025 A 
ATOM     39  C   UNL     1       0.815  -3.069  22.268  1.00  0.00     0.062 A 
ATOM     40  C   UNL     1       0.553  -4.776  20.555  1.00  0.00     0.016 A 
ATOM     41  C   UNL     1      -0.043  -2.214  21.560  1.00  0.00     0.158 A 
ATOM     42  C   UNL     1      -0.309  -3.933  19.852  1.00  0.00     0.051 A 
ATOM     43  C   UNL     1      -0.611  -2.654  20.334  1.00  0.00     0.157 A 
BRANCH  41  44
ATOM     44  O   UNL     1      -0.302  -0.954  22.105  1.00  0.00    -0.504 OA
ATOM     45  H   UNL     1      -1.210  -0.511  22.087  1.00  0.00     0.293 HD
ENDBRANCH  41  44
BRANCH  43  46
ATOM     46  O   UNL     1      -1.456  -1.851  19.560  1.00  0.00    -0.504 OA
ATOM     47  H   UNL     1      -2.439  -2.032  19.429  1.00  0.00     0.293 HD
ENDBRANCH  43  46
ENDBRANCH  28  38
BRANCH  34  48
ATOM     48  O   UNL     1       5.776  -8.161  24.562  1.00  0.00    -0.507 OA
ATOM     49  H   UNL     1       6.424  -8.445  25.278  1.00  0.00     0.293 HD
ENDBRANCH  34  48
BRANCH  37  50
ATOM     50  O   UNL     1       1.927  -8.733  27.354  1.00  0.00    -0.508 OA
ATOM     51  H   UNL     1       2.494  -9.106  28.107  1.00  0.00     0.293 HD
ENDBRANCH  37  50
ENDBRANCH  26  27
ENDBRANCH   5  26
BRANCH   4  52
ATOM     52  O   UNL     1       6.124  -2.036  20.686  1.00  0.00    -0.384 OA
ATOM     53  H   UNL     1       6.179  -1.549  19.824  1.00  0.00     0.211 HD
ENDBRANCH   4  52
TORSDOF 16
ENDMDL
MODEL 9
REMARK VINA RESULT:    -6.572      3.109      6.474
REMARK INTER + INTRA:         -13.407
REMARK INTER:                 -11.731
REMARK INTRA:                  -1.676
REMARK UNBOUND:                -2.609
REMARK SMILES C[C@H]1O[C@@H](OC[C@@H]2O[C@@H](Oc3c(-c4ccc(O)c(O)c4)oc4cc(O)cc(O)c4c3=O)[C@H](O)[C@H](O)[C@@H]2O)[C@@H](O)[C@H](O)[C@H]1O
REMARK SMILES IDX 7 1 36 2 34 3 32 4 9 5 8 6 6 7 5 8 4 9 1 10 2 11 42 12 3 13
REMARK SMILES IDX 40 14 38 15 43 16 41 18 39 20 37 22 35 24 10 26 11 27 12 28
REMARK SMILES IDX 30 29 21 30 29 31 31 32 22 33 27 34 23 35 26 36 24 37 13 38
REMARK SMILES IDX 20 39 14 40 18 41 15 42 16 43 19 44 17 46 28 48 25 50 33 52
REMARK H PARENT 43 17 41 19 39 21 37 23 35 25 19 45 17 47 28 49 25 51 33 53
REMARK Flexibility Score: inf
ROOT
ATOM      1  C   UNL     1      -0.314  -1.870  20.629  1.00  0.00     0.180 C 
ATOM      2  C   UNL     1       0.311  -2.852  21.656  1.00  0.00     0.177 C 
ATOM      3  C   UNL     1       1.589  -3.476  21.071  1.00  0.00     0.180 C 
ATOM      4  C   UNL     1       1.331  -4.054  19.664  1.00  0.00     0.214 C 
ATOM      5  C   UNL     1       0.591  -3.023  18.780  1.00  0.00     0.339 C 
ATOM      6  O   UNL     1      -0.588  -2.530  19.398  1.00  0.00    -0.332 OA
ENDROOT
BRANCH   1   7
ATOM      7  C   UNL     1      -1.625  -1.260  21.174  1.00  0.00     0.198 C 
BRANCH   7   8
ATOM      8  O   UNL     1      -1.550  -1.097  22.581  1.00  0.00    -0.347 OA
BRANCH   8   9
ATOM      9  C   UNL     1      -1.715   0.268  22.932  1.00  0.00     0.281 C 
ATOM     10  C   UNL     1      -1.403   3.279  20.872  1.00  0.00     0.041 C 
ATOM     11  C   UNL     1      -1.965   2.404  22.000  1.00  0.00     0.150 C 
ATOM     12  C   UNL     1      -1.631   2.963  23.425  1.00  0.00     0.174 C 
ATOM     13  O   UNL     1      -1.480   1.081  21.795  1.00  0.00    -0.344 OA
ATOM     14  C   UNL     1      -0.439   2.184  24.031  1.00  0.00     0.179 C 
ATOM     15  C   UNL     1      -0.711   0.654  24.043  1.00  0.00     0.202 C 
BRANCH  12  16
ATOM     16  O   UNL     1      -1.337   4.339  23.384  1.00  0.00    -0.388 OA
ATOM     17  H   UNL     1      -1.402   4.681  24.316  1.00  0.00     0.211 HD
ENDBRANCH  12  16
BRANCH  14  18
ATOM     18  O   UNL     1      -0.127   2.646  25.324  1.00  0.00    -0.387 OA
ATOM     19  H   UNL     1       0.567   2.048  25.710  1.00  0.00     0.211 HD
ENDBRANCH  14  18
BRANCH  15  20
ATOM     20  O   UNL     1       0.502  -0.033  23.857  1.00  0.00    -0.385 OA
ATOM     21  H   UNL     1       1.219   0.651  23.897  1.00  0.00     0.211 HD
ENDBRANCH  15  20
ENDBRANCH   8   9
ENDBRANCH   7   8
ENDBRANCH   1   7
BRANCH   2  22
ATOM     22  O   UNL     1      -0.598  -3.848  22.071  1.00  0.00    -0.387 OA
ATOM     23  H   UNL     1      -0.613  -4.559  21.383  1.00  0.00     0.211 HD
ENDBRANCH   2  22
BRANCH   3  24
ATOM     24  O   UNL     1       2.074  -4.466  21.937  1.00  0.00    -0.387 OA
ATOM     25  H   UNL     1       2.857  -4.881  21.489  1.00  0.00     0.211 HD
ENDBRANCH   3  24
BRANCH   5  26
ATOM     26  O   UNL     1       1.458  -1.945  18.405  1.00  0.00    -0.454 OA
BRANCH  26  27
ATOM     27  C   UNL     1       2.156  -1.938  17.190  1.00  0.00     0.214 A 
ATOM     28  C   UNL     1       3.522  -2.256  17.135  1.00  0.00     0.180 A 
ATOM     29  C   UNL     1       1.485  -1.612  16.006  1.00  0.00     0.239 A 
ATOM     30  O   UNL     1       4.169  -2.218  15.978  1.00  0.00    -0.452 OA
ATOM     31  C   UNL     1       2.208  -1.538  14.788  1.00  0.00     0.111 A 
ATOM     32  O   UNL     1       0.245  -1.412  16.059  1.00  0.00    -0.285 OA
ATOM     33  C   UNL     1       3.584  -1.890  14.833  1.00  0.00     0.146 A 
ATOM     34  C   UNL     1       1.648  -1.159  13.528  1.00  0.00     0.134 A 
ATOM     35  C   UNL     1       4.353  -1.918  13.665  1.00  0.00     0.094 A 
ATOM     36  C   UNL     1       2.440  -1.225  12.373  1.00  0.00     0.093 A 
ATOM     37  C   UNL     1       3.780  -1.604  12.434  1.00  0.00     0.123 A 
BRANCH  28  38
ATOM     38  C   UNL     1       4.254  -2.675  18.337  1.00  0.00     0.025 A 
ATOM     39  C   UNL     1       4.252  -4.024  18.724  1.00  0.00     0.062 A 
ATOM     40  C   UNL     1       4.961  -1.728  19.096  1.00  0.00     0.016 A 
ATOM     41  C   UNL     1       4.964  -4.438  19.859  1.00  0.00     0.158 A 
ATOM     42  C   UNL     1       5.664  -2.133  20.232  1.00  0.00     0.051 A 
ATOM     43  C   UNL     1       5.682  -3.477  20.622  1.00  0.00     0.157 A 
BRANCH  41  44
ATOM     44  O   UNL     1       4.932  -5.795  20.190  1.00  0.00    -0.504 OA
ATOM     45  H   UNL     1       4.153  -6.242  20.651  1.00  0.00     0.293 HD
ENDBRANCH  41  44
BRANCH  43  46
ATOM     46  O   UNL     1       6.434  -3.816  21.752  1.00  0.00    -0.504 OA
ATOM     47  H   UNL     1       6.237  -3.479  22.681  1.00  0.00     0.293 HD
ENDBRANCH  43  46
ENDBRANCH  28  38
BRANCH  34  48
ATOM     48  O   UNL     1       0.338  -0.698  13.355  1.00  0.00    -0.507 OA
ATOM     49  H   UNL     1      -0.417  -0.837  14.006  1.00  0.00     0.293 HD
ENDBRANCH  34  48
BRANCH  37  50
ATOM     50  O   UNL     1       4.533  -1.676  11.261  1.00  0.00    -0.508 OA
ATOM     51  H   UNL     1       4.579  -2.529  10.715  1.00  0.00     0.293 HD
ENDBRANCH  37  50
ENDBRANCH  26  27
ENDBRANCH   5  26
BRANCH   4  52
ATOM     52  O   UNL     1       0.567  -5.231  19.742  1.00  0.00    -0.384 OA
ATOM     53  H   UNL     1      -0.283  -5.056  19.262  1.00  0.00     0.211 HD
ENDBRANCH   4  52
TORSDOF 16
ENDMDL
