MODEL 1
REMARK VINA RESULT:    -4.092      0.000      0.000
REMARK INTER + INTRA:          -4.932
REMARK INTER:                  -4.929
REMARK INTRA:                  -0.003
REMARK UNBOUND:                -0.003
REMARK SMILES OCC(O)CO
REMARK SMILES IDX 3 1 5 2 6 3 2 5 1 6 4 8
REMARK H PARENT 6 4 1 7 4 9
REMARK Flexibility Score: inf
ROOT
ATOM      1  C   UNL     1     -15.930   0.928 -23.509  1.00  0.00     0.165 C 
ENDROOT
BRANCH   1   2
ATOM      2  C   UNL     1     -16.145   2.397 -23.107  1.00  0.00     0.190 C 
BRANCH   2   3
ATOM      3  O   UNL     1     -16.932   2.481 -21.950  1.00  0.00    -0.394 OA
ATOM      4  H   UNL     1     -17.861   2.266 -22.223  1.00  0.00     0.210 HD
ENDBRANCH   2   3
ENDBRANCH   1   2
BRANCH   1   5
ATOM      5  C   UNL     1     -14.456   0.649 -23.823  1.00  0.00     0.190 C 
BRANCH   5   6
ATOM      6  O   UNL     1     -14.337  -0.470 -24.659  1.00  0.00    -0.394 OA
ATOM      7  H   UNL     1     -13.778  -0.182 -25.426  1.00  0.00     0.210 HD
ENDBRANCH   5   6
ENDBRANCH   1   5
BRANCH   1   8
ATOM      8  O   UNL     1     -16.351   0.077 -22.475  1.00  0.00    -0.388 OA
ATOM      9  H   UNL     1     -15.532  -0.271 -22.035  1.00  0.00     0.211 HD
ENDBRANCH   1   8
TORSDOF 5
ENDMDL
MODEL 2
REMARK VINA RESULT:    -4.021      1.878      2.674
REMARK INTER + INTRA:          -4.846
REMARK INTER:                  -4.663
REMARK INTRA:                  -0.183
REMARK UNBOUND:                -0.003
REMARK SMILES OCC(O)CO
REMARK SMILES IDX 3 1 5 2 6 3 2 5 1 6 4 8
REMARK H PARENT 6 4 1 7 4 9
REMARK Flexibility Score: inf
ROOT
ATOM      1  C   UNL     1     -15.098   0.769 -23.139  1.00  0.00     0.165 C 
ENDROOT
BRANCH   1   2
ATOM      2  C   UNL     1     -13.761   1.124 -23.810  1.00  0.00     0.190 C 
BRANCH   2   3
ATOM      3  O   UNL     1     -13.364   0.106 -24.688  1.00  0.00    -0.394 OA
ATOM      4  H   UNL     1     -13.817   0.285 -25.553  1.00  0.00     0.210 HD
ENDBRANCH   2   3
ENDBRANCH   1   2
BRANCH   1   5
ATOM      5  C   UNL     1     -16.234   0.703 -24.167  1.00  0.00     0.190 C 
BRANCH   5   6
ATOM      6  O   UNL     1     -16.003  -0.330 -25.086  1.00  0.00    -0.394 OA
ATOM      7  H   UNL     1     -15.017  -0.414 -25.163  1.00  0.00     0.210 HD
ENDBRANCH   5   6
ENDBRANCH   1   5
BRANCH   1   8
ATOM      8  O   UNL     1     -14.998  -0.468 -22.482  1.00  0.00    -0.388 OA
ATOM      9  H   UNL     1     -15.294  -1.163 -23.127  1.00  0.00     0.211 HD
ENDBRANCH   1   8
TORSDOF 5
ENDMDL
MODEL 3
REMARK VINA RESULT:    -4.015      0.651      3.136
REMARK INTER + INTRA:          -4.839
REMARK INTER:                  -4.836
REMARK INTRA:                  -0.003
REMARK UNBOUND:                -0.003
REMARK SMILES OCC(O)CO
REMARK SMILES IDX 3 1 5 2 6 3 2 5 1 6 4 8
REMARK H PARENT 6 4 1 7 4 9
REMARK Flexibility Score: inf
ROOT
ATOM      1  C   UNL     1     -15.540   0.645 -23.184  1.00  0.00     0.165 C 
ENDROOT
BRANCH   1   2
ATOM      2  C   UNL     1     -15.468   0.127 -24.631  1.00  0.00     0.190 C 
BRANCH   2   3
ATOM      3  O   UNL     1     -14.249  -0.528 -24.859  1.00  0.00    -0.394 OA
ATOM      4  H   UNL     1     -13.639  -0.256 -24.125  1.00  0.00     0.210 HD
ENDBRANCH   2   3
ENDBRANCH   1   2
BRANCH   1   5
ATOM      5  C   UNL     1     -16.018   2.100 -23.139  1.00  0.00     0.190 C 
BRANCH   5   6
ATOM      6  O   UNL     1     -16.833   2.314 -22.019  1.00  0.00    -0.394 OA
ATOM      7  H   UNL     1     -16.230   2.625 -21.295  1.00  0.00     0.210 HD
ENDBRANCH   5   6
ENDBRANCH   1   5
BRANCH   1   8
ATOM      8  O   UNL     1     -16.415  -0.152 -22.428  1.00  0.00    -0.388 OA
ATOM      9  H   UNL     1     -16.198   0.007 -21.472  1.00  0.00     0.211 HD
ENDBRANCH   1   8
TORSDOF 5
ENDMDL
MODEL 4
REMARK VINA RESULT:    -3.990      1.714      3.724
REMARK INTER + INTRA:          -4.810
REMARK INTER:                  -4.804
REMARK INTRA:                  -0.005
REMARK UNBOUND:                -0.003
REMARK SMILES OCC(O)CO
REMARK SMILES IDX 3 1 5 2 6 3 2 5 1 6 4 8
REMARK H PARENT 6 4 1 7 4 9
REMARK Flexibility Score: inf
ROOT
ATOM      1  C   UNL     1     -16.646   3.159 -22.470  1.00  0.00     0.165 C 
ENDROOT
BRANCH   1   2
ATOM      2  C   UNL     1     -16.067   1.922 -23.177  1.00  0.00     0.190 C 
BRANCH   2   3
ATOM      3  O   UNL     1     -16.391   0.755 -22.472  1.00  0.00    -0.394 OA
ATOM      4  H   UNL     1     -16.233   0.951 -21.511  1.00  0.00     0.210 HD
ENDBRANCH   2   3
ENDBRANCH   1   2
BRANCH   1   5
ATOM      5  C   UNL     1     -17.409   4.054 -23.454  1.00  0.00     0.190 C 
BRANCH   5   6
ATOM      6  O   UNL     1     -18.773   4.085 -23.130  1.00  0.00    -0.394 OA
ATOM      7  H   UNL     1     -18.958   3.245 -22.636  1.00  0.00     0.210 HD
ENDBRANCH   5   6
ENDBRANCH   1   5
BRANCH   1   8
ATOM      8  O   UNL     1     -17.512   2.766 -21.437  1.00  0.00    -0.388 OA
ATOM      9  H   UNL     1     -17.112   1.961 -21.015  1.00  0.00     0.211 HD
ENDBRANCH   1   8
TORSDOF 5
ENDMDL
MODEL 5
REMARK VINA RESULT:    -3.852      1.855      2.445
REMARK INTER + INTRA:          -4.642
REMARK INTER:                  -4.624
REMARK INTRA:                  -0.019
REMARK UNBOUND:                -0.003
REMARK SMILES OCC(O)CO
REMARK SMILES IDX 3 1 5 2 6 3 2 5 1 6 4 8
REMARK H PARENT 6 4 1 7 4 9
REMARK Flexibility Score: inf
ROOT
ATOM      1  C   UNL     1     -14.722   0.540 -24.294  1.00  0.00     0.165 C 
ENDROOT
BRANCH   1   2
ATOM      2  C   UNL     1     -15.580   0.395 -23.026  1.00  0.00     0.190 C 
BRANCH   2   3
ATOM      3  O   UNL     1     -15.042  -0.581 -22.176  1.00  0.00    -0.394 OA
ATOM      4  H   UNL     1     -15.763  -0.835 -21.543  1.00  0.00     0.210 HD
ENDBRANCH   2   3
ENDBRANCH   1   2
BRANCH   1   5
ATOM      5  C   UNL     1     -13.374   1.199 -23.980  1.00  0.00     0.190 C 
BRANCH   5   6
ATOM      6  O   UNL     1     -12.334   0.521 -24.631  1.00  0.00    -0.394 OA
ATOM      7  H   UNL     1     -11.500   0.780 -24.160  1.00  0.00     0.210 HD
ENDBRANCH   5   6
ENDBRANCH   1   5
BRANCH   1   8
ATOM      8  O   UNL     1     -14.497  -0.719 -24.873  1.00  0.00    -0.388 OA
ATOM      9  H   UNL     1     -13.705  -0.628 -25.465  1.00  0.00     0.211 HD
ENDBRANCH   1   8
TORSDOF 5
ENDMDL
MODEL 6
REMARK VINA RESULT:    -3.715      1.426      2.114
REMARK INTER + INTRA:          -4.478
REMARK INTER:                  -4.260
REMARK INTRA:                  -0.218
REMARK UNBOUND:                -0.003
REMARK SMILES OCC(O)CO
REMARK SMILES IDX 3 1 5 2 6 3 2 5 1 6 4 8
REMARK H PARENT 6 4 1 7 4 9
REMARK Flexibility Score: inf
ROOT
ATOM      1  C   UNL     1     -14.460   1.233 -23.513  1.00  0.00     0.165 C 
ENDROOT
BRANCH   1   2
ATOM      2  C   UNL     1     -15.952   0.937 -23.740  1.00  0.00     0.190 C 
BRANCH   2   3
ATOM      3  O   UNL     1     -16.358  -0.161 -22.968  1.00  0.00    -0.394 OA
ATOM      4  H   UNL     1     -15.597  -0.386 -22.372  1.00  0.00     0.210 HD
ENDBRANCH   2   3
ENDBRANCH   1   2
BRANCH   1   5
ATOM      5  C   UNL     1     -13.591   0.546 -24.572  1.00  0.00     0.190 C 
BRANCH   5   6
ATOM      6  O   UNL     1     -14.225  -0.609 -25.051  1.00  0.00    -0.394 OA
ATOM      7  H   UNL     1     -15.184  -0.375 -25.150  1.00  0.00     0.210 HD
ENDBRANCH   5   6
ENDBRANCH   1   5
BRANCH   1   8
ATOM      8  O   UNL     1     -14.229   2.618 -23.555  1.00  0.00    -0.388 OA
ATOM      9  H   UNL     1     -13.304   2.747 -23.890  1.00  0.00     0.211 HD
ENDBRANCH   1   8
TORSDOF 5
ENDMDL
MODEL 7
REMARK VINA RESULT:    -3.658      1.358      2.288
REMARK INTER + INTRA:          -4.409
REMARK INTER:                  -4.191
REMARK INTRA:                  -0.218
REMARK UNBOUND:                -0.003
REMARK SMILES OCC(O)CO
REMARK SMILES IDX 3 1 5 2 6 3 2 5 1 6 4 8
REMARK H PARENT 6 4 1 7 4 9
REMARK Flexibility Score: inf
ROOT
ATOM      1  C   UNL     1     -15.919   1.705 -23.388  1.00  0.00     0.165 C 
ENDROOT
BRANCH   1   2
ATOM      2  C   UNL     1     -14.556   2.403 -23.525  1.00  0.00     0.190 C 
BRANCH   2   3
ATOM      3  O   UNL     1     -13.530   1.458 -23.664  1.00  0.00    -0.394 OA
ATOM      4  H   UNL     1     -12.705   1.881 -23.310  1.00  0.00     0.210 HD
ENDBRANCH   2   3
ENDBRANCH   1   2
BRANCH   1   5
ATOM      5  C   UNL     1     -15.775   0.182 -23.482  1.00  0.00     0.190 C 
BRANCH   5   6
ATOM      6  O   UNL     1     -15.261  -0.336 -22.285  1.00  0.00    -0.394 OA
ATOM      7  H   UNL     1     -15.346   0.389 -21.613  1.00  0.00     0.210 HD
ENDBRANCH   5   6
ENDBRANCH   1   5
BRANCH   1   8
ATOM      8  O   UNL     1     -16.512   2.037 -22.159  1.00  0.00    -0.388 OA
ATOM      9  H   UNL     1     -16.013   1.546 -21.455  1.00  0.00     0.211 HD
ENDBRANCH   1   8
TORSDOF 5
ENDMDL
MODEL 8
REMARK VINA RESULT:    -3.653      1.342      1.922
REMARK INTER + INTRA:          -4.403
REMARK INTER:                  -4.197
REMARK INTRA:                  -0.205
REMARK UNBOUND:                -0.003
REMARK SMILES OCC(O)CO
REMARK SMILES IDX 3 1 5 2 6 3 2 5 1 6 4 8
REMARK H PARENT 6 4 1 7 4 9
REMARK Flexibility Score: inf
ROOT
ATOM      1  C   UNL     1     -15.066   1.718 -23.132  1.00  0.00     0.165 C 
ENDROOT
BRANCH   1   2
ATOM      2  C   UNL     1     -16.153   2.805 -23.077  1.00  0.00     0.190 C 
BRANCH   2   3
ATOM      3  O   UNL     1     -17.020   2.582 -21.998  1.00  0.00    -0.394 OA
ATOM      4  H   UNL     1     -17.254   3.475 -21.633  1.00  0.00     0.210 HD
ENDBRANCH   2   3
ENDBRANCH   1   2
BRANCH   1   5
ATOM      5  C   UNL     1     -15.564   0.473 -23.875  1.00  0.00     0.190 C 
BRANCH   5   6
ATOM      6  O   UNL     1     -16.453  -0.254 -23.071  1.00  0.00    -0.394 OA
ATOM      7  H   UNL     1     -16.414  -1.191 -23.395  1.00  0.00     0.210 HD
ENDBRANCH   5   6
ENDBRANCH   1   5
BRANCH   1   8
ATOM      8  O   UNL     1     -13.919   2.212 -23.774  1.00  0.00    -0.388 OA
ATOM      9  H   UNL     1     -14.193   2.480 -24.690  1.00  0.00     0.211 HD
ENDBRANCH   1   8
TORSDOF 5
ENDMDL
MODEL 9
REMARK VINA RESULT:    -3.329     13.218     13.969
REMARK INTER + INTRA:          -4.012
REMARK INTER:                  -3.805
REMARK INTRA:                  -0.208
REMARK UNBOUND:                -0.003
REMARK SMILES OCC(O)CO
REMARK SMILES IDX 3 1 5 2 6 3 2 5 1 6 4 8
REMARK H PARENT 6 4 1 7 4 9
REMARK Flexibility Score: inf
ROOT
ATOM      1  C   UNL     1      -5.511  -0.766 -32.193  1.00  0.00     0.165 C 
ENDROOT
BRANCH   1   2
ATOM      2  C   UNL     1      -6.062   0.290 -33.167  1.00  0.00     0.190 C 
BRANCH   2   3
ATOM      3  O   UNL     1      -6.243   1.517 -32.514  1.00  0.00    -0.394 OA
ATOM      4  H   UNL     1      -6.387   2.197 -33.223  1.00  0.00     0.210 HD
ENDBRANCH   2   3
ENDBRANCH   1   2
BRANCH   1   5
ATOM      5  C   UNL     1      -3.991  -0.906 -32.328  1.00  0.00     0.190 C 
BRANCH   5   6
ATOM      6  O   UNL     1      -3.414   0.326 -32.666  1.00  0.00    -0.394 OA
ATOM      7  H   UNL     1      -3.052   0.701 -31.822  1.00  0.00     0.210 HD
ENDBRANCH   5   6
ENDBRANCH   1   5
BRANCH   1   8
ATOM      8  O   UNL     1      -5.827  -0.415 -30.870  1.00  0.00    -0.388 OA
ATOM      9  H   UNL     1      -6.804  -0.236 -30.844  1.00  0.00     0.211 HD
ENDBRANCH   1   8
TORSDOF 5
ENDMDL
