MODEL 1
REMARK VINA RESULT:    -3.439      0.000      0.000
REMARK INTER + INTRA:          -8.244
REMARK INTER:                  -6.253
REMARK INTRA:                  -1.991
REMARK UNBOUND:                -1.991
REMARK SMILES CCCCCCCCCCCCCC[C@H](C)C(=O)[O-]
REMARK SMILES IDX 9 1 10 2 11 3 12 4 13 5 14 6 15 7 16 8 17 9 18 10 19 11 8 12
REMARK SMILES IDX 7 13 6 14 5 15 4 16 3 17 2 18 1 19
REMARK H PARENT
REMARK Flexibility Score: inf
ROOT
ATOM      1  C   UNL     1     -17.473  41.129  95.947  1.00  0.00     0.000 C 
ENDROOT
BRANCH   1   2
ATOM      2  C   UNL     1     -16.373  41.129  94.871  1.00  0.00     0.000 C 
BRANCH   2   3
ATOM      3  C   UNL     1     -15.531  39.841  94.877  1.00  0.00     0.000 C 
BRANCH   3   4
ATOM      4  C   UNL     1     -14.153  39.960  94.204  1.00  0.00     0.000 C 
BRANCH   4   5
ATOM      5  C   UNL     1     -13.160  40.811  95.015  1.00  0.00     0.001 C 
BRANCH   5   6
ATOM      6  C   UNL     1     -12.387  41.812  94.128  1.00  0.00     0.009 C 
BRANCH   6   7
ATOM      7  C   UNL     1     -11.246  41.164  93.313  1.00  0.00     0.032 C 
ATOM      8  C   UNL     1      -9.858  41.602  93.794  1.00  0.00     0.014 C 
BRANCH   7   9
ATOM      9  C   UNL     1     -11.408  41.504  91.856  1.00  0.00     0.044 C 
ATOM     10  O   UNL     1     -12.170  40.817  91.126  1.00  0.00    -0.550 OA
ATOM     11  O   UNL     1     -10.727  42.586  91.309  1.00  0.00    -0.550 OA
ENDBRANCH   7   9
ENDBRANCH   6   7
ENDBRANCH   5   6
ENDBRANCH   4   5
ENDBRANCH   3   4
ENDBRANCH   2   3
ENDBRANCH   1   2
BRANCH   1  12
ATOM     12  C   UNL     1     -18.888  41.145  95.344  1.00  0.00     0.000 C 
BRANCH  12  13
ATOM     13  C   UNL     1     -18.884  41.448  93.835  1.00  0.00    -0.000 C 
BRANCH  13  14
ATOM     14  C   UNL     1     -20.155  40.947  93.131  1.00  0.00    -0.000 C 
BRANCH  14  15
ATOM     15  C   UNL     1     -19.983  39.542  92.524  1.00  0.00    -0.000 C 
BRANCH  15  16
ATOM     16  C   UNL     1     -18.518  39.221  92.192  1.00  0.00    -0.000 C 
BRANCH  16  17
ATOM     17  C   UNL     1     -18.009  37.966  92.925  1.00  0.00    -0.000 C 
BRANCH  17  18
ATOM     18  C   UNL     1     -18.978  37.488  94.016  1.00  0.00    -0.003 C 
ATOM     19  C   UNL     1     -18.335  37.456  95.403  1.00  0.00     0.004 C 
ENDBRANCH  17  18
ENDBRANCH  16  17
ENDBRANCH  15  16
ENDBRANCH  14  15
ENDBRANCH  13  14
ENDBRANCH  12  13
ENDBRANCH   1  12
TORSDOF 14
ENDMDL
MODEL 2
REMARK VINA RESULT:    -3.388     13.226     14.471
REMARK INTER + INTRA:          -8.153
REMARK INTER:                  -6.651
REMARK INTRA:                  -1.502
REMARK UNBOUND:                -1.991
REMARK SMILES CCCCCCCCCCCCCC[C@H](C)C(=O)[O-]
REMARK SMILES IDX 9 1 10 2 11 3 12 4 13 5 14 6 15 7 16 8 17 9 18 10 19 11 8 12
REMARK SMILES IDX 7 13 6 14 5 15 4 16 3 17 2 18 1 19
REMARK H PARENT
REMARK Flexibility Score: inf
ROOT
ATOM      1  C   UNL     1      -2.882  38.191  97.403  1.00  0.00     0.000 C 
ENDROOT
BRANCH   1   2
ATOM      2  C   UNL     1      -2.357  39.607  97.700  1.00  0.00     0.000 C 
BRANCH   2   3
ATOM      3  C   UNL     1      -3.275  40.713  97.152  1.00  0.00     0.000 C 
BRANCH   3   4
ATOM      4  C   UNL     1      -2.558  41.833  96.378  1.00  0.00     0.000 C 
BRANCH   4   5
ATOM      5  C   UNL     1      -3.403  42.403  95.225  1.00  0.00     0.001 C 
BRANCH   5   6
ATOM      6  C   UNL     1      -3.497  43.944  95.275  1.00  0.00     0.009 C 
BRANCH   6   7
ATOM      7  C   UNL     1      -3.035  44.547  96.620  1.00  0.00     0.032 C 
ATOM      8  C   UNL     1      -4.209  45.027  97.483  1.00  0.00     0.014 C 
BRANCH   7   9
ATOM      9  C   UNL     1      -2.094  45.693  96.365  1.00  0.00     0.044 C 
ATOM     10  O   UNL     1      -1.432  45.742  95.295  1.00  0.00    -0.550 OA
ATOM     11  O   UNL     1      -1.956  46.710  97.303  1.00  0.00    -0.550 OA
ENDBRANCH   7   9
ENDBRANCH   6   7
ENDBRANCH   5   6
ENDBRANCH   4   5
ENDBRANCH   3   4
ENDBRANCH   2   3
ENDBRANCH   1   2
BRANCH   1  12
ATOM     12  C   UNL     1      -2.134  37.517  96.240  1.00  0.00     0.000 C 
BRANCH  12  13
ATOM     13  C   UNL     1      -1.058  38.427  95.623  1.00  0.00    -0.000 C 
BRANCH  13  14
ATOM     14  C   UNL     1      -1.183  38.533  94.094  1.00  0.00    -0.000 C 
BRANCH  14  15
ATOM     15  C   UNL     1      -2.467  39.261  93.654  1.00  0.00    -0.000 C 
BRANCH  15  16
ATOM     16  C   UNL     1      -2.504  39.525  92.140  1.00  0.00    -0.000 C 
BRANCH  16  17
ATOM     17  C   UNL     1      -1.096  39.592  91.520  1.00  0.00    -0.000 C 
BRANCH  17  18
ATOM     18  C   UNL     1      -0.956  38.694  90.281  1.00  0.00    -0.003 C 
ATOM     19  C   UNL     1      -1.669  39.266  89.055  1.00  0.00     0.004 C 
ENDBRANCH  17  18
ENDBRANCH  16  17
ENDBRANCH  15  16
ENDBRANCH  14  15
ENDBRANCH  13  14
ENDBRANCH  12  13
ENDBRANCH   1  12
TORSDOF 14
ENDMDL
MODEL 3
REMARK VINA RESULT:    -3.388      2.811      4.848
REMARK INTER + INTRA:          -8.151
REMARK INTER:                  -5.368
REMARK INTRA:                  -2.783
REMARK UNBOUND:                -1.991
REMARK SMILES CCCCCCCCCCCCCC[C@H](C)C(=O)[O-]
REMARK SMILES IDX 9 1 10 2 11 3 12 4 13 5 14 6 15 7 16 8 17 9 18 10 19 11 8 12
REMARK SMILES IDX 7 13 6 14 5 15 4 16 3 17 2 18 1 19
REMARK H PARENT
REMARK Flexibility Score: inf
ROOT
ATOM      1  C   UNL     1     -19.218  38.231  90.431  1.00  0.00     0.000 C 
ENDROOT
BRANCH   1   2
ATOM      2  C   UNL     1     -19.587  36.868  91.041  1.00  0.00     0.000 C 
BRANCH   2   3
ATOM      3  C   UNL     1     -18.379  35.924  91.169  1.00  0.00     0.000 C 
BRANCH   3   4
ATOM      4  C   UNL     1     -17.869  35.708  92.605  1.00  0.00     0.000 C 
BRANCH   4   5
ATOM      5  C   UNL     1     -16.527  36.411  92.878  1.00  0.00     0.001 C 
BRANCH   5   6
ATOM      6  C   UNL     1     -16.713  37.767  93.595  1.00  0.00     0.009 C 
BRANCH   6   7
ATOM      7  C   UNL     1     -15.966  38.934  92.913  1.00  0.00     0.032 C 
ATOM      8  C   UNL     1     -15.625  38.638  91.448  1.00  0.00     0.014 C 
BRANCH   7   9
ATOM      9  C   UNL     1     -14.705  39.242  93.674  1.00  0.00     0.044 C 
ATOM     10  O   UNL     1     -13.752  38.419  93.679  1.00  0.00    -0.550 OA
ATOM     11  O   UNL     1     -14.579  40.441  94.367  1.00  0.00    -0.550 OA
ENDBRANCH   7   9
ENDBRANCH   6   7
ENDBRANCH   5   6
ENDBRANCH   4   5
ENDBRANCH   3   4
ENDBRANCH   2   3
ENDBRANCH   1   2
BRANCH   1  12
ATOM     12  C   UNL     1     -19.423  39.393  91.418  1.00  0.00     0.000 C 
BRANCH  12  13
ATOM     13  C   UNL     1     -20.012  38.930  92.762  1.00  0.00    -0.000 C 
BRANCH  13  14
ATOM     14  C   UNL     1     -20.103  40.071  93.789  1.00  0.00    -0.000 C 
BRANCH  14  15
ATOM     15  C   UNL     1     -19.245  41.289  93.400  1.00  0.00    -0.000 C 
BRANCH  15  16
ATOM     16  C   UNL     1     -18.038  41.479  94.333  1.00  0.00    -0.000 C 
BRANCH  16  17
ATOM     17  C   UNL     1     -18.366  41.136  95.798  1.00  0.00    -0.000 C 
BRANCH  17  18
ATOM     18  C   UNL     1     -17.424  40.070  96.377  1.00  0.00    -0.003 C 
ATOM     19  C   UNL     1     -18.170  38.983  97.153  1.00  0.00     0.004 C 
ENDBRANCH  17  18
ENDBRANCH  16  17
ENDBRANCH  15  16
ENDBRANCH  14  15
ENDBRANCH  13  14
ENDBRANCH  12  13
ENDBRANCH   1  12
TORSDOF 14
ENDMDL
MODEL 4
REMARK VINA RESULT:    -3.386      1.990      3.156
REMARK INTER + INTRA:          -8.147
REMARK INTER:                  -5.552
REMARK INTRA:                  -2.595
REMARK UNBOUND:                -1.991
REMARK SMILES CCCCCCCCCCCCCC[C@H](C)C(=O)[O-]
REMARK SMILES IDX 9 1 10 2 11 3 12 4 13 5 14 6 15 7 16 8 17 9 18 10 19 11 8 12
REMARK SMILES IDX 7 13 6 14 5 15 4 16 3 17 2 18 1 19
REMARK H PARENT
REMARK Flexibility Score: inf
ROOT
ATOM      1  C   UNL     1     -18.978  41.196  93.803  1.00  0.00     0.000 C 
ENDROOT
BRANCH   1   2
ATOM      2  C   UNL     1     -18.969  40.936  95.319  1.00  0.00     0.000 C 
BRANCH   2   3
ATOM      3  C   UNL     1     -17.548  40.788  95.892  1.00  0.00     0.000 C 
BRANCH   3   4
ATOM      4  C   UNL     1     -16.414  41.187  94.932  1.00  0.00     0.000 C 
BRANCH   4   5
ATOM      5  C   UNL     1     -15.440  40.031  94.640  1.00  0.00     0.001 C 
BRANCH   5   6
ATOM      6  C   UNL     1     -15.753  39.327  93.301  1.00  0.00     0.009 C 
BRANCH   6   7
ATOM      7  C   UNL     1     -14.504  38.749  92.599  1.00  0.00     0.032 C 
ATOM      8  C   UNL     1     -13.196  39.295  93.184  1.00  0.00     0.014 C 
BRANCH   7   9
ATOM      9  C   UNL     1     -14.565  39.052  91.126  1.00  0.00     0.044 C 
ATOM     10  O   UNL     1     -13.590  39.606  90.553  1.00  0.00    -0.550 OA
ATOM     11  O   UNL     1     -15.691  38.712  90.387  1.00  0.00    -0.550 OA
ENDBRANCH   7   9
ENDBRANCH   6   7
ENDBRANCH   5   6
ENDBRANCH   4   5
ENDBRANCH   3   4
ENDBRANCH   2   3
ENDBRANCH   1   2
BRANCH   1  12
ATOM     12  C   UNL     1     -20.372  41.005  93.181  1.00  0.00     0.000 C 
BRANCH  12  13
ATOM     13  C   UNL     1     -20.468  39.729  92.326  1.00  0.00    -0.000 C 
BRANCH  13  14
ATOM     14  C   UNL     1     -19.100  39.272  91.794  1.00  0.00    -0.000 C 
BRANCH  14  15
ATOM     15  C   UNL     1     -18.886  37.754  91.935  1.00  0.00    -0.000 C 
BRANCH  15  16
ATOM     16  C   UNL     1     -19.499  37.191  93.227  1.00  0.00    -0.000 C 
BRANCH  16  17
ATOM     17  C   UNL     1     -18.556  37.332  94.437  1.00  0.00    -0.000 C 
BRANCH  17  18
ATOM     18  C   UNL     1     -19.306  37.283  95.776  1.00  0.00    -0.003 C 
ATOM     19  C   UNL     1     -20.778  37.677  95.643  1.00  0.00     0.004 C 
ENDBRANCH  17  18
ENDBRANCH  16  17
ENDBRANCH  15  16
ENDBRANCH  14  15
ENDBRANCH  13  14
ENDBRANCH  12  13
ENDBRANCH   1  12
TORSDOF 14
ENDMDL
MODEL 5
REMARK VINA RESULT:    -3.342     10.200     12.427
REMARK INTER + INTRA:          -8.068
REMARK INTER:                  -5.312
REMARK INTRA:                  -2.755
REMARK UNBOUND:                -1.991
REMARK SMILES CCCCCCCCCCCCCC[C@H](C)C(=O)[O-]
REMARK SMILES IDX 9 1 10 2 11 3 12 4 13 5 14 6 15 7 16 8 17 9 18 10 19 11 8 12
REMARK SMILES IDX 7 13 6 14 5 15 4 16 3 17 2 18 1 19
REMARK H PARENT
REMARK Flexibility Score: inf
ROOT
ATOM      1  C   UNL     1     -16.937  30.890  89.639  1.00  0.00     0.000 C 
ENDROOT
BRANCH   1   2
ATOM      2  C   UNL     1     -16.371  31.760  90.775  1.00  0.00     0.000 C 
BRANCH   2   3
ATOM      3  C   UNL     1     -16.685  31.197  92.172  1.00  0.00     0.000 C 
BRANCH   3   4
ATOM      4  C   UNL     1     -17.792  30.129  92.211  1.00  0.00     0.000 C 
BRANCH   4   5
ATOM      5  C   UNL     1     -17.436  28.927  93.105  1.00  0.00     0.001 C 
BRANCH   5   6
ATOM      6  C   UNL     1     -18.269  28.900  94.405  1.00  0.00     0.009 C 
BRANCH   6   7
ATOM      7  C   UNL     1     -17.765  29.885  95.483  1.00  0.00     0.032 C 
ATOM      8  C   UNL     1     -17.313  29.174  96.765  1.00  0.00     0.014 C 
BRANCH   7   9
ATOM      9  C   UNL     1     -18.848  30.877  95.810  1.00  0.00     0.044 C 
ATOM     10  O   UNL     1     -19.031  31.244  97.001  1.00  0.00    -0.550 OA
ATOM     11  O   UNL     1     -19.645  31.403  94.801  1.00  0.00    -0.550 OA
ENDBRANCH   7   9
ENDBRANCH   6   7
ENDBRANCH   5   6
ENDBRANCH   4   5
ENDBRANCH   3   4
ENDBRANCH   2   3
ENDBRANCH   1   2
BRANCH   1  12
ATOM     12  C   UNL     1     -15.866  29.993  88.994  1.00  0.00     0.000 C 
BRANCH  12  13
ATOM     13  C   UNL     1     -16.126  28.496  89.236  1.00  0.00    -0.000 C 
BRANCH  13  14
ATOM     14  C   UNL     1     -15.284  27.932  90.393  1.00  0.00    -0.000 C 
BRANCH  14  15
ATOM     15  C   UNL     1     -13.937  28.660  90.556  1.00  0.00    -0.000 C 
BRANCH  15  16
ATOM     16  C   UNL     1     -13.676  29.096  92.007  1.00  0.00    -0.000 C 
BRANCH  16  17
ATOM     17  C   UNL     1     -13.842  27.939  93.009  1.00  0.00    -0.000 C 
BRANCH  17  18
ATOM     18  C   UNL     1     -14.045  28.432  94.449  1.00  0.00    -0.003 C 
ATOM     19  C   UNL     1     -14.010  29.957  94.561  1.00  0.00     0.004 C 
ENDBRANCH  17  18
ENDBRANCH  16  17
ENDBRANCH  15  16
ENDBRANCH  14  15
ENDBRANCH  13  14
ENDBRANCH  12  13
ENDBRANCH   1  12
TORSDOF 14
ENDMDL
MODEL 6
REMARK VINA RESULT:    -3.296      1.495      3.067
REMARK INTER + INTRA:          -7.984
REMARK INTER:                  -5.508
REMARK INTRA:                  -2.476
REMARK UNBOUND:                -1.991
REMARK SMILES CCCCCCCCCCCCCC[C@H](C)C(=O)[O-]
REMARK SMILES IDX 9 1 10 2 11 3 12 4 13 5 14 6 15 7 16 8 17 9 18 10 19 11 8 12
REMARK SMILES IDX 7 13 6 14 5 15 4 16 3 17 2 18 1 19
REMARK H PARENT
REMARK Flexibility Score: inf
ROOT
ATOM      1  C   UNL     1     -19.767  41.030  93.269  1.00  0.00     0.000 C 
ENDROOT
BRANCH   1   2
ATOM      2  C   UNL     1     -18.986  41.313  94.565  1.00  0.00     0.000 C 
BRANCH   2   3
ATOM      3  C   UNL     1     -17.461  41.273  94.365  1.00  0.00     0.000 C 
BRANCH   3   4
ATOM      4  C   UNL     1     -16.656  40.785  95.582  1.00  0.00     0.000 C 
BRANCH   4   5
ATOM      5  C   UNL     1     -15.729  39.601  95.254  1.00  0.00     0.001 C 
BRANCH   5   6
ATOM      6  C   UNL     1     -14.904  39.843  93.971  1.00  0.00     0.009 C 
BRANCH   6   7
ATOM      7  C   UNL     1     -13.377  39.756  94.192  1.00  0.00     0.032 C 
ATOM      8  C   UNL     1     -13.011  39.435  95.646  1.00  0.00     0.014 C 
BRANCH   7   9
ATOM      9  C   UNL     1     -12.732  41.052  93.783  1.00  0.00     0.044 C 
ATOM     10  O   UNL     1     -12.843  42.073  94.512  1.00  0.00    -0.550 OA
ATOM     11  O   UNL     1     -12.000  41.129  92.604  1.00  0.00    -0.550 OA
ENDBRANCH   7   9
ENDBRANCH   6   7
ENDBRANCH   5   6
ENDBRANCH   4   5
ENDBRANCH   3   4
ENDBRANCH   2   3
ENDBRANCH   1   2
BRANCH   1  12
ATOM     12  C   UNL     1     -20.890  39.999  93.471  1.00  0.00     0.000 C 
BRANCH  12  13
ATOM     13  C   UNL     1     -20.773  39.251  94.810  1.00  0.00    -0.000 C 
BRANCH  13  14
ATOM     14  C   UNL     1     -20.325  37.791  94.632  1.00  0.00    -0.000 C 
BRANCH  14  15
ATOM     15  C   UNL     1     -18.802  37.616  94.777  1.00  0.00    -0.000 C 
BRANCH  15  16
ATOM     16  C   UNL     1     -18.150  37.055  93.504  1.00  0.00    -0.000 C 
BRANCH  16  17
ATOM     17  C   UNL     1     -19.152  36.910  92.344  1.00  0.00    -0.000 C 
BRANCH  17  18
ATOM     18  C   UNL     1     -18.817  37.828  91.159  1.00  0.00    -0.003 C 
ATOM     19  C   UNL     1     -17.594  38.708  91.422  1.00  0.00     0.004 C 
ENDBRANCH  17  18
ENDBRANCH  16  17
ENDBRANCH  15  16
ENDBRANCH  14  15
ENDBRANCH  13  14
ENDBRANCH  12  13
ENDBRANCH   1  12
TORSDOF 14
ENDMDL
MODEL 7
REMARK VINA RESULT:    -3.282     12.351     14.306
REMARK INTER + INTRA:          -7.960
REMARK INTER:                  -6.439
REMARK INTRA:                  -1.521
REMARK UNBOUND:                -1.991
REMARK SMILES CCCCCCCCCCCCCC[C@H](C)C(=O)[O-]
REMARK SMILES IDX 9 1 10 2 11 3 12 4 13 5 14 6 15 7 16 8 17 9 18 10 19 11 8 12
REMARK SMILES IDX 7 13 6 14 5 15 4 16 3 17 2 18 1 19
REMARK H PARENT
REMARK Flexibility Score: inf
ROOT
ATOM      1  C   UNL     1      -4.021  42.522  95.901  1.00  0.00     0.000 C 
ENDROOT
BRANCH   1   2
ATOM      2  C   UNL     1      -3.903  41.365  96.909  1.00  0.00     0.000 C 
BRANCH   2   3
ATOM      3  C   UNL     1      -2.448  40.924  97.145  1.00  0.00     0.000 C 
BRANCH   3   4
ATOM      4  C   UNL     1      -2.122  39.487  96.702  1.00  0.00     0.000 C 
BRANCH   4   5
ATOM      5  C   UNL     1      -1.187  39.433  95.480  1.00  0.00     0.001 C 
BRANCH   5   6
ATOM      6  C   UNL     1      -1.953  39.609  94.150  1.00  0.00     0.009 C 
BRANCH   6   7
ATOM      7  C   UNL     1      -1.361  38.788  92.983  1.00  0.00     0.032 C 
ATOM      8  C   UNL     1      -1.504  39.499  91.632  1.00  0.00     0.014 C 
BRANCH   7   9
ATOM      9  C   UNL     1      -2.031  37.442  92.919  1.00  0.00     0.044 C 
ATOM     10  O   UNL     1      -3.188  37.288  93.395  1.00  0.00    -0.550 OA
ATOM     11  O   UNL     1      -1.385  36.364  92.327  1.00  0.00    -0.550 OA
ENDBRANCH   7   9
ENDBRANCH   6   7
ENDBRANCH   5   6
ENDBRANCH   4   5
ENDBRANCH   3   4
ENDBRANCH   2   3
ENDBRANCH   1   2
BRANCH   1  12
ATOM     12  C   UNL     1      -2.752  43.390  95.850  1.00  0.00     0.000 C 
BRANCH  12  13
ATOM     13  C   UNL     1      -2.962  44.699  95.068  1.00  0.00    -0.000 C 
BRANCH  13  14
ATOM     14  C   UNL     1      -1.783  45.673  95.225  1.00  0.00    -0.000 C 
BRANCH  14  15
ATOM     15  C   UNL     1      -2.189  46.989  95.915  1.00  0.00    -0.000 C 
BRANCH  15  16
ATOM     16  C   UNL     1      -2.469  46.805  97.414  1.00  0.00    -0.000 C 
BRANCH  16  17
ATOM     17  C   UNL     1      -3.970  46.894  97.749  1.00  0.00    -0.000 C 
BRANCH  17  18
ATOM     18  C   UNL     1      -4.454  45.710  98.599  1.00  0.00    -0.003 C 
ATOM     19  C   UNL     1      -5.730  45.071  98.048  1.00  0.00     0.004 C 
ENDBRANCH  17  18
ENDBRANCH  16  17
ENDBRANCH  15  16
ENDBRANCH  14  15
ENDBRANCH  13  14
ENDBRANCH  12  13
ENDBRANCH   1  12
TORSDOF 14
ENDMDL
MODEL 8
REMARK VINA RESULT:    -3.207      4.572      6.606
REMARK INTER + INTRA:          -7.822
REMARK INTER:                  -6.123
REMARK INTRA:                  -1.699
REMARK UNBOUND:                -1.991
REMARK SMILES CCCCCCCCCCCCCC[C@H](C)C(=O)[O-]
REMARK SMILES IDX 9 1 10 2 11 3 12 4 13 5 14 6 15 7 16 8 17 9 18 10 19 11 8 12
REMARK SMILES IDX 7 13 6 14 5 15 4 16 3 17 2 18 1 19
REMARK H PARENT
REMARK Flexibility Score: inf
ROOT
ATOM      1  C   UNL     1     -18.736  37.176  92.581  1.00  0.00     0.000 C 
ENDROOT
BRANCH   1   2
ATOM      2  C   UNL     1     -18.457  38.571  91.996  1.00  0.00     0.000 C 
BRANCH   2   3
ATOM      3  C   UNL     1     -19.735  39.286  91.522  1.00  0.00     0.000 C 
BRANCH   3   4
ATOM      4  C   UNL     1     -20.440  40.139  92.592  1.00  0.00     0.000 C 
BRANCH   4   5
ATOM      5  C   UNL     1     -19.461  40.979  93.431  1.00  0.00     0.001 C 
BRANCH   5   6
ATOM      6  C   UNL     1     -19.335  40.456  94.879  1.00  0.00     0.009 C 
BRANCH   6   7
ATOM      7  C   UNL     1     -18.434  41.334  95.778  1.00  0.00     0.032 C 
ATOM      8  C   UNL     1     -16.941  41.113  95.507  1.00  0.00     0.014 C 
BRANCH   7   9
ATOM      9  C   UNL     1     -18.734  41.051  97.225  1.00  0.00     0.044 C 
ATOM     10  O   UNL     1     -19.152  41.972  97.976  1.00  0.00    -0.550 OA
ATOM     11  O   UNL     1     -18.561  39.772  97.740  1.00  0.00    -0.550 OA
ENDBRANCH   7   9
ENDBRANCH   6   7
ENDBRANCH   5   6
ENDBRANCH   4   5
ENDBRANCH   3   4
ENDBRANCH   2   3
ENDBRANCH   1   2
BRANCH   1  12
ATOM     12  C   UNL     1     -19.839  36.425  91.816  1.00  0.00     0.000 C 
BRANCH  12  13
ATOM     13  C   UNL     1     -21.125  36.258  92.644  1.00  0.00    -0.000 C 
BRANCH  13  14
ATOM     14  C   UNL     1     -20.978  36.802  94.075  1.00  0.00    -0.000 C 
BRANCH  14  15
ATOM     15  C   UNL     1     -21.059  35.695  95.142  1.00  0.00    -0.000 C 
BRANCH  15  16
ATOM     16  C   UNL     1     -19.705  35.428  95.817  1.00  0.00    -0.000 C 
BRANCH  16  17
ATOM     17  C   UNL     1     -19.065  34.108  95.352  1.00  0.00    -0.000 C 
BRANCH  17  18
ATOM     18  C   UNL     1     -20.034  33.238  94.538  1.00  0.00    -0.003 C 
ATOM     19  C   UNL     1     -19.644  31.759  94.539  1.00  0.00     0.004 C 
ENDBRANCH  17  18
ENDBRANCH  16  17
ENDBRANCH  15  16
ENDBRANCH  14  15
ENDBRANCH  13  14
ENDBRANCH  12  13
ENDBRANCH   1  12
TORSDOF 14
ENDMDL
MODEL 9
REMARK VINA RESULT:    -3.185      3.953      6.519
REMARK INTER + INTRA:          -7.783
REMARK INTER:                  -5.019
REMARK INTRA:                  -2.764
REMARK UNBOUND:                -1.991
REMARK SMILES CCCCCCCCCCCCCC[C@H](C)C(=O)[O-]
REMARK SMILES IDX 9 1 10 2 11 3 12 4 13 5 14 6 15 7 16 8 17 9 18 10 19 11 8 12
REMARK SMILES IDX 7 13 6 14 5 15 4 16 3 17 2 18 1 19
REMARK H PARENT
REMARK Flexibility Score: inf
ROOT
ATOM      1  C   UNL     1     -17.853  40.775  95.888  1.00  0.00     0.000 C 
ENDROOT
BRANCH   1   2
ATOM      2  C   UNL     1     -17.503  41.482  94.567  1.00  0.00     0.000 C 
BRANCH   2   3
ATOM      3  C   UNL     1     -18.500  41.167  93.438  1.00  0.00     0.000 C 
BRANCH   3   4
ATOM      4  C   UNL     1     -19.877  40.665  93.906  1.00  0.00     0.000 C 
BRANCH   4   5
ATOM      5  C   UNL     1     -20.659  39.935  92.799  1.00  0.00     0.001 C 
BRANCH   5   6
ATOM      6  C   UNL     1     -19.753  39.008  91.959  1.00  0.00     0.009 C 
BRANCH   6   7
ATOM      7  C   UNL     1     -20.222  37.535  91.942  1.00  0.00     0.032 C 
ATOM      8  C   UNL     1     -20.397  36.958  93.352  1.00  0.00     0.014 C 
BRANCH   7   9
ATOM      9  C   UNL     1     -19.236  36.699  91.172  1.00  0.00     0.044 C 
ATOM     10  O   UNL     1     -18.510  35.863  91.773  1.00  0.00    -0.550 OA
ATOM     11  O   UNL     1     -19.127  36.834  89.793  1.00  0.00    -0.550 OA
ENDBRANCH   7   9
ENDBRANCH   6   7
ENDBRANCH   5   6
ENDBRANCH   4   5
ENDBRANCH   3   4
ENDBRANCH   2   3
ENDBRANCH   1   2
BRANCH   1  12
ATOM     12  C   UNL     1     -16.977  39.537  96.145  1.00  0.00     0.000 C 
BRANCH  12  13
ATOM     13  C   UNL     1     -17.596  38.247  95.582  1.00  0.00    -0.000 C 
BRANCH  13  14
ATOM     14  C   UNL     1     -16.920  37.790  94.279  1.00  0.00    -0.000 C 
BRANCH  14  15
ATOM     15  C   UNL     1     -15.443  38.217  94.195  1.00  0.00    -0.000 C 
BRANCH  15  16
ATOM     16  C   UNL     1     -15.124  38.977  92.898  1.00  0.00    -0.000 C 
BRANCH  16  17
ATOM     17  C   UNL     1     -16.200  38.773  91.815  1.00  0.00    -0.000 C 
BRANCH  17  18
ATOM     18  C   UNL     1     -15.598  38.440  90.442  1.00  0.00    -0.003 C 
ATOM     19  C   UNL     1     -15.517  36.935  90.183  1.00  0.00     0.004 C 
ENDBRANCH  17  18
ENDBRANCH  16  17
ENDBRANCH  15  16
ENDBRANCH  14  15
ENDBRANCH  13  14
ENDBRANCH  12  13
ENDBRANCH   1  12
TORSDOF 14
ENDMDL
