MODEL 1
REMARK VINA RESULT:    -4.229      0.000      0.000
REMARK INTER + INTRA:          -6.941
REMARK INTER:                  -5.713
REMARK INTRA:                  -1.228
REMARK UNBOUND:                -1.228
REMARK SMILES O=c1c(-c2ccc(O)cc2)coc2c([C@H]3O[C@H](CO)[C@@H](O)[C@H](O)[C@@H]3O)c(O)ccc12
REMARK SMILES IDX 3 1 11 2 12 3 13 4 30 5 2 6 1 7 29 8 28 9 26 10 14 11 4 12
REMARK SMILES IDX 5 13 6 14 7 15 10 16 9 17 8 18 15 20 24 21 16 22 22 23 17 24
REMARK SMILES IDX 20 25 25 26 23 28 18 30 19 31 21 33 27 35
REMARK H PARENT 8 19 25 27 23 29 19 32 21 34 27 36
REMARK Flexibility Score: inf
ROOT
ATOM      1  C   UNL     1       9.438  -0.938  10.014  1.00  0.00     0.065 A 
ATOM      2  C   UNL     1       8.481   0.083  10.088  1.00  0.00     0.208 A 
ATOM      3  O   UNL     1       7.850   0.507   8.999  1.00  0.00    -0.463 OA
ATOM      4  C   UNL     1       8.075   0.006   7.787  1.00  0.00     0.147 A 
ATOM      5  C   UNL     1       9.034  -1.020   7.620  1.00  0.00     0.066 A 
ATOM      6  C   UNL     1       9.722  -1.491   8.752  1.00  0.00     0.200 A 
ATOM      7  O   UNL     1      10.604  -2.386   8.634  1.00  0.00    -0.288 OA
ATOM      8  C   UNL     1       9.283  -1.533   6.336  1.00  0.00     0.020 A 
ATOM      9  C   UNL     1       8.597  -1.027   5.234  1.00  0.00     0.047 A 
ATOM     10  C   UNL     1       7.648  -0.010   5.388  1.00  0.00     0.125 A 
ATOM     11  C   UNL     1       7.360   0.505   6.671  1.00  0.00     0.069 A 
ENDROOT
BRANCH   1  12
ATOM     12  C   UNL     1      10.124  -1.401  11.247  1.00  0.00    -0.011 A 
ATOM     13  C   UNL     1       9.637  -2.513  11.955  1.00  0.00     0.013 A 
ATOM     14  C   UNL     1      10.287  -2.956  13.112  1.00  0.00     0.047 A 
ATOM     15  C   UNL     1      11.432  -2.300  13.571  1.00  0.00     0.115 A 
ATOM     16  C   UNL     1      11.281  -0.749  11.711  1.00  0.00     0.013 A 
ATOM     17  C   UNL     1      11.929  -1.195  12.867  1.00  0.00     0.047 A 
BRANCH  15  18
ATOM     18  O   UNL     1      12.069  -2.752  14.724  1.00  0.00    -0.508 OA
ATOM     19  H   UNL     1      11.653  -2.634  15.640  1.00  0.00     0.293 HD
ENDBRANCH  15  18
ENDBRANCH   1  12
BRANCH  11  20
ATOM     20  C   UNL     1       6.344   1.624   6.842  1.00  0.00     0.188 C 
ATOM     21  C   UNL     1       4.911   1.034   6.979  1.00  0.00     0.179 C 
ATOM     22  O   UNL     1       6.429   2.515   5.741  1.00  0.00    -0.362 OA
ATOM     23  C   UNL     1       3.822   2.074   6.602  1.00  0.00     0.177 C 
ATOM     24  C   UNL     1       5.633   3.689   5.903  1.00  0.00     0.176 C 
ATOM     25  C   UNL     1       4.362   3.500   6.785  1.00  0.00     0.177 C 
BRANCH  21  26
ATOM     26  O   UNL     1       4.718   0.528   8.280  1.00  0.00    -0.387 OA
ATOM     27  H   UNL     1       3.789   0.748   8.553  1.00  0.00     0.211 HD
ENDBRANCH  21  26
BRANCH  23  28
ATOM     28  O   UNL     1       2.662   1.902   7.376  1.00  0.00    -0.387 OA
ATOM     29  H   UNL     1       2.636   0.943   7.637  1.00  0.00     0.211 HD
ENDBRANCH  23  28
BRANCH  24  30
ATOM     30  C   UNL     1       6.497   4.874   6.361  1.00  0.00     0.191 C 
BRANCH  30  31
ATOM     31  O   UNL     1       6.164   5.262   7.665  1.00  0.00    -0.394 OA
ATOM     32  H   UNL     1       5.422   5.915   7.577  1.00  0.00     0.210 HD
ENDBRANCH  30  31
ENDBRANCH  24  30
BRANCH  25  33
ATOM     33  O   UNL     1       3.383   4.461   6.474  1.00  0.00    -0.388 OA
ATOM     34  H   UNL     1       2.525   3.984   6.319  1.00  0.00     0.211 HD
ENDBRANCH  25  33
ENDBRANCH  11  20
BRANCH  10  35
ATOM     35  O   UNL     1       6.991   0.490   4.263  1.00  0.00    -0.507 OA
ATOM     36  H   UNL     1       6.160   1.066   4.342  1.00  0.00     0.293 HD
ENDBRANCH  10  35
TORSDOF 9
ENDMDL
MODEL 2
REMARK VINA RESULT:    -4.096      8.757     11.090
REMARK INTER + INTRA:          -6.761
REMARK INTER:                  -5.889
REMARK INTRA:                  -0.872
REMARK UNBOUND:                -1.228
REMARK SMILES O=c1c(-c2ccc(O)cc2)coc2c([C@H]3O[C@H](CO)[C@@H](O)[C@H](O)[C@@H]3O)c(O)ccc12
REMARK SMILES IDX 3 1 11 2 12 3 13 4 30 5 2 6 1 7 29 8 28 9 26 10 14 11 4 12
REMARK SMILES IDX 5 13 6 14 7 15 10 16 9 17 8 18 15 20 24 21 16 22 22 23 17 24
REMARK SMILES IDX 20 25 25 26 23 28 18 30 19 31 21 33 27 35
REMARK H PARENT 8 19 25 27 23 29 19 32 21 34 27 36
REMARK Flexibility Score: inf
ROOT
ATOM      1  C   UNL     1      13.293   6.622   9.496  1.00  0.00     0.065 A 
ATOM      2  C   UNL     1      12.643   6.284  10.691  1.00  0.00     0.208 A 
ATOM      3  O   UNL     1      12.239   7.224  11.537  1.00  0.00    -0.463 OA
ATOM      4  C   UNL     1      12.417   8.525  11.320  1.00  0.00     0.147 A 
ATOM      5  C   UNL     1      13.075   8.954  10.143  1.00  0.00     0.066 A 
ATOM      6  C   UNL     1      13.518   7.984   9.226  1.00  0.00     0.200 A 
ATOM      7  O   UNL     1      14.132   8.331   8.179  1.00  0.00    -0.288 OA
ATOM      8  C   UNL     1      13.278  10.326   9.925  1.00  0.00     0.020 A 
ATOM      9  C   UNL     1      12.845  11.258  10.866  1.00  0.00     0.047 A 
ATOM     10  C   UNL     1      12.195  10.844  12.035  1.00  0.00     0.125 A 
ATOM     11  C   UNL     1      11.955   9.471  12.266  1.00  0.00     0.069 A 
ENDROOT
BRANCH   1  12
ATOM     12  C   UNL     1      13.728   5.553   8.562  1.00  0.00    -0.011 A 
ATOM     13  C   UNL     1      14.434   4.436   9.042  1.00  0.00     0.013 A 
ATOM     14  C   UNL     1      14.837   3.423   8.165  1.00  0.00     0.047 A 
ATOM     15  C   UNL     1      14.536   3.511   6.803  1.00  0.00     0.115 A 
ATOM     16  C   UNL     1      13.423   5.631   7.191  1.00  0.00     0.013 A 
ATOM     17  C   UNL     1      13.827   4.617   6.317  1.00  0.00     0.047 A 
BRANCH  15  18
ATOM     18  O   UNL     1      14.944   2.495   5.942  1.00  0.00    -0.508 OA
ATOM     19  H   UNL     1      14.276   1.869   5.507  1.00  0.00     0.293 HD
ENDBRANCH  15  18
ENDBRANCH   1  12
BRANCH  11  20
ATOM     20  C   UNL     1      11.267   9.014  13.543  1.00  0.00     0.188 C 
ATOM     21  C   UNL     1       9.735   9.269  13.450  1.00  0.00     0.179 C 
ATOM     22  O   UNL     1      11.834   9.688  14.655  1.00  0.00    -0.362 OA
ATOM     23  C   UNL     1       9.081   9.354  14.856  1.00  0.00     0.177 C 
ATOM     24  C   UNL     1      11.368   9.195  15.911  1.00  0.00     0.176 C 
ATOM     25  C   UNL     1       9.930   8.595  15.886  1.00  0.00     0.177 C 
BRANCH  21  26
ATOM     26  O   UNL     1       9.127   8.279  12.653  1.00  0.00    -0.387 OA
ATOM     27  H   UNL     1       8.938   7.498  13.236  1.00  0.00     0.211 HD
ENDBRANCH  21  26
BRANCH  23  28
ATOM     28  O   UNL     1       7.774   8.836  14.842  1.00  0.00    -0.387 OA
ATOM     29  H   UNL     1       7.196   9.535  14.435  1.00  0.00     0.211 HD
ENDBRANCH  23  28
BRANCH  24  30
ATOM     30  C   UNL     1      12.395   8.235  16.532  1.00  0.00     0.191 C 
BRANCH  30  31
ATOM     31  O   UNL     1      11.763   7.115  17.087  1.00  0.00    -0.394 OA
ATOM     32  H   UNL     1      11.716   7.279  18.064  1.00  0.00     0.210 HD
ENDBRANCH  30  31
ENDBRANCH  24  30
BRANCH  25  33
ATOM     33  O   UNL     1       9.342   8.637  17.163  1.00  0.00    -0.388 OA
ATOM     34  H   UNL     1       9.515   7.765  17.608  1.00  0.00     0.211 HD
ENDBRANCH  25  33
ENDBRANCH  11  20
BRANCH  10  35
ATOM     35  O   UNL     1      11.789  11.798  12.968  1.00  0.00    -0.507 OA
ATOM     36  H   UNL     1      11.763  12.787  12.743  1.00  0.00     0.293 HD
ENDBRANCH  10  35
TORSDOF 9
ENDMDL
MODEL 3
REMARK VINA RESULT:    -4.049      8.530     12.445
REMARK INTER + INTRA:          -6.697
REMARK INTER:                  -5.608
REMARK INTRA:                  -1.090
REMARK UNBOUND:                -1.228
REMARK SMILES O=c1c(-c2ccc(O)cc2)coc2c([C@H]3O[C@H](CO)[C@@H](O)[C@H](O)[C@@H]3O)c(O)ccc12
REMARK SMILES IDX 3 1 11 2 12 3 13 4 30 5 2 6 1 7 29 8 28 9 26 10 14 11 4 12
REMARK SMILES IDX 5 13 6 14 7 15 10 16 9 17 8 18 15 20 24 21 16 22 22 23 17 24
REMARK SMILES IDX 20 25 25 26 23 28 18 30 19 31 21 33 27 35
REMARK H PARENT 8 19 25 27 23 29 19 32 21 34 27 36
REMARK Flexibility Score: inf
ROOT
ATOM      1  C   UNL     1      13.367   6.735  11.135  1.00  0.00     0.065 A 
ATOM      2  C   UNL     1      14.049   5.789  11.913  1.00  0.00     0.208 A 
ATOM      3  O   UNL     1      13.834   5.699  13.220  1.00  0.00    -0.463 OA
ATOM      4  C   UNL     1      12.978   6.481  13.873  1.00  0.00     0.147 A 
ATOM      5  C   UNL     1      12.255   7.471  13.166  1.00  0.00     0.066 A 
ATOM      6  C   UNL     1      12.461   7.595  11.781  1.00  0.00     0.200 A 
ATOM      7  O   UNL     1      11.854   8.487  11.124  1.00  0.00    -0.288 OA
ATOM      8  C   UNL     1      11.367   8.308  13.861  1.00  0.00     0.020 A 
ATOM      9  C   UNL     1      11.205   8.171  15.237  1.00  0.00     0.047 A 
ATOM     10  C   UNL     1      11.916   7.196  15.947  1.00  0.00     0.125 A 
ATOM     11  C   UNL     1      12.797   6.324  15.268  1.00  0.00     0.069 A 
ENDROOT
BRANCH   1  12
ATOM     12  C   UNL     1      13.618   6.810   9.674  1.00  0.00    -0.011 A 
ATOM     13  C   UNL     1      14.248   7.939   9.120  1.00  0.00     0.013 A 
ATOM     14  C   UNL     1      14.494   8.009   7.745  1.00  0.00     0.047 A 
ATOM     15  C   UNL     1      14.121   6.954   6.909  1.00  0.00     0.115 A 
ATOM     16  C   UNL     1      13.251   5.749   8.827  1.00  0.00     0.013 A 
ATOM     17  C   UNL     1      13.499   5.822   7.453  1.00  0.00     0.047 A 
BRANCH  15  18
ATOM     18  O   UNL     1      14.372   7.037   5.541  1.00  0.00    -0.508 OA
ATOM     19  H   UNL     1      13.872   7.690   4.949  1.00  0.00     0.293 HD
ENDBRANCH  15  18
ENDBRANCH   1  12
BRANCH  11  20
ATOM     20  C   UNL     1      13.587   5.276  16.037  1.00  0.00     0.188 C 
ATOM     21  C   UNL     1      12.717   4.007  16.265  1.00  0.00     0.179 C 
ATOM     22  O   UNL     1      14.030   5.824  17.268  1.00  0.00    -0.362 OA
ATOM     23  C   UNL     1      13.228   3.169  17.469  1.00  0.00     0.177 C 
ATOM     24  C   UNL     1      14.925   4.967  17.977  1.00  0.00     0.176 C 
ATOM     25  C   UNL     1      14.718   3.444  17.715  1.00  0.00     0.177 C 
BRANCH  21  26
ATOM     26  O   UNL     1      12.661   3.240  15.085  1.00  0.00    -0.387 OA
ATOM     27  H   UNL     1      11.813   3.465  14.620  1.00  0.00     0.211 HD
ENDBRANCH  21  26
BRANCH  23  28
ATOM     28  O   UNL     1      13.027   1.794  17.255  1.00  0.00    -0.387 OA
ATOM     29  H   UNL     1      12.165   1.563  17.690  1.00  0.00     0.211 HD
ENDBRANCH  23  28
BRANCH  24  30
ATOM     30  C   UNL     1      16.382   5.408  17.765  1.00  0.00     0.191 C 
BRANCH  30  31
ATOM     31  O   UNL     1      17.125   4.399  17.138  1.00  0.00    -0.394 OA
ATOM     32  H   UNL     1      17.059   4.573  16.163  1.00  0.00     0.210 HD
ENDBRANCH  30  31
ENDBRANCH  24  30
BRANCH  25  33
ATOM     33  O   UNL     1      15.210   2.675  18.786  1.00  0.00    -0.388 OA
ATOM     34  H   UNL     1      14.912   3.105  19.631  1.00  0.00     0.211 HD
ENDBRANCH  25  33
ENDBRANCH  11  20
BRANCH  10  35
ATOM     35  O   UNL     1      11.748   7.095  17.328  1.00  0.00    -0.507 OA
ATOM     36  H   UNL     1      10.923   6.668  17.735  1.00  0.00     0.293 HD
ENDBRANCH  10  35
TORSDOF 9
ENDMDL
MODEL 4
REMARK VINA RESULT:    -4.013      4.583      8.430
REMARK INTER + INTRA:          -6.648
REMARK INTER:                  -5.400
REMARK INTRA:                  -1.248
REMARK UNBOUND:                -1.228
REMARK SMILES O=c1c(-c2ccc(O)cc2)coc2c([C@H]3O[C@H](CO)[C@@H](O)[C@H](O)[C@@H]3O)c(O)ccc12
REMARK SMILES IDX 3 1 11 2 12 3 13 4 30 5 2 6 1 7 29 8 28 9 26 10 14 11 4 12
REMARK SMILES IDX 5 13 6 14 7 15 10 16 9 17 8 18 15 20 24 21 16 22 22 23 17 24
REMARK SMILES IDX 20 25 25 26 23 28 18 30 19 31 21 33 27 35
REMARK H PARENT 8 19 25 27 23 29 19 32 21 34 27 36
REMARK Flexibility Score: inf
ROOT
ATOM      1  C   UNL     1       4.220   3.558   6.034  1.00  0.00     0.065 A 
ATOM      2  C   UNL     1       3.998   4.524   7.024  1.00  0.00     0.208 A 
ATOM      3  O   UNL     1       2.925   5.306   6.987  1.00  0.00    -0.463 OA
ATOM      4  C   UNL     1       2.004   5.232   6.029  1.00  0.00     0.147 A 
ATOM      5  C   UNL     1       2.155   4.291   4.983  1.00  0.00     0.066 A 
ATOM      6  C   UNL     1       3.281   3.450   4.991  1.00  0.00     0.200 A 
ATOM      7  O   UNL     1       3.461   2.618   4.058  1.00  0.00    -0.288 OA
ATOM      8  C   UNL     1       1.191   4.229   3.964  1.00  0.00     0.020 A 
ATOM      9  C   UNL     1       0.099   5.094   3.977  1.00  0.00     0.047 A 
ATOM     10  C   UNL     1      -0.059   6.030   5.006  1.00  0.00     0.125 A 
ATOM     11  C   UNL     1       0.883   6.096   6.057  1.00  0.00     0.069 A 
ENDROOT
BRANCH   1  12
ATOM     12  C   UNL     1       5.422   2.690   6.102  1.00  0.00    -0.011 A 
ATOM     13  C   UNL     1       5.375   1.464   6.789  1.00  0.00     0.013 A 
ATOM     14  C   UNL     1       6.504   0.641   6.847  1.00  0.00     0.047 A 
ATOM     15  C   UNL     1       7.689   1.027   6.216  1.00  0.00     0.115 A 
ATOM     16  C   UNL     1       6.617   3.070   5.464  1.00  0.00     0.013 A 
ATOM     17  C   UNL     1       7.744   2.244   5.523  1.00  0.00     0.047 A 
BRANCH  15  18
ATOM     18  O   UNL     1       8.806   0.197   6.282  1.00  0.00    -0.508 OA
ATOM     19  H   UNL     1       8.930  -0.576   5.639  1.00  0.00     0.293 HD
ENDBRANCH  15  18
ENDBRANCH   1  12
BRANCH  11  20
ATOM     20  C   UNL     1       0.726   7.123   7.167  1.00  0.00     0.188 C 
ATOM     21  C   UNL     1      -0.184   6.562   8.297  1.00  0.00     0.179 C 
ATOM     22  O   UNL     1       0.196   8.325   6.631  1.00  0.00    -0.362 OA
ATOM     23  C   UNL     1      -0.819   7.699   9.142  1.00  0.00     0.177 C 
ATOM     24  C   UNL     1       0.179   9.402   7.568  1.00  0.00     0.176 C 
ATOM     25  C   UNL     1       0.041   8.969   9.059  1.00  0.00     0.177 C 
BRANCH  21  26
ATOM     26  O   UNL     1       0.542   5.661   9.101  1.00  0.00    -0.387 OA
ATOM     27  H   UNL     1       0.026   5.520   9.937  1.00  0.00     0.211 HD
ENDBRANCH  21  26
BRANCH  23  28
ATOM     28  O   UNL     1      -0.969   7.314  10.486  1.00  0.00    -0.387 OA
ATOM     29  H   UNL     1      -0.239   6.667  10.678  1.00  0.00     0.211 HD
ENDBRANCH  23  28
BRANCH  24  30
ATOM     30  C   UNL     1       1.370  10.344   7.337  1.00  0.00     0.191 C 
BRANCH  30  31
ATOM     31  O   UNL     1       2.133  10.484   8.503  1.00  0.00    -0.394 OA
ATOM     32  H   UNL     1       3.065  10.252   8.254  1.00  0.00     0.210 HD
ENDBRANCH  30  31
ENDBRANCH  24  30
BRANCH  25  33
ATOM     33  O   UNL     1      -0.502  10.006   9.839  1.00  0.00    -0.388 OA
ATOM     34  H   UNL     1      -0.311   9.803  10.793  1.00  0.00     0.211 HD
ENDBRANCH  25  33
ENDBRANCH  11  20
BRANCH  10  35
ATOM     35  O   UNL     1      -1.153   6.896   4.982  1.00  0.00    -0.507 OA
ATOM     36  H   UNL     1      -1.172   7.746   5.535  1.00  0.00     0.293 HD
ENDBRANCH  10  35
TORSDOF 9
ENDMDL
MODEL 5
REMARK VINA RESULT:    -4.000     10.274     12.907
REMARK INTER + INTRA:          -6.631
REMARK INTER:                  -5.464
REMARK INTRA:                  -1.167
REMARK UNBOUND:                -1.228
REMARK SMILES O=c1c(-c2ccc(O)cc2)coc2c([C@H]3O[C@H](CO)[C@@H](O)[C@H](O)[C@@H]3O)c(O)ccc12
REMARK SMILES IDX 3 1 11 2 12 3 13 4 30 5 2 6 1 7 29 8 28 9 26 10 14 11 4 12
REMARK SMILES IDX 5 13 6 14 7 15 10 16 9 17 8 18 15 20 24 21 16 22 22 23 17 24
REMARK SMILES IDX 20 25 25 26 23 28 18 30 19 31 21 33 27 35
REMARK H PARENT 8 19 25 27 23 29 19 32 21 34 27 36
REMARK Flexibility Score: inf
ROOT
ATOM      1  C   UNL     1       8.814   9.656  15.840  1.00  0.00     0.065 A 
ATOM      2  C   UNL     1       9.084   8.708  14.843  1.00  0.00     0.208 A 
ATOM      3  O   UNL     1      10.319   8.528  14.390  1.00  0.00    -0.463 OA
ATOM      4  C   UNL     1      11.366   9.218  14.836  1.00  0.00     0.147 A 
ATOM      5  C   UNL     1      11.182  10.204  15.834  1.00  0.00     0.066 A 
ATOM      6  C   UNL     1       9.886  10.422  16.334  1.00  0.00     0.200 A 
ATOM      7  O   UNL     1       9.682  11.313  17.205  1.00  0.00    -0.288 OA
ATOM      8  C   UNL     1      12.285  10.943  16.288  1.00  0.00     0.020 A 
ATOM      9  C   UNL     1      13.551  10.714  15.753  1.00  0.00     0.047 A 
ATOM     10  C   UNL     1      13.744   9.743  14.764  1.00  0.00     0.125 A 
ATOM     11  C   UNL     1      12.655   8.967  14.308  1.00  0.00     0.069 A 
ENDROOT
BRANCH   1  12
ATOM     12  C   UNL     1       7.427   9.834  16.337  1.00  0.00    -0.011 A 
ATOM     13  C   UNL     1       6.472  10.505  15.552  1.00  0.00     0.013 A 
ATOM     14  C   UNL     1       5.162  10.666  16.014  1.00  0.00     0.047 A 
ATOM     15  C   UNL     1       4.788  10.155  17.259  1.00  0.00     0.115 A 
ATOM     16  C   UNL     1       7.041   9.317  17.586  1.00  0.00     0.013 A 
ATOM     17  C   UNL     1       5.730   9.478  18.045  1.00  0.00     0.047 A 
BRANCH  15  18
ATOM     18  O   UNL     1       3.479  10.322  17.707  1.00  0.00    -0.508 OA
ATOM     19  H   UNL     1       2.975  11.189  17.560  1.00  0.00     0.293 HD
ENDBRANCH  15  18
ENDBRANCH   1  12
BRANCH  11  20
ATOM     20  C   UNL     1      12.856   7.924  13.219  1.00  0.00     0.188 C 
ATOM     21  C   UNL     1      13.355   6.588  13.839  1.00  0.00     0.179 C 
ATOM     22  O   UNL     1      13.771   8.416  12.253  1.00  0.00    -0.362 OA
ATOM     23  C   UNL     1      14.088   5.707  12.792  1.00  0.00     0.177 C 
ATOM     24  C   UNL     1      13.886   7.574  11.105  1.00  0.00     0.176 C 
ATOM     25  C   UNL     1      13.617   6.062  11.374  1.00  0.00     0.177 C 
BRANCH  21  26
ATOM     26  O   UNL     1      12.281   5.900  14.436  1.00  0.00    -0.387 OA
ATOM     27  H   UNL     1      12.663   5.180  15.004  1.00  0.00     0.211 HD
ENDBRANCH  21  26
BRANCH  23  28
ATOM     28  O   UNL     1      13.872   4.339  13.035  1.00  0.00    -0.387 OA
ATOM     29  H   UNL     1      12.997   4.113  12.623  1.00  0.00     0.211 HD
ENDBRANCH  23  28
BRANCH  24  30
ATOM     30  C   UNL     1      13.045   8.123   9.942  1.00  0.00     0.191 C 
BRANCH  30  31
ATOM     31  O   UNL     1      12.474   7.081   9.200  1.00  0.00    -0.394 OA
ATOM     32  H   UNL     1      12.111   7.495   8.375  1.00  0.00     0.210 HD
ENDBRANCH  30  31
ENDBRANCH  24  30
BRANCH  25  33
ATOM     33  O   UNL     1      14.250   5.257  10.408  1.00  0.00    -0.388 OA
ATOM     34  H   UNL     1      14.578   4.437  10.863  1.00  0.00     0.211 HD
ENDBRANCH  25  33
ENDBRANCH  11  20
BRANCH  10  35
ATOM     35  O   UNL     1      15.020   9.550  14.233  1.00  0.00    -0.507 OA
ATOM     36  H   UNL     1      15.164   9.076  13.348  1.00  0.00     0.293 HD
ENDBRANCH  10  35
TORSDOF 9
ENDMDL
MODEL 6
REMARK VINA RESULT:    -3.991      9.153     11.529
REMARK INTER + INTRA:          -6.619
REMARK INTER:                  -5.474
REMARK INTRA:                  -1.145
REMARK UNBOUND:                -1.228
REMARK SMILES O=c1c(-c2ccc(O)cc2)coc2c([C@H]3O[C@H](CO)[C@@H](O)[C@H](O)[C@@H]3O)c(O)ccc12
REMARK SMILES IDX 3 1 11 2 12 3 13 4 30 5 2 6 1 7 29 8 28 9 26 10 14 11 4 12
REMARK SMILES IDX 5 13 6 14 7 15 10 16 9 17 8 18 15 20 24 21 16 22 22 23 17 24
REMARK SMILES IDX 20 25 25 26 23 28 18 30 19 31 21 33 27 35
REMARK H PARENT 8 19 25 27 23 29 19 32 21 34 27 36
REMARK Flexibility Score: inf
ROOT
ATOM      1  C   UNL     1      11.206   8.909  12.778  1.00  0.00     0.065 A 
ATOM      2  C   UNL     1      11.637   7.705  12.204  1.00  0.00     0.208 A 
ATOM      3  O   UNL     1      12.469   7.701  11.170  1.00  0.00    -0.463 OA
ATOM      4  C   UNL     1      12.944   8.813  10.614  1.00  0.00     0.147 A 
ATOM      5  C   UNL     1      12.551  10.074  11.123  1.00  0.00     0.066 A 
ATOM      6  C   UNL     1      11.669  10.113  12.217  1.00  0.00     0.200 A 
ATOM      7  O   UNL     1      11.276  11.221  12.679  1.00  0.00    -0.288 OA
ATOM      8  C   UNL     1      13.038  11.245  10.522  1.00  0.00     0.020 A 
ATOM      9  C   UNL     1      13.895  11.168   9.426  1.00  0.00     0.047 A 
ATOM     10  C   UNL     1      14.288   9.926   8.913  1.00  0.00     0.125 A 
ATOM     11  C   UNL     1      13.832   8.732   9.515  1.00  0.00     0.069 A 
ENDROOT
BRANCH   1  12
ATOM     12  C   UNL     1      10.282   8.887  13.939  1.00  0.00    -0.011 A 
ATOM     13  C   UNL     1      10.788   8.779  15.247  1.00  0.00     0.013 A 
ATOM     14  C   UNL     1       9.920   8.767  16.344  1.00  0.00     0.047 A 
ATOM     15  C   UNL     1       8.540   8.868  16.149  1.00  0.00     0.115 A 
ATOM     16  C   UNL     1       8.892   8.994  13.752  1.00  0.00     0.013 A 
ATOM     17  C   UNL     1       8.027   8.983  14.850  1.00  0.00     0.047 A 
BRANCH  15  18
ATOM     18  O   UNL     1       7.686   8.855  17.250  1.00  0.00    -0.508 OA
ATOM     19  H   UNL     1       7.880   8.282  18.064  1.00  0.00     0.293 HD
ENDBRANCH  15  18
ENDBRANCH   1  12
BRANCH  11  20
ATOM     20  C   UNL     1      14.241   7.381   8.949  1.00  0.00     0.188 C 
ATOM     21  C   UNL     1      15.536   6.874   9.646  1.00  0.00     0.179 C 
ATOM     22  O   UNL     1      14.420   7.488   7.546  1.00  0.00    -0.362 OA
ATOM     23  C   UNL     1      16.290   5.835   8.772  1.00  0.00     0.177 C 
ATOM     24  C   UNL     1      14.635   6.229   6.907  1.00  0.00     0.176 C 
ATOM     25  C   UNL     1      15.317   5.150   7.801  1.00  0.00     0.177 C 
BRANCH  21  26
ATOM     26  O   UNL     1      15.230   6.357  10.920  1.00  0.00    -0.387 OA
ATOM     27  H   UNL     1      16.063   6.375  11.460  1.00  0.00     0.211 HD
ENDBRANCH  21  26
BRANCH  23  28
ATOM     28  O   UNL     1      16.927   4.867   9.568  1.00  0.00    -0.387 OA
ATOM     29  H   UNL     1      16.906   4.018   9.053  1.00  0.00     0.211 HD
ENDBRANCH  23  28
BRANCH  24  30
ATOM     30  C   UNL     1      13.339   5.721   6.257  1.00  0.00     0.191 C 
BRANCH  30  31
ATOM     31  O   UNL     1      13.357   4.327   6.124  1.00  0.00    -0.394 OA
ATOM     32  H   UNL     1      12.610   3.986   6.681  1.00  0.00     0.210 HD
ENDBRANCH  30  31
ENDBRANCH  24  30
BRANCH  25  33
ATOM     33  O   UNL     1      15.974   4.184   7.017  1.00  0.00    -0.388 OA
ATOM     34  H   UNL     1      15.443   4.053   6.187  1.00  0.00     0.211 HD
ENDBRANCH  25  33
ENDBRANCH  11  20
BRANCH  10  35
ATOM     35  O   UNL     1      15.131   9.880   7.802  1.00  0.00    -0.507 OA
ATOM     36  H   UNL     1      14.870   9.387   6.955  1.00  0.00     0.293 HD
ENDBRANCH  10  35
TORSDOF 9
ENDMDL
MODEL 7
REMARK VINA RESULT:    -3.948      3.678      9.360
REMARK INTER + INTRA:          -6.560
REMARK INTER:                  -5.390
REMARK INTRA:                  -1.170
REMARK UNBOUND:                -1.228
REMARK SMILES O=c1c(-c2ccc(O)cc2)coc2c([C@H]3O[C@H](CO)[C@@H](O)[C@H](O)[C@@H]3O)c(O)ccc12
REMARK SMILES IDX 3 1 11 2 12 3 13 4 30 5 2 6 1 7 29 8 28 9 26 10 14 11 4 12
REMARK SMILES IDX 5 13 6 14 7 15 10 16 9 17 8 18 15 20 24 21 16 22 22 23 17 24
REMARK SMILES IDX 20 25 25 26 23 28 18 30 19 31 21 33 27 35
REMARK H PARENT 8 19 25 27 23 29 19 32 21 34 27 36
REMARK Flexibility Score: inf
ROOT
ATOM      1  C   UNL     1       9.568  -0.447  10.771  1.00  0.00     0.065 A 
ATOM      2  C   UNL     1      10.252   0.727  11.117  1.00  0.00     0.208 A 
ATOM      3  O   UNL     1      11.187   0.719  12.059  1.00  0.00    -0.463 OA
ATOM      4  C   UNL     1      11.534  -0.376  12.731  1.00  0.00     0.147 A 
ATOM      5  C   UNL     1      10.886  -1.602  12.454  1.00  0.00     0.066 A 
ATOM      6  C   UNL     1       9.889  -1.629  11.463  1.00  0.00     0.200 A 
ATOM      7  O   UNL     1       9.271  -2.700  11.210  1.00  0.00    -0.288 OA
ATOM      8  C   UNL     1      11.241  -2.752  13.178  1.00  0.00     0.020 A 
ATOM      9  C   UNL     1      12.219  -2.683  14.168  1.00  0.00     0.047 A 
ATOM     10  C   UNL     1      12.865  -1.475  14.451  1.00  0.00     0.125 A 
ATOM     11  C   UNL     1      12.545  -0.309  13.720  1.00  0.00     0.069 A 
ENDROOT
BRANCH   1  12
ATOM     12  C   UNL     1       8.532  -0.414   9.708  1.00  0.00    -0.011 A 
ATOM     13  C   UNL     1       7.226   0.013  10.003  1.00  0.00     0.013 A 
ATOM     14  C   UNL     1       6.250   0.053   9.002  1.00  0.00     0.047 A 
ATOM     15  C   UNL     1       6.568  -0.327   7.695  1.00  0.00     0.115 A 
ATOM     16  C   UNL     1       8.846  -0.789   8.389  1.00  0.00     0.013 A 
ATOM     17  C   UNL     1       7.870  -0.747   7.390  1.00  0.00     0.047 A 
BRANCH  15  18
ATOM     18  O   UNL     1       5.587  -0.282   6.707  1.00  0.00    -0.508 OA
ATOM     19  H   UNL     1       5.827  -0.252   5.723  1.00  0.00     0.293 HD
ENDBRANCH  15  18
ENDBRANCH   1  12
BRANCH  11  20
ATOM     20  C   UNL     1      13.230   1.011  14.037  1.00  0.00     0.188 C 
ATOM     21  C   UNL     1      14.596   1.100  13.298  1.00  0.00     0.179 C 
ATOM     22  O   UNL     1      13.396   1.135  15.441  1.00  0.00    -0.362 OA
ATOM     23  C   UNL     1      15.557   2.107  13.986  1.00  0.00     0.177 C 
ATOM     24  C   UNL     1      13.874   2.420  15.841  1.00  0.00     0.176 C 
ATOM     25  C   UNL     1      14.757   3.148  14.783  1.00  0.00     0.177 C 
BRANCH  21  26
ATOM     26  O   UNL     1      14.393   1.419  11.941  1.00  0.00    -0.387 OA
ATOM     27  H   UNL     1      15.276   1.655  11.552  1.00  0.00     0.211 HD
ENDBRANCH  21  26
BRANCH  23  28
ATOM     28  O   UNL     1      16.375   2.755  13.045  1.00  0.00    -0.387 OA
ATOM     29  H   UNL     1      15.824   3.475  12.638  1.00  0.00     0.211 HD
ENDBRANCH  23  28
BRANCH  24  30
ATOM     30  C   UNL     1      12.717   3.297  16.346  1.00  0.00     0.191 C 
BRANCH  30  31
ATOM     31  O   UNL     1      12.359   4.254  15.388  1.00  0.00    -0.394 OA
ATOM     32  H   UNL     1      11.906   3.758  14.657  1.00  0.00     0.210 HD
ENDBRANCH  30  31
ENDBRANCH  24  30
BRANCH  25  33
ATOM     33  O   UNL     1      15.607   4.088  15.394  1.00  0.00    -0.388 OA
ATOM     34  H   UNL     1      16.496   4.025  14.955  1.00  0.00     0.211 HD
ENDBRANCH  25  33
ENDBRANCH  11  20
BRANCH  10  35
ATOM     35  O   UNL     1      13.826  -1.432  15.462  1.00  0.00    -0.507 OA
ATOM     36  H   UNL     1      14.655  -2.016  15.434  1.00  0.00     0.293 HD
ENDBRANCH  10  35
TORSDOF 9
ENDMDL
MODEL 8
REMARK VINA RESULT:    -3.938      9.719     13.661
REMARK INTER + INTRA:          -6.547
REMARK INTER:                  -5.329
REMARK INTRA:                  -1.218
REMARK UNBOUND:                -1.228
REMARK SMILES O=c1c(-c2ccc(O)cc2)coc2c([C@H]3O[C@H](CO)[C@@H](O)[C@H](O)[C@@H]3O)c(O)ccc12
REMARK SMILES IDX 3 1 11 2 12 3 13 4 30 5 2 6 1 7 29 8 28 9 26 10 14 11 4 12
REMARK SMILES IDX 5 13 6 14 7 15 10 16 9 17 8 18 15 20 24 21 16 22 22 23 17 24
REMARK SMILES IDX 20 25 25 26 23 28 18 30 19 31 21 33 27 35
REMARK H PARENT 8 19 25 27 23 29 19 32 21 34 27 36
REMARK Flexibility Score: inf
ROOT
ATOM      1  C   UNL     1       9.167   9.442  15.279  1.00  0.00     0.065 A 
ATOM      2  C   UNL     1       9.929   8.943  16.344  1.00  0.00     0.208 A 
ATOM      3  O   UNL     1      10.999   8.189  16.124  1.00  0.00    -0.463 OA
ATOM      4  C   UNL     1      11.417   7.857  14.904  1.00  0.00     0.147 A 
ATOM      5  C   UNL     1      10.700   8.309  13.771  1.00  0.00     0.066 A 
ATOM      6  C   UNL     1       9.560   9.109  13.970  1.00  0.00     0.200 A 
ATOM      7  O   UNL     1       8.881   9.506  12.982  1.00  0.00    -0.288 OA
ATOM      8  C   UNL     1      11.132   7.942  12.487  1.00  0.00     0.020 A 
ATOM      9  C   UNL     1      12.254   7.131  12.330  1.00  0.00     0.047 A 
ATOM     10  C   UNL     1      12.969   6.677  13.444  1.00  0.00     0.125 A 
ATOM     11  C   UNL     1      12.570   7.053  14.746  1.00  0.00     0.069 A 
ENDROOT
BRANCH   1  12
ATOM     12  C   UNL     1       7.980  10.291  15.551  1.00  0.00    -0.011 A 
ATOM     13  C   UNL     1       8.100  11.691  15.581  1.00  0.00     0.013 A 
ATOM     14  C   UNL     1       6.981  12.493  15.828  1.00  0.00     0.047 A 
ATOM     15  C   UNL     1       5.730  11.909  16.041  1.00  0.00     0.115 A 
ATOM     16  C   UNL     1       6.716   9.710  15.759  1.00  0.00     0.013 A 
ATOM     17  C   UNL     1       5.599  10.514  16.005  1.00  0.00     0.047 A 
BRANCH  15  18
ATOM     18  O   UNL     1       4.624  12.719  16.286  1.00  0.00    -0.508 OA
ATOM     19  H   UNL     1       3.944  12.486  17.000  1.00  0.00     0.293 HD
ENDBRANCH  15  18
ENDBRANCH   1  12
BRANCH  11  20
ATOM     20  C   UNL     1      13.332   6.546  15.960  1.00  0.00     0.188 C 
ATOM     21  C   UNL     1      14.499   7.514  16.307  1.00  0.00     0.179 C 
ATOM     22  O   UNL     1      13.810   5.234  15.708  1.00  0.00    -0.362 OA
ATOM     23  C   UNL     1      15.608   6.806  17.132  1.00  0.00     0.177 C 
ATOM     24  C   UNL     1      14.388   4.613  16.857  1.00  0.00     0.176 C 
ATOM     25  C   UNL     1      15.024   5.599  17.883  1.00  0.00     0.177 C 
BRANCH  21  26
ATOM     26  O   UNL     1      14.004   8.653  16.971  1.00  0.00    -0.387 OA
ATOM     27  H   UNL     1      13.232   8.365  17.526  1.00  0.00     0.211 HD
ENDBRANCH  21  26
BRANCH  23  28
ATOM     28  O   UNL     1      16.206   7.691  18.047  1.00  0.00    -0.387 OA
ATOM     29  H   UNL     1      17.157   7.416  18.126  1.00  0.00     0.211 HD
ENDBRANCH  23  28
BRANCH  24  30
ATOM     30  C   UNL     1      13.389   3.647  17.513  1.00  0.00     0.191 C 
BRANCH  30  31
ATOM     31  O   UNL     1      13.395   3.789  18.906  1.00  0.00    -0.394 OA
ATOM     32  H   UNL     1      12.681   3.190  19.248  1.00  0.00     0.210 HD
ENDBRANCH  30  31
ENDBRANCH  24  30
BRANCH  25  33
ATOM     33  O   UNL     1      16.006   4.958  18.659  1.00  0.00    -0.388 OA
ATOM     34  H   UNL     1      15.543   4.440  19.370  1.00  0.00     0.211 HD
ENDBRANCH  25  33
ENDBRANCH  11  20
BRANCH  10  35
ATOM     35  O   UNL     1      14.077   5.849  13.256  1.00  0.00    -0.507 OA
ATOM     36  H   UNL     1      14.895   6.161  12.744  1.00  0.00     0.293 HD
ENDBRANCH  10  35
TORSDOF 9
ENDMDL
MODEL 9
REMARK VINA RESULT:    -3.916     10.336     13.290
REMARK INTER + INTRA:          -6.517
REMARK INTER:                  -5.365
REMARK INTRA:                  -1.152
REMARK UNBOUND:                -1.228
REMARK SMILES O=c1c(-c2ccc(O)cc2)coc2c([C@H]3O[C@H](CO)[C@@H](O)[C@H](O)[C@@H]3O)c(O)ccc12
REMARK SMILES IDX 3 1 11 2 12 3 13 4 30 5 2 6 1 7 29 8 28 9 26 10 14 11 4 12
REMARK SMILES IDX 5 13 6 14 7 15 10 16 9 17 8 18 15 20 24 21 16 22 22 23 17 24
REMARK SMILES IDX 20 25 25 26 23 28 18 30 19 31 21 33 27 35
REMARK H PARENT 8 19 25 27 23 29 19 32 21 34 27 36
REMARK Flexibility Score: inf
ROOT
ATOM      1  C   UNL     1       7.805  10.160  15.594  1.00  0.00     0.065 A 
ATOM      2  C   UNL     1       8.474  10.237  14.364  1.00  0.00     0.208 A 
ATOM      3  O   UNL     1       9.688   9.722  14.215  1.00  0.00    -0.463 OA
ATOM      4  C   UNL     1      10.346   9.110  15.197  1.00  0.00     0.147 A 
ATOM      5  C   UNL     1       9.749   8.998  16.475  1.00  0.00     0.066 A 
ATOM      6  C   UNL     1       8.464   9.535  16.669  1.00  0.00     0.200 A 
ATOM      7  O   UNL     1       7.914   9.477  17.803  1.00  0.00    -0.288 OA
ATOM      8  C   UNL     1      10.453   8.370  17.514  1.00  0.00     0.020 A 
ATOM      9  C   UNL     1      11.734   7.868  17.292  1.00  0.00     0.047 A 
ATOM     10  C   UNL     1      12.334   7.976  16.032  1.00  0.00     0.125 A 
ATOM     11  C   UNL     1      11.637   8.581  14.962  1.00  0.00     0.069 A 
ENDROOT
BRANCH   1  12
ATOM     12  C   UNL     1       6.445  10.736  15.734  1.00  0.00    -0.011 A 
ATOM     13  C   UNL     1       6.262  12.130  15.740  1.00  0.00     0.013 A 
ATOM     14  C   UNL     1       4.980  12.676  15.863  1.00  0.00     0.047 A 
ATOM     15  C   UNL     1       3.867  11.838  15.976  1.00  0.00     0.115 A 
ATOM     16  C   UNL     1       5.319   9.900  15.841  1.00  0.00     0.013 A 
ATOM     17  C   UNL     1       4.039  10.447  15.963  1.00  0.00     0.047 A 
BRANCH  15  18
ATOM     18  O   UNL     1       2.595  12.395  16.098  1.00  0.00    -0.508 OA
ATOM     19  H   UNL     1       2.405  13.349  15.814  1.00  0.00     0.293 HD
ENDBRANCH  15  18
ENDBRANCH   1  12
BRANCH  11  20
ATOM     20  C   UNL     1      12.292   8.718  13.596  1.00  0.00     0.188 C 
ATOM     21  C   UNL     1      12.002   7.458  12.731  1.00  0.00     0.179 C 
ATOM     22  O   UNL     1      13.687   8.921  13.757  1.00  0.00    -0.362 OA
ATOM     23  C   UNL     1      13.054   7.282  11.602  1.00  0.00     0.177 C 
ATOM     24  C   UNL     1      14.356   9.233  12.535  1.00  0.00     0.176 C 
ATOM     25  C   UNL     1      13.696   8.634  11.256  1.00  0.00     0.177 C 
BRANCH  21  26
ATOM     26  O   UNL     1      10.692   7.515  12.216  1.00  0.00    -0.387 OA
ATOM     27  H   UNL     1      10.686   7.025  11.353  1.00  0.00     0.211 HD
ENDBRANCH  21  26
BRANCH  23  28
ATOM     28  O   UNL     1      12.476   6.722  10.450  1.00  0.00    -0.387 OA
ATOM     29  H   UNL     1      12.959   7.109   9.673  1.00  0.00     0.211 HD
ENDBRANCH  23  28
BRANCH  24  30
ATOM     30  C   UNL     1      14.598  10.746  12.418  1.00  0.00     0.191 C 
BRANCH  30  31
ATOM     31  O   UNL     1      14.047  11.251  11.233  1.00  0.00    -0.394 OA
ATOM     32  H   UNL     1      13.443  11.991  11.503  1.00  0.00     0.210 HD
ENDBRANCH  30  31
ENDBRANCH  24  30
BRANCH  25  33
ATOM     33  O   UNL     1      14.634   8.502  10.216  1.00  0.00    -0.388 OA
ATOM     34  H   UNL     1      15.374   7.926  10.544  1.00  0.00     0.211 HD
ENDBRANCH  25  33
ENDBRANCH  11  20
BRANCH  10  35
ATOM     35  O   UNL     1      13.626   7.482  15.844  1.00  0.00    -0.507 OA
ATOM     36  H   UNL     1      13.885   6.973  15.006  1.00  0.00     0.293 HD
ENDBRANCH  10  35
TORSDOF 9
ENDMDL
