MODEL 1
REMARK VINA RESULT:    -5.237      0.000      0.000
REMARK INTER + INTRA:          -5.635
REMARK INTER:                  -5.850
REMARK INTRA:                   0.215
REMARK UNBOUND:                 0.215
REMARK SMILES O=C([O-])c1ccccc1C(=O)[O-]
REMARK SMILES IDX 4 1 9 2 5 3 8 4 6 5 7 6 2 7 1 8 3 9 10 10 11 11 12 12
REMARK H PARENT
REMARK Flexibility Score: inf
ROOT
ATOM      1  C   UNL     1      -5.583  35.795  21.843  1.00  0.00     0.006 A 
ATOM      2  C   UNL     1      -5.447  37.041  22.514  1.00  0.00     0.006 A 
ATOM      3  C   UNL     1      -5.943  34.654  22.586  1.00  0.00     0.010 A 
ATOM      4  C   UNL     1      -5.613  37.089  23.912  1.00  0.00     0.010 A 
ATOM      5  C   UNL     1      -6.125  34.729  23.966  1.00  0.00     0.001 A 
ATOM      6  C   UNL     1      -5.948  35.941  24.629  1.00  0.00     0.001 A 
ENDROOT
BRANCH   1   7
ATOM      7  C   UNL     1      -5.293  35.619  20.401  1.00  0.00     0.072 C 
ATOM      8  O   UNL     1      -4.266  36.131  19.884  1.00  0.00    -0.545 OA
ATOM      9  O   UNL     1      -6.122  34.828  19.614  1.00  0.00    -0.545 OA
ENDBRANCH   1   7
BRANCH   2  10
ATOM     10  C   UNL     1      -5.207  38.315  21.797  1.00  0.00     0.072 C 
ATOM     11  O   UNL     1      -4.262  39.071  22.146  1.00  0.00    -0.545 OA
ATOM     12  O   UNL     1      -6.057  38.723  20.775  1.00  0.00    -0.545 OA
ENDBRANCH   2  10
TORSDOF 2
ENDMDL
MODEL 2
REMARK VINA RESULT:    -5.167      0.128      3.014
REMARK INTER + INTRA:          -5.556
REMARK INTER:                  -5.831
REMARK INTRA:                   0.275
REMARK UNBOUND:                 0.215
REMARK SMILES O=C([O-])c1ccccc1C(=O)[O-]
REMARK SMILES IDX 4 1 9 2 5 3 8 4 6 5 7 6 2 7 1 8 3 9 10 10 11 11 12 12
REMARK H PARENT
REMARK Flexibility Score: inf
ROOT
ATOM      1  C   UNL     1      -5.457  37.093  22.607  1.00  0.00     0.006 A 
ATOM      2  C   UNL     1      -5.621  35.840  21.954  1.00  0.00     0.006 A 
ATOM      3  C   UNL     1      -5.589  37.155  24.007  1.00  0.00     0.010 A 
ATOM      4  C   UNL     1      -5.972  34.709  22.716  1.00  0.00     0.010 A 
ATOM      5  C   UNL     1      -5.915  36.018  24.746  1.00  0.00     0.001 A 
ATOM      6  C   UNL     1      -6.118  34.801  24.100  1.00  0.00     0.001 A 
ENDROOT
BRANCH   1   7
ATOM      7  C   UNL     1      -5.223  38.359  21.876  1.00  0.00     0.072 C 
ATOM      8  O   UNL     1      -4.249  39.101  22.169  1.00  0.00    -0.545 OA
ATOM      9  O   UNL     1      -6.042  38.710  20.809  1.00  0.00    -0.545 OA
ENDBRANCH   1   7
BRANCH   2  10
ATOM     10  C   UNL     1      -5.365  35.653  20.506  1.00  0.00     0.072 C 
ATOM     11  O   UNL     1      -6.125  34.920  19.818  1.00  0.00    -0.545 OA
ATOM     12  O   UNL     1      -4.253  36.229  19.902  1.00  0.00    -0.545 OA
ENDBRANCH   2  10
TORSDOF 2
ENDMDL
MODEL 3
REMARK VINA RESULT:    -4.318      2.167      3.853
REMARK INTER + INTRA:          -4.608
REMARK INTER:                  -5.641
REMARK INTRA:                   1.033
REMARK UNBOUND:                 0.215
REMARK SMILES O=C([O-])c1ccccc1C(=O)[O-]
REMARK SMILES IDX 4 1 9 2 5 3 8 4 6 5 7 6 2 7 1 8 3 9 10 10 11 11 12 12
REMARK H PARENT
REMARK Flexibility Score: inf
ROOT
ATOM      1  C   UNL     1      -5.211  37.791  21.551  1.00  0.00     0.006 A 
ATOM      2  C   UNL     1      -5.331  36.621  22.350  1.00  0.00     0.006 A 
ATOM      3  C   UNL     1      -5.066  37.654  20.157  1.00  0.00     0.010 A 
ATOM      4  C   UNL     1      -5.237  35.357  21.735  1.00  0.00     0.010 A 
ATOM      5  C   UNL     1      -4.998  36.393  19.566  1.00  0.00     0.001 A 
ATOM      6  C   UNL     1      -5.071  35.247  20.355  1.00  0.00     0.001 A 
ENDROOT
BRANCH   1   7
ATOM      7  C   UNL     1      -5.159  39.156  22.122  1.00  0.00     0.072 C 
ATOM      8  O   UNL     1      -4.224  39.496  22.894  1.00  0.00    -0.545 OA
ATOM      9  O   UNL     1      -6.110  40.101  21.756  1.00  0.00    -0.545 OA
ENDBRANCH   1   7
BRANCH   2  10
ATOM     10  C   UNL     1      -5.624  36.670  23.802  1.00  0.00     0.072 C 
ATOM     11  O   UNL     1      -5.367  37.709  24.466  1.00  0.00    -0.545 OA
ATOM     12  O   UNL     1      -6.125  35.554  24.462  1.00  0.00    -0.545 OA
ENDBRANCH   2  10
TORSDOF 2
ENDMDL
MODEL 4
REMARK VINA RESULT:    -4.258      2.114      3.447
REMARK INTER + INTRA:          -4.541
REMARK INTER:                  -5.332
REMARK INTRA:                   0.791
REMARK UNBOUND:                 0.215
REMARK SMILES O=C([O-])c1ccccc1C(=O)[O-]
REMARK SMILES IDX 4 1 9 2 5 3 8 4 6 5 7 6 2 7 1 8 3 9 10 10 11 11 12 12
REMARK H PARENT
REMARK Flexibility Score: inf
ROOT
ATOM      1  C   UNL     1      -5.369  36.548  22.260  1.00  0.00     0.006 A 
ATOM      2  C   UNL     1      -5.252  37.691  21.422  1.00  0.00     0.006 A 
ATOM      3  C   UNL     1      -5.297  35.266  21.682  1.00  0.00     0.010 A 
ATOM      4  C   UNL     1      -5.131  37.511  20.030  1.00  0.00     0.010 A 
ATOM      5  C   UNL     1      -5.154  35.111  20.304  1.00  0.00     0.001 A 
ATOM      6  C   UNL     1      -5.084  36.231  19.479  1.00  0.00     0.001 A 
ENDROOT
BRANCH   1   7
ATOM      7  C   UNL     1      -5.636  36.638  23.714  1.00  0.00     0.072 C 
ATOM      8  O   UNL     1      -6.115  35.658  24.343  1.00  0.00    -0.545 OA
ATOM      9  O   UNL     1      -5.296  37.789  24.415  1.00  0.00    -0.545 OA
ENDBRANCH   1   7
BRANCH   2  10
ATOM     10  C   UNL     1      -5.178  39.071  21.956  1.00  0.00     0.072 C 
ATOM     11  O   UNL     1      -6.107  39.891  21.725  1.00  0.00    -0.545 OA
ATOM     12  O   UNL     1      -4.059  39.499  22.661  1.00  0.00    -0.545 OA
ENDBRANCH   2  10
TORSDOF 2
ENDMDL
MODEL 5
REMARK VINA RESULT:    -4.040      2.011      3.295
REMARK INTER + INTRA:          -4.298
REMARK INTER:                  -5.216
REMARK INTRA:                   0.918
REMARK UNBOUND:                 0.215
REMARK SMILES O=C([O-])c1ccccc1C(=O)[O-]
REMARK SMILES IDX 4 1 9 2 5 3 8 4 6 5 7 6 2 7 1 8 3 9 10 10 11 11 12 12
REMARK H PARENT
REMARK Flexibility Score: inf
ROOT
ATOM      1  C   UNL     1      -5.188  37.032  21.742  1.00  0.00     0.006 A 
ATOM      2  C   UNL     1      -5.333  36.699  23.118  1.00  0.00     0.006 A 
ATOM      3  C   UNL     1      -4.975  38.376  21.383  1.00  0.00     0.010 A 
ATOM      4  C   UNL     1      -5.323  37.730  24.077  1.00  0.00     0.010 A 
ATOM      5  C   UNL     1      -4.947  39.378  22.352  1.00  0.00     0.001 A 
ATOM      6  C   UNL     1      -5.133  39.058  23.694  1.00  0.00     0.001 A 
ENDROOT
BRANCH   1   7
ATOM      7  C   UNL     1      -5.321  36.036  20.654  1.00  0.00     0.072 C 
ATOM      8  O   UNL     1      -6.124  35.072  20.758  1.00  0.00    -0.545 OA
ATOM      9  O   UNL     1      -4.607  36.196  19.472  1.00  0.00    -0.545 OA
ENDBRANCH   1   7
BRANCH   2  10
ATOM     10  C   UNL     1      -5.422  35.300  23.598  1.00  0.00     0.072 C 
ATOM     11  O   UNL     1      -6.125  35.019  24.605  1.00  0.00    -0.545 OA
ATOM     12  O   UNL     1      -4.684  34.293  22.987  1.00  0.00    -0.545 OA
ENDBRANCH   2  10
TORSDOF 2
ENDMDL
MODEL 6
REMARK VINA RESULT:    -4.001      1.873      3.426
REMARK INTER + INTRA:          -4.254
REMARK INTER:                  -4.840
REMARK INTRA:                   0.587
REMARK UNBOUND:                 0.215
REMARK SMILES O=C([O-])c1ccccc1C(=O)[O-]
REMARK SMILES IDX 4 1 9 2 5 3 8 4 6 5 7 6 2 7 1 8 3 9 10 10 11 11 12 12
REMARK H PARENT
REMARK Flexibility Score: inf
ROOT
ATOM      1  C   UNL     1      -5.295  36.579  22.936  1.00  0.00     0.006 A 
ATOM      2  C   UNL     1      -5.138  36.985  21.582  1.00  0.00     0.006 A 
ATOM      3  C   UNL     1      -5.374  37.563  23.940  1.00  0.00     0.010 A 
ATOM      4  C   UNL     1      -5.001  38.355  21.289  1.00  0.00     0.010 A 
ATOM      5  C   UNL     1      -5.258  38.916  23.624  1.00  0.00     0.001 A 
ATOM      6  C   UNL     1      -5.060  39.310  22.303  1.00  0.00     0.001 A 
ENDROOT
BRANCH   1   7
ATOM      7  C   UNL     1      -5.310  35.158  23.356  1.00  0.00     0.072 C 
ATOM      8  O   UNL     1      -6.125  34.753  24.226  1.00  0.00    -0.545 OA
ATOM      9  O   UNL     1      -4.466  34.241  22.741  1.00  0.00    -0.545 OA
ENDBRANCH   1   7
BRANCH   2  10
ATOM     10  C   UNL     1      -5.184  36.030  20.450  1.00  0.00     0.072 C 
ATOM     11  O   UNL     1      -4.407  36.172  19.468  1.00  0.00    -0.545 OA
ATOM     12  O   UNL     1      -6.125  35.007  20.423  1.00  0.00    -0.545 OA
ENDBRANCH   2  10
TORSDOF 2
ENDMDL
MODEL 7
REMARK VINA RESULT:    -3.858      1.157      1.672
REMARK INTER + INTRA:          -4.094
REMARK INTER:                  -5.178
REMARK INTRA:                   1.084
REMARK UNBOUND:                 0.215
REMARK SMILES O=C([O-])c1ccccc1C(=O)[O-]
REMARK SMILES IDX 4 1 9 2 5 3 8 4 6 5 7 6 2 7 1 8 3 9 10 10 11 11 12 12
REMARK H PARENT
REMARK Flexibility Score: inf
ROOT
ATOM      1  C   UNL     1      -5.497  36.586  21.894  1.00  0.00     0.006 A 
ATOM      2  C   UNL     1      -5.395  37.330  23.101  1.00  0.00     0.006 A 
ATOM      3  C   UNL     1      -5.872  35.231  21.957  1.00  0.00     0.010 A 
ATOM      4  C   UNL     1      -5.609  36.677  24.330  1.00  0.00     0.010 A 
ATOM      5  C   UNL     1      -6.101  34.609  23.183  1.00  0.00     0.001 A 
ATOM      6  C   UNL     1      -5.957  35.327  24.368  1.00  0.00     0.001 A 
ENDROOT
BRANCH   1   7
ATOM      7  C   UNL     1      -5.158  37.150  20.567  1.00  0.00     0.072 C 
ATOM      8  O   UNL     1      -4.184  36.702  19.907  1.00  0.00    -0.545 OA
ATOM      9  O   UNL     1      -5.956  38.139  20.005  1.00  0.00    -0.545 OA
ENDBRANCH   1   7
BRANCH   2  10
ATOM     10  C   UNL     1      -5.143  38.790  23.123  1.00  0.00     0.072 C 
ATOM     11  O   UNL     1      -4.861  39.401  22.057  1.00  0.00    -0.545 OA
ATOM     12  O   UNL     1      -5.150  39.494  24.321  1.00  0.00    -0.545 OA
ENDBRANCH   2  10
TORSDOF 2
ENDMDL
MODEL 8
REMARK VINA RESULT:    -3.711      1.426      3.293
REMARK INTER + INTRA:          -3.930
REMARK INTER:                  -4.378
REMARK INTRA:                   0.448
REMARK UNBOUND:                 0.215
REMARK SMILES O=C([O-])c1ccccc1C(=O)[O-]
REMARK SMILES IDX 4 1 9 2 5 3 8 4 6 5 7 6 2 7 1 8 3 9 10 10 11 11 12 12
REMARK H PARENT
REMARK Flexibility Score: inf
ROOT
ATOM      1  C   UNL     1      -5.407  36.739  23.658  1.00  0.00     0.006 A 
ATOM      2  C   UNL     1      -5.441  36.589  22.244  1.00  0.00     0.006 A 
ATOM      3  C   UNL     1      -5.695  35.625  24.470  1.00  0.00     0.010 A 
ATOM      4  C   UNL     1      -5.823  35.350  21.694  1.00  0.00     0.010 A 
ATOM      5  C   UNL     1      -6.049  34.401  23.904  1.00  0.00     0.001 A 
ATOM      6  C   UNL     1      -6.125  34.267  22.520  1.00  0.00     0.001 A 
ENDROOT
BRANCH   1   7
ATOM      7  C   UNL     1      -5.151  38.035  24.326  1.00  0.00     0.072 C 
ATOM      8  O   UNL     1      -4.640  38.077  25.476  1.00  0.00    -0.545 OA
ATOM      9  O   UNL     1      -5.412  39.227  23.659  1.00  0.00    -0.545 OA
ENDBRANCH   1   7
BRANCH   2  10
ATOM     10  C   UNL     1      -5.019  37.664  21.315  1.00  0.00     0.072 C 
ATOM     11  O   UNL     1      -5.829  38.121  20.465  1.00  0.00    -0.545 OA
ATOM     12  O   UNL     1      -3.712  38.136  21.324  1.00  0.00    -0.545 OA
ENDBRANCH   2  10
TORSDOF 2
ENDMDL
MODEL 9
REMARK VINA RESULT:    -3.020      2.181      4.414
REMARK INTER + INTRA:          -3.159
REMARK INTER:                  -3.756
REMARK INTRA:                   0.597
REMARK UNBOUND:                 0.215
REMARK SMILES O=C([O-])c1ccccc1C(=O)[O-]
REMARK SMILES IDX 4 1 9 2 5 3 8 4 6 5 7 6 2 7 1 8 3 9 10 10 11 11 12 12
REMARK H PARENT
REMARK Flexibility Score: inf
ROOT
ATOM      1  C   UNL     1      -5.334  37.264  22.613  1.00  0.00     0.006 A 
ATOM      2  C   UNL     1      -5.057  36.076  21.881  1.00  0.00     0.006 A 
ATOM      3  C   UNL     1      -5.515  38.472  21.913  1.00  0.00     0.010 A 
ATOM      4  C   UNL     1      -4.908  36.152  20.483  1.00  0.00     0.010 A 
ATOM      5  C   UNL     1      -5.384  38.519  20.525  1.00  0.00     0.001 A 
ATOM      6  C   UNL     1      -5.070  37.364  19.813  1.00  0.00     0.001 A 
ENDROOT
BRANCH   1   7
ATOM      7  C   UNL     1      -5.373  37.308  24.093  1.00  0.00     0.072 C 
ATOM      8  O   UNL     1      -5.909  36.378  24.751  1.00  0.00    -0.545 OA
ATOM      9  O   UNL     1      -4.756  38.350  24.776  1.00  0.00    -0.545 OA
ENDBRANCH   1   7
BRANCH   2  10
ATOM     10  C   UNL     1      -4.989  34.741  22.519  1.00  0.00     0.072 C 
ATOM     11  O   UNL     1      -3.911  34.089  22.513  1.00  0.00    -0.545 OA
ATOM     12  O   UNL     1      -6.125  34.161  23.073  1.00  0.00    -0.545 OA
ENDBRANCH   2  10
TORSDOF 2
ENDMDL
