MODEL 1
REMARK VINA RESULT:    -7.546      0.000      0.000
REMARK INTER + INTRA:          -8.683
REMARK INTER:                  -8.869
REMARK INTRA:                   0.186
REMARK UNBOUND:                 0.186
REMARK SMILES O=c1c(O)c(-c2ccc(O)c(O)c2)oc2cc(O)ccc12
REMARK SMILES IDX 5 1 3 2 2 3 1 4 21 5 15 6 14 7 16 8 17 9 19 10 20 11 6 12
REMARK SMILES IDX 7 13 8 14 9 15 13 16 11 17 10 18 12 20 4 22 18 24
REMARK H PARENT 10 19 12 21 4 23 18 25
REMARK Flexibility Score: inf
ROOT
ATOM      1  C   UNL     1       2.338   4.586 -21.900  1.00  0.00     0.180 A 
ATOM      2  C   UNL     1       2.770   5.100 -20.661  1.00  0.00     0.208 A 
ATOM      3  C   UNL     1       2.287   4.515 -19.479  1.00  0.00     0.235 A 
ATOM      4  O   UNL     1       2.652   4.964 -18.358  1.00  0.00    -0.285 OA
ATOM      5  C   UNL     1       1.406   3.425 -19.560  1.00  0.00     0.069 A 
ATOM      6  C   UNL     1       1.039   2.954 -20.838  1.00  0.00     0.142 A 
ATOM      7  O   UNL     1       1.512   3.541 -21.932  1.00  0.00    -0.452 OA
ATOM      8  C   UNL     1       0.170   1.863 -20.959  1.00  0.00     0.094 A 
ATOM      9  C   UNL     1      -0.339   1.237 -19.814  1.00  0.00     0.119 A 
ATOM     10  C   UNL     1       0.021   1.704 -18.546  1.00  0.00     0.047 A 
ATOM     11  C   UNL     1       0.890   2.792 -18.414  1.00  0.00     0.020 A 
ENDROOT
BRANCH   1  12
ATOM     12  C   UNL     1       2.786   5.159 -23.189  1.00  0.00     0.025 A 
ATOM     13  C   UNL     1       2.935   6.550 -23.311  1.00  0.00     0.016 A 
ATOM     14  C   UNL     1       3.376   7.112 -24.511  1.00  0.00     0.051 A 
ATOM     15  C   UNL     1       3.689   6.295 -25.602  1.00  0.00     0.157 A 
ATOM     16  C   UNL     1       3.122   4.338 -24.280  1.00  0.00     0.062 A 
ATOM     17  C   UNL     1       3.566   4.900 -25.486  1.00  0.00     0.158 A 
BRANCH  15  18
ATOM     18  O   UNL     1       4.125   6.885 -26.788  1.00  0.00    -0.504 OA
ATOM     19  H   UNL     1       5.080   6.797 -27.113  1.00  0.00     0.293 HD
ENDBRANCH  15  18
BRANCH  17  20
ATOM     20  O   UNL     1       3.891   4.079 -26.564  1.00  0.00    -0.504 OA
ATOM     21  H   UNL     1       4.726   3.504 -26.561  1.00  0.00     0.293 HD
ENDBRANCH  17  20
ENDBRANCH   1  12
BRANCH   2  22
ATOM     22  O   UNL     1       3.687   6.153 -20.613  1.00  0.00    -0.502 OA
ATOM     23  H   UNL     1       4.242   6.426 -21.415  1.00  0.00     0.293 HD
ENDBRANCH   2  22
BRANCH   9  24
ATOM     24  O   UNL     1      -1.205   0.151 -19.926  1.00  0.00    -0.508 OA
ATOM     25  H   UNL     1      -2.056   0.093 -19.378  1.00  0.00     0.293 HD
ENDBRANCH   9  24
TORSDOF 5
ENDMDL
MODEL 2
REMARK VINA RESULT:    -7.233      0.914      1.508
REMARK INTER + INTRA:          -8.316
REMARK INTER:                  -8.070
REMARK INTRA:                  -0.246
REMARK UNBOUND:                 0.186
REMARK SMILES O=c1c(O)c(-c2ccc(O)c(O)c2)oc2cc(O)ccc12
REMARK SMILES IDX 5 1 3 2 2 3 1 4 21 5 15 6 14 7 16 8 17 9 19 10 20 11 6 12
REMARK SMILES IDX 7 13 8 14 9 15 13 16 11 17 10 18 12 20 4 22 18 24
REMARK H PARENT 10 19 12 21 4 23 18 25
REMARK Flexibility Score: inf
ROOT
ATOM      1  C   UNL     1       2.095   4.272 -22.214  1.00  0.00     0.180 A 
ATOM      2  C   UNL     1       2.551   4.897 -21.035  1.00  0.00     0.208 A 
ATOM      3  C   UNL     1       2.173   4.357 -19.794  1.00  0.00     0.235 A 
ATOM      4  O   UNL     1       2.560   4.903 -18.725  1.00  0.00    -0.285 OA
ATOM      5  C   UNL     1       1.372   3.205 -19.759  1.00  0.00     0.069 A 
ATOM      6  C   UNL     1       0.976   2.626 -20.984  1.00  0.00     0.142 A 
ATOM      7  O   UNL     1       1.347   3.172 -22.136  1.00  0.00    -0.452 OA
ATOM      8  C   UNL     1       0.185   1.472 -20.989  1.00  0.00     0.094 A 
ATOM      9  C   UNL     1      -0.218   0.888 -19.780  1.00  0.00     0.119 A 
ATOM     10  C   UNL     1       0.171   1.460 -18.565  1.00  0.00     0.047 A 
ATOM     11  C   UNL     1       0.963   2.614 -18.549  1.00  0.00     0.020 A 
ENDROOT
BRANCH   1  12
ATOM     12  C   UNL     1       2.433   4.791 -23.559  1.00  0.00     0.025 A 
ATOM     13  C   UNL     1       3.291   4.051 -24.388  1.00  0.00     0.016 A 
ATOM     14  C   UNL     1       3.608   4.510 -25.669  1.00  0.00     0.051 A 
ATOM     15  C   UNL     1       3.064   5.706 -26.146  1.00  0.00     0.157 A 
ATOM     16  C   UNL     1       1.869   5.982 -24.049  1.00  0.00     0.062 A 
ATOM     17  C   UNL     1       2.185   6.445 -25.335  1.00  0.00     0.158 A 
BRANCH  15  18
ATOM     18  O   UNL     1       3.400   6.141 -27.427  1.00  0.00    -0.504 OA
ATOM     19  H   UNL     1       3.293   7.107 -27.713  1.00  0.00     0.293 HD
ENDBRANCH  15  18
BRANCH  17  20
ATOM     20  O   UNL     1       1.628   7.630 -25.810  1.00  0.00    -0.504 OA
ATOM     21  H   UNL     1       2.114   8.516 -25.727  1.00  0.00     0.293 HD
ENDBRANCH  17  20
ENDBRANCH   1  12
BRANCH   2  22
ATOM     22  O   UNL     1       3.388   6.012 -21.102  1.00  0.00    -0.502 OA
ATOM     23  H   UNL     1       4.360   5.945 -21.383  1.00  0.00     0.293 HD
ENDBRANCH   2  22
BRANCH   9  24
ATOM     24  O   UNL     1      -1.006  -0.261 -19.777  1.00  0.00    -0.508 OA
ATOM     25  H   UNL     1      -1.602  -0.498 -20.562  1.00  0.00     0.293 HD
ENDBRANCH   9  24
TORSDOF 5
ENDMDL
MODEL 3
REMARK VINA RESULT:    -7.060      2.203      3.828
REMARK INTER + INTRA:          -8.113
REMARK INTER:                  -7.821
REMARK INTRA:                  -0.292
REMARK UNBOUND:                 0.186
REMARK SMILES O=c1c(O)c(-c2ccc(O)c(O)c2)oc2cc(O)ccc12
REMARK SMILES IDX 5 1 3 2 2 3 1 4 21 5 15 6 14 7 16 8 17 9 19 10 20 11 6 12
REMARK SMILES IDX 7 13 8 14 9 15 13 16 11 17 10 18 12 20 4 22 18 24
REMARK H PARENT 10 19 12 21 4 23 18 25
REMARK Flexibility Score: inf
ROOT
ATOM      1  C   UNL     1       1.090   2.762 -22.440  1.00  0.00     0.180 A 
ATOM      2  C   UNL     1       0.587   1.496 -22.074  1.00  0.00     0.208 A 
ATOM      3  C   UNL     1       0.483   1.179 -20.710  1.00  0.00     0.235 A 
ATOM      4  O   UNL     1       0.045   0.049 -20.357  1.00  0.00    -0.285 OA
ATOM      5  C   UNL     1       0.861   2.130 -19.750  1.00  0.00     0.069 A 
ATOM      6  C   UNL     1       1.332   3.383 -20.197  1.00  0.00     0.142 A 
ATOM      7  O   UNL     1       1.424   3.641 -21.497  1.00  0.00    -0.452 OA
ATOM      8  C   UNL     1       1.710   4.361 -19.270  1.00  0.00     0.094 A 
ATOM      9  C   UNL     1       1.622   4.100 -17.895  1.00  0.00     0.119 A 
ATOM     10  C   UNL     1       1.157   2.859 -17.449  1.00  0.00     0.047 A 
ATOM     11  C   UNL     1       0.776   1.876 -18.368  1.00  0.00     0.020 A 
ENDROOT
BRANCH   1  12
ATOM     12  C   UNL     1       1.248   3.165 -23.856  1.00  0.00     0.025 A 
ATOM     13  C   UNL     1       2.499   3.026 -24.478  1.00  0.00     0.016 A 
ATOM     14  C   UNL     1       2.667   3.381 -25.818  1.00  0.00     0.051 A 
ATOM     15  C   UNL     1       1.586   3.865 -26.562  1.00  0.00     0.157 A 
ATOM     16  C   UNL     1       0.157   3.631 -24.612  1.00  0.00     0.062 A 
ATOM     17  C   UNL     1       0.323   3.986 -25.959  1.00  0.00     0.158 A 
BRANCH  15  18
ATOM     18  O   UNL     1       1.784   4.213 -27.898  1.00  0.00    -0.504 OA
ATOM     19  H   UNL     1       1.831   5.178 -28.201  1.00  0.00     0.293 HD
ENDBRANCH  15  18
BRANCH  17  20
ATOM     20  O   UNL     1      -0.761   4.453 -26.699  1.00  0.00    -0.504 OA
ATOM     21  H   UNL     1      -0.639   4.868 -27.616  1.00  0.00     0.293 HD
ENDBRANCH  17  20
ENDBRANCH   1  12
BRANCH   2  22
ATOM     22  O   UNL     1       0.172   0.589 -23.052  1.00  0.00    -0.502 OA
ATOM     23  H   UNL     1       0.692  -0.254 -23.264  1.00  0.00     0.293 HD
ENDBRANCH   2  22
BRANCH   9  24
ATOM     24  O   UNL     1       1.996   5.068 -16.966  1.00  0.00    -0.508 OA
ATOM     25  H   UNL     1       1.878   4.921 -15.970  1.00  0.00     0.293 HD
ENDBRANCH   9  24
TORSDOF 5
ENDMDL
MODEL 4
REMARK VINA RESULT:    -6.869      1.994      3.459
REMARK INTER + INTRA:          -7.888
REMARK INTER:                  -7.588
REMARK INTRA:                  -0.300
REMARK UNBOUND:                 0.186
REMARK SMILES O=c1c(O)c(-c2ccc(O)c(O)c2)oc2cc(O)ccc12
REMARK SMILES IDX 5 1 3 2 2 3 1 4 21 5 15 6 14 7 16 8 17 9 19 10 20 11 6 12
REMARK SMILES IDX 7 13 8 14 9 15 13 16 11 17 10 18 12 20 4 22 18 24
REMARK H PARENT 10 19 12 21 4 23 18 25
REMARK Flexibility Score: inf
ROOT
ATOM      1  C   UNL     1       1.022   3.450 -23.282  1.00  0.00     0.180 A 
ATOM      2  C   UNL     1      -0.072   2.703 -23.766  1.00  0.00     0.208 A 
ATOM      3  C   UNL     1      -0.766   1.867 -22.876  1.00  0.00     0.235 A 
ATOM      4  O   UNL     1      -1.742   1.180 -23.286  1.00  0.00    -0.285 OA
ATOM      5  C   UNL     1      -0.369   1.810 -21.531  1.00  0.00     0.069 A 
ATOM      6  C   UNL     1       0.721   2.607 -21.120  1.00  0.00     0.142 A 
ATOM      7  O   UNL     1       1.357   3.378 -21.995  1.00  0.00    -0.452 OA
ATOM      8  C   UNL     1       1.141   2.585 -19.785  1.00  0.00     0.094 A 
ATOM      9  C   UNL     1       0.482   1.772 -18.852  1.00  0.00     0.119 A 
ATOM     10  C   UNL     1      -0.597   0.980 -19.257  1.00  0.00     0.047 A 
ATOM     11  C   UNL     1      -1.025   0.996 -20.589  1.00  0.00     0.020 A 
ENDROOT
BRANCH   1  12
ATOM     12  C   UNL     1       1.816   4.339 -24.161  1.00  0.00     0.025 A 
ATOM     13  C   UNL     1       2.993   3.853 -24.752  1.00  0.00     0.016 A 
ATOM     14  C   UNL     1       3.747   4.668 -25.600  1.00  0.00     0.051 A 
ATOM     15  C   UNL     1       3.330   5.972 -25.883  1.00  0.00     0.157 A 
ATOM     16  C   UNL     1       1.386   5.643 -24.464  1.00  0.00     0.062 A 
ATOM     17  C   UNL     1       2.141   6.462 -25.317  1.00  0.00     0.158 A 
BRANCH  15  18
ATOM     18  O   UNL     1       4.105   6.762 -26.732  1.00  0.00    -0.504 OA
ATOM     19  H   UNL     1       3.773   7.060 -27.641  1.00  0.00     0.293 HD
ENDBRANCH  15  18
BRANCH  17  20
ATOM     20  O   UNL     1       1.713   7.756 -25.607  1.00  0.00    -0.504 OA
ATOM     21  H   UNL     1       0.740   8.027 -25.512  1.00  0.00     0.293 HD
ENDBRANCH  17  20
ENDBRANCH   1  12
BRANCH   2  22
ATOM     22  O   UNL     1      -0.475   2.818 -25.098  1.00  0.00    -0.502 OA
ATOM     23  H   UNL     1      -0.145   3.562 -25.702  1.00  0.00     0.293 HD
ENDBRANCH   2  22
BRANCH   9  24
ATOM     24  O   UNL     1       0.894   1.744 -17.522  1.00  0.00    -0.508 OA
ATOM     25  H   UNL     1       0.471   2.345 -16.824  1.00  0.00     0.293 HD
ENDBRANCH   9  24
TORSDOF 5
ENDMDL
MODEL 5
REMARK VINA RESULT:    -6.646      2.381      7.113
REMARK INTER + INTRA:          -7.626
REMARK INTER:                  -7.334
REMARK INTRA:                  -0.292
REMARK UNBOUND:                 0.186
REMARK SMILES O=c1c(O)c(-c2ccc(O)c(O)c2)oc2cc(O)ccc12
REMARK SMILES IDX 5 1 3 2 2 3 1 4 21 5 15 6 14 7 16 8 17 9 19 10 20 11 6 12
REMARK SMILES IDX 7 13 8 14 9 15 13 16 11 17 10 18 12 20 4 22 18 24
REMARK H PARENT 10 19 12 21 4 23 18 25
REMARK Flexibility Score: inf
ROOT
ATOM      1  C   UNL     1       0.788   2.604 -22.512  1.00  0.00     0.180 A 
ATOM      2  C   UNL     1      -0.490   2.698 -23.099  1.00  0.00     0.208 A 
ATOM      3  C   UNL     1      -0.596   3.167 -24.419  1.00  0.00     0.235 A 
ATOM      4  O   UNL     1      -1.730   3.270 -24.963  1.00  0.00    -0.285 OA
ATOM      5  C   UNL     1       0.568   3.510 -25.124  1.00  0.00     0.069 A 
ATOM      6  C   UNL     1       1.813   3.366 -24.474  1.00  0.00     0.142 A 
ATOM      7  O   UNL     1       1.869   2.927 -23.222  1.00  0.00    -0.452 OA
ATOM      8  C   UNL     1       2.996   3.689 -25.147  1.00  0.00     0.094 A 
ATOM      9  C   UNL     1       2.951   4.157 -26.467  1.00  0.00     0.119 A 
ATOM     10  C   UNL     1       1.719   4.303 -27.113  1.00  0.00     0.047 A 
ATOM     11  C   UNL     1       0.531   3.982 -26.449  1.00  0.00     0.020 A 
ENDROOT
BRANCH   1  12
ATOM     12  C   UNL     1       0.982   2.137 -21.120  1.00  0.00     0.025 A 
ATOM     13  C   UNL     1       1.115   3.080 -20.089  1.00  0.00     0.016 A 
ATOM     14  C   UNL     1       1.278   2.662 -18.765  1.00  0.00     0.051 A 
ATOM     15  C   UNL     1       1.296   1.300 -18.451  1.00  0.00     0.157 A 
ATOM     16  C   UNL     1       0.978   0.768 -20.799  1.00  0.00     0.062 A 
ATOM     17  C   UNL     1       1.140   0.347 -19.471  1.00  0.00     0.158 A 
BRANCH  15  18
ATOM     18  O   UNL     1       1.462   0.914 -17.122  1.00  0.00    -0.504 OA
ATOM     19  H   UNL     1       1.074   0.051 -16.759  1.00  0.00     0.293 HD
ENDBRANCH  15  18
BRANCH  17  20
ATOM     20  O   UNL     1       1.142  -1.012 -19.162  1.00  0.00    -0.504 OA
ATOM     21  H   UNL     1       0.459  -1.414 -18.530  1.00  0.00     0.293 HD
ENDBRANCH  17  20
ENDBRANCH   1  12
BRANCH   2  22
ATOM     22  O   UNL     1      -1.626   2.302 -22.390  1.00  0.00    -0.502 OA
ATOM     23  H   UNL     1      -2.562   2.569 -22.672  1.00  0.00     0.293 HD
ENDBRANCH   2  22
BRANCH   9  24
ATOM     24  O   UNL     1       4.124   4.481 -27.145  1.00  0.00    -0.508 OA
ATOM     25  H   UNL     1       4.969   4.741 -26.648  1.00  0.00     0.293 HD
ENDBRANCH   9  24
TORSDOF 5
ENDMDL
MODEL 6
REMARK VINA RESULT:    -6.580      2.674      3.677
REMARK INTER + INTRA:          -7.549
REMARK INTER:                  -7.255
REMARK INTRA:                  -0.294
REMARK UNBOUND:                 0.186
REMARK SMILES O=c1c(O)c(-c2ccc(O)c(O)c2)oc2cc(O)ccc12
REMARK SMILES IDX 5 1 3 2 2 3 1 4 21 5 15 6 14 7 16 8 17 9 19 10 20 11 6 12
REMARK SMILES IDX 7 13 8 14 9 15 13 16 11 17 10 18 12 20 4 22 18 24
REMARK H PARENT 10 19 12 21 4 23 18 25
REMARK Flexibility Score: inf
ROOT
ATOM      1  C   UNL     1       0.806   2.789 -23.666  1.00  0.00     0.180 A 
ATOM      2  C   UNL     1      -0.597   2.917 -23.707  1.00  0.00     0.208 A 
ATOM      3  C   UNL     1      -1.371   2.168 -22.805  1.00  0.00     0.235 A 
ATOM      4  O   UNL     1      -2.630   2.258 -22.828  1.00  0.00    -0.285 OA
ATOM      5  C   UNL     1      -0.732   1.330 -21.878  1.00  0.00     0.069 A 
ATOM      6  C   UNL     1       0.678   1.275 -21.887  1.00  0.00     0.142 A 
ATOM      7  O   UNL     1       1.373   1.993 -22.761  1.00  0.00    -0.452 OA
ATOM      8  C   UNL     1       1.352   0.458 -20.971  1.00  0.00     0.094 A 
ATOM      9  C   UNL     1       0.630  -0.308 -20.046  1.00  0.00     0.119 A 
ATOM     10  C   UNL     1      -0.767  -0.257 -20.037  1.00  0.00     0.047 A 
ATOM     11  C   UNL     1      -1.450   0.558 -20.947  1.00  0.00     0.020 A 
ENDROOT
BRANCH   1  12
ATOM     12  C   UNL     1       1.690   3.530 -24.595  1.00  0.00     0.025 A 
ATOM     13  C   UNL     1       1.876   3.050 -25.901  1.00  0.00     0.016 A 
ATOM     14  C   UNL     1       2.689   3.743 -26.801  1.00  0.00     0.051 A 
ATOM     15  C   UNL     1       3.317   4.932 -26.416  1.00  0.00     0.157 A 
ATOM     16  C   UNL     1       2.305   4.736 -24.216  1.00  0.00     0.062 A 
ATOM     17  C   UNL     1       3.121   5.435 -25.118  1.00  0.00     0.158 A 
BRANCH  15  18
ATOM     18  O   UNL     1       4.124   5.600 -27.335  1.00  0.00    -0.504 OA
ATOM     19  H   UNL     1       4.012   5.484 -28.335  1.00  0.00     0.293 HD
ENDBRANCH  15  18
BRANCH  17  20
ATOM     20  O   UNL     1       3.731   6.626 -24.733  1.00  0.00    -0.504 OA
ATOM     21  H   UNL     1       3.712   6.947 -23.771  1.00  0.00     0.293 HD
ENDBRANCH  17  20
ENDBRANCH   1  12
BRANCH   2  22
ATOM     22  O   UNL     1      -1.202   3.798 -24.607  1.00  0.00    -0.502 OA
ATOM     23  H   UNL     1      -2.068   3.575 -25.084  1.00  0.00     0.293 HD
ENDBRANCH   2  22
BRANCH   9  24
ATOM     24  O   UNL     1       1.293  -1.124 -19.132  1.00  0.00    -0.508 OA
ATOM     25  H   UNL     1       2.197  -0.868 -18.751  1.00  0.00     0.293 HD
ENDBRANCH   9  24
TORSDOF 5
ENDMDL
MODEL 7
REMARK VINA RESULT:    -6.513      4.595      7.242
REMARK INTER + INTRA:          -7.469
REMARK INTER:                  -7.174
REMARK INTRA:                  -0.295
REMARK UNBOUND:                 0.186
REMARK SMILES O=c1c(O)c(-c2ccc(O)c(O)c2)oc2cc(O)ccc12
REMARK SMILES IDX 5 1 3 2 2 3 1 4 21 5 15 6 14 7 16 8 17 9 19 10 20 11 6 12
REMARK SMILES IDX 7 13 8 14 9 15 13 16 11 17 10 18 12 20 4 22 18 24
REMARK H PARENT 10 19 12 21 4 23 18 25
REMARK Flexibility Score: inf
ROOT
ATOM      1  C   UNL     1      -1.455   1.714 -20.691  1.00  0.00     0.180 A 
ATOM      2  C   UNL     1      -2.800   1.735 -20.270  1.00  0.00     0.208 A 
ATOM      3  C   UNL     1      -3.814   1.748 -21.242  1.00  0.00     0.235 A 
ATOM      4  O   UNL     1      -5.025   1.777 -20.890  1.00  0.00    -0.285 OA
ATOM      5  C   UNL     1      -3.466   1.720 -22.601  1.00  0.00     0.069 A 
ATOM      6  C   UNL     1      -2.097   1.677 -22.941  1.00  0.00     0.142 A 
ATOM      7  O   UNL     1      -1.168   1.674 -21.992  1.00  0.00    -0.452 OA
ATOM      8  C   UNL     1      -1.710   1.638 -24.286  1.00  0.00     0.094 A 
ATOM      9  C   UNL     1      -2.680   1.645 -25.299  1.00  0.00     0.119 A 
ATOM     10  C   UNL     1      -4.036   1.691 -24.964  1.00  0.00     0.047 A 
ATOM     11  C   UNL     1      -4.433   1.728 -23.623  1.00  0.00     0.020 A 
ENDROOT
BRANCH   1  12
ATOM     12  C   UNL     1      -0.330   1.718 -19.729  1.00  0.00     0.025 A 
ATOM     13  C   UNL     1       0.374   0.528 -19.485  1.00  0.00     0.016 A 
ATOM     14  C   UNL     1       1.451   0.512 -18.596  1.00  0.00     0.051 A 
ATOM     15  C   UNL     1       1.853   1.686 -17.950  1.00  0.00     0.157 A 
ATOM     16  C   UNL     1       0.089   2.901 -19.095  1.00  0.00     0.062 A 
ATOM     17  C   UNL     1       1.172   2.889 -18.203  1.00  0.00     0.158 A 
BRANCH  15  18
ATOM     18  O   UNL     1       2.930   1.639 -17.067  1.00  0.00    -0.504 OA
ATOM     19  H   UNL     1       3.044   0.889 -16.396  1.00  0.00     0.293 HD
ENDBRANCH  15  18
BRANCH  17  20
ATOM     20  O   UNL     1       1.576   4.064 -17.575  1.00  0.00    -0.504 OA
ATOM     21  H   UNL     1       1.689   4.116 -16.568  1.00  0.00     0.293 HD
ENDBRANCH  17  20
ENDBRANCH   1  12
BRANCH   2  22
ATOM     22  O   UNL     1      -3.117   1.711 -18.909  1.00  0.00    -0.502 OA
ATOM     23  H   UNL     1      -2.821   2.441 -18.271  1.00  0.00     0.293 HD
ENDBRANCH   2  22
BRANCH   9  24
ATOM     24  O   UNL     1      -2.303   1.608 -26.639  1.00  0.00    -0.508 OA
ATOM     25  H   UNL     1      -1.774   2.361 -27.062  1.00  0.00     0.293 HD
ENDBRANCH   9  24
TORSDOF 5
ENDMDL
MODEL 8
REMARK VINA RESULT:    -6.389      4.529      7.101
REMARK INTER + INTRA:          -7.324
REMARK INTER:                  -7.031
REMARK INTRA:                  -0.293
REMARK UNBOUND:                 0.186
REMARK SMILES O=c1c(O)c(-c2ccc(O)c(O)c2)oc2cc(O)ccc12
REMARK SMILES IDX 5 1 3 2 2 3 1 4 21 5 15 6 14 7 16 8 17 9 19 10 20 11 6 12
REMARK SMILES IDX 7 13 8 14 9 15 13 16 11 17 10 18 12 20 4 22 18 24
REMARK H PARENT 10 19 12 21 4 23 18 25
REMARK Flexibility Score: inf
ROOT
ATOM      1  C   UNL     1      -1.273   1.264 -20.666  1.00  0.00     0.180 A 
ATOM      2  C   UNL     1      -1.191   1.746 -21.989  1.00  0.00     0.208 A 
ATOM      3  C   UNL     1      -2.275   1.530 -22.855  1.00  0.00     0.235 A 
ATOM      4  O   UNL     1      -2.222   1.943 -24.047  1.00  0.00    -0.285 OA
ATOM      5  C   UNL     1      -3.415   0.863 -22.381  1.00  0.00     0.069 A 
ATOM      6  C   UNL     1      -3.428   0.432 -21.037  1.00  0.00     0.142 A 
ATOM      7  O   UNL     1      -2.379   0.648 -20.252  1.00  0.00    -0.452 OA
ATOM      8  C   UNL     1      -4.551  -0.229 -20.525  1.00  0.00     0.094 A 
ATOM      9  C   UNL     1      -5.663  -0.467 -21.344  1.00  0.00     0.119 A 
ATOM     10  C   UNL     1      -5.651  -0.044 -22.676  1.00  0.00     0.047 A 
ATOM     11  C   UNL     1      -4.535   0.619 -23.197  1.00  0.00     0.020 A 
ENDROOT
BRANCH   1  12
ATOM     12  C   UNL     1      -0.166   1.434 -19.697  1.00  0.00     0.025 A 
ATOM     13  C   UNL     1       0.755   0.391 -19.512  1.00  0.00     0.016 A 
ATOM     14  C   UNL     1       1.819   0.537 -18.618  1.00  0.00     0.051 A 
ATOM     15  C   UNL     1       1.988   1.730 -17.909  1.00  0.00     0.157 A 
ATOM     16  C   UNL     1       0.019   2.641 -19.000  1.00  0.00     0.062 A 
ATOM     17  C   UNL     1       1.087   2.791 -18.103  1.00  0.00     0.158 A 
BRANCH  15  18
ATOM     18  O   UNL     1       3.058   1.846 -17.023  1.00  0.00    -0.504 OA
ATOM     19  H   UNL     1       2.972   2.326 -16.135  1.00  0.00     0.293 HD
ENDBRANCH  15  18
BRANCH  17  20
ATOM     20  O   UNL     1       1.259   3.987 -17.411  1.00  0.00    -0.504 OA
ATOM     21  H   UNL     1       0.749   4.826 -17.665  1.00  0.00     0.293 HD
ENDBRANCH  17  20
ENDBRANCH   1  12
BRANCH   2  22
ATOM     22  O   UNL     1      -0.064   2.451 -22.417  1.00  0.00    -0.502 OA
ATOM     23  H   UNL     1      -0.077   3.453 -22.570  1.00  0.00     0.293 HD
ENDBRANCH   2  22
BRANCH   9  24
ATOM     24  O   UNL     1      -6.784  -1.125 -20.842  1.00  0.00    -0.508 OA
ATOM     25  H   UNL     1      -7.719  -0.760 -20.981  1.00  0.00     0.293 HD
ENDBRANCH   9  24
TORSDOF 5
ENDMDL
