MODEL 1
REMARK VINA RESULT:    -3.881      0.000      0.000
REMARK INTER + INTRA:          -4.851
REMARK INTER:                  -4.789
REMARK INTRA:                  -0.062
REMARK UNBOUND:                -0.062
REMARK SMILES CCCCCC(C)=O
REMARK SMILES IDX 4 1 3 2 2 3 1 4 5 5 6 6 8 7 7 8
REMARK H PARENT
REMARK Flexibility Score: inf
ROOT
ATOM      1  C   UNL     1      25.750  56.902  -8.970  1.00  0.00     0.008 C 
ENDROOT
BRANCH   1   2
ATOM      2  C   UNL     1      24.901  56.346  -7.816  1.00  0.00     0.000 C 
BRANCH   2   3
ATOM      3  C   UNL     1      23.958  55.221  -8.267  1.00  0.00    -0.003 C 
ATOM      4  C   UNL     1      22.827  54.961  -7.272  1.00  0.00     0.004 C 
ENDBRANCH   2   3
ENDBRANCH   1   2
BRANCH   1   5
ATOM      5  C   UNL     1      25.733  58.439  -8.972  1.00  0.00     0.075 C 
BRANCH   5   6
ATOM      6  C   UNL     1      26.867  59.041  -9.768  1.00  0.00     0.129 C 
ATOM      7  O   UNL     1      27.302  58.483 -10.765  1.00  0.00    -0.300 OA
ATOM      8  C   UNL     1      27.464  60.348  -9.347  1.00  0.00     0.087 C 
ENDBRANCH   5   6
ENDBRANCH   1   5
TORSDOF 4
ENDMDL
MODEL 2
REMARK VINA RESULT:    -3.820      1.867      5.049
REMARK INTER + INTRA:          -4.776
REMARK INTER:                  -4.723
REMARK INTRA:                  -0.053
REMARK UNBOUND:                -0.062
REMARK SMILES CCCCCC(C)=O
REMARK SMILES IDX 4 1 3 2 2 3 1 4 5 5 6 6 8 7 7 8
REMARK H PARENT
REMARK Flexibility Score: inf
ROOT
ATOM      1  C   UNL     1      25.956  57.409  -9.193  1.00  0.00     0.008 C 
ENDROOT
BRANCH   1   2
ATOM      2  C   UNL     1      26.247  58.916  -9.251  1.00  0.00     0.000 C 
BRANCH   2   3
ATOM      3  C   UNL     1      27.386  59.259 -10.224  1.00  0.00    -0.003 C 
ATOM      4  C   UNL     1      28.108  60.555  -9.857  1.00  0.00     0.004 C 
ENDBRANCH   2   3
ENDBRANCH   1   2
BRANCH   1   5
ATOM      5  C   UNL     1      24.676  57.128  -8.390  1.00  0.00     0.075 C 
BRANCH   5   6
ATOM      6  C   UNL     1      24.571  55.694  -7.927  1.00  0.00     0.129 C 
ATOM      7  O   UNL     1      25.568  54.995  -7.813  1.00  0.00    -0.300 OA
ATOM      8  C   UNL     1      23.233  55.114  -7.587  1.00  0.00     0.087 C 
ENDBRANCH   5   6
ENDBRANCH   1   5
TORSDOF 4
ENDMDL
MODEL 3
REMARK VINA RESULT:    -3.669     17.087     18.647
REMARK INTER + INTRA:          -4.589
REMARK INTER:                  -4.391
REMARK INTRA:                  -0.198
REMARK UNBOUND:                -0.062
REMARK SMILES CCCCCC(C)=O
REMARK SMILES IDX 4 1 3 2 2 3 1 4 5 5 6 6 8 7 7 8
REMARK H PARENT
REMARK Flexibility Score: inf
ROOT
ATOM      1  C   UNL     1      17.397  43.258   1.802  1.00  0.00     0.008 C 
ENDROOT
BRANCH   1   2
ATOM      2  C   UNL     1      16.279  44.268   2.100  1.00  0.00     0.000 C 
BRANCH   2   3
ATOM      3  C   UNL     1      15.793  44.998   0.838  1.00  0.00    -0.003 C 
ATOM      4  C   UNL     1      14.444  45.689   1.037  1.00  0.00     0.004 C 
ENDBRANCH   2   3
ENDBRANCH   1   2
BRANCH   1   5
ATOM      5  C   UNL     1      18.726  43.709   2.429  1.00  0.00     0.075 C 
BRANCH   5   6
ATOM      6  C   UNL     1      19.811  43.950   1.407  1.00  0.00     0.129 C 
ATOM      7  O   UNL     1      20.892  43.384   1.491  1.00  0.00    -0.300 OA
ATOM      8  C   UNL     1      19.565  44.881   0.260  1.00  0.00     0.087 C 
ENDBRANCH   5   6
ENDBRANCH   1   5
TORSDOF 4
ENDMDL
MODEL 4
REMARK VINA RESULT:    -3.573     17.367     18.422
REMARK INTER + INTRA:          -4.471
REMARK INTER:                  -4.346
REMARK INTRA:                  -0.125
REMARK UNBOUND:                -0.062
REMARK SMILES CCCCCC(C)=O
REMARK SMILES IDX 4 1 3 2 2 3 1 4 5 5 6 6 8 7 7 8
REMARK H PARENT
REMARK Flexibility Score: inf
ROOT
ATOM      1  C   UNL     1      17.694  43.935   0.463  1.00  0.00     0.008 C 
ENDROOT
BRANCH   1   2
ATOM      2  C   UNL     1      17.260  43.873   1.935  1.00  0.00     0.000 C 
BRANCH   2   3
ATOM      3  C   UNL     1      15.840  44.415   2.154  1.00  0.00    -0.003 C 
ATOM      4  C   UNL     1      15.342  45.263   0.984  1.00  0.00     0.004 C 
ENDBRANCH   2   3
ENDBRANCH   1   2
BRANCH   1   5
ATOM      5  C   UNL     1      19.042  44.659   0.317  1.00  0.00     0.075 C 
BRANCH   5   6
ATOM      6  C   UNL     1      20.116  44.096   1.219  1.00  0.00     0.129 C 
ATOM      7  O   UNL     1      20.459  44.687   2.232  1.00  0.00    -0.300 OA
ATOM      8  C   UNL     1      20.765  42.789   0.883  1.00  0.00     0.087 C 
ENDBRANCH   5   6
ENDBRANCH   1   5
TORSDOF 4
ENDMDL
MODEL 5
REMARK VINA RESULT:    -3.554     17.442     18.805
REMARK INTER + INTRA:          -4.447
REMARK INTER:                  -4.205
REMARK INTRA:                  -0.243
REMARK UNBOUND:                -0.062
REMARK SMILES CCCCCC(C)=O
REMARK SMILES IDX 4 1 3 2 2 3 1 4 5 5 6 6 8 7 7 8
REMARK H PARENT
REMARK Flexibility Score: inf
ROOT
ATOM      1  C   UNL     1      17.411  43.561   1.588  1.00  0.00     0.008 C 
ENDROOT
BRANCH   1   2
ATOM      2  C   UNL     1      18.573  43.817   2.560  1.00  0.00     0.000 C 
BRANCH   2   3
ATOM      3  C   UNL     1      19.905  44.058   1.835  1.00  0.00    -0.003 C 
ATOM      4  C   UNL     1      19.721  44.646   0.436  1.00  0.00     0.004 C 
ENDBRANCH   2   3
ENDBRANCH   1   2
BRANCH   1   5
ATOM      5  C   UNL     1      16.141  44.298   2.044  1.00  0.00     0.075 C 
BRANCH   5   6
ATOM      6  C   UNL     1      15.557  45.188   0.973  1.00  0.00     0.129 C 
ATOM      7  O   UNL     1      14.519  45.804   1.163  1.00  0.00    -0.300 OA
ATOM      8  C   UNL     1      16.261  45.337  -0.341  1.00  0.00     0.087 C 
ENDBRANCH   5   6
ENDBRANCH   1   5
TORSDOF 4
ENDMDL
MODEL 6
REMARK VINA RESULT:    -3.515      6.005      7.510
REMARK INTER + INTRA:          -4.399
REMARK INTER:                  -4.108
REMARK INTRA:                  -0.291
REMARK UNBOUND:                -0.062
REMARK SMILES CCCCCC(C)=O
REMARK SMILES IDX 4 1 3 2 2 3 1 4 5 5 6 6 8 7 7 8
REMARK H PARENT
REMARK Flexibility Score: inf
ROOT
ATOM      1  C   UNL     1      30.007  57.244 -13.218  1.00  0.00     0.008 C 
ENDROOT
BRANCH   1   2
ATOM      2  C   UNL     1      31.261  56.438 -13.588  1.00  0.00     0.000 C 
BRANCH   2   3
ATOM      3  C   UNL     1      32.462  57.336 -13.921  1.00  0.00    -0.003 C 
ATOM      4  C   UNL     1      33.771  56.821 -13.324  1.00  0.00     0.004 C 
ENDBRANCH   2   3
ENDBRANCH   1   2
BRANCH   1   5
ATOM      5  C   UNL     1      30.364  58.708 -12.917  1.00  0.00     0.075 C 
BRANCH   5   6
ATOM      6  C   UNL     1      30.170  59.079 -11.465  1.00  0.00     0.129 C 
ATOM      7  O   UNL     1      29.054  59.290 -11.014  1.00  0.00    -0.300 OA
ATOM      8  C   UNL     1      31.354  59.177 -10.554  1.00  0.00     0.087 C 
ENDBRANCH   5   6
ENDBRANCH   1   5
TORSDOF 4
ENDMDL
MODEL 7
REMARK VINA RESULT:    -3.487     17.075     18.866
REMARK INTER + INTRA:          -4.365
REMARK INTER:                  -3.980
REMARK INTRA:                  -0.384
REMARK UNBOUND:                -0.062
REMARK SMILES CCCCCC(C)=O
REMARK SMILES IDX 4 1 3 2 2 3 1 4 5 5 6 6 8 7 7 8
REMARK H PARENT
REMARK Flexibility Score: inf
ROOT
ATOM      1  C   UNL     1      17.511  43.669   2.072  1.00  0.00     0.008 C 
ENDROOT
BRANCH   1   2
ATOM      2  C   UNL     1      17.223  42.251   1.559  1.00  0.00     0.000 C 
BRANCH   2   3
ATOM      3  C   UNL     1      16.913  42.221   0.054  1.00  0.00    -0.003 C 
ATOM      4  C   UNL     1      18.032  41.582  -0.768  1.00  0.00     0.004 C 
ENDBRANCH   2   3
ENDBRANCH   1   2
BRANCH   1   5
ATOM      5  C   UNL     1      18.967  43.797   2.547  1.00  0.00     0.075 C 
BRANCH   5   6
ATOM      6  C   UNL     1      19.949  43.946   1.410  1.00  0.00     0.129 C 
ATOM      7  O   UNL     1      20.999  43.321   1.399  1.00  0.00    -0.300 OA
ATOM      8  C   UNL     1      19.635  44.861   0.266  1.00  0.00     0.087 C 
ENDBRANCH   5   6
ENDBRANCH   1   5
TORSDOF 4
ENDMDL
MODEL 8
REMARK VINA RESULT:    -3.379     15.719     17.055
REMARK INTER + INTRA:          -4.231
REMARK INTER:                  -4.123
REMARK INTRA:                  -0.107
REMARK UNBOUND:                -0.062
REMARK SMILES CCCCCC(C)=O
REMARK SMILES IDX 4 1 3 2 2 3 1 4 5 5 6 6 8 7 7 8
REMARK H PARENT
REMARK Flexibility Score: inf
ROOT
ATOM      1  C   UNL     1      31.985  45.362   1.297  1.00  0.00     0.008 C 
ENDROOT
BRANCH   1   2
ATOM      2  C   UNL     1      32.595  45.681   2.670  1.00  0.00     0.000 C 
BRANCH   2   3
ATOM      3  C   UNL     1      32.967  47.164   2.820  1.00  0.00    -0.003 C 
ATOM      4  C   UNL     1      32.106  47.889   3.853  1.00  0.00     0.004 C 
ENDBRANCH   2   3
ENDBRANCH   1   2
BRANCH   1   5
ATOM      5  C   UNL     1      30.450  45.340   1.370  1.00  0.00     0.075 C 
BRANCH   5   6
ATOM      6  C   UNL     1      29.804  44.844   0.097  1.00  0.00     0.129 C 
ATOM      7  O   UNL     1      30.366  44.028  -0.617  1.00  0.00    -0.300 OA
ATOM      8  C   UNL     1      28.448  45.344  -0.296  1.00  0.00     0.087 C 
ENDBRANCH   5   6
ENDBRANCH   1   5
TORSDOF 4
ENDMDL
MODEL 9
REMARK VINA RESULT:    -3.340      4.370      6.095
REMARK INTER + INTRA:          -4.183
REMARK INTER:                  -4.065
REMARK INTRA:                  -0.118
REMARK UNBOUND:                -0.062
REMARK SMILES CCCCCC(C)=O
REMARK SMILES IDX 4 1 3 2 2 3 1 4 5 5 6 6 8 7 7 8
REMARK H PARENT
REMARK Flexibility Score: inf
ROOT
ATOM      1  C   UNL     1      30.482  58.968 -11.664  1.00  0.00     0.008 C 
ENDROOT
BRANCH   1   2
ATOM      2  C   UNL     1      29.310  59.686 -10.979  1.00  0.00     0.000 C 
BRANCH   2   3
ATOM      3  C   UNL     1      28.022  58.849 -10.985  1.00  0.00    -0.003 C 
ATOM      4  C   UNL     1      27.072  59.215  -9.844  1.00  0.00     0.004 C 
ENDBRANCH   2   3
ENDBRANCH   1   2
BRANCH   1   5
ATOM      5  C   UNL     1      29.986  58.086 -12.820  1.00  0.00     0.075 C 
BRANCH   5   6
ATOM      6  C   UNL     1      31.021  57.092 -13.293  1.00  0.00     0.129 C 
ATOM      7  O   UNL     1      30.775  55.895 -13.325  1.00  0.00    -0.300 OA
ATOM      8  C   UNL     1      32.365  57.572 -13.745  1.00  0.00     0.087 C 
ENDBRANCH   5   6
ENDBRANCH   1   5
TORSDOF 4
ENDMDL
