MODEL 1
REMARK VINA RESULT:    81.632      0.000      0.000
REMARK INTER + INTRA:         102.451
REMARK INTER:                 103.108
REMARK INTRA:                  -0.656
REMARK UNBOUND:                -0.656
REMARK SMILES CC(C)[C@H](C)C=C[C@@H](C)[C@@H]1CC[C@H]2C3=CC=C4C[C@H](O)CC[C@@]4(C)[C@@H]3CC[C@]21C
REMARK SMILES IDX 8 1 9 2 7 3 6 4 4 5 5 6 2 7 1 8 3 9 10 10 11 11 28 12 12 13
REMARK SMILES IDX 13 14 27 15 29 16 14 17 26 18 25 19 15 20 23 21 16 22 17 23
REMARK SMILES IDX 22 24 24 25 18 26 21 27 19 28 20 29
REMARK H PARENT 20 30
REMARK Flexibility Score: inf
ROOT
ATOM      1  C   UNL     1      82.930   3.444  76.225  1.00  0.00     0.012 C 
ATOM      2  C   UNL     1      83.573   2.486  77.237  1.00  0.00     0.012 C 
ENDROOT
BRANCH   1   3
ATOM      3  C   UNL     1      82.132   2.677  75.179  1.00  0.00    -0.028 C 
ATOM      4  C   UNL     1      80.838   2.303  75.298  1.00  0.00    -0.028 C 
BRANCH   4   5
ATOM      5  C   UNL     1      79.923   2.631  76.467  1.00  0.00     0.011 C 
ATOM      6  C   UNL     1      78.982   3.763  76.029  1.00  0.00     0.012 C 
BRANCH   5   7
ATOM      7  C   UNL     1      79.142   1.355  76.916  1.00  0.00    -0.011 C 
ATOM      8  C   UNL     1      79.493   0.962  78.367  1.00  0.00     0.008 C 
ATOM      9  C   UNL     1      77.620   1.546  76.799  1.00  0.00     0.008 C 
ENDBRANCH   5   7
ENDBRANCH   4   5
ENDBRANCH   1   3
BRANCH   1  10
ATOM     10  C   UNL     1      83.935   4.514  75.658  1.00  0.00     0.002 C 
ATOM     11  C   UNL     1      83.268   5.455  74.650  1.00  0.00     0.005 C 
ATOM     12  C   UNL     1      85.310   4.118  75.011  1.00  0.00    -0.023 C 
ATOM     13  C   UNL     1      84.393   6.202  73.957  1.00  0.00     0.009 C 
ATOM     14  C   UNL     1      85.666   5.342  74.090  1.00  0.00     0.021 C 
ATOM     15  C   UNL     1      86.429   3.865  76.086  1.00  0.00     0.008 C 
ATOM     16  C   UNL     1      85.211   2.865  74.110  1.00  0.00     0.012 C 
ATOM     17  C   UNL     1      86.809   6.150  74.663  1.00  0.00    -0.063 C 
ATOM     18  C   UNL     1      86.899   5.115  76.887  1.00  0.00     0.009 C 
ATOM     19  C   UNL     1      86.735   6.463  76.132  1.00  0.00     0.025 C 
ATOM     20  C   UNL     1      87.997   6.184  74.044  1.00  0.00    -0.000 C 
ATOM     21  C   UNL     1      87.745   7.596  76.552  1.00  0.00    -0.005 C 
ATOM     22  C   UNL     1      89.183   6.756  74.699  1.00  0.00    -0.000 C 
ATOM     23  C   UNL     1      89.100   7.398  75.879  1.00  0.00    -0.061 C 
ATOM     24  C   UNL     1      87.228   8.985  76.062  1.00  0.00     0.014 C 
ATOM     25  C   UNL     1      87.878   7.613  78.098  1.00  0.00     0.017 C 
ATOM     26  C   UNL     1      90.155   8.422  76.190  1.00  0.00     0.063 C 
ATOM     27  C   UNL     1      88.263  10.134  76.229  1.00  0.00     0.033 C 
ATOM     28  C   UNL     1      89.656   9.781  75.657  1.00  0.00     0.118 C 
BRANCH  28  29
ATOM     29  O   UNL     1      90.569  10.793  75.989  1.00  0.00    -0.393 OA
ATOM     30  H   UNL     1      90.053  11.640  76.041  1.00  0.00     0.210 HD
ENDBRANCH  28  29
ENDBRANCH   1  10
TORSDOF 5
ENDMDL
MODEL 2
REMARK VINA RESULT:    84.082     12.132     15.003
REMARK INTER + INTRA:         105.545
REMARK INTER:                 103.194
REMARK INTRA:                   2.351
REMARK UNBOUND:                -0.656
REMARK SMILES CC(C)[C@H](C)C=C[C@@H](C)[C@@H]1CC[C@H]2C3=CC=C4C[C@H](O)CC[C@@]4(C)[C@@H]3CC[C@]21C
REMARK SMILES IDX 8 1 9 2 7 3 6 4 4 5 5 6 2 7 1 8 3 9 10 10 11 11 28 12 12 13
REMARK SMILES IDX 13 14 27 15 29 16 14 17 26 18 25 19 15 20 23 21 16 22 17 23
REMARK SMILES IDX 22 24 24 25 18 26 21 27 19 28 20 29
REMARK H PARENT 20 30
REMARK Flexibility Score: inf
ROOT
ATOM      1  C   UNL     1      78.898   4.694  62.995  1.00  0.00     0.012 C 
ATOM      2  C   UNL     1      80.079   5.550  63.473  1.00  0.00     0.012 C 
ENDROOT
BRANCH   1   3
ATOM      3  C   UNL     1      77.572   5.302  63.432  1.00  0.00    -0.028 C 
ATOM      4  C   UNL     1      77.423   6.277  64.358  1.00  0.00    -0.028 C 
BRANCH   4   5
ATOM      5  C   UNL     1      78.551   6.988  65.089  1.00  0.00     0.011 C 
ATOM      6  C   UNL     1      79.411   7.711  64.041  1.00  0.00     0.012 C 
BRANCH   5   7
ATOM      7  C   UNL     1      77.969   7.970  66.155  1.00  0.00    -0.011 C 
ATOM      8  C   UNL     1      77.237   9.153  65.489  1.00  0.00     0.008 C 
ATOM      9  C   UNL     1      77.007   7.259  67.121  1.00  0.00     0.008 C 
ENDBRANCH   5   7
ENDBRANCH   4   5
ENDBRANCH   1   3
BRANCH   1  10
ATOM     10  C   UNL     1      79.075   3.162  63.307  1.00  0.00     0.002 C 
ATOM     11  C   UNL     1      80.263   2.553  62.555  1.00  0.00     0.005 C 
ATOM     12  C   UNL     1      77.905   2.129  63.144  1.00  0.00    -0.023 C 
ATOM     13  C   UNL     1      80.122   1.047  62.687  1.00  0.00     0.009 C 
ATOM     14  C   UNL     1      78.635   0.748  62.966  1.00  0.00     0.021 C 
ATOM     15  C   UNL     1      76.941   2.111  64.386  1.00  0.00     0.008 C 
ATOM     16  C   UNL     1      77.056   2.378  61.875  1.00  0.00     0.012 C 
ATOM     17  C   UNL     1      78.479  -0.122  64.194  1.00  0.00    -0.063 C 
ATOM     18  C   UNL     1      77.549   1.567  65.712  1.00  0.00     0.009 C 
ATOM     19  C   UNL     1      78.706   0.549  65.521  1.00  0.00     0.025 C 
ATOM     20  C   UNL     1      77.755  -1.248  64.144  1.00  0.00    -0.000 C 
ATOM     21  C   UNL     1      78.888  -0.489  66.691  1.00  0.00    -0.005 C 
ATOM     22  C   UNL     1      77.388  -1.975  65.369  1.00  0.00    -0.000 C 
ATOM     23  C   UNL     1      77.882  -1.629  66.572  1.00  0.00    -0.061 C 
ATOM     24  C   UNL     1      80.297  -1.157  66.601  1.00  0.00     0.014 C 
ATOM     25  C   UNL     1      78.754   0.245  68.050  1.00  0.00     0.017 C 
ATOM     26  C   UNL     1      77.957  -2.698  67.626  1.00  0.00     0.063 C 
ATOM     27  C   UNL     1      80.486  -2.356  67.573  1.00  0.00     0.033 C 
ATOM     28  C   UNL     1      79.332  -3.384  67.496  1.00  0.00     0.118 C 
BRANCH  28  29
ATOM     29  O   UNL     1      79.491  -4.342  68.509  1.00  0.00    -0.393 OA
ATOM     30  H   UNL     1      80.430  -4.657  68.462  1.00  0.00     0.210 HD
ENDBRANCH  28  29
ENDBRANCH   1  10
TORSDOF 5
ENDMDL
MODEL 3
REMARK VINA RESULT:    84.132     10.748     13.594
REMARK INTER + INTRA:         105.608
REMARK INTER:                 104.732
REMARK INTRA:                   0.876
REMARK UNBOUND:                -0.656
REMARK SMILES CC(C)[C@H](C)C=C[C@@H](C)[C@@H]1CC[C@H]2C3=CC=C4C[C@H](O)CC[C@@]4(C)[C@@H]3CC[C@]21C
REMARK SMILES IDX 8 1 9 2 7 3 6 4 4 5 5 6 2 7 1 8 3 9 10 10 11 11 28 12 12 13
REMARK SMILES IDX 13 14 27 15 29 16 14 17 26 18 25 19 15 20 23 21 16 22 17 23
REMARK SMILES IDX 22 24 24 25 18 26 21 27 19 28 20 29
REMARK H PARENT 20 30
REMARK Flexibility Score: inf
ROOT
ATOM      1  C   UNL     1      82.356  -2.853  68.025  1.00  0.00     0.012 C 
ATOM      2  C   UNL     1      82.814  -1.601  67.265  1.00  0.00     0.012 C 
ENDROOT
BRANCH   1   3
ATOM      3  C   UNL     1      81.329  -2.497  69.092  1.00  0.00    -0.028 C 
ATOM      4  C   UNL     1      80.032  -2.192  68.861  1.00  0.00    -0.028 C 
BRANCH   4   5
ATOM      5  C   UNL     1      79.343  -2.205  67.505  1.00  0.00     0.011 C 
ATOM      6  C   UNL     1      77.936  -2.790  67.696  1.00  0.00     0.012 C 
BRANCH   5   7
ATOM      7  C   UNL     1      79.308  -0.765  66.903  1.00  0.00    -0.011 C 
ATOM      8  C   UNL     1      80.673  -0.061  67.049  1.00  0.00     0.008 C 
ATOM      9  C   UNL     1      78.901  -0.776  65.420  1.00  0.00     0.008 C 
ENDBRANCH   5   7
ENDBRANCH   4   5
ENDBRANCH   1   3
BRANCH   1  10
ATOM     10  C   UNL     1      83.550  -3.755  68.510  1.00  0.00     0.002 C 
ATOM     11  C   UNL     1      83.124  -4.732  69.611  1.00  0.00     0.005 C 
ATOM     12  C   UNL     1      84.918  -3.156  68.992  1.00  0.00    -0.023 C 
ATOM     13  C   UNL     1      84.406  -5.295  70.199  1.00  0.00     0.009 C 
ATOM     14  C   UNL     1      85.529  -4.282  69.904  1.00  0.00     0.021 C 
ATOM     15  C   UNL     1      85.875  -2.805  67.795  1.00  0.00     0.008 C 
ATOM     16  C   UNL     1      84.745  -1.889  69.862  1.00  0.00     0.012 C 
ATOM     17  C   UNL     1      86.706  -4.957  69.233  1.00  0.00    -0.063 C 
ATOM     18  C   UNL     1      86.424  -4.016  66.984  1.00  0.00     0.009 C 
ATOM     19  C   UNL     1      86.522  -5.340  67.791  1.00  0.00     0.025 C 
ATOM     20  C   UNL     1      87.945  -4.809  69.721  1.00  0.00    -0.000 C 
ATOM     21  C   UNL     1      87.627  -6.347  67.296  1.00  0.00    -0.005 C 
ATOM     22  C   UNL     1      89.123  -5.248  68.957  1.00  0.00    -0.000 C 
ATOM     23  C   UNL     1      89.005  -5.945  67.812  1.00  0.00    -0.061 C 
ATOM     24  C   UNL     1      87.356  -7.770  67.880  1.00  0.00     0.014 C 
ATOM     25  C   UNL     1      87.600  -6.414  65.746  1.00  0.00     0.017 C 
ATOM     26  C   UNL     1      90.151  -6.834  67.418  1.00  0.00     0.063 C 
ATOM     27  C   UNL     1      88.513  -8.780  67.634  1.00  0.00     0.033 C 
ATOM     28  C   UNL     1      89.898  -8.222  68.040  1.00  0.00     0.118 C 
BRANCH  28  29
ATOM     29  O   UNL     1      90.899  -9.120  67.641  1.00  0.00    -0.393 OA
ATOM     30  H   UNL     1      91.525  -8.613  67.062  1.00  0.00     0.210 HD
ENDBRANCH  28  29
ENDBRANCH   1  10
TORSDOF 5
ENDMDL
