MODEL 1
REMARK VINA RESULT:    -3.107      0.000      0.000
REMARK INTER + INTRA:          -3.766
REMARK INTER:                  -3.651
REMARK INTRA:                  -0.115
REMARK UNBOUND:                -0.115
REMARK SMILES O=C([O-])CCC(=O)[O-]
REMARK SMILES IDX 4 1 2 2 1 3 3 4 5 5 6 6 7 7 8 8
REMARK H PARENT
REMARK Flexibility Score: inf
ROOT
ATOM      1  C   UNL     1     212.590 196.847 215.157  1.00  0.00     0.059 C 
ENDROOT
BRANCH   1   2
ATOM      2  C   UNL     1     213.545 197.561 216.065  1.00  0.00     0.042 C 
ATOM      3  O   UNL     1     213.919 198.733 215.796  1.00  0.00    -0.550 OA
ATOM      4  O   UNL     1     214.052 196.917 217.186  1.00  0.00    -0.550 OA
ENDBRANCH   1   2
BRANCH   1   5
ATOM      5  C   UNL     1     213.226 196.543 213.796  1.00  0.00     0.059 C 
BRANCH   5   6
ATOM      6  C   UNL     1     212.455 197.171 212.673  1.00  0.00     0.042 C 
ATOM      7  O   UNL     1     212.187 198.401 212.699  1.00  0.00    -0.550 OA
ATOM      8  O   UNL     1     211.997 196.388 211.621  1.00  0.00    -0.550 OA
ENDBRANCH   5   6
ENDBRANCH   1   5
TORSDOF 3
ENDMDL
MODEL 2
REMARK VINA RESULT:    -3.074      1.052      4.047
REMARK INTER + INTRA:          -3.728
REMARK INTER:                  -3.651
REMARK INTRA:                  -0.077
REMARK UNBOUND:                -0.115
REMARK SMILES O=C([O-])CCC(=O)[O-]
REMARK SMILES IDX 4 1 2 2 1 3 3 4 5 5 6 6 7 7 8 8
REMARK H PARENT
REMARK Flexibility Score: inf
ROOT
ATOM      1  C   UNL     1     213.309 196.512 213.860  1.00  0.00     0.059 C 
ENDROOT
BRANCH   1   2
ATOM      2  C   UNL     1     212.520 197.046 212.704  1.00  0.00     0.042 C 
ATOM      3  O   UNL     1     212.143 198.248 212.696  1.00  0.00    -0.550 OA
ATOM      4  O   UNL     1     212.165 196.206 211.656  1.00  0.00    -0.550 OA
ENDBRANCH   1   2
BRANCH   1   5
ATOM      5  C   UNL     1     213.408 197.534 214.998  1.00  0.00     0.059 C 
BRANCH   5   6
ATOM      6  C   UNL     1     212.899 196.972 216.291  1.00  0.00     0.042 C 
ATOM      7  O   UNL     1     211.662 196.813 216.469  1.00  0.00    -0.550 OA
ATOM      8  O   UNL     1     213.787 196.665 217.314  1.00  0.00    -0.550 OA
ENDBRANCH   5   6
ENDBRANCH   1   5
TORSDOF 3
ENDMDL
MODEL 3
REMARK VINA RESULT:    -2.987      2.196      2.965
REMARK INTER + INTRA:          -3.626
REMARK INTER:                  -3.594
REMARK INTRA:                  -0.032
REMARK UNBOUND:                -0.115
REMARK SMILES O=C([O-])CCC(=O)[O-]
REMARK SMILES IDX 4 1 2 2 1 3 3 4 5 5 6 6 7 7 8 8
REMARK H PARENT
REMARK Flexibility Score: inf
ROOT
ATOM      1  C   UNL     1     212.307 198.061 212.819  1.00  0.00     0.059 C 
ENDROOT
BRANCH   1   2
ATOM      2  C   UNL     1     212.725 196.885 213.649  1.00  0.00     0.042 C 
ATOM      3  O   UNL     1     213.292 195.899 213.110  1.00  0.00    -0.550 OA
ATOM      4  O   UNL     1     212.451 196.862 215.010  1.00  0.00    -0.550 OA
ENDBRANCH   1   2
BRANCH   1   5
ATOM      5  C   UNL     1     212.033 197.657 211.366  1.00  0.00     0.059 C 
BRANCH   5   6
ATOM      6  C   UNL     1     210.979 198.521 210.742  1.00  0.00     0.042 C 
ATOM      7  O   UNL     1     211.256 199.694 210.376  1.00  0.00    -0.550 OA
ATOM      8  O   UNL     1     209.681 198.045 210.604  1.00  0.00    -0.550 OA
ENDBRANCH   5   6
ENDBRANCH   1   5
TORSDOF 3
ENDMDL
MODEL 4
REMARK VINA RESULT:    -2.932      2.235      4.771
REMARK INTER + INTRA:          -3.562
REMARK INTER:                  -3.531
REMARK INTRA:                  -0.031
REMARK UNBOUND:                -0.115
REMARK SMILES O=C([O-])CCC(=O)[O-]
REMARK SMILES IDX 4 1 2 2 1 3 3 4 5 5 6 6 7 7 8 8
REMARK H PARENT
REMARK Flexibility Score: inf
ROOT
ATOM      1  C   UNL     1     211.909 197.516 211.281  1.00  0.00     0.059 C 
ENDROOT
BRANCH   1   2
ATOM      2  C   UNL     1     210.955 198.459 210.615  1.00  0.00     0.042 C 
ATOM      3  O   UNL     1     211.369 199.548 210.139  1.00  0.00    -0.550 OA
ATOM      4  O   UNL     1     209.601 198.153 210.557  1.00  0.00    -0.550 OA
ENDBRANCH   1   2
BRANCH   1   5
ATOM      5  C   UNL     1     212.282 197.990 212.690  1.00  0.00     0.059 C 
BRANCH   5   6
ATOM      6  C   UNL     1     212.749 196.854 213.550  1.00  0.00     0.042 C 
ATOM      7  O   UNL     1     213.274 195.837 213.025  1.00  0.00    -0.550 OA
ATOM      8  O   UNL     1     212.565 196.902 214.926  1.00  0.00    -0.550 OA
ENDBRANCH   5   6
ENDBRANCH   1   5
TORSDOF 3
ENDMDL
MODEL 5
REMARK VINA RESULT:    -2.815      2.639      5.089
REMARK INTER + INTRA:          -3.424
REMARK INTER:                  -3.331
REMARK INTRA:                  -0.093
REMARK UNBOUND:                -0.115
REMARK SMILES O=C([O-])CCC(=O)[O-]
REMARK SMILES IDX 4 1 2 2 1 3 3 4 5 5 6 6 7 7 8 8
REMARK H PARENT
REMARK Flexibility Score: inf
ROOT
ATOM      1  C   UNL     1     211.711 198.582 210.610  1.00  0.00     0.059 C 
ENDROOT
BRANCH   1   2
ATOM      2  C   UNL     1     210.321 198.954 210.193  1.00  0.00     0.042 C 
ATOM      3  O   UNL     1     210.122 199.990 209.506  1.00  0.00    -0.550 OA
ATOM      4  O   UNL     1     209.242 198.178 210.597  1.00  0.00    -0.550 OA
ENDBRANCH   1   2
BRANCH   1   5
ATOM      5  C   UNL     1     211.827 198.448 212.132  1.00  0.00     0.059 C 
BRANCH   5   6
ATOM      6  C   UNL     1     212.316 197.087 212.531  1.00  0.00     0.042 C 
ATOM      7  O   UNL     1     212.751 196.887 213.696  1.00  0.00    -0.550 OA
ATOM      8  O   UNL     1     212.330 196.053 211.604  1.00  0.00    -0.550 OA
ENDBRANCH   5   6
ENDBRANCH   1   5
TORSDOF 3
ENDMDL
MODEL 6
REMARK VINA RESULT:    -2.806      2.203      4.921
REMARK INTER + INTRA:          -3.414
REMARK INTER:                  -3.384
REMARK INTRA:                  -0.029
REMARK UNBOUND:                -0.115
REMARK SMILES O=C([O-])CCC(=O)[O-]
REMARK SMILES IDX 4 1 2 2 1 3 3 4 5 5 6 6 7 7 8 8
REMARK H PARENT
REMARK Flexibility Score: inf
ROOT
ATOM      1  C   UNL     1     211.833 198.343 211.643  1.00  0.00     0.059 C 
ENDROOT
BRANCH   1   2
ATOM      2  C   UNL     1     210.973 198.029 210.457  1.00  0.00     0.042 C 
ATOM      3  O   UNL     1     209.719 198.025 210.567  1.00  0.00    -0.550 OA
ATOM      4  O   UNL     1     211.559 197.701 209.241  1.00  0.00    -0.550 OA
ENDBRANCH   1   2
BRANCH   1   5
ATOM      5  C   UNL     1     212.277 197.070 212.372  1.00  0.00     0.059 C 
BRANCH   5   6
ATOM      6  C   UNL     1     212.837 197.377 213.729  1.00  0.00     0.042 C 
ATOM      7  O   UNL     1     212.840 196.495 214.627  1.00  0.00    -0.550 OA
ATOM      8  O   UNL     1     213.317 198.649 214.012  1.00  0.00    -0.550 OA
ENDBRANCH   5   6
ENDBRANCH   1   5
TORSDOF 3
ENDMDL
MODEL 7
REMARK VINA RESULT:    -2.775     18.300     19.593
REMARK INTER + INTRA:          -3.377
REMARK INTER:                  -3.331
REMARK INTRA:                  -0.046
REMARK UNBOUND:                -0.115
REMARK SMILES O=C([O-])CCC(=O)[O-]
REMARK SMILES IDX 4 1 2 2 1 3 3 4 5 5 6 6 7 7 8 8
REMARK H PARENT
REMARK Flexibility Score: inf
ROOT
ATOM      1  C   UNL     1     197.122 207.003 209.204  1.00  0.00     0.059 C 
ENDROOT
BRANCH   1   2
ATOM      2  C   UNL     1     198.266 206.054 209.010  1.00  0.00     0.042 C 
ATOM      3  O   UNL     1     199.434 206.398 209.329  1.00  0.00    -0.550 OA
ATOM      4  O   UNL     1     198.046 204.807 208.440  1.00  0.00    -0.550 OA
ENDBRANCH   1   2
BRANCH   1   5
ATOM      5  C   UNL     1     197.465 208.102 210.214  1.00  0.00     0.059 C 
BRANCH   5   6
ATOM      6  C   UNL     1     196.612 209.320 210.017  1.00  0.00     0.042 C 
ATOM      7  O   UNL     1     196.005 209.498 208.928  1.00  0.00    -0.550 OA
ATOM      8  O   UNL     1     196.523 210.277 211.020  1.00  0.00    -0.550 OA
ENDBRANCH   5   6
ENDBRANCH   1   5
TORSDOF 3
ENDMDL
MODEL 8
REMARK VINA RESULT:    -2.762     18.281     19.529
REMARK INTER + INTRA:          -3.362
REMARK INTER:                  -3.320
REMARK INTRA:                  -0.041
REMARK UNBOUND:                -0.115
REMARK SMILES O=C([O-])CCC(=O)[O-]
REMARK SMILES IDX 4 1 2 2 1 3 3 4 5 5 6 6 7 7 8 8
REMARK H PARENT
REMARK Flexibility Score: inf
ROOT
ATOM      1  C   UNL     1     197.539 208.152 210.291  1.00  0.00     0.059 C 
ENDROOT
BRANCH   1   2
ATOM      2  C   UNL     1     196.692 209.379 210.139  1.00  0.00     0.042 C 
ATOM      3  O   UNL     1     196.607 210.211 211.080  1.00  0.00    -0.550 OA
ATOM      4  O   UNL     1     195.965 209.582 208.973  1.00  0.00    -0.550 OA
ENDBRANCH   1   2
BRANCH   1   5
ATOM      5  C   UNL     1     197.143 207.065 209.286  1.00  0.00     0.059 C 
BRANCH   5   6
ATOM      6  C   UNL     1     198.271 206.110 209.033  1.00  0.00     0.042 C 
ATOM      7  O   UNL     1     198.040 204.970 208.551  1.00  0.00    -0.550 OA
ATOM      8  O   UNL     1     199.572 206.465 209.367  1.00  0.00    -0.550 OA
ENDBRANCH   5   6
ENDBRANCH   1   5
TORSDOF 3
ENDMDL
MODEL 9
REMARK VINA RESULT:    -2.726      2.016      2.808
REMARK INTER + INTRA:          -3.319
REMARK INTER:                  -3.292
REMARK INTRA:                  -0.027
REMARK UNBOUND:                -0.115
REMARK SMILES O=C([O-])CCC(=O)[O-]
REMARK SMILES IDX 4 1 2 2 1 3 3 4 5 5 6 6 7 7 8 8
REMARK H PARENT
REMARK Flexibility Score: inf
ROOT
ATOM      1  C   UNL     1     212.249 197.967 212.600  1.00  0.00     0.059 C 
ENDROOT
BRANCH   1   2
ATOM      2  C   UNL     1     212.929 197.709 213.910  1.00  0.00     0.042 C 
ATOM      3  O   UNL     1     212.684 196.656 214.554  1.00  0.00    -0.550 OA
ATOM      4  O   UNL     1     213.801 198.652 214.438  1.00  0.00    -0.550 OA
ENDBRANCH   1   2
BRANCH   1   5
ATOM      5  C   UNL     1     212.430 196.795 211.629  1.00  0.00     0.059 C 
BRANCH   5   6
ATOM      6  C   UNL     1     212.329 197.239 210.201  1.00  0.00     0.042 C 
ATOM      7  O   UNL     1     213.261 196.987 209.392  1.00  0.00    -0.550 OA
ATOM      8  O   UNL     1     211.226 197.967 209.775  1.00  0.00    -0.550 OA
ENDBRANCH   5   6
ENDBRANCH   1   5
TORSDOF 3
ENDMDL
