MODEL 1
REMARK VINA RESULT:    -2.901      0.000      0.000
REMARK INTER + INTRA:          -3.267
REMARK INTER:                  -3.240
REMARK INTRA:                  -0.027
REMARK UNBOUND:                -0.027
REMARK SMILES CCCC(=O)[O-]
REMARK SMILES IDX 3 1 4 2 5 3 6 4 2 5 1 6
REMARK H PARENT
REMARK Flexibility Score: inf
ROOT
ATOM      1  C   UNL     1     -43.025  27.986   1.838  1.00  0.00     0.052 C 
ENDROOT
BRANCH   1   2
ATOM      2  C   UNL     1     -44.243  27.157   2.096  1.00  0.00     0.041 C 
ATOM      3  O   UNL     1     -45.221  27.202   1.303  1.00  0.00    -0.550 OA
ATOM      4  O   UNL     1     -44.320  26.370   3.237  1.00  0.00    -0.550 OA
ENDBRANCH   1   2
BRANCH   1   5
ATOM      5  C   UNL     1     -42.659  27.951   0.352  1.00  0.00     0.003 C 
ATOM      6  C   UNL     1     -42.265  29.337  -0.151  1.00  0.00     0.004 C 
ENDBRANCH   1   5
TORSDOF 2
ENDMDL
MODEL 2
REMARK VINA RESULT:    -2.891      0.079      1.323
REMARK INTER + INTRA:          -3.256
REMARK INTER:                  -3.232
REMARK INTRA:                  -0.024
REMARK UNBOUND:                -0.027
REMARK SMILES CCCC(=O)[O-]
REMARK SMILES IDX 3 1 4 2 5 3 6 4 2 5 1 6
REMARK H PARENT
REMARK Flexibility Score: inf
ROOT
ATOM      1  C   UNL     1     -43.022  28.016   1.854  1.00  0.00     0.052 C 
ENDROOT
BRANCH   1   2
ATOM      2  C   UNL     1     -44.226  27.166   2.109  1.00  0.00     0.041 C 
ATOM      3  O   UNL     1     -44.262  26.401   3.109  1.00  0.00    -0.550 OA
ATOM      4  O   UNL     1     -45.290  27.183   1.217  1.00  0.00    -0.550 OA
ENDBRANCH   1   2
BRANCH   1   5
ATOM      5  C   UNL     1     -42.627  27.956   0.376  1.00  0.00     0.003 C 
ATOM      6  C   UNL     1     -42.242  29.336  -0.148  1.00  0.00     0.004 C 
ENDBRANCH   1   5
TORSDOF 2
ENDMDL
MODEL 3
REMARK VINA RESULT:    -2.748      2.609      3.065
REMARK INTER + INTRA:          -3.095
REMARK INTER:                  -3.073
REMARK INTRA:                  -0.022
REMARK UNBOUND:                -0.027
REMARK SMILES CCCC(=O)[O-]
REMARK SMILES IDX 3 1 4 2 5 3 6 4 2 5 1 6
REMARK H PARENT
REMARK Flexibility Score: inf
ROOT
ATOM      1  C   UNL     1     -44.005  27.214  -0.588  1.00  0.00     0.052 C 
ENDROOT
BRANCH   1   2
ATOM      2  C   UNL     1     -43.812  27.235   0.895  1.00  0.00     0.041 C 
ATOM      3  O   UNL     1     -42.657  27.354   1.382  1.00  0.00    -0.550 OA
ATOM      4  O   UNL     1     -44.902  27.075   1.740  1.00  0.00    -0.550 OA
ENDBRANCH   1   2
BRANCH   1   5
ATOM      5  C   UNL     1     -45.436  26.794  -0.935  1.00  0.00     0.003 C 
ATOM      6  C   UNL     1     -45.445  25.657  -1.954  1.00  0.00     0.004 C 
ENDBRANCH   1   5
TORSDOF 2
ENDMDL
MODEL 4
REMARK VINA RESULT:    -2.668      1.808      2.567
REMARK INTER + INTRA:          -3.007
REMARK INTER:                  -2.949
REMARK INTRA:                  -0.057
REMARK UNBOUND:                -0.027
REMARK SMILES CCCC(=O)[O-]
REMARK SMILES IDX 3 1 4 2 5 3 6 4 2 5 1 6
REMARK H PARENT
REMARK Flexibility Score: inf
ROOT
ATOM      1  C   UNL     1     -44.223  28.205  -0.502  1.00  0.00     0.052 C 
ENDROOT
BRANCH   1   2
ATOM      2  C   UNL     1     -45.122  27.017  -0.375  1.00  0.00     0.041 C 
ATOM      3  O   UNL     1     -44.929  25.996  -1.085  1.00  0.00    -0.550 OA
ATOM      4  O   UNL     1     -46.205  27.055   0.495  1.00  0.00    -0.550 OA
ENDBRANCH   1   2
BRANCH   1   5
ATOM      5  C   UNL     1     -42.826  27.879   0.034  1.00  0.00     0.003 C 
ATOM      6  C   UNL     1     -42.888  27.418   1.488  1.00  0.00     0.004 C 
ENDBRANCH   1   5
TORSDOF 2
ENDMDL
MODEL 5
REMARK VINA RESULT:    -2.578     22.468     23.016
REMARK INTER + INTRA:          -2.906
REMARK INTER:                  -2.882
REMARK INTRA:                  -0.024
REMARK UNBOUND:                -0.027
REMARK SMILES CCCC(=O)[O-]
REMARK SMILES IDX 3 1 4 2 5 3 6 4 2 5 1 6
REMARK H PARENT
REMARK Flexibility Score: inf
ROOT
ATOM      1  C   UNL     1     -29.421  10.054   7.165  1.00  0.00     0.052 C 
ENDROOT
BRANCH   1   2
ATOM      2  C   UNL     1     -28.476  10.807   6.283  1.00  0.00     0.041 C 
ATOM      3  O   UNL     1     -28.448  12.066   6.312  1.00  0.00    -0.550 OA
ATOM      4  O   UNL     1     -27.659  10.121   5.394  1.00  0.00    -0.550 OA
ENDBRANCH   1   2
BRANCH   1   5
ATOM      5  C   UNL     1     -30.231  11.022   8.031  1.00  0.00     0.003 C 
ATOM      6  C   UNL     1     -31.708  10.639   8.052  1.00  0.00     0.004 C 
ENDBRANCH   1   5
TORSDOF 2
ENDMDL
MODEL 6
REMARK VINA RESULT:    -2.551      4.621      5.012
REMARK INTER + INTRA:          -2.876
REMARK INTER:                  -2.838
REMARK INTRA:                  -0.039
REMARK UNBOUND:                -0.027
REMARK SMILES CCCC(=O)[O-]
REMARK SMILES IDX 3 1 4 2 5 3 6 4 2 5 1 6
REMARK H PARENT
REMARK Flexibility Score: inf
ROOT
ATOM      1  C   UNL     1     -45.991  27.187  -2.390  1.00  0.00     0.052 C 
ENDROOT
BRANCH   1   2
ATOM      2  C   UNL     1     -45.407  26.121  -1.518  1.00  0.00     0.041 C 
ATOM      3  O   UNL     1     -45.754  24.919  -1.668  1.00  0.00    -0.550 OA
ATOM      4  O   UNL     1     -44.515  26.459  -0.509  1.00  0.00    -0.550 OA
ENDBRANCH   1   2
BRANCH   1   5
ATOM      5  C   UNL     1     -46.900  26.570  -3.455  1.00  0.00     0.003 C 
ATOM      6  C   UNL     1     -46.237  26.599  -4.830  1.00  0.00     0.004 C 
ENDBRANCH   1   5
TORSDOF 2
ENDMDL
MODEL 7
REMARK VINA RESULT:    -2.529      1.502      2.711
REMARK INTER + INTRA:          -2.851
REMARK INTER:                  -2.815
REMARK INTRA:                  -0.036
REMARK UNBOUND:                -0.027
REMARK SMILES CCCC(=O)[O-]
REMARK SMILES IDX 3 1 4 2 5 3 6 4 2 5 1 6
REMARK H PARENT
REMARK Flexibility Score: inf
ROOT
ATOM      1  C   UNL     1     -43.184  28.199   2.297  1.00  0.00     0.052 C 
ENDROOT
BRANCH   1   2
ATOM      2  C   UNL     1     -44.287  27.193   2.375  1.00  0.00     0.041 C 
ATOM      3  O   UNL     1     -44.264  26.295   3.258  1.00  0.00    -0.550 OA
ATOM      4  O   UNL     1     -45.317  27.216   1.444  1.00  0.00    -0.550 OA
ENDBRANCH   1   2
BRANCH   1   5
ATOM      5  C   UNL     1     -43.519  29.429   3.144  1.00  0.00     0.003 C 
ATOM      6  C   UNL     1     -42.933  29.307   4.548  1.00  0.00     0.004 C 
ENDBRANCH   1   5
TORSDOF 2
ENDMDL
MODEL 8
REMARK VINA RESULT:    -2.459      3.147      4.268
REMARK INTER + INTRA:          -2.773
REMARK INTER:                  -2.766
REMARK INTRA:                  -0.008
REMARK UNBOUND:                -0.027
REMARK SMILES CCCC(=O)[O-]
REMARK SMILES IDX 3 1 4 2 5 3 6 4 2 5 1 6
REMARK H PARENT
REMARK Flexibility Score: inf
ROOT
ATOM      1  C   UNL     1     -44.132  27.990   4.906  1.00  0.00     0.052 C 
ENDROOT
BRANCH   1   2
ATOM      2  C   UNL     1     -44.755  27.185   3.810  1.00  0.00     0.041 C 
ATOM      3  O   UNL     1     -45.852  27.542   3.305  1.00  0.00    -0.550 OA
ATOM      4  O   UNL     1     -44.149  26.012   3.377  1.00  0.00    -0.550 OA
ENDBRANCH   1   2
BRANCH   1   5
ATOM      5  C   UNL     1     -43.799  27.096   6.103  1.00  0.00     0.003 C 
ATOM      6  C   UNL     1     -42.948  27.843   7.127  1.00  0.00     0.004 C 
ENDBRANCH   1   5
TORSDOF 2
ENDMDL
