MODEL 1
REMARK VINA RESULT:    -5.602      0.000      0.000
REMARK INTER + INTRA:          -6.675
REMARK INTER:                  -6.420
REMARK INTRA:                  -0.255
REMARK UNBOUND:                -0.255
REMARK SMILES COC(=O)c1ccccc1O
REMARK SMILES IDX 5 1 6 2 7 3 8 4 9 5 10 6 3 7 4 8 2 9 1 10 11 11
REMARK H PARENT 11 12
REMARK Flexibility Score: inf
ROOT
ATOM      1  C   UNL     1      31.356   7.006 106.467  1.00  0.00     0.101 A 
ATOM      2  C   UNL     1      31.781   7.472 107.726  1.00  0.00     0.019 A 
ATOM      3  C   UNL     1      32.186   6.576 108.718  1.00  0.00     0.001 A 
ATOM      4  C   UNL     1      32.174   5.204 108.470  1.00  0.00     0.004 A 
ATOM      5  C   UNL     1      31.756   4.723 107.229  1.00  0.00     0.047 A 
ATOM      6  C   UNL     1      31.346   5.612 106.222  1.00  0.00     0.130 A 
ENDROOT
BRANCH   1   7
ATOM      7  C   UNL     1      30.932   7.989 105.436  1.00  0.00     0.341 C 
ATOM      8  O   UNL     1      30.158   7.646 104.501  1.00  0.00    -0.246 OA
BRANCH   7   9
ATOM      9  O   UNL     1      31.396   9.308 105.504  1.00  0.00    -0.465 OA
ATOM     10  C   UNL     1      30.560  10.432 105.251  1.00  0.00     0.282 C 
ENDBRANCH   7   9
ENDBRANCH   1   7
BRANCH   6  11
ATOM     11  O   UNL     1      30.934   5.105 104.990  1.00  0.00    -0.507 OA
ATOM     12  H   UNL     1      30.136   5.490 104.496  1.00  0.00     0.293 HD
ENDBRANCH   6  11
TORSDOF 3
ENDMDL
MODEL 2
REMARK VINA RESULT:    -5.502      1.963      4.043
REMARK INTER + INTRA:          -6.561
REMARK INTER:                  -6.291
REMARK INTRA:                  -0.270
REMARK UNBOUND:                -0.255
REMARK SMILES COC(=O)c1ccccc1O
REMARK SMILES IDX 5 1 6 2 7 3 8 4 9 5 10 6 3 7 4 8 2 9 1 10 11 11
REMARK H PARENT 11 12
REMARK Flexibility Score: inf
ROOT
ATOM      1  C   UNL     1      31.703   6.736 106.912  1.00  0.00     0.101 A 
ATOM      2  C   UNL     1      31.972   8.117 106.957  1.00  0.00     0.019 A 
ATOM      3  C   UNL     1      31.507   8.968 105.951  1.00  0.00     0.001 A 
ATOM      4  C   UNL     1      30.767   8.455 104.886  1.00  0.00     0.004 A 
ATOM      5  C   UNL     1      30.489   7.089 104.824  1.00  0.00     0.047 A 
ATOM      6  C   UNL     1      30.951   6.222 105.828  1.00  0.00     0.130 A 
ENDROOT
BRANCH   1   7
ATOM      7  C   UNL     1      32.214   5.863 108.000  1.00  0.00     0.341 C 
ATOM      8  O   UNL     1      32.440   6.334 109.148  1.00  0.00    -0.246 OA
BRANCH   7   9
ATOM      9  O   UNL     1      32.446   4.505 107.750  1.00  0.00    -0.465 OA
ATOM     10  C   UNL     1      33.654   4.026 107.170  1.00  0.00     0.282 C 
ENDBRANCH   7   9
ENDBRANCH   1   7
BRANCH   6  11
ATOM     11  O   UNL     1      30.659   4.861 105.743  1.00  0.00    -0.507 OA
ATOM     12  H   UNL     1      31.288   4.157 106.113  1.00  0.00     0.293 HD
ENDBRANCH   6  11
TORSDOF 3
ENDMDL
MODEL 3
REMARK VINA RESULT:    -5.486      2.096      3.319
REMARK INTER + INTRA:          -6.542
REMARK INTER:                  -6.257
REMARK INTRA:                  -0.285
REMARK UNBOUND:                -0.255
REMARK SMILES COC(=O)c1ccccc1O
REMARK SMILES IDX 5 1 6 2 7 3 8 4 9 5 10 6 3 7 4 8 2 9 1 10 11 11
REMARK H PARENT 11 12
REMARK Flexibility Score: inf
ROOT
ATOM      1  C   UNL     1      32.048   6.905 107.757  1.00  0.00     0.101 A 
ATOM      2  C   UNL     1      32.428   5.577 108.029  1.00  0.00     0.019 A 
ATOM      3  C   UNL     1      32.074   4.541 107.161  1.00  0.00     0.001 A 
ATOM      4  C   UNL     1      31.338   4.814 106.009  1.00  0.00     0.004 A 
ATOM      5  C   UNL     1      30.953   6.124 105.720  1.00  0.00     0.047 A 
ATOM      6  C   UNL     1      31.302   7.174 106.584  1.00  0.00     0.130 A 
ENDROOT
BRANCH   1   7
ATOM      7  C   UNL     1      32.443   7.980 108.703  1.00  0.00     0.341 C 
ATOM      8  O   UNL     1      31.583   8.529 109.445  1.00  0.00    -0.246 OA
BRANCH   7   9
ATOM      9  O   UNL     1      33.781   8.386 108.774  1.00  0.00    -0.465 OA
ATOM     10  C   UNL     1      34.485   8.911 107.655  1.00  0.00     0.282 C 
ENDBRANCH   7   9
ENDBRANCH   1   7
BRANCH   6  11
ATOM     11  O   UNL     1      30.905   8.475 106.273  1.00  0.00    -0.507 OA
ATOM     12  H   UNL     1      31.038   9.242 106.923  1.00  0.00     0.293 HD
ENDBRANCH   6  11
TORSDOF 3
ENDMDL
MODEL 4
REMARK VINA RESULT:    -5.465      2.098      4.519
REMARK INTER + INTRA:          -6.519
REMARK INTER:                  -6.220
REMARK INTRA:                  -0.299
REMARK UNBOUND:                -0.255
REMARK SMILES COC(=O)c1ccccc1O
REMARK SMILES IDX 5 1 6 2 7 3 8 4 9 5 10 6 3 7 4 8 2 9 1 10 11 11
REMARK H PARENT 11 12
REMARK Flexibility Score: inf
ROOT
ATOM      1  C   UNL     1      31.580   6.555 106.741  1.00  0.00     0.101 A 
ATOM      2  C   UNL     1      30.790   6.357 105.592  1.00  0.00     0.019 A 
ATOM      3  C   UNL     1      30.463   7.430 104.759  1.00  0.00     0.001 A 
ATOM      4  C   UNL     1      30.917   8.714 105.058  1.00  0.00     0.004 A 
ATOM      5  C   UNL     1      31.702   8.929 106.192  1.00  0.00     0.047 A 
ATOM      6  C   UNL     1      32.039   7.861 107.038  1.00  0.00     0.130 A 
ENDROOT
BRANCH   1   7
ATOM      7  C   UNL     1      31.909   5.390 107.602  1.00  0.00     0.341 C 
ATOM      8  O   UNL     1      31.815   5.473 108.858  1.00  0.00    -0.246 OA
BRANCH   7   9
ATOM      9  O   UNL     1      32.325   4.189 107.017  1.00  0.00    -0.465 OA
ATOM     10  C   UNL     1      33.692   3.796 106.955  1.00  0.00     0.282 C 
ENDBRANCH   7   9
ENDBRANCH   1   7
BRANCH   6  11
ATOM     11  O   UNL     1      32.824   8.103 108.164  1.00  0.00    -0.507 OA
ATOM     12  H   UNL     1      33.473   7.410 108.520  1.00  0.00     0.293 HD
ENDBRANCH   6  11
TORSDOF 3
ENDMDL
MODEL 5
REMARK VINA RESULT:    -5.258      0.871      2.049
REMARK INTER + INTRA:          -6.282
REMARK INTER:                  -5.989
REMARK INTRA:                  -0.293
REMARK UNBOUND:                -0.255
REMARK SMILES COC(=O)c1ccccc1O
REMARK SMILES IDX 5 1 6 2 7 3 8 4 9 5 10 6 3 7 4 8 2 9 1 10 11 11
REMARK H PARENT 11 12
REMARK Flexibility Score: inf
ROOT
ATOM      1  C   UNL     1      31.273   6.879 106.365  1.00  0.00     0.101 A 
ATOM      2  C   UNL     1      31.316   5.527 105.974  1.00  0.00     0.019 A 
ATOM      3  C   UNL     1      31.685   4.533 106.882  1.00  0.00     0.001 A 
ATOM      4  C   UNL     1      32.018   4.870 108.193  1.00  0.00     0.004 A 
ATOM      5  C   UNL     1      31.981   6.204 108.601  1.00  0.00     0.047 A 
ATOM      6  C   UNL     1      31.611   7.214 107.699  1.00  0.00     0.130 A 
ENDROOT
BRANCH   1   7
ATOM      7  C   UNL     1      30.874   7.908 105.371  1.00  0.00     0.341 C 
ATOM      8  O   UNL     1      30.118   7.610 104.406  1.00  0.00    -0.246 OA
BRANCH   7   9
ATOM      9  O   UNL     1      31.342   9.221 105.505  1.00  0.00    -0.465 OA
ATOM     10  C   UNL     1      30.523  10.358 105.258  1.00  0.00     0.282 C 
ENDBRANCH   7   9
ENDBRANCH   1   7
BRANCH   6  11
ATOM     11  O   UNL     1      31.581   8.539 108.131  1.00  0.00    -0.507 OA
ATOM     12  H   UNL     1      32.431   9.080 108.249  1.00  0.00     0.293 HD
ENDBRANCH   6  11
TORSDOF 3
ENDMDL
MODEL 6
REMARK VINA RESULT:    -5.217      2.617      3.370
REMARK INTER + INTRA:          -6.234
REMARK INTER:                  -5.946
REMARK INTRA:                  -0.289
REMARK UNBOUND:                -0.255
REMARK SMILES COC(=O)c1ccccc1O
REMARK SMILES IDX 5 1 6 2 7 3 8 4 9 5 10 6 3 7 4 8 2 9 1 10 11 11
REMARK H PARENT 11 12
REMARK Flexibility Score: inf
ROOT
ATOM      1  C   UNL     1      31.912   7.022 107.543  1.00  0.00     0.101 A 
ATOM      2  C   UNL     1      31.124   7.469 106.465  1.00  0.00     0.019 A 
ATOM      3  C   UNL     1      30.700   6.579 105.475  1.00  0.00     0.001 A 
ATOM      4  C   UNL     1      31.055   5.233 105.544  1.00  0.00     0.004 A 
ATOM      5  C   UNL     1      31.834   4.770 106.606  1.00  0.00     0.047 A 
ATOM      6  C   UNL     1      32.267   5.653 107.608  1.00  0.00     0.130 A 
ENDROOT
BRANCH   1   7
ATOM      7  C   UNL     1      32.344   7.998 108.577  1.00  0.00     0.341 C 
ATOM      8  O   UNL     1      31.497   8.546 109.336  1.00  0.00    -0.246 OA
BRANCH   7   9
ATOM      9  O   UNL     1      33.701   8.312 108.712  1.00  0.00    -0.465 OA
ATOM     10  C   UNL     1      34.459   8.910 107.666  1.00  0.00     0.282 C 
ENDBRANCH   7   9
ENDBRANCH   1   7
BRANCH   6  11
ATOM     11  O   UNL     1      33.045   5.166 108.658  1.00  0.00    -0.507 OA
ATOM     12  H   UNL     1      32.978   4.203 108.968  1.00  0.00     0.293 HD
ENDBRANCH   6  11
TORSDOF 3
ENDMDL
MODEL 7
REMARK VINA RESULT:    -4.841      2.042      3.577
REMARK INTER + INTRA:          -5.804
REMARK INTER:                  -5.937
REMARK INTRA:                   0.133
REMARK UNBOUND:                -0.255
REMARK SMILES COC(=O)c1ccccc1O
REMARK SMILES IDX 5 1 6 2 7 3 8 4 9 5 10 6 3 7 4 8 2 9 1 10 11 11
REMARK H PARENT 11 12
REMARK Flexibility Score: inf
ROOT
ATOM      1  C   UNL     1      31.718   7.055 106.853  1.00  0.00     0.101 A 
ATOM      2  C   UNL     1      31.893   8.416 106.534  1.00  0.00     0.019 A 
ATOM      3  C   UNL     1      31.337   8.953 105.371  1.00  0.00     0.001 A 
ATOM      4  C   UNL     1      30.598   8.143 104.509  1.00  0.00     0.004 A 
ATOM      5  C   UNL     1      30.413   6.793 104.808  1.00  0.00     0.047 A 
ATOM      6  C   UNL     1      30.967   6.240 105.974  1.00  0.00     0.130 A 
ENDROOT
BRANCH   1   7
ATOM      7  C   UNL     1      32.325   6.520 108.099  1.00  0.00     0.341 C 
ATOM      8  O   UNL     1      32.773   5.341 108.141  1.00  0.00    -0.246 OA
BRANCH   7   9
ATOM      9  O   UNL     1      32.401   7.331 109.238  1.00  0.00    -0.465 OA
ATOM     10  C   UNL     1      31.390   8.271 109.582  1.00  0.00     0.282 C 
ENDBRANCH   7   9
ENDBRANCH   1   7
BRANCH   6  11
ATOM     11  O   UNL     1      30.767   4.887 106.250  1.00  0.00    -0.507 OA
ATOM     12  H   UNL     1      31.542   4.238 106.322  1.00  0.00     0.293 HD
ENDBRANCH   6  11
TORSDOF 3
ENDMDL
MODEL 8
REMARK VINA RESULT:    -4.582      2.163      2.907
REMARK INTER + INTRA:          -5.507
REMARK INTER:                  -5.276
REMARK INTRA:                  -0.231
REMARK UNBOUND:                -0.255
REMARK SMILES COC(=O)c1ccccc1O
REMARK SMILES IDX 5 1 6 2 7 3 8 4 9 5 10 6 3 7 4 8 2 9 1 10 11 11
REMARK H PARENT 11 12
REMARK Flexibility Score: inf
ROOT
ATOM      1  C   UNL     1      31.923   6.713 107.528  1.00  0.00     0.101 A 
ATOM      2  C   UNL     1      31.260   6.039 106.484  1.00  0.00     0.019 A 
ATOM      3  C   UNL     1      31.598   4.725 106.155  1.00  0.00     0.001 A 
ATOM      4  C   UNL     1      32.601   4.062 106.861  1.00  0.00     0.004 A 
ATOM      5  C   UNL     1      33.269   4.711 107.900  1.00  0.00     0.047 A 
ATOM      6  C   UNL     1      32.940   6.033 108.241  1.00  0.00     0.130 A 
ENDROOT
BRANCH   1   7
ATOM      7  C   UNL     1      31.536   8.110 107.849  1.00  0.00     0.341 C 
ATOM      8  O   UNL     1      31.392   8.477 109.048  1.00  0.00    -0.246 OA
BRANCH   7   9
ATOM      9  O   UNL     1      31.329   9.029 106.814  1.00  0.00    -0.465 OA
ATOM     10  C   UNL     1      32.311   9.302 105.820  1.00  0.00     0.282 C 
ENDBRANCH   7   9
ENDBRANCH   1   7
BRANCH   6  11
ATOM     11  O   UNL     1      33.622   6.659 109.284  1.00  0.00    -0.507 OA
ATOM     12  H   UNL     1      34.555   6.372 109.558  1.00  0.00     0.293 HD
ENDBRANCH   6  11
TORSDOF 3
ENDMDL
MODEL 9
REMARK VINA RESULT:    -4.552      2.569      4.285
REMARK INTER + INTRA:          -5.472
REMARK INTER:                  -5.192
REMARK INTRA:                  -0.280
REMARK UNBOUND:                -0.255
REMARK SMILES COC(=O)c1ccccc1O
REMARK SMILES IDX 5 1 6 2 7 3 8 4 9 5 10 6 3 7 4 8 2 9 1 10 11 11
REMARK H PARENT 11 12
REMARK Flexibility Score: inf
ROOT
ATOM      1  C   UNL     1      32.701   8.118 107.401  1.00  0.00     0.101 A 
ATOM      2  C   UNL     1      34.016   8.535 107.685  1.00  0.00     0.019 A 
ATOM      3  C   UNL     1      34.655   9.478 106.878  1.00  0.00     0.001 A 
ATOM      4  C   UNL     1      33.995  10.021 105.777  1.00  0.00     0.004 A 
ATOM      5  C   UNL     1      32.691   9.622 105.479  1.00  0.00     0.047 A 
ATOM      6  C   UNL     1      32.036   8.674 106.282  1.00  0.00     0.130 A 
ENDROOT
BRANCH   1   7
ATOM      7  C   UNL     1      32.054   7.113 108.282  1.00  0.00     0.341 C 
ATOM      8  O   UNL     1      31.081   7.435 109.018  1.00  0.00    -0.246 OA
BRANCH   7   9
ATOM      9  O   UNL     1      32.527   5.795 108.297  1.00  0.00    -0.465 OA
ATOM     10  C   UNL     1      32.075   4.806 107.379  1.00  0.00     0.282 C 
ENDBRANCH   7   9
ENDBRANCH   1   7
BRANCH   6  11
ATOM     11  O   UNL     1      30.734   8.293 105.963  1.00  0.00    -0.507 OA
ATOM     12  H   UNL     1      30.505   7.337 105.711  1.00  0.00     0.293 HD
ENDBRANCH   6  11
TORSDOF 3
ENDMDL
