MODEL 1
REMARK VINA RESULT:     0.368      0.000      0.000
REMARK INTER + INTRA:          -0.213
REMARK INTER:                   0.691
REMARK INTRA:                  -0.904
REMARK UNBOUND:                -0.904
REMARK SMILES O=C([O-])CCCCCCCCCCCCCCC(=O)[O-]
REMARK SMILES IDX 10 1 9 2 8 3 7 4 6 5 5 6 4 7 2 8 1 9 3 10 11 11 12 12 13 13
REMARK SMILES IDX 14 14 15 15 16 16 17 17 18 18 19 19 20 20
REMARK H PARENT
REMARK Flexibility Score: inf
ROOT
ATOM      1  C   UNL     1      -4.999  34.694  21.907  1.00  0.00     0.000 C 
ENDROOT
BRANCH   1   2
ATOM      2  C   UNL     1      -5.521  33.792  23.036  1.00  0.00     0.000 C 
BRANCH   2   3
ATOM      3  C   UNL     1      -6.121  34.632  24.175  1.00  0.00     0.000 C 
BRANCH   3   4
ATOM      4  C   UNL     1      -5.102  35.597  24.803  1.00  0.00     0.000 C 
BRANCH   4   5
ATOM      5  C   UNL     1      -5.704  36.980  25.102  1.00  0.00     0.000 C 
BRANCH   5   6
ATOM      6  C   UNL     1      -6.108  37.746  23.827  1.00  0.00     0.006 C 
BRANCH   6   7
ATOM      7  C   UNL     1      -5.091  38.816  23.391  1.00  0.00     0.053 C 
BRANCH   7   8
ATOM      8  C   UNL     1      -5.361  39.346  22.017  1.00  0.00     0.041 C 
ATOM      9  O   UNL     1      -5.164  38.621  21.005  1.00  0.00    -0.550 OA
ATOM     10  O   UNL     1      -5.814  40.650  21.851  1.00  0.00    -0.550 OA
ENDBRANCH   7   8
ENDBRANCH   6   7
ENDBRANCH   5   6
ENDBRANCH   4   5
ENDBRANCH   3   4
ENDBRANCH   2   3
ENDBRANCH   1   2
BRANCH   1  11
ATOM     11  C   UNL     1      -6.125  35.454  21.190  1.00  0.00     0.000 C 
BRANCH  11  12
ATOM     12  C   UNL     1      -5.954  35.461  19.661  1.00  0.00     0.000 C 
BRANCH  12  13
ATOM     13  C   UNL     1      -4.516  35.139  19.226  1.00  0.00     0.000 C 
BRANCH  13  14
ATOM     14  C   UNL     1      -4.438  34.613  17.784  1.00  0.00     0.000 C 
BRANCH  14  15
ATOM     15  C   UNL     1      -4.041  35.734  16.812  1.00  0.00     0.000 C 
BRANCH  15  16
ATOM     16  C   UNL     1      -2.776  35.400  16.000  1.00  0.00     0.006 C 
BRANCH  16  17
ATOM     17  C   UNL     1      -2.815  35.880  14.540  1.00  0.00     0.053 C 
BRANCH  17  18
ATOM     18  C   UNL     1      -3.874  36.915  14.317  1.00  0.00     0.041 C 
ATOM     19  O   UNL     1      -5.004  36.580  13.875  1.00  0.00    -0.550 OA
ATOM     20  O   UNL     1      -3.624  38.246  14.628  1.00  0.00    -0.550 OA
ENDBRANCH  17  18
ENDBRANCH  16  17
ENDBRANCH  15  16
ENDBRANCH  14  15
ENDBRANCH  13  14
ENDBRANCH  12  13
ENDBRANCH  11  12
ENDBRANCH   1  11
TORSDOF 15
ENDMDL
MODEL 2
REMARK VINA RESULT:     0.606      1.076      7.360
REMARK INTER + INTRA:           0.233
REMARK INTER:                   0.911
REMARK INTRA:                  -0.678
REMARK UNBOUND:                -0.904
REMARK SMILES O=C([O-])CCCCCCCCCCCCCCC(=O)[O-]
REMARK SMILES IDX 10 1 9 2 8 3 7 4 6 5 5 6 4 7 2 8 1 9 3 10 11 11 12 12 13 13
REMARK SMILES IDX 14 14 15 15 16 16 17 17 18 18 19 19 20 20
REMARK H PARENT
REMARK Flexibility Score: inf
ROOT
ATOM      1  C   UNL     1      -4.893  35.366  21.960  1.00  0.00     0.000 C 
ENDROOT
BRANCH   1   2
ATOM      2  C   UNL     1      -5.137  35.672  20.474  1.00  0.00     0.000 C 
BRANCH   2   3
ATOM      3  C   UNL     1      -6.108  34.654  19.858  1.00  0.00     0.000 C 
BRANCH   3   4
ATOM      4  C   UNL     1      -5.800  34.355  18.382  1.00  0.00     0.000 C 
BRANCH   4   5
ATOM      5  C   UNL     1      -4.380  34.787  17.976  1.00  0.00     0.000 C 
BRANCH   5   6
ATOM      6  C   UNL     1      -4.339  35.507  16.614  1.00  0.00     0.006 C 
BRANCH   6   7
ATOM      7  C   UNL     1      -3.099  35.171  15.766  1.00  0.00     0.053 C 
BRANCH   7   8
ATOM      8  C   UNL     1      -2.832  36.190  14.702  1.00  0.00     0.041 C 
ATOM      9  O   UNL     1      -1.672  36.330  14.231  1.00  0.00    -0.550 OA
ATOM     10  O   UNL     1      -3.862  37.002  14.242  1.00  0.00    -0.550 OA
ENDBRANCH   7   8
ENDBRANCH   6   7
ENDBRANCH   5   6
ENDBRANCH   4   5
ENDBRANCH   3   4
ENDBRANCH   2   3
ENDBRANCH   1   2
BRANCH   1  11
ATOM     11  C   UNL     1      -6.125  34.758  22.648  1.00  0.00     0.000 C 
BRANCH  11  12
ATOM     12  C   UNL     1      -5.879  34.444  24.133  1.00  0.00     0.000 C 
BRANCH  12  13
ATOM     13  C   UNL     1      -6.092  35.667  25.039  1.00  0.00     0.000 C 
BRANCH  13  14
ATOM     14  C   UNL     1      -4.794  36.135  25.717  1.00  0.00     0.000 C 
BRANCH  14  15
ATOM     15  C   UNL     1      -4.678  37.666  25.679  1.00  0.00     0.000 C 
BRANCH  15  16
ATOM     16  C   UNL     1      -5.567  38.305  24.596  1.00  0.00     0.006 C 
BRANCH  16  17
ATOM     17  C   UNL     1      -4.877  39.410  23.781  1.00  0.00     0.053 C 
BRANCH  17  18
ATOM     18  C   UNL     1      -5.430  39.514  22.394  1.00  0.00     0.041 C 
ATOM     19  O   UNL     1      -5.597  40.642  21.861  1.00  0.00    -0.550 OA
ATOM     20  O   UNL     1      -5.733  38.363  21.677  1.00  0.00    -0.550 OA
ENDBRANCH  17  18
ENDBRANCH  16  17
ENDBRANCH  15  16
ENDBRANCH  14  15
ENDBRANCH  13  14
ENDBRANCH  12  13
ENDBRANCH  11  12
ENDBRANCH   1  11
TORSDOF 15
ENDMDL
MODEL 3
REMARK VINA RESULT:     0.646      2.169      7.577
REMARK INTER + INTRA:           0.308
REMARK INTER:                  -0.113
REMARK INTRA:                   0.421
REMARK UNBOUND:                -0.904
REMARK SMILES O=C([O-])CCCCCCCCCCCCCCC(=O)[O-]
REMARK SMILES IDX 10 1 9 2 8 3 7 4 6 5 5 6 4 7 2 8 1 9 3 10 11 11 12 12 13 13
REMARK SMILES IDX 14 14 15 15 16 16 17 17 18 18 19 19 20 20
REMARK H PARENT
REMARK Flexibility Score: inf
ROOT
ATOM      1  C   UNL     1      -5.268  37.689  21.370  1.00  0.00     0.000 C 
ENDROOT
BRANCH   1   2
ATOM      2  C   UNL     1      -5.380  37.034  19.985  1.00  0.00     0.000 C 
BRANCH   2   3
ATOM      3  C   UNL     1      -4.845  35.594  20.015  1.00  0.00     0.000 C 
BRANCH   3   4
ATOM      4  C   UNL     1      -5.632  34.648  19.093  1.00  0.00     0.000 C 
BRANCH   4   5
ATOM      5  C   UNL     1      -4.832  34.239  17.844  1.00  0.00     0.000 C 
BRANCH   5   6
ATOM      6  C   UNL     1      -4.174  35.438  17.135  1.00  0.00     0.006 C 
BRANCH   6   7
ATOM      7  C   UNL     1      -3.120  35.043  16.086  1.00  0.00     0.053 C 
BRANCH   7   8
ATOM      8  C   UNL     1      -3.106  35.962  14.904  1.00  0.00     0.041 C 
ATOM      9  O   UNL     1      -4.170  36.511  14.513  1.00  0.00    -0.550 OA
ATOM     10  O   UNL     1      -1.919  36.200  14.221  1.00  0.00    -0.550 OA
ENDBRANCH   7   8
ENDBRANCH   6   7
ENDBRANCH   5   6
ENDBRANCH   4   5
ENDBRANCH   3   4
ENDBRANCH   2   3
ENDBRANCH   1   2
BRANCH   1  11
ATOM     11  C   UNL     1      -5.630  39.182  21.349  1.00  0.00     0.000 C 
BRANCH  11  12
ATOM     12  C   UNL     1      -4.994  39.962  22.512  1.00  0.00     0.000 C 
BRANCH  12  13
ATOM     13  C   UNL     1      -5.328  39.356  23.884  1.00  0.00     0.000 C 
BRANCH  13  14
ATOM     14  C   UNL     1      -5.877  37.924  23.780  1.00  0.00     0.000 C 
BRANCH  14  15
ATOM     15  C   UNL     1      -5.497  37.100  25.019  1.00  0.00     0.000 C 
BRANCH  15  16
ATOM     16  C   UNL     1      -5.957  35.633  24.925  1.00  0.00     0.006 C 
BRANCH  16  17
ATOM     17  C   UNL     1      -6.124  35.113  23.488  1.00  0.00     0.053 C 
BRANCH  17  18
ATOM     18  C   UNL     1      -5.380  33.834  23.263  1.00  0.00     0.041 C 
ATOM     19  O   UNL     1      -5.893  32.735  23.600  1.00  0.00    -0.550 OA
ATOM     20  O   UNL     1      -4.132  33.852  22.652  1.00  0.00    -0.550 OA
ENDBRANCH  17  18
ENDBRANCH  16  17
ENDBRANCH  15  16
ENDBRANCH  14  15
ENDBRANCH  13  14
ENDBRANCH  12  13
ENDBRANCH  11  12
ENDBRANCH   1  11
TORSDOF 15
ENDMDL
MODEL 4
REMARK VINA RESULT:     1.017      2.571      8.546
REMARK INTER + INTRA:           1.006
REMARK INTER:                   1.833
REMARK INTRA:                  -0.827
REMARK UNBOUND:                -0.904
REMARK SMILES O=C([O-])CCCCCCCCCCCCCCC(=O)[O-]
REMARK SMILES IDX 10 1 9 2 8 3 7 4 6 5 5 6 4 7 2 8 1 9 3 10 11 11 12 12 13 13
REMARK SMILES IDX 14 14 15 15 16 16 17 17 18 18 19 19 20 20
REMARK H PARENT
REMARK Flexibility Score: inf
ROOT
ATOM      1  C   UNL     1      -5.043  36.140  20.882  1.00  0.00     0.000 C 
ENDROOT
BRANCH   1   2
ATOM      2  C   UNL     1      -5.370  36.304  19.390  1.00  0.00     0.000 C 
BRANCH   2   3
ATOM      3  C   UNL     1      -5.495  34.936  18.703  1.00  0.00     0.000 C 
BRANCH   3   4
ATOM      4  C   UNL     1      -4.251  34.569  17.877  1.00  0.00     0.000 C 
BRANCH   4   5
ATOM      5  C   UNL     1      -3.856  35.673  16.881  1.00  0.00     0.000 C 
BRANCH   5   6
ATOM      6  C   UNL     1      -2.945  35.161  15.748  1.00  0.00     0.006 C 
BRANCH   6   7
ATOM      7  C   UNL     1      -2.707  36.186  14.625  1.00  0.00     0.053 C 
BRANCH   7   8
ATOM      8  C   UNL     1      -3.896  37.062  14.380  1.00  0.00     0.041 C 
ATOM      9  O   UNL     1      -3.843  38.294  14.640  1.00  0.00    -0.550 OA
ATOM     10  O   UNL     1      -5.072  36.516  13.879  1.00  0.00    -0.550 OA
ENDBRANCH   7   8
ENDBRANCH   6   7
ENDBRANCH   5   6
ENDBRANCH   4   5
ENDBRANCH   3   4
ENDBRANCH   2   3
ENDBRANCH   1   2
BRANCH   1  11
ATOM     11  C   UNL     1      -6.125  35.356  21.641  1.00  0.00     0.000 C 
BRANCH  11  12
ATOM     12  C   UNL     1      -5.536  34.271  22.558  1.00  0.00     0.000 C 
BRANCH  12  13
ATOM     13  C   UNL     1      -5.001  34.841  23.881  1.00  0.00     0.000 C 
BRANCH  13  14
ATOM     14  C   UNL     1      -6.125  35.204  24.865  1.00  0.00     0.000 C 
BRANCH  14  15
ATOM     15  C   UNL     1      -5.951  36.636  25.392  1.00  0.00     0.000 C 
BRANCH  15  16
ATOM     16  C   UNL     1      -4.488  37.115  25.345  1.00  0.00     0.006 C 
BRANCH  16  17
ATOM     17  C   UNL     1      -3.980  37.731  26.659  1.00  0.00     0.053 C 
BRANCH  17  18
ATOM     18  C   UNL     1      -2.588  37.287  26.987  1.00  0.00     0.041 C 
ATOM     19  O   UNL     1      -1.609  38.040  26.744  1.00  0.00    -0.550 OA
ATOM     20  O   UNL     1      -2.375  36.053  27.590  1.00  0.00    -0.550 OA
ENDBRANCH  17  18
ENDBRANCH  16  17
ENDBRANCH  15  16
ENDBRANCH  14  15
ENDBRANCH  13  14
ENDBRANCH  12  13
ENDBRANCH  11  12
ENDBRANCH   1  11
TORSDOF 15
ENDMDL
MODEL 5
REMARK VINA RESULT:     1.261      1.923      7.963
REMARK INTER + INTRA:           1.462
REMARK INTER:                   0.317
REMARK INTRA:                   1.145
REMARK UNBOUND:                -0.904
REMARK SMILES O=C([O-])CCCCCCCCCCCCCCC(=O)[O-]
REMARK SMILES IDX 10 1 9 2 8 3 7 4 6 5 5 6 4 7 2 8 1 9 3 10 11 11 12 12 13 13
REMARK SMILES IDX 14 14 15 15 16 16 17 17 18 18 19 19 20 20
REMARK H PARENT
REMARK Flexibility Score: inf
ROOT
ATOM      1  C   UNL     1      -6.033  35.955  20.107  1.00  0.00     0.000 C 
ENDROOT
BRANCH   1   2
ATOM      2  C   UNL     1      -5.768  34.796  19.135  1.00  0.00     0.000 C 
BRANCH   2   3
ATOM      3  C   UNL     1      -4.282  34.731  18.751  1.00  0.00     0.000 C 
BRANCH   3   4
ATOM      4  C   UNL     1      -4.065  34.454  17.254  1.00  0.00     0.000 C 
BRANCH   4   5
ATOM      5  C   UNL     1      -3.776  35.735  16.452  1.00  0.00     0.000 C 
BRANCH   5   6
ATOM      6  C   UNL     1      -2.733  35.522  15.338  1.00  0.00     0.006 C 
BRANCH   6   7
ATOM      7  C   UNL     1      -2.846  36.524  14.175  1.00  0.00     0.053 C 
BRANCH   7   8
ATOM      8  C   UNL     1      -4.113  37.322  14.219  1.00  0.00     0.041 C 
ATOM      9  O   UNL     1      -5.214  36.783  13.929  1.00  0.00    -0.550 OA
ATOM     10  O   UNL     1      -4.076  38.668  14.563  1.00  0.00    -0.550 OA
ENDBRANCH   7   8
ENDBRANCH   6   7
ENDBRANCH   5   6
ENDBRANCH   4   5
ENDBRANCH   3   4
ENDBRANCH   2   3
ENDBRANCH   1   2
BRANCH   1  11
ATOM     11  C   UNL     1      -5.577  37.311  19.546  1.00  0.00     0.000 C 
BRANCH  11  12
ATOM     12  C   UNL     1      -5.512  38.406  20.625  1.00  0.00     0.000 C 
BRANCH  12  13
ATOM     13  C   UNL     1      -5.175  37.846  22.016  1.00  0.00     0.000 C 
BRANCH  13  14
ATOM     14  C   UNL     1      -6.121  36.711  22.442  1.00  0.00     0.000 C 
BRANCH  14  15
ATOM     15  C   UNL     1      -5.326  35.479  22.897  1.00  0.00     0.000 C 
BRANCH  15  16
ATOM     16  C   UNL     1      -5.659  35.053  24.339  1.00  0.00     0.006 C 
BRANCH  16  17
ATOM     17  C   UNL     1      -6.087  36.209  25.258  1.00  0.00     0.053 C 
BRANCH  17  18
ATOM     18  C   UNL     1      -4.916  37.011  25.735  1.00  0.00     0.041 C 
ATOM     19  O   UNL     1      -4.039  36.479  26.465  1.00  0.00    -0.550 OA
ATOM     20  O   UNL     1      -4.775  38.338  25.346  1.00  0.00    -0.550 OA
ENDBRANCH  17  18
ENDBRANCH  16  17
ENDBRANCH  15  16
ENDBRANCH  14  15
ENDBRANCH  13  14
ENDBRANCH  12  13
ENDBRANCH  11  12
ENDBRANCH   1  11
TORSDOF 15
ENDMDL
MODEL 6
REMARK VINA RESULT:     1.357      2.721      3.255
REMARK INTER + INTRA:           1.644
REMARK INTER:                   1.633
REMARK INTRA:                   0.010
REMARK UNBOUND:                -0.904
REMARK SMILES O=C([O-])CCCCCCCCCCCCCCC(=O)[O-]
REMARK SMILES IDX 10 1 9 2 8 3 7 4 6 5 5 6 4 7 2 8 1 9 3 10 11 11 12 12 13 13
REMARK SMILES IDX 14 14 15 15 16 16 17 17 18 18 19 19 20 20
REMARK H PARENT
REMARK Flexibility Score: inf
ROOT
ATOM      1  C   UNL     1      -5.006  37.221  22.025  1.00  0.00     0.000 C 
ENDROOT
BRANCH   1   2
ATOM      2  C   UNL     1      -6.125  36.792  22.986  1.00  0.00     0.000 C 
BRANCH   2   3
ATOM      3  C   UNL     1      -6.057  35.282  23.265  1.00  0.00     0.000 C 
BRANCH   3   4
ATOM      4  C   UNL     1      -6.121  34.951  24.765  1.00  0.00     0.000 C 
BRANCH   4   5
ATOM      5  C   UNL     1      -5.939  36.194  25.653  1.00  0.00     0.000 C 
BRANCH   5   6
ATOM      6  C   UNL     1      -4.596  36.911  25.413  1.00  0.00     0.006 C 
BRANCH   6   7
ATOM      7  C   UNL     1      -4.034  37.621  26.657  1.00  0.00     0.053 C 
BRANCH   7   8
ATOM      8  C   UNL     1      -2.644  37.181  26.997  1.00  0.00     0.041 C 
ATOM      9  O   UNL     1      -2.446  36.058  27.534  1.00  0.00    -0.550 OA
ATOM     10  O   UNL     1      -1.566  38.019  26.739  1.00  0.00    -0.550 OA
ENDBRANCH   7   8
ENDBRANCH   6   7
ENDBRANCH   5   6
ENDBRANCH   4   5
ENDBRANCH   3   4
ENDBRANCH   2   3
ENDBRANCH   1   2
BRANCH   1  11
ATOM     11  C   UNL     1      -5.541  37.966  20.792  1.00  0.00     0.000 C 
BRANCH  11  12
ATOM     12  C   UNL     1      -5.410  37.141  19.500  1.00  0.00     0.000 C 
BRANCH  12  13
ATOM     13  C   UNL     1      -4.905  35.713  19.759  1.00  0.00     0.000 C 
BRANCH  13  14
ATOM     14  C   UNL     1      -5.489  34.690  18.771  1.00  0.00     0.000 C 
BRANCH  14  15
ATOM     15  C   UNL     1      -4.458  34.317  17.696  1.00  0.00     0.000 C 
BRANCH  15  16
ATOM     16  C   UNL     1      -4.048  35.517  16.821  1.00  0.00     0.006 C 
BRANCH  16  17
ATOM     17  C   UNL     1      -3.173  35.150  15.612  1.00  0.00     0.053 C 
BRANCH  17  18
ATOM     18  C   UNL     1      -3.126  36.250  14.597  1.00  0.00     0.041 C 
ATOM     19  O   UNL     1      -2.085  36.441  13.917  1.00  0.00    -0.550 OA
ATOM     20  O   UNL     1      -4.245  37.046  14.381  1.00  0.00    -0.550 OA
ENDBRANCH  17  18
ENDBRANCH  16  17
ENDBRANCH  15  16
ENDBRANCH  14  15
ENDBRANCH  13  14
ENDBRANCH  12  13
ENDBRANCH  11  12
ENDBRANCH   1  11
TORSDOF 15
ENDMDL
MODEL 7
REMARK VINA RESULT:     1.671      2.037      2.849
REMARK INTER + INTRA:           2.233
REMARK INTER:                   2.897
REMARK INTRA:                  -0.664
REMARK UNBOUND:                -0.904
REMARK SMILES O=C([O-])CCCCCCCCCCCCCCC(=O)[O-]
REMARK SMILES IDX 10 1 9 2 8 3 7 4 6 5 5 6 4 7 2 8 1 9 3 10 11 11 12 12 13 13
REMARK SMILES IDX 14 14 15 15 16 16 17 17 18 18 19 19 20 20
REMARK H PARENT
REMARK Flexibility Score: inf
ROOT
ATOM      1  C   UNL     1      -5.445  35.398  21.708  1.00  0.00     0.000 C 
ENDROOT
BRANCH   1   2
ATOM      2  C   UNL     1      -6.056  36.806  21.778  1.00  0.00     0.000 C 
BRANCH   2   3
ATOM      3  C   UNL     1      -5.407  37.736  20.741  1.00  0.00     0.000 C 
BRANCH   3   4
ATOM      4  C   UNL     1      -4.830  39.016  21.369  1.00  0.00     0.000 C 
BRANCH   4   5
ATOM      5  C   UNL     1      -5.617  39.472  22.609  1.00  0.00     0.000 C 
BRANCH   5   6
ATOM      6  C   UNL     1      -4.966  39.022  23.932  1.00  0.00     0.006 C 
BRANCH   6   7
ATOM      7  C   UNL     1      -5.801  38.000  24.724  1.00  0.00     0.053 C 
BRANCH   7   8
ATOM      8  C   UNL     1      -4.963  36.933  25.356  1.00  0.00     0.041 C 
ATOM      9  O   UNL     1      -5.194  35.718  25.118  1.00  0.00    -0.550 OA
ATOM     10  O   UNL     1      -3.935  37.280  26.226  1.00  0.00    -0.550 OA
ENDBRANCH   7   8
ENDBRANCH   6   7
ENDBRANCH   5   6
ENDBRANCH   4   5
ENDBRANCH   3   4
ENDBRANCH   2   3
ENDBRANCH   1   2
BRANCH   1  11
ATOM     11  C   UNL     1      -4.823  35.092  20.337  1.00  0.00     0.000 C 
BRANCH  11  12
ATOM     12  C   UNL     1      -5.779  34.317  19.414  1.00  0.00     0.000 C 
BRANCH  12  13
ATOM     13  C   UNL     1      -5.413  34.464  17.928  1.00  0.00     0.000 C 
BRANCH  13  14
ATOM     14  C   UNL     1      -3.903  34.642  17.705  1.00  0.00     0.000 C 
BRANCH  14  15
ATOM     15  C   UNL     1      -3.623  35.833  16.777  1.00  0.00     0.000 C 
BRANCH  15  16
ATOM     16  C   UNL     1      -3.346  35.403  15.324  1.00  0.00     0.006 C 
BRANCH  16  17
ATOM     17  C   UNL     1      -3.076  36.569  14.359  1.00  0.00     0.053 C 
BRANCH  17  18
ATOM     18  C   UNL     1      -4.316  37.358  14.070  1.00  0.00     0.041 C 
ATOM     19  O   UNL     1      -5.411  36.769  13.875  1.00  0.00    -0.550 OA
ATOM     20  O   UNL     1      -4.268  38.747  14.047  1.00  0.00    -0.550 OA
ENDBRANCH  17  18
ENDBRANCH  16  17
ENDBRANCH  15  16
ENDBRANCH  14  15
ENDBRANCH  13  14
ENDBRANCH  12  13
ENDBRANCH  11  12
ENDBRANCH   1  11
TORSDOF 15
ENDMDL
MODEL 8
REMARK VINA RESULT:     2.340      2.685      8.383
REMARK INTER + INTRA:           3.488
REMARK INTER:                   3.718
REMARK INTRA:                  -0.230
REMARK UNBOUND:                -0.904
REMARK SMILES O=C([O-])CCCCCCCCCCCCCCC(=O)[O-]
REMARK SMILES IDX 10 1 9 2 8 3 7 4 6 5 5 6 4 7 2 8 1 9 3 10 11 11 12 12 13 13
REMARK SMILES IDX 14 14 15 15 16 16 17 17 18 18 19 19 20 20
REMARK H PARENT
REMARK Flexibility Score: inf
ROOT
ATOM      1  C   UNL     1      -5.155  37.780  20.434  1.00  0.00     0.000 C 
ENDROOT
BRANCH   1   2
ATOM      2  C   UNL     1      -5.576  36.312  20.606  1.00  0.00     0.000 C 
BRANCH   2   3
ATOM      3  C   UNL     1      -4.629  35.378  19.837  1.00  0.00     0.000 C 
BRANCH   3   4
ATOM      4  C   UNL     1      -5.379  34.348  18.976  1.00  0.00     0.000 C 
BRANCH   4   5
ATOM      5  C   UNL     1      -4.725  34.143  17.598  1.00  0.00     0.000 C 
BRANCH   5   6
ATOM      6  C   UNL     1      -4.153  35.445  17.006  1.00  0.00     0.006 C 
BRANCH   6   7
ATOM      7  C   UNL     1      -2.986  35.228  16.027  1.00  0.00     0.053 C 
BRANCH   7   8
ATOM      8  C   UNL     1      -3.050  36.137  14.839  1.00  0.00     0.041 C 
ATOM      9  O   UNL     1      -2.117  36.143  13.992  1.00  0.00    -0.550 OA
ATOM     10  O   UNL     1      -4.133  36.992  14.674  1.00  0.00    -0.550 OA
ENDBRANCH   7   8
ENDBRANCH   6   7
ENDBRANCH   5   6
ENDBRANCH   4   5
ENDBRANCH   3   4
ENDBRANCH   2   3
ENDBRANCH   1   2
BRANCH   1  11
ATOM     11  C   UNL     1      -5.926  38.728  21.366  1.00  0.00     0.000 C 
BRANCH  11  12
ATOM     12  C   UNL     1      -5.045  39.302  22.488  1.00  0.00     0.000 C 
BRANCH  12  13
ATOM     13  C   UNL     1      -5.376  38.702  23.864  1.00  0.00     0.000 C 
BRANCH  13  14
ATOM     14  C   UNL     1      -5.973  37.289  23.765  1.00  0.00     0.000 C 
BRANCH  14  15
ATOM     15  C   UNL     1      -5.141  36.285  24.576  1.00  0.00     0.000 C 
BRANCH  15  16
ATOM     16  C   UNL     1      -4.929  36.726  26.036  1.00  0.00     0.006 C 
BRANCH  16  17
ATOM     17  C   UNL     1      -3.827  37.781  26.226  1.00  0.00     0.053 C 
BRANCH  17  18
ATOM     18  C   UNL     1      -2.627  37.220  26.925  1.00  0.00     0.041 C 
ATOM     19  O   UNL     1      -2.634  36.032  27.341  1.00  0.00    -0.550 OA
ATOM     20  O   UNL     1      -1.490  38.000  27.090  1.00  0.00    -0.550 OA
ENDBRANCH  17  18
ENDBRANCH  16  17
ENDBRANCH  15  16
ENDBRANCH  14  15
ENDBRANCH  13  14
ENDBRANCH  12  13
ENDBRANCH  11  12
ENDBRANCH   1  11
TORSDOF 15
ENDMDL
