MODEL 1
REMARK VINA RESULT:    -7.989      0.000      0.000
REMARK INTER + INTRA:          -9.741
REMARK INTER:                 -10.791
REMARK INTRA:                   1.050
REMARK UNBOUND:                 1.050
REMARK SMILES O=c1c(-c2ccc(O)cc2)coc2c([C@@H]3O[C@@H](CO)[C@@H](O)[C@H](O)[C@@H]3O)c(O)ccc12
REMARK SMILES IDX 3 1 11 2 12 3 13 4 30 5 2 6 1 7 29 8 28 9 26 10 14 11 4 12
REMARK SMILES IDX 5 13 6 14 7 15 10 16 9 17 8 18 15 20 24 21 16 22 22 23 17 24
REMARK SMILES IDX 20 25 25 26 23 28 18 30 19 31 21 33 27 35
REMARK H PARENT 8 19 25 27 23 29 19 32 21 34 27 36
REMARK Flexibility Score: inf
ROOT
ATOM      1  C   UNL     1     -19.353   5.792  38.867  1.00  0.00     0.065 A 
ATOM      2  C   UNL     1     -19.245   4.408  38.696  1.00  0.00     0.208 A 
ATOM      3  O   UNL     1     -19.040   3.605  39.728  1.00  0.00    -0.463 OA
ATOM      4  C   UNL     1     -18.952   4.026  40.989  1.00  0.00     0.147 A 
ATOM      5  C   UNL     1     -19.131   5.405  41.256  1.00  0.00     0.066 A 
ATOM      6  C   UNL     1     -19.343   6.285  40.184  1.00  0.00     0.200 A 
ATOM      7  O   UNL     1     -19.449   7.522  40.408  1.00  0.00    -0.288 OA
ATOM      8  C   UNL     1     -19.003   5.879  42.562  1.00  0.00     0.020 A 
ATOM      9  C   UNL     1     -18.584   5.022  43.565  1.00  0.00     0.047 A 
ATOM     10  C   UNL     1     -18.358   3.665  43.320  1.00  0.00     0.125 A 
ATOM     11  C   UNL     1     -18.653   3.105  42.045  1.00  0.00     0.069 A 
ENDROOT
BRANCH   1  12
ATOM     12  C   UNL     1     -19.191   6.695  37.683  1.00  0.00    -0.011 A 
ATOM     13  C   UNL     1     -18.204   6.463  36.699  1.00  0.00     0.013 A 
ATOM     14  C   UNL     1     -18.223   7.175  35.493  1.00  0.00     0.047 A 
ATOM     15  C   UNL     1     -19.187   8.163  35.272  1.00  0.00     0.115 A 
ATOM     16  C   UNL     1     -20.124   7.730  37.468  1.00  0.00     0.013 A 
ATOM     17  C   UNL     1     -20.118   8.463  36.279  1.00  0.00     0.047 A 
BRANCH  15  18
ATOM     18  O   UNL     1     -19.231   8.828  34.045  1.00  0.00    -0.508 OA
ATOM     19  H   UNL     1     -19.744   9.692  33.925  1.00  0.00     0.293 HD
ENDBRANCH  15  18
ENDBRANCH   1  12
BRANCH  11  20
ATOM     20  C   UNL     1     -18.465   1.596  41.706  1.00  0.00     0.188 C 
ATOM     21  C   UNL     1     -18.044   1.125  40.279  1.00  0.00     0.179 C 
ATOM     22  O   UNL     1     -17.564   0.981  42.626  1.00  0.00    -0.362 OA
ATOM     23  C   UNL     1     -16.629   1.610  39.888  1.00  0.00     0.177 C 
ATOM     24  C   UNL     1     -16.168   1.233  42.390  1.00  0.00     0.176 C 
ATOM     25  C   UNL     1     -15.830   2.081  41.123  1.00  0.00     0.177 C 
BRANCH  21  26
ATOM     26  O   UNL     1     -19.001   1.380  39.286  1.00  0.00    -0.387 OA
ATOM     27  H   UNL     1     -19.148   0.527  38.802  1.00  0.00     0.211 HD
ENDBRANCH  21  26
BRANCH  23  28
ATOM     28  O   UNL     1     -16.663   2.611  38.903  1.00  0.00    -0.387 OA
ATOM     29  H   UNL     1     -16.501   3.485  39.352  1.00  0.00     0.211 HD
ENDBRANCH  23  28
BRANCH  24  30
ATOM     30  C   UNL     1     -15.413  -0.111  42.432  1.00  0.00     0.191 C 
BRANCH  30  31
ATOM     31  O   UNL     1     -14.134   0.057  42.980  1.00  0.00    -0.394 OA
ATOM     32  H   UNL     1     -14.075   1.008  43.270  1.00  0.00     0.210 HD
ENDBRANCH  30  31
ENDBRANCH  24  30
BRANCH  25  33
ATOM     33  O   UNL     1     -14.452   2.056  40.866  1.00  0.00    -0.388 OA
ATOM     34  H   UNL     1     -14.170   2.993  40.687  1.00  0.00     0.211 HD
ENDBRANCH  25  33
ENDBRANCH  11  20
BRANCH  10  35
ATOM     35  O   UNL     1     -17.751   2.952  44.342  1.00  0.00    -0.507 OA
ATOM     36  H   UNL     1     -17.957   3.173  45.310  1.00  0.00     0.293 HD
ENDBRANCH  10  35
TORSDOF 9
ENDMDL
MODEL 2
REMARK VINA RESULT:    -7.228     16.626     17.726
REMARK INTER + INTRA:          -8.713
REMARK INTER:                  -9.627
REMARK INTRA:                   0.914
REMARK UNBOUND:                 1.050
REMARK SMILES O=c1c(-c2ccc(O)cc2)coc2c([C@@H]3O[C@@H](CO)[C@@H](O)[C@H](O)[C@@H]3O)c(O)ccc12
REMARK SMILES IDX 3 1 11 2 12 3 13 4 30 5 2 6 1 7 29 8 28 9 26 10 14 11 4 12
REMARK SMILES IDX 5 13 6 14 7 15 10 16 9 17 8 18 15 20 24 21 16 22 22 23 17 24
REMARK SMILES IDX 20 25 25 26 23 28 18 30 19 31 21 33 27 35
REMARK H PARENT 8 19 25 27 23 29 19 32 21 34 27 36
REMARK Flexibility Score: inf
ROOT
ATOM      1  C   UNL     1      -4.008  14.387  45.682  1.00  0.00     0.065 A 
ATOM      2  C   UNL     1      -4.562  13.288  45.015  1.00  0.00     0.208 A 
ATOM      3  O   UNL     1      -4.549  12.082  45.557  1.00  0.00    -0.463 OA
ATOM      4  C   UNL     1      -4.051  11.816  46.764  1.00  0.00     0.147 A 
ATOM      5  C   UNL     1      -3.543  12.889  47.537  1.00  0.00     0.066 A 
ATOM      6  C   UNL     1      -3.536  14.181  46.989  1.00  0.00     0.200 A 
ATOM      7  O   UNL     1      -3.036  15.132  47.650  1.00  0.00    -0.288 OA
ATOM      8  C   UNL     1      -2.979  12.634  48.788  1.00  0.00     0.020 A 
ATOM      9  C   UNL     1      -2.808  11.326  49.210  1.00  0.00     0.047 A 
ATOM     10  C   UNL     1      -3.260  10.247  48.446  1.00  0.00     0.125 A 
ATOM     11  C   UNL     1      -4.004  10.470  47.253  1.00  0.00     0.069 A 
ENDROOT
BRANCH   1  12
ATOM     12  C   UNL     1      -3.683  15.628  44.909  1.00  0.00    -0.011 A 
ATOM     13  C   UNL     1      -2.724  15.632  43.873  1.00  0.00     0.013 A 
ATOM     14  C   UNL     1      -2.607  16.734  43.017  1.00  0.00     0.047 A 
ATOM     15  C   UNL     1      -3.402  17.868  43.213  1.00  0.00     0.115 A 
ATOM     16  C   UNL     1      -4.440  16.798  45.129  1.00  0.00     0.013 A 
ATOM     17  C   UNL     1      -4.295  17.909  44.295  1.00  0.00     0.047 A 
BRANCH  15  18
ATOM     18  O   UNL     1      -3.316  18.940  42.322  1.00  0.00    -0.508 OA
ATOM     19  H   UNL     1      -3.323  18.801  41.320  1.00  0.00     0.293 HD
ENDBRANCH  15  18
ENDBRANCH   1  12
BRANCH  11  20
ATOM     20  C   UNL     1      -4.574   9.321  46.369  1.00  0.00     0.188 C 
ATOM     21  C   UNL     1      -4.442   9.342  44.814  1.00  0.00     0.179 C 
ATOM     22  O   UNL     1      -4.083   8.055  46.808  1.00  0.00    -0.362 OA
ATOM     23  C   UNL     1      -2.971   9.264  44.344  1.00  0.00     0.177 C 
ATOM     24  C   UNL     1      -2.741   7.737  46.400  1.00  0.00     0.176 C 
ATOM     25  C   UNL     1      -2.039   8.782  45.476  1.00  0.00     0.177 C 
BRANCH  21  26
ATOM     26  O   UNL     1      -5.159  10.376  44.193  1.00  0.00    -0.387 OA
ATOM     27  H   UNL     1      -6.009   9.981  43.869  1.00  0.00     0.211 HD
ENDBRANCH  21  26
BRANCH  23  28
ATOM     28  O   UNL     1      -2.519  10.481  43.808  1.00  0.00    -0.387 OA
ATOM     29  H   UNL     1      -3.225  10.826  43.198  1.00  0.00     0.211 HD
ENDBRANCH  23  28
BRANCH  24  30
ATOM     30  C   UNL     1      -2.734   6.312  45.808  1.00  0.00     0.191 C 
BRANCH  30  31
ATOM     31  O   UNL     1      -4.041   5.880  45.543  1.00  0.00    -0.394 OA
ATOM     32  H   UNL     1      -4.497   5.807  46.425  1.00  0.00     0.210 HD
ENDBRANCH  30  31
ENDBRANCH  24  30
BRANCH  25  33
ATOM     33  O   UNL     1      -0.848   8.258  44.955  1.00  0.00    -0.388 OA
ATOM     34  H   UNL     1      -0.101   8.639  45.489  1.00  0.00     0.211 HD
ENDBRANCH  25  33
ENDBRANCH  11  20
BRANCH  10  35
ATOM     35  O   UNL     1      -2.856   8.989  48.867  1.00  0.00    -0.507 OA
ATOM     36  H   UNL     1      -1.897   8.831  49.153  1.00  0.00     0.293 HD
ENDBRANCH  10  35
TORSDOF 9
ENDMDL
MODEL 3
REMARK VINA RESULT:    -6.685      3.038      8.014
REMARK INTER + INTRA:          -7.980
REMARK INTER:                  -8.677
REMARK INTRA:                   0.697
REMARK UNBOUND:                 1.050
REMARK SMILES O=c1c(-c2ccc(O)cc2)coc2c([C@@H]3O[C@@H](CO)[C@@H](O)[C@H](O)[C@@H]3O)c(O)ccc12
REMARK SMILES IDX 3 1 11 2 12 3 13 4 30 5 2 6 1 7 29 8 28 9 26 10 14 11 4 12
REMARK SMILES IDX 5 13 6 14 7 15 10 16 9 17 8 18 15 20 24 21 16 22 22 23 17 24
REMARK SMILES IDX 20 25 25 26 23 28 18 30 19 31 21 33 27 35
REMARK H PARENT 8 19 25 27 23 29 19 32 21 34 27 36
REMARK Flexibility Score: inf
ROOT
ATOM      1  C   UNL     1     -18.088   1.524  45.277  1.00  0.00     0.065 A 
ATOM      2  C   UNL     1     -18.979   1.556  44.199  1.00  0.00     0.208 A 
ATOM      3  O   UNL     1     -18.543   1.551  42.951  1.00  0.00    -0.463 OA
ATOM      4  C   UNL     1     -17.255   1.485  42.615  1.00  0.00     0.147 A 
ATOM      5  C   UNL     1     -16.292   1.368  43.648  1.00  0.00     0.066 A 
ATOM      6  C   UNL     1     -16.721   1.377  44.984  1.00  0.00     0.200 A 
ATOM      7  O   UNL     1     -15.865   1.328  45.910  1.00  0.00    -0.288 OA
ATOM      8  C   UNL     1     -14.934   1.337  43.327  1.00  0.00     0.020 A 
ATOM      9  C   UNL     1     -14.533   1.543  42.018  1.00  0.00     0.047 A 
ATOM     10  C   UNL     1     -15.462   1.705  40.986  1.00  0.00     0.125 A 
ATOM     11  C   UNL     1     -16.855   1.560  41.242  1.00  0.00     0.069 A 
ENDROOT
BRANCH   1  12
ATOM     12  C   UNL     1     -18.566   1.921  46.640  1.00  0.00    -0.011 A 
ATOM     13  C   UNL     1     -18.686   0.983  47.690  1.00  0.00     0.013 A 
ATOM     14  C   UNL     1     -18.908   1.414  49.004  1.00  0.00     0.047 A 
ATOM     15  C   UNL     1     -19.068   2.774  49.284  1.00  0.00     0.115 A 
ATOM     16  C   UNL     1     -18.783   3.284  46.928  1.00  0.00     0.013 A 
ATOM     17  C   UNL     1     -19.040   3.706  48.234  1.00  0.00     0.047 A 
BRANCH  15  18
ATOM     18  O   UNL     1     -19.234   3.198  50.604  1.00  0.00    -0.508 OA
ATOM     19  H   UNL     1     -19.831   3.979  50.842  1.00  0.00     0.293 HD
ENDBRANCH  15  18
ENDBRANCH   1  12
BRANCH  11  20
ATOM     20  C   UNL     1     -17.947   1.688  40.138  1.00  0.00     0.188 C 
ATOM     21  C   UNL     1     -19.331   2.349  40.430  1.00  0.00     0.179 C 
ATOM     22  O   UNL     1     -17.420   2.329  38.978  1.00  0.00    -0.362 OA
ATOM     23  C   UNL     1     -19.208   3.849  40.784  1.00  0.00     0.177 C 
ATOM     24  C   UNL     1     -17.302   3.760  39.060  1.00  0.00     0.176 C 
ATOM     25  C   UNL     1     -17.832   4.417  40.374  1.00  0.00     0.177 C 
BRANCH  21  26
ATOM     26  O   UNL     1     -20.125   1.637  41.342  1.00  0.00    -0.387 OA
ATOM     27  H   UNL     1     -19.506   1.123  41.922  1.00  0.00     0.211 HD
ENDBRANCH  21  26
BRANCH  23  28
ATOM     28  O   UNL     1     -19.467   4.098  42.142  1.00  0.00    -0.387 OA
ATOM     29  H   UNL     1     -20.395   3.795  42.335  1.00  0.00     0.211 HD
ENDBRANCH  23  28
BRANCH  24  30
ATOM     30  C   UNL     1     -17.919   4.377  37.788  1.00  0.00     0.191 C 
BRANCH  30  31
ATOM     31  O   UNL     1     -17.202   5.514  37.392  1.00  0.00    -0.394 OA
ATOM     32  H   UNL     1     -16.911   5.969  38.229  1.00  0.00     0.210 HD
ENDBRANCH  30  31
ENDBRANCH  24  30
BRANCH  25  33
ATOM     33  O   UNL     1     -17.886   5.811  40.240  1.00  0.00    -0.388 OA
ATOM     34  H   UNL     1     -18.839   6.055  40.098  1.00  0.00     0.211 HD
ENDBRANCH  25  33
ENDBRANCH  11  20
BRANCH  10  35
ATOM     35  O   UNL     1     -14.950   2.105  39.761  1.00  0.00    -0.507 OA
ATOM     36  H   UNL     1     -15.267   2.967  39.334  1.00  0.00     0.293 HD
ENDBRANCH  10  35
TORSDOF 9
ENDMDL
MODEL 4
REMARK VINA RESULT:    -6.476     17.161     18.423
REMARK INTER + INTRA:          -7.698
REMARK INTER:                  -7.527
REMARK INTRA:                  -0.171
REMARK UNBOUND:                 1.050
REMARK SMILES O=c1c(-c2ccc(O)cc2)coc2c([C@@H]3O[C@@H](CO)[C@@H](O)[C@H](O)[C@@H]3O)c(O)ccc12
REMARK SMILES IDX 3 1 11 2 12 3 13 4 30 5 2 6 1 7 29 8 28 9 26 10 14 11 4 12
REMARK SMILES IDX 5 13 6 14 7 15 10 16 9 17 8 18 15 20 24 21 16 22 22 23 17 24
REMARK SMILES IDX 20 25 25 26 23 28 18 30 19 31 21 33 27 35
REMARK H PARENT 8 19 25 27 23 29 19 32 21 34 27 36
REMARK Flexibility Score: inf
ROOT
ATOM      1  C   UNL     1      -3.425  14.596  45.066  1.00  0.00     0.065 A 
ATOM      2  C   UNL     1      -2.428  13.715  44.632  1.00  0.00     0.208 A 
ATOM      3  O   UNL     1      -2.163  12.602  45.295  1.00  0.00    -0.463 OA
ATOM      4  C   UNL     1      -2.821  12.214  46.386  1.00  0.00     0.147 A 
ATOM      5  C   UNL     1      -3.899  13.010  46.845  1.00  0.00     0.066 A 
ATOM      6  C   UNL     1      -4.203  14.201  46.168  1.00  0.00     0.200 A 
ATOM      7  O   UNL     1      -5.126  14.943  46.603  1.00  0.00    -0.288 OA
ATOM      8  C   UNL     1      -4.581  12.648  48.008  1.00  0.00     0.020 A 
ATOM      9  C   UNL     1      -4.123  11.587  48.770  1.00  0.00     0.047 A 
ATOM     10  C   UNL     1      -3.034  10.811  48.363  1.00  0.00     0.125 A 
ATOM     11  C   UNL     1      -2.427  11.032  47.094  1.00  0.00     0.069 A 
ENDROOT
BRANCH   1  12
ATOM     12  C   UNL     1      -3.441  16.001  44.549  1.00  0.00    -0.011 A 
ATOM     13  C   UNL     1      -3.976  16.322  43.281  1.00  0.00     0.013 A 
ATOM     14  C   UNL     1      -4.193  17.657  42.920  1.00  0.00     0.047 A 
ATOM     15  C   UNL     1      -3.831  18.692  43.788  1.00  0.00     0.115 A 
ATOM     16  C   UNL     1      -3.032  17.055  45.392  1.00  0.00     0.013 A 
ATOM     17  C   UNL     1      -3.216  18.386  45.012  1.00  0.00     0.047 A 
BRANCH  15  18
ATOM     18  O   UNL     1      -4.102  20.017  43.441  1.00  0.00    -0.508 OA
ATOM     19  H   UNL     1      -3.557  20.786  43.809  1.00  0.00     0.293 HD
ENDBRANCH  15  18
ENDBRANCH   1  12
BRANCH  11  20
ATOM     20  C   UNL     1      -1.236  10.185  46.554  1.00  0.00     0.188 C 
ATOM     21  C   UNL     1      -0.959   8.739  47.072  1.00  0.00     0.179 C 
ATOM     22  O   UNL     1      -1.274  10.112  45.129  1.00  0.00    -0.362 OA
ATOM     23  C   UNL     1      -2.099   7.755  46.721  1.00  0.00     0.177 C 
ATOM     24  C   UNL     1      -2.220   9.177  44.582  1.00  0.00     0.176 C 
ATOM     25  C   UNL     1      -3.017   8.323  45.617  1.00  0.00     0.177 C 
BRANCH  21  26
ATOM     26  O   UNL     1      -0.582   8.678  48.422  1.00  0.00    -0.387 OA
ATOM     27  H   UNL     1       0.384   8.898  48.462  1.00  0.00     0.211 HD
ENDBRANCH  21  26
BRANCH  23  28
ATOM     28  O   UNL     1      -2.846   7.382  47.850  1.00  0.00    -0.387 OA
ATOM     29  H   UNL     1      -2.533   7.933  48.617  1.00  0.00     0.211 HD
ENDBRANCH  23  28
BRANCH  24  30
ATOM     30  C   UNL     1      -1.501   8.318  43.521  1.00  0.00     0.191 C 
BRANCH  30  31
ATOM     31  O   UNL     1      -2.320   8.132  42.398  1.00  0.00    -0.394 OA
ATOM     32  H   UNL     1      -3.001   7.453  42.656  1.00  0.00     0.210 HD
ENDBRANCH  30  31
ENDBRANCH  24  30
BRANCH  25  33
ATOM     33  O   UNL     1      -3.719   7.295  44.973  1.00  0.00    -0.388 OA
ATOM     34  H   UNL     1      -4.032   6.668  45.678  1.00  0.00     0.211 HD
ENDBRANCH  25  33
ENDBRANCH  11  20
BRANCH  10  35
ATOM     35  O   UNL     1      -2.542   9.912  49.296  1.00  0.00    -0.507 OA
ATOM     36  H   UNL     1      -2.357  10.213  50.245  1.00  0.00     0.293 HD
ENDBRANCH  10  35
TORSDOF 9
ENDMDL
MODEL 5
REMARK VINA RESULT:    -6.431     16.186     17.718
REMARK INTER + INTRA:          -7.636
REMARK INTER:                  -8.536
REMARK INTRA:                   0.900
REMARK UNBOUND:                 1.050
REMARK SMILES O=c1c(-c2ccc(O)cc2)coc2c([C@@H]3O[C@@H](CO)[C@@H](O)[C@H](O)[C@@H]3O)c(O)ccc12
REMARK SMILES IDX 3 1 11 2 12 3 13 4 30 5 2 6 1 7 29 8 28 9 26 10 14 11 4 12
REMARK SMILES IDX 5 13 6 14 7 15 10 16 9 17 8 18 15 20 24 21 16 22 22 23 17 24
REMARK SMILES IDX 20 25 25 26 23 28 18 30 19 31 21 33 27 35
REMARK H PARENT 8 19 25 27 23 29 19 32 21 34 27 36
REMARK Flexibility Score: inf
ROOT
ATOM      1  C   UNL     1      -3.825  12.152  46.840  1.00  0.00     0.065 A 
ATOM      2  C   UNL     1      -4.255  11.095  46.030  1.00  0.00     0.208 A 
ATOM      3  O   UNL     1      -3.965   9.840  46.332  1.00  0.00    -0.463 OA
ATOM      4  C   UNL     1      -3.285   9.477  47.419  1.00  0.00     0.147 A 
ATOM      5  C   UNL     1      -2.884  10.482  48.333  1.00  0.00     0.066 A 
ATOM      6  C   UNL     1      -3.169  11.824  48.039  1.00  0.00     0.200 A 
ATOM      7  O   UNL     1      -2.768  12.729  48.821  1.00  0.00    -0.288 OA
ATOM      8  C   UNL     1      -2.137  10.135  49.459  1.00  0.00     0.020 A 
ATOM      9  C   UNL     1      -1.689   8.833  49.611  1.00  0.00     0.047 A 
ATOM     10  C   UNL     1      -2.035   7.831  48.701  1.00  0.00     0.125 A 
ATOM     11  C   UNL     1      -2.944   8.104  47.641  1.00  0.00     0.069 A 
ENDROOT
BRANCH   1  12
ATOM     12  C   UNL     1      -3.818  13.545  46.289  1.00  0.00    -0.011 A 
ATOM     13  C   UNL     1      -2.950  13.929  45.243  1.00  0.00     0.013 A 
ATOM     14  C   UNL     1      -3.123  15.156  44.592  1.00  0.00     0.047 A 
ATOM     15  C   UNL     1      -4.123  16.041  45.006  1.00  0.00     0.115 A 
ATOM     16  C   UNL     1      -4.788  14.469  46.732  1.00  0.00     0.013 A 
ATOM     17  C   UNL     1      -4.933  15.708  46.103  1.00  0.00     0.047 A 
BRANCH  15  18
ATOM     18  O   UNL     1      -4.322  17.239  44.315  1.00  0.00    -0.508 OA
ATOM     19  H   UNL     1      -4.694  18.061  44.771  1.00  0.00     0.293 HD
ENDBRANCH  15  18
ENDBRANCH   1  12
BRANCH  11  20
ATOM     20  C   UNL     1      -3.407   7.031  46.610  1.00  0.00     0.188 C 
ATOM     21  C   UNL     1      -3.630   7.384  45.106  1.00  0.00     0.179 C 
ATOM     22  O   UNL     1      -2.545   5.894  46.643  1.00  0.00    -0.362 OA
ATOM     23  C   UNL     1      -2.324   7.812  44.398  1.00  0.00     0.177 C 
ATOM     24  C   UNL     1      -1.291   6.047  45.957  1.00  0.00     0.176 C 
ATOM     25  C   UNL     1      -1.078   7.403  45.213  1.00  0.00     0.177 C 
BRANCH  21  26
ATOM     26  O   UNL     1      -4.691   8.274  44.878  1.00  0.00    -0.387 OA
ATOM     27  H   UNL     1      -4.776   8.374  43.895  1.00  0.00     0.211 HD
ENDBRANCH  21  26
BRANCH  23  28
ATOM     28  O   UNL     1      -2.303   9.186  44.107  1.00  0.00    -0.387 OA
ATOM     29  H   UNL     1      -1.529   9.586  44.588  1.00  0.00     0.211 HD
ENDBRANCH  23  28
BRANCH  24  30
ATOM     30  C   UNL     1      -1.078   4.822  45.045  1.00  0.00     0.191 C 
BRANCH  30  31
ATOM     31  O   UNL     1      -1.498   3.648  45.686  1.00  0.00    -0.394 OA
ATOM     32  H   UNL     1      -1.301   2.900  45.060  1.00  0.00     0.210 HD
ENDBRANCH  30  31
ENDBRANCH  24  30
BRANCH  25  33
ATOM     33  O   UNL     1       0.058   7.343  44.393  1.00  0.00    -0.388 OA
ATOM     34  H   UNL     1       0.531   8.213  44.483  1.00  0.00     0.211 HD
ENDBRANCH  25  33
ENDBRANCH  11  20
BRANCH  10  35
ATOM     35  O   UNL     1      -1.369   6.623  48.841  1.00  0.00    -0.507 OA
ATOM     36  H   UNL     1      -0.924   6.385  49.719  1.00  0.00     0.293 HD
ENDBRANCH  10  35
TORSDOF 9
ENDMDL
MODEL 6
REMARK VINA RESULT:    -6.357     17.102     18.206
REMARK INTER + INTRA:          -7.536
REMARK INTER:                  -8.214
REMARK INTRA:                   0.678
REMARK UNBOUND:                 1.050
REMARK SMILES O=c1c(-c2ccc(O)cc2)coc2c([C@@H]3O[C@@H](CO)[C@@H](O)[C@H](O)[C@@H]3O)c(O)ccc12
REMARK SMILES IDX 3 1 11 2 12 3 13 4 30 5 2 6 1 7 29 8 28 9 26 10 14 11 4 12
REMARK SMILES IDX 5 13 6 14 7 15 10 16 9 17 8 18 15 20 24 21 16 22 22 23 17 24
REMARK SMILES IDX 20 25 25 26 23 28 18 30 19 31 21 33 27 35
REMARK H PARENT 8 19 25 27 23 29 19 32 21 34 27 36
REMARK Flexibility Score: inf
ROOT
ATOM      1  C   UNL     1      -3.353  15.302  45.287  1.00  0.00     0.065 A 
ATOM      2  C   UNL     1      -4.348  14.466  45.808  1.00  0.00     0.208 A 
ATOM      3  O   UNL     1      -4.038  13.347  46.440  1.00  0.00    -0.463 OA
ATOM      4  C   UNL     1      -2.788  12.940  46.660  1.00  0.00     0.147 A 
ATOM      5  C   UNL     1      -1.722  13.770  46.235  1.00  0.00     0.066 A 
ATOM      6  C   UNL     1      -2.016  14.962  45.554  1.00  0.00     0.200 A 
ATOM      7  O   UNL     1      -1.071  15.679  45.125  1.00  0.00    -0.288 OA
ATOM      8  C   UNL     1      -0.404  13.350  46.416  1.00  0.00     0.020 A 
ATOM      9  C   UNL     1      -0.149  12.077  46.897  1.00  0.00     0.047 A 
ATOM     10  C   UNL     1      -1.184  11.220  47.283  1.00  0.00     0.125 A 
ATOM     11  C   UNL     1      -2.533  11.677  47.286  1.00  0.00     0.069 A 
ENDROOT
BRANCH   1  12
ATOM     12  C   UNL     1      -3.718  16.328  44.259  1.00  0.00    -0.011 A 
ATOM     13  C   UNL     1      -3.715  16.033  42.878  1.00  0.00     0.013 A 
ATOM     14  C   UNL     1      -4.280  16.927  41.960  1.00  0.00     0.047 A 
ATOM     15  C   UNL     1      -4.805  18.148  42.394  1.00  0.00     0.115 A 
ATOM     16  C   UNL     1      -4.202  17.585  44.677  1.00  0.00     0.013 A 
ATOM     17  C   UNL     1      -4.732  18.489  43.754  1.00  0.00     0.047 A 
BRANCH  15  18
ATOM     18  O   UNL     1      -5.415  19.008  41.479  1.00  0.00    -0.508 OA
ATOM     19  H   UNL     1      -5.628  18.716  40.534  1.00  0.00     0.293 HD
ENDBRANCH  15  18
ENDBRANCH   1  12
BRANCH  11  20
ATOM     20  C   UNL     1      -3.736  10.796  47.739  1.00  0.00     0.188 C 
ATOM     21  C   UNL     1      -5.090  10.800  46.963  1.00  0.00     0.179 C 
ATOM     22  O   UNL     1      -3.340   9.432  47.871  1.00  0.00    -0.362 OA
ATOM     23  C   UNL     1      -4.951  10.250  45.525  1.00  0.00     0.177 C 
ATOM     24  C   UNL     1      -3.233   8.695  46.641  1.00  0.00     0.176 C 
ATOM     25  C   UNL     1      -3.632   9.467  45.343  1.00  0.00     0.177 C 
BRANCH  21  26
ATOM     26  O   UNL     1      -5.775  12.024  47.014  1.00  0.00    -0.387 OA
ATOM     27  H   UNL     1      -6.003  12.265  46.080  1.00  0.00     0.211 HD
ENDBRANCH  21  26
BRANCH  23  28
ATOM     28  O   UNL     1      -5.070  11.259  44.555  1.00  0.00    -0.387 OA
ATOM     29  H   UNL     1      -6.018  11.278  44.251  1.00  0.00     0.211 HD
ENDBRANCH  23  28
BRANCH  24  30
ATOM     30  C   UNL     1      -3.987   7.359  46.801  1.00  0.00     0.191 C 
BRANCH  30  31
ATOM     31  O   UNL     1      -3.540   6.422  45.859  1.00  0.00    -0.394 OA
ATOM     32  H   UNL     1      -4.349   6.106  45.371  1.00  0.00     0.210 HD
ENDBRANCH  30  31
ENDBRANCH  24  30
BRANCH  25  33
ATOM     33  O   UNL     1      -3.718   8.588  44.254  1.00  0.00    -0.388 OA
ATOM     34  H   UNL     1      -4.415   7.915  44.475  1.00  0.00     0.211 HD
ENDBRANCH  25  33
ENDBRANCH  11  20
BRANCH  10  35
ATOM     35  O   UNL     1      -0.824   9.909  47.553  1.00  0.00    -0.507 OA
ATOM     36  H   UNL     1      -0.911   9.199  46.836  1.00  0.00     0.293 HD
ENDBRANCH  10  35
TORSDOF 9
ENDMDL
MODEL 7
REMARK VINA RESULT:    -6.322     17.474     19.685
REMARK INTER + INTRA:          -7.489
REMARK INTER:                  -7.407
REMARK INTRA:                  -0.082
REMARK UNBOUND:                 1.050
REMARK SMILES O=c1c(-c2ccc(O)cc2)coc2c([C@@H]3O[C@@H](CO)[C@@H](O)[C@H](O)[C@@H]3O)c(O)ccc12
REMARK SMILES IDX 3 1 11 2 12 3 13 4 30 5 2 6 1 7 29 8 28 9 26 10 14 11 4 12
REMARK SMILES IDX 5 13 6 14 7 15 10 16 9 17 8 18 15 20 24 21 16 22 22 23 17 24
REMARK SMILES IDX 20 25 25 26 23 28 18 30 19 31 21 33 27 35
REMARK H PARENT 8 19 25 27 23 29 19 32 21 34 27 36
REMARK Flexibility Score: inf
ROOT
ATOM      1  C   UNL     1      -1.549   8.692  46.513  1.00  0.00     0.065 A 
ATOM      2  C   UNL     1      -1.465   9.580  45.435  1.00  0.00     0.208 A 
ATOM      3  O   UNL     1      -2.085  10.748  45.461  1.00  0.00    -0.463 OA
ATOM      4  C   UNL     1      -2.799  11.186  46.497  1.00  0.00     0.147 A 
ATOM      5  C   UNL     1      -2.867  10.381  47.660  1.00  0.00     0.066 A 
ATOM      6  C   UNL     1      -2.226   9.132  47.663  1.00  0.00     0.200 A 
ATOM      7  O   UNL     1      -2.327   8.386  48.676  1.00  0.00    -0.288 OA
ATOM      8  C   UNL     1      -3.640  10.796  48.745  1.00  0.00     0.020 A 
ATOM      9  C   UNL     1      -4.430  11.927  48.632  1.00  0.00     0.047 A 
ATOM     10  C   UNL     1      -4.415  12.717  47.478  1.00  0.00     0.125 A 
ATOM     11  C   UNL     1      -3.505  12.430  46.422  1.00  0.00     0.069 A 
ENDROOT
BRANCH   1  12
ATOM     12  C   UNL     1      -1.183   7.254  46.312  1.00  0.00    -0.011 A 
ATOM     13  C   UNL     1      -0.096   6.659  46.991  1.00  0.00     0.013 A 
ATOM     14  C   UNL     1       0.081   5.271  46.967  1.00  0.00     0.047 A 
ATOM     15  C   UNL     1      -0.783   4.460  46.225  1.00  0.00     0.115 A 
ATOM     16  C   UNL     1      -2.015   6.431  45.525  1.00  0.00     0.013 A 
ATOM     17  C   UNL     1      -1.813   5.050  45.474  1.00  0.00     0.047 A 
BRANCH  15  18
ATOM     18  O   UNL     1      -0.631   3.072  46.252  1.00  0.00    -0.508 OA
ATOM     19  H   UNL     1       0.259   2.631  46.062  1.00  0.00     0.293 HD
ENDBRANCH  15  18
ENDBRANCH   1  12
BRANCH  11  20
ATOM     20  C   UNL     1      -3.402  13.285  45.123  1.00  0.00     0.188 C 
ATOM     21  C   UNL     1      -3.892  14.766  45.078  1.00  0.00     0.179 C 
ATOM     22  O   UNL     1      -2.067  13.277  44.619  1.00  0.00    -0.362 OA
ATOM     23  C   UNL     1      -3.073  15.690  46.008  1.00  0.00     0.177 C 
ATOM     24  C   UNL     1      -1.144  14.148  45.295  1.00  0.00     0.176 C 
ATOM     25  C   UNL     1      -1.743  15.031  46.434  1.00  0.00     0.177 C 
BRANCH  21  26
ATOM     26  O   UNL     1      -5.277  14.915  45.242  1.00  0.00    -0.387 OA
ATOM     27  H   UNL     1      -5.505  15.832  44.941  1.00  0.00     0.211 HD
ENDBRANCH  21  26
BRANCH  23  28
ATOM     28  O   UNL     1      -3.810  16.101  47.132  1.00  0.00    -0.387 OA
ATOM     29  H   UNL     1      -3.712  17.088  47.215  1.00  0.00     0.211 HD
ENDBRANCH  23  28
BRANCH  24  30
ATOM     30  C   UNL     1      -0.380  14.970  44.236  1.00  0.00     0.191 C 
BRANCH  30  31
ATOM     31  O   UNL     1      -0.998  14.859  42.983  1.00  0.00    -0.394 OA
ATOM     32  H   UNL     1      -1.957  14.656  43.160  1.00  0.00     0.210 HD
ENDBRANCH  30  31
ENDBRANCH  24  30
BRANCH  25  33
ATOM     33  O   UNL     1      -0.816  15.998  46.849  1.00  0.00    -0.388 OA
ATOM     34  H   UNL     1      -1.327  16.710  47.318  1.00  0.00     0.211 HD
ENDBRANCH  25  33
ENDBRANCH  11  20
BRANCH  10  35
ATOM     35  O   UNL     1      -5.389  13.700  47.399  1.00  0.00    -0.507 OA
ATOM     36  H   UNL     1      -5.377  14.368  46.637  1.00  0.00     0.293 HD
ENDBRANCH  10  35
TORSDOF 9
ENDMDL
MODEL 8
REMARK VINA RESULT:    -6.261     18.635     20.664
REMARK INTER + INTRA:          -7.407
REMARK INTER:                  -7.134
REMARK INTRA:                  -0.273
REMARK UNBOUND:                 1.050
REMARK SMILES O=c1c(-c2ccc(O)cc2)coc2c([C@@H]3O[C@@H](CO)[C@@H](O)[C@H](O)[C@@H]3O)c(O)ccc12
REMARK SMILES IDX 3 1 11 2 12 3 13 4 30 5 2 6 1 7 29 8 28 9 26 10 14 11 4 12
REMARK SMILES IDX 5 13 6 14 7 15 10 16 9 17 8 18 15 20 24 21 16 22 22 23 17 24
REMARK SMILES IDX 20 25 25 26 23 28 18 30 19 31 21 33 27 35
REMARK H PARENT 8 19 25 27 23 29 19 32 21 34 27 36
REMARK Flexibility Score: inf
ROOT
ATOM      1  C   UNL     1      -3.531  12.886  45.124  1.00  0.00     0.065 A 
ATOM      2  C   UNL     1      -4.415  13.969  45.068  1.00  0.00     0.208 A 
ATOM      3  O   UNL     1      -3.970  15.213  45.013  1.00  0.00    -0.463 OA
ATOM      4  C   UNL     1      -2.678  15.538  44.977  1.00  0.00     0.147 A 
ATOM      5  C   UNL     1      -1.719  14.495  44.948  1.00  0.00     0.066 A 
ATOM      6  C   UNL     1      -2.158  13.164  45.011  1.00  0.00     0.200 A 
ATOM      7  O   UNL     1      -1.308  12.232  45.041  1.00  0.00    -0.288 OA
ATOM      8  C   UNL     1      -0.359  14.807  44.949  1.00  0.00     0.020 A 
ATOM      9  C   UNL     1       0.044  16.122  45.102  1.00  0.00     0.047 A 
ATOM     10  C   UNL     1      -0.882  17.166  45.176  1.00  0.00     0.125 A 
ATOM     11  C   UNL     1      -2.270  16.911  44.995  1.00  0.00     0.069 A 
ENDROOT
BRANCH   1  12
ATOM     12  C   UNL     1      -4.034  11.549  45.573  1.00  0.00    -0.011 A 
ATOM     13  C   UNL     1      -4.509  10.585  44.657  1.00  0.00     0.013 A 
ATOM     14  C   UNL     1      -4.751   9.269  45.072  1.00  0.00     0.047 A 
ATOM     15  C   UNL     1      -4.578   8.908  46.411  1.00  0.00     0.115 A 
ATOM     16  C   UNL     1      -3.914  11.184  46.930  1.00  0.00     0.013 A 
ATOM     17  C   UNL     1      -4.191   9.880  47.347  1.00  0.00     0.047 A 
BRANCH  15  18
ATOM     18  O   UNL     1      -4.769   7.581  46.804  1.00  0.00    -0.508 OA
ATOM     19  H   UNL     1      -5.676   7.235  47.086  1.00  0.00     0.293 HD
ENDBRANCH  15  18
ENDBRANCH   1  12
BRANCH  11  20
ATOM     20  C   UNL     1      -3.359  18.026  45.025  1.00  0.00     0.188 C 
ATOM     21  C   UNL     1      -3.010  19.518  44.728  1.00  0.00     0.179 C 
ATOM     22  O   UNL     1      -4.456  17.683  44.179  1.00  0.00    -0.362 OA
ATOM     23  C   UNL     1      -2.521  19.735  43.278  1.00  0.00     0.177 C 
ATOM     24  C   UNL     1      -4.244  17.894  42.773  1.00  0.00     0.176 C 
ATOM     25  C   UNL     1      -2.877  18.534  42.374  1.00  0.00     0.177 C 
BRANCH  21  26
ATOM     26  O   UNL     1      -2.167  20.109  45.682  1.00  0.00    -0.387 OA
ATOM     27  H   UNL     1      -2.078  19.462  46.428  1.00  0.00     0.211 HD
ENDBRANCH  21  26
BRANCH  23  28
ATOM     28  O   UNL     1      -1.146  20.017  43.216  1.00  0.00    -0.387 OA
ATOM     29  H   UNL     1      -1.036  20.898  42.767  1.00  0.00     0.211 HD
ENDBRANCH  23  28
BRANCH  24  30
ATOM     30  C   UNL     1      -5.455  18.661  42.204  1.00  0.00     0.191 C 
BRANCH  30  31
ATOM     31  O   UNL     1      -5.783  18.191  40.925  1.00  0.00    -0.394 OA
ATOM     32  H   UNL     1      -6.273  17.334  41.057  1.00  0.00     0.210 HD
ENDBRANCH  30  31
ENDBRANCH  24  30
BRANCH  25  33
ATOM     33  O   UNL     1      -2.883  18.909  41.024  1.00  0.00    -0.388 OA
ATOM     34  H   UNL     1      -3.435  18.241  40.537  1.00  0.00     0.211 HD
ENDBRANCH  25  33
ENDBRANCH  11  20
BRANCH  10  35
ATOM     35  O   UNL     1      -0.376  18.408  45.530  1.00  0.00    -0.507 OA
ATOM     36  H   UNL     1      -0.667  19.238  45.028  1.00  0.00     0.293 HD
ENDBRANCH  10  35
TORSDOF 9
ENDMDL
MODEL 9
REMARK VINA RESULT:    -6.231     16.012     18.934
REMARK INTER + INTRA:          -7.366
REMARK INTER:                  -8.223
REMARK INTRA:                   0.857
REMARK UNBOUND:                 1.050
REMARK SMILES O=c1c(-c2ccc(O)cc2)coc2c([C@@H]3O[C@@H](CO)[C@@H](O)[C@H](O)[C@@H]3O)c(O)ccc12
REMARK SMILES IDX 3 1 11 2 12 3 13 4 30 5 2 6 1 7 29 8 28 9 26 10 14 11 4 12
REMARK SMILES IDX 5 13 6 14 7 15 10 16 9 17 8 18 15 20 24 21 16 22 22 23 17 24
REMARK SMILES IDX 20 25 25 26 23 28 18 30 19 31 21 33 27 35
REMARK H PARENT 8 19 25 27 23 29 19 32 21 34 27 36
REMARK Flexibility Score: inf
ROOT
ATOM      1  C   UNL     1      -1.979   6.916  45.295  1.00  0.00     0.065 A 
ATOM      2  C   UNL     1      -3.239   7.466  45.555  1.00  0.00     0.208 A 
ATOM      3  O   UNL     1      -3.490   8.743  45.316  1.00  0.00    -0.463 OA
ATOM      4  C   UNL     1      -2.603   9.588  44.793  1.00  0.00     0.147 A 
ATOM      5  C   UNL     1      -1.329   9.090  44.426  1.00  0.00     0.066 A 
ATOM      6  C   UNL     1      -1.027   7.742  44.672  1.00  0.00     0.200 A 
ATOM      7  O   UNL     1       0.124   7.305  44.398  1.00  0.00    -0.288 OA
ATOM      8  C   UNL     1      -0.368   9.962  43.913  1.00  0.00     0.020 A 
ATOM      9  C   UNL     1      -0.621  11.322  43.880  1.00  0.00     0.047 A 
ATOM     10  C   UNL     1      -1.855  11.845  44.277  1.00  0.00     0.125 A 
ATOM     11  C   UNL     1      -2.924  10.975  44.633  1.00  0.00     0.069 A 
ENDROOT
BRANCH   1  12
ATOM     12  C   UNL     1      -1.603   5.610  45.923  1.00  0.00    -0.011 A 
ATOM     13  C   UNL     1      -1.571   4.408  45.182  1.00  0.00     0.013 A 
ATOM     14  C   UNL     1      -0.996   3.253  45.726  1.00  0.00     0.047 A 
ATOM     15  C   UNL     1      -0.496   3.261  47.031  1.00  0.00     0.115 A 
ATOM     16  C   UNL     1      -1.143   5.590  47.256  1.00  0.00     0.013 A 
ATOM     17  C   UNL     1      -0.603   4.426  47.808  1.00  0.00     0.047 A 
BRANCH  15  18
ATOM     18  O   UNL     1       0.125   2.120  47.545  1.00  0.00    -0.508 OA
ATOM     19  H   UNL     1       0.319   2.018  48.532  1.00  0.00     0.293 HD
ENDBRANCH  15  18
ENDBRANCH   1  12
BRANCH  11  20
ATOM     20  C   UNL     1      -4.339  11.480  45.049  1.00  0.00     0.188 C 
ATOM     21  C   UNL     1      -5.120  10.837  46.237  1.00  0.00     0.179 C 
ATOM     22  O   UNL     1      -4.325  12.888  45.279  1.00  0.00    -0.362 OA
ATOM     23  C   UNL     1      -4.410  11.045  47.595  1.00  0.00     0.177 C 
ATOM     24  C   UNL     1      -3.778  13.304  46.542  1.00  0.00     0.176 C 
ATOM     25  C   UNL     1      -3.345  12.160  47.512  1.00  0.00     0.177 C 
BRANCH  21  26
ATOM     26  O   UNL     1      -5.498   9.503  46.019  1.00  0.00    -0.387 OA
ATOM     27  H   UNL     1      -4.689   8.948  46.163  1.00  0.00     0.211 HD
ENDBRANCH  21  26
BRANCH  23  28
ATOM     28  O   UNL     1      -3.851   9.856  48.091  1.00  0.00    -0.387 OA
ATOM     29  H   UNL     1      -3.000  10.088  48.550  1.00  0.00     0.211 HD
ENDBRANCH  23  28
BRANCH  24  30
ATOM     30  C   UNL     1      -4.754  14.306  47.193  1.00  0.00     0.191 C 
BRANCH  30  31
ATOM     31  O   UNL     1      -5.447  15.030  46.213  1.00  0.00    -0.394 OA
ATOM     32  H   UNL     1      -6.258  14.497  45.991  1.00  0.00     0.210 HD
ENDBRANCH  30  31
ENDBRANCH  24  30
BRANCH  25  33
ATOM     33  O   UNL     1      -3.059  12.674  48.785  1.00  0.00    -0.388 OA
ATOM     34  H   UNL     1      -2.124  13.012  48.761  1.00  0.00     0.211 HD
ENDBRANCH  25  33
ENDBRANCH  11  20
BRANCH  10  35
ATOM     35  O   UNL     1      -1.925  13.225  44.394  1.00  0.00    -0.507 OA
ATOM     36  H   UNL     1      -2.202  13.648  45.272  1.00  0.00     0.293 HD
ENDBRANCH  10  35
TORSDOF 9
ENDMDL
