MODEL 1
REMARK VINA RESULT:    -5.727      0.000      0.000
REMARK INTER + INTRA:          -7.309
REMARK INTER:                  -7.066
REMARK INTRA:                  -0.244
REMARK UNBOUND:                -0.244
REMARK SMILES CCCCC=CC(C)=O
REMARK SMILES IDX 4 1 3 2 2 3 1 4 5 5 6 6 7 7 9 8 8 9
REMARK H PARENT
REMARK Flexibility Score: inf
ROOT
ATOM      1  C   UNL     1       9.703  23.999  24.294  1.00  0.00     0.027 C 
ENDROOT
BRANCH   1   2
ATOM      2  C   UNL     1       8.191  24.172  24.106  1.00  0.00     0.004 C 
BRANCH   2   3
ATOM      3  C   UNL     1       7.531  22.846  23.715  1.00  0.00    -0.003 C 
ATOM      4  C   UNL     1       8.034  21.700  24.589  1.00  0.00     0.004 C 
ENDBRANCH   2   3
ENDBRANCH   1   2
BRANCH   1   5
ATOM      5  C   UNL     1      10.417  23.952  22.969  1.00  0.00    -0.023 C 
ATOM      6  C   UNL     1      11.719  24.213  22.765  1.00  0.00     0.042 C 
BRANCH   6   7
ATOM      7  C   UNL     1      12.722  24.555  23.800  1.00  0.00     0.152 C 
ATOM      8  O   UNL     1      13.259  23.672  24.520  1.00  0.00    -0.295 OA
ATOM      9  C   UNL     1      13.162  25.976  23.950  1.00  0.00     0.093 C 
ENDBRANCH   6   7
ENDBRANCH   1   5
TORSDOF 4
ENDMDL
MODEL 2
REMARK VINA RESULT:    -5.711      2.196      4.935
REMARK INTER + INTRA:          -7.290
REMARK INTER:                  -7.119
REMARK INTRA:                  -0.171
REMARK UNBOUND:                -0.244
REMARK SMILES CCCCC=CC(C)=O
REMARK SMILES IDX 4 1 3 2 2 3 1 4 5 5 6 6 7 7 9 8 8 9
REMARK H PARENT
REMARK Flexibility Score: inf
ROOT
ATOM      1  C   UNL     1      11.016  23.743  23.158  1.00  0.00     0.027 C 
ENDROOT
BRANCH   1   2
ATOM      2  C   UNL     1      12.304  23.776  23.990  1.00  0.00     0.004 C 
BRANCH   2   3
ATOM      3  C   UNL     1      13.301  24.789  23.417  1.00  0.00    -0.003 C 
ATOM      4  C   UNL     1      13.200  26.130  24.138  1.00  0.00     0.004 C 
ENDBRANCH   2   3
ENDBRANCH   1   2
BRANCH   1   5
ATOM      5  C   UNL     1       9.981  24.684  23.715  1.00  0.00    -0.023 C 
ATOM      6  C   UNL     1       8.693  24.387  23.954  1.00  0.00     0.042 C 
BRANCH   6   7
ATOM      7  C   UNL     1       8.041  23.070  23.763  1.00  0.00     0.152 C 
ATOM      8  O   UNL     1       7.242  22.858  22.813  1.00  0.00    -0.295 OA
ATOM      9  C   UNL     1       8.391  21.942  24.680  1.00  0.00     0.093 C 
ENDBRANCH   6   7
ENDBRANCH   1   5
TORSDOF 4
ENDMDL
MODEL 3
REMARK VINA RESULT:    -3.339     12.558     13.099
REMARK INTER + INTRA:          -4.364
REMARK INTER:                  -3.985
REMARK INTRA:                  -0.379
REMARK UNBOUND:                -0.244
REMARK SMILES CCCCC=CC(C)=O
REMARK SMILES IDX 4 1 3 2 2 3 1 4 5 5 6 6 7 7 9 8 8 9
REMARK H PARENT
REMARK Flexibility Score: inf
ROOT
ATOM      1  C   UNL     1       5.796  31.694  16.128  1.00  0.00     0.027 C 
ENDROOT
BRANCH   1   2
ATOM      2  C   UNL     1       4.580  31.985  15.240  1.00  0.00     0.004 C 
BRANCH   2   3
ATOM      3  C   UNL     1       4.741  33.323  14.512  1.00  0.00    -0.003 C 
ATOM      4  C   UNL     1       3.385  33.954  14.209  1.00  0.00     0.004 C 
ENDBRANCH   2   3
ENDBRANCH   1   2
BRANCH   1   5
ATOM      5  C   UNL     1       6.464  30.403  15.735  1.00  0.00    -0.023 C 
ATOM      6  C   UNL     1       7.405  30.259  14.787  1.00  0.00     0.042 C 
BRANCH   6   7
ATOM      7  C   UNL     1       8.008  31.340  13.972  1.00  0.00     0.152 C 
ATOM      8  O   UNL     1       7.484  31.726  12.893  1.00  0.00    -0.295 OA
ATOM      9  C   UNL     1       9.230  32.038  14.474  1.00  0.00     0.093 C 
ENDBRANCH   6   7
ENDBRANCH   1   5
TORSDOF 4
ENDMDL
MODEL 4
REMARK VINA RESULT:    -3.332     11.535     12.691
REMARK INTER + INTRA:          -4.355
REMARK INTER:                  -3.790
REMARK INTRA:                  -0.565
REMARK UNBOUND:                -0.244
REMARK SMILES CCCCC=CC(C)=O
REMARK SMILES IDX 4 1 3 2 2 3 1 4 5 5 6 6 7 7 9 8 8 9
REMARK H PARENT
REMARK Flexibility Score: inf
ROOT
ATOM      1  C   UNL     1      15.042  14.435  16.609  1.00  0.00     0.027 C 
ENDROOT
BRANCH   1   2
ATOM      2  C   UNL     1      15.769  15.664  17.170  1.00  0.00     0.004 C 
BRANCH   2   3
ATOM      3  C   UNL     1      15.668  16.849  16.204  1.00  0.00    -0.003 C 
ATOM      4  C   UNL     1      14.818  17.971  16.792  1.00  0.00     0.004 C 
ENDBRANCH   2   3
ENDBRANCH   1   2
BRANCH   1   5
ATOM      5  C   UNL     1      13.607  14.393  17.064  1.00  0.00    -0.023 C 
ATOM      6  C   UNL     1      12.535  14.717  16.323  1.00  0.00     0.042 C 
BRANCH   6   7
ATOM      7  C   UNL     1      12.540  15.137  14.902  1.00  0.00     0.152 C 
ATOM      8  O   UNL     1      12.698  14.308  13.967  1.00  0.00    -0.295 OA
ATOM      9  C   UNL     1      12.282  16.570  14.563  1.00  0.00     0.093 C 
ENDBRANCH   6   7
ENDBRANCH   1   5
TORSDOF 4
ENDMDL
MODEL 5
REMARK VINA RESULT:    -3.194     11.433     12.243
REMARK INTER + INTRA:          -4.184
REMARK INTER:                  -3.565
REMARK INTRA:                  -0.619
REMARK UNBOUND:                -0.244
REMARK SMILES CCCCC=CC(C)=O
REMARK SMILES IDX 4 1 3 2 2 3 1 4 5 5 6 6 7 7 9 8 8 9
REMARK H PARENT
REMARK Flexibility Score: inf
ROOT
ATOM      1  C   UNL     1      15.329  14.275  16.061  1.00  0.00     0.027 C 
ENDROOT
BRANCH   1   2
ATOM      2  C   UNL     1      14.333  14.258  17.227  1.00  0.00     0.004 C 
BRANCH   2   3
ATOM      3  C   UNL     1      12.959  14.770  16.783  1.00  0.00    -0.003 C 
ATOM      4  C   UNL     1      12.910  14.983  15.273  1.00  0.00     0.004 C 
ENDBRANCH   2   3
ENDBRANCH   1   2
BRANCH   1   5
ATOM      5  C   UNL     1      16.570  15.052  16.413  1.00  0.00    -0.023 C 
ATOM      6  C   UNL     1      16.736  16.378  16.273  1.00  0.00     0.042 C 
BRANCH   6   7
ATOM      7  C   UNL     1      15.725  17.348  15.791  1.00  0.00     0.152 C 
ATOM      8  O   UNL     1      15.587  17.605  14.566  1.00  0.00    -0.295 OA
ATOM      9  C   UNL     1      14.799  17.987  16.774  1.00  0.00     0.093 C 
ENDBRANCH   6   7
ENDBRANCH   1   5
TORSDOF 4
ENDMDL
MODEL 6
REMARK VINA RESULT:    -3.187     10.449     11.916
REMARK INTER + INTRA:          -4.176
REMARK INTER:                  -3.814
REMARK INTRA:                  -0.362
REMARK UNBOUND:                -0.244
REMARK SMILES CCCCC=CC(C)=O
REMARK SMILES IDX 4 1 3 2 2 3 1 4 5 5 6 6 7 7 9 8 8 9
REMARK H PARENT
REMARK Flexibility Score: inf
ROOT
ATOM      1  C   UNL     1       7.896  17.859  14.753  1.00  0.00     0.027 C 
ENDROOT
BRANCH   1   2
ATOM      2  C   UNL     1       8.017  18.713  16.022  1.00  0.00     0.004 C 
BRANCH   2   3
ATOM      3  C   UNL     1       8.012  20.207  15.679  1.00  0.00    -0.003 C 
ATOM      4  C   UNL     1       9.256  20.903  16.226  1.00  0.00     0.004 C 
ENDBRANCH   2   3
ENDBRANCH   1   2
BRANCH   1   5
ATOM      5  C   UNL     1       6.953  16.703  14.960  1.00  0.00    -0.023 C 
ATOM      6  C   UNL     1       5.613  16.756  14.886  1.00  0.00     0.042 C 
BRANCH   6   7
ATOM      7  C   UNL     1       4.795  17.943  14.543  1.00  0.00     0.152 C 
ATOM      8  O   UNL     1       4.470  18.204  13.355  1.00  0.00    -0.295 OA
ATOM      9  C   UNL     1       4.282  18.819  15.642  1.00  0.00     0.093 C 
ENDBRANCH   6   7
ENDBRANCH   1   5
TORSDOF 4
ENDMDL
MODEL 7
REMARK VINA RESULT:    -3.164     12.065     12.642
REMARK INTER + INTRA:          -4.148
REMARK INTER:                  -3.569
REMARK INTRA:                  -0.579
REMARK UNBOUND:                -0.244
REMARK SMILES CCCCC=CC(C)=O
REMARK SMILES IDX 4 1 3 2 2 3 1 4 5 5 6 6 7 7 9 8 8 9
REMARK H PARENT
REMARK Flexibility Score: inf
ROOT
ATOM      1  C   UNL     1       5.765  32.372  16.091  1.00  0.00     0.027 C 
ENDROOT
BRANCH   1   2
ATOM      2  C   UNL     1       4.973  33.066  14.975  1.00  0.00     0.004 C 
BRANCH   2   3
ATOM      3  C   UNL     1       3.889  32.140  14.414  1.00  0.00    -0.003 C 
ATOM      4  C   UNL     1       3.675  30.929  15.318  1.00  0.00     0.004 C 
ENDBRANCH   2   3
ENDBRANCH   1   2
BRANCH   1   5
ATOM      5  C   UNL     1       7.234  32.314  15.765  1.00  0.00    -0.023 C 
ATOM      6  C   UNL     1       7.851  31.339  15.078  1.00  0.00     0.042 C 
BRANCH   6   7
ATOM      7  C   UNL     1       7.211  30.151  14.465  1.00  0.00     0.152 C 
ATOM      8  O   UNL     1       6.941  30.104  13.236  1.00  0.00    -0.295 OA
ATOM      9  C   UNL     1       6.939  28.950  15.312  1.00  0.00     0.093 C 
ENDBRANCH   6   7
ENDBRANCH   1   5
TORSDOF 4
ENDMDL
MODEL 8
REMARK VINA RESULT:    -3.159     10.623     11.961
REMARK INTER + INTRA:          -4.142
REMARK INTER:                  -3.604
REMARK INTRA:                  -0.538
REMARK UNBOUND:                -0.244
REMARK SMILES CCCCC=CC(C)=O
REMARK SMILES IDX 4 1 3 2 2 3 1 4 5 5 6 6 7 7 9 8 8 9
REMARK H PARENT
REMARK Flexibility Score: inf
ROOT
ATOM      1  C   UNL     1      14.247  29.471  13.137  1.00  0.00     0.027 C 
ENDROOT
BRANCH   1   2
ATOM      2  C   UNL     1      13.067  29.500  14.116  1.00  0.00     0.004 C 
BRANCH   2   3
ATOM      3  C   UNL     1      13.342  28.613  15.334  1.00  0.00    -0.003 C 
ATOM      4  C   UNL     1      13.260  27.133  14.970  1.00  0.00     0.004 C 
ENDBRANCH   2   3
ENDBRANCH   1   2
BRANCH   1   5
ATOM      5  C   UNL     1      15.394  30.310  13.638  1.00  0.00    -0.023 C 
ATOM      6  C   UNL     1      16.590  29.850  14.041  1.00  0.00     0.042 C 
BRANCH   6   7
ATOM      7  C   UNL     1      17.040  28.439  14.033  1.00  0.00     0.152 C 
ATOM      8  O   UNL     1      17.541  27.908  13.006  1.00  0.00    -0.295 OA
ATOM      9  C   UNL     1      16.962  27.640  15.295  1.00  0.00     0.093 C 
ENDBRANCH   6   7
ENDBRANCH   1   5
TORSDOF 4
ENDMDL
