MODEL 1
REMARK VINA RESULT:    39.622      0.000      0.000
REMARK INTER + INTRA:          66.161
REMARK INTER:                  65.101
REMARK INTRA:                   1.060
REMARK UNBOUND:                 1.060
REMARK SMILES C[C@H]1O[C@H](OC[C@H]2O[C@H](Oc3c(-c4ccc(O)c(O)c4)oc4cc(O)cc(O)c4c3=O)[C@H](O)[C@@H](O)[C@@H]2O)[C@@H](O)[C@@H](O)[C@H]1O
REMARK SMILES IDX 7 1 36 2 34 3 32 4 9 5 8 6 6 7 5 8 4 9 1 10 2 11 42 12 3 13
REMARK SMILES IDX 40 14 38 15 43 16 41 18 39 20 37 22 35 24 10 26 11 27 12 28
REMARK SMILES IDX 30 29 21 30 29 31 31 32 22 33 27 34 23 35 26 36 24 37 13 38
REMARK SMILES IDX 20 39 14 40 18 41 15 42 16 43 19 44 17 46 28 48 25 50 33 52
REMARK H PARENT 43 17 41 19 39 21 37 23 35 25 19 45 17 47 28 49 25 51 33 53
REMARK Flexibility Score: inf
ROOT
ATOM      1  C   UNL     1      96.140 100.463  97.039  1.00  0.00     0.180 C 
ATOM      2  C   UNL     1      96.941 100.676  95.728  1.00  0.00     0.177 C 
ATOM      3  C   UNL     1      97.471 102.113  95.670  1.00  0.00     0.180 C 
ATOM      4  C   UNL     1      98.226 102.447  96.968  1.00  0.00     0.214 C 
ATOM      5  C   UNL     1      97.351 102.118  98.189  1.00  0.00     0.339 C 
ATOM      6  O   UNL     1      96.949 100.755  98.169  1.00  0.00    -0.332 OA
ENDROOT
BRANCH   1   7
ATOM      7  C   UNL     1      95.649  99.015  97.166  1.00  0.00     0.198 C 
BRANCH   7   8
ATOM      8  O   UNL     1      94.296  98.939  96.760  1.00  0.00    -0.347 OA
BRANCH   8   9
ATOM      9  C   UNL     1      94.191  98.324  95.486  1.00  0.00     0.281 C 
ATOM     10  C   UNL     1      97.444  96.592  95.403  1.00  0.00     0.041 C 
ATOM     11  C   UNL     1      96.022  96.901  95.874  1.00  0.00     0.150 C 
ATOM     12  C   UNL     1      95.155  95.625  95.916  1.00  0.00     0.174 C 
ATOM     13  O   UNL     1      95.454  97.871  95.008  1.00  0.00    -0.344 OA
ATOM     14  C   UNL     1      93.741  95.999  96.388  1.00  0.00     0.179 C 
ATOM     15  C   UNL     1      93.174  97.167  95.551  1.00  0.00     0.202 C 
BRANCH  12  16
ATOM     16  O   UNL     1      95.088  95.031  94.642  1.00  0.00    -0.388 OA
ATOM     17  H   UNL     1      94.127  94.967  94.400  1.00  0.00     0.211 HD
ENDBRANCH  12  16
BRANCH  14  18
ATOM     18  O   UNL     1      92.902  94.875  96.311  1.00  0.00    -0.387 OA
ATOM     19  H   UNL     1      93.373  94.134  96.772  1.00  0.00     0.211 HD
ENDBRANCH  14  18
BRANCH  15  20
ATOM     20  O   UNL     1      92.875  96.743  94.244  1.00  0.00    -0.385 OA
ATOM     21  H   UNL     1      92.572  95.799  94.308  1.00  0.00     0.211 HD
ENDBRANCH  15  20
ENDBRANCH   8   9
ENDBRANCH   7   8
ENDBRANCH   1   7
BRANCH   2  22
ATOM     22  O   UNL     1      96.120 100.449  94.609  1.00  0.00    -0.387 OA
ATOM     23  H   UNL     1      95.493  99.720  94.849  1.00  0.00     0.211 HD
ENDBRANCH   2  22
BRANCH   3  24
ATOM     24  O   UNL     1      98.330 102.242  94.567  1.00  0.00    -0.387 OA
ATOM     25  H   UNL     1      98.578 101.323  94.284  1.00  0.00     0.211 HD
ENDBRANCH   3  24
BRANCH   5  26
ATOM     26  O   UNL     1      96.224 103.000  98.241  1.00  0.00    -0.454 OA
BRANCH  26  27
ATOM     27  C   UNL     1      96.035 104.105  99.094  1.00  0.00     0.214 A 
ATOM     28  C   UNL     1      95.233 103.921 100.238  1.00  0.00     0.180 A 
ATOM     29  C   UNL     1      96.572 105.391  98.853  1.00  0.00     0.239 A 
ATOM     30  O   UNL     1      94.958 104.946 101.037  1.00  0.00    -0.452 OA
ATOM     31  C   UNL     1      96.268 106.449  99.737  1.00  0.00     0.111 A 
ATOM     32  O   UNL     1      97.313 105.596  97.855  1.00  0.00    -0.285 OA
ATOM     33  C   UNL     1      95.426 106.170 100.839  1.00  0.00     0.146 A 
ATOM     34  C   UNL     1      96.754 107.768  99.560  1.00  0.00     0.134 A 
ATOM     35  C   UNL     1      95.076 107.185 101.735  1.00  0.00     0.094 A 
ATOM     36  C   UNL     1      96.389 108.772 100.469  1.00  0.00     0.093 A 
ATOM     37  C   UNL     1      95.554 108.486 101.551  1.00  0.00     0.123 A 
BRANCH  28  38
ATOM     38  C   UNL     1      94.654 102.603 100.573  1.00  0.00     0.025 A 
ATOM     39  C   UNL     1      94.495 102.198 101.909  1.00  0.00     0.062 A 
ATOM     40  C   UNL     1      94.223 101.752  99.543  1.00  0.00     0.016 A 
ATOM     41  C   UNL     1      93.951 100.946 102.214  1.00  0.00     0.158 A 
ATOM     42  C   UNL     1      93.680 100.500  99.845  1.00  0.00     0.051 A 
ATOM     43  C   UNL     1      93.547 100.088 101.178  1.00  0.00     0.157 A 
BRANCH  41  44
ATOM     44  O   UNL     1      93.820 100.573 103.551  1.00  0.00    -0.504 OA
ATOM     45  H   UNL     1      94.568 100.120 104.060  1.00  0.00     0.293 HD
ENDBRANCH  41  44
BRANCH  43  46
ATOM     46  O   UNL     1      93.014  98.835 101.474  1.00  0.00    -0.504 OA
ATOM     47  H   UNL     1      92.390  98.358 100.832  1.00  0.00     0.293 HD
ENDBRANCH  43  46
ENDBRANCH  28  38
BRANCH  34  48
ATOM     48  O   UNL     1      97.591 108.090  98.490  1.00  0.00    -0.507 OA
ATOM     49  H   UNL     1      97.280 108.019  97.530  1.00  0.00     0.293 HD
ENDBRANCH  34  48
BRANCH  37  50
ATOM     50  O   UNL     1      95.203 109.503 102.436  1.00  0.00    -0.508 OA
ATOM     51  H   UNL     1      94.964 109.306 103.403  1.00  0.00     0.293 HD
ENDBRANCH  37  50
ENDBRANCH  26  27
ENDBRANCH   5  26
BRANCH   4  52
ATOM     52  O   UNL     1      98.565 103.810  96.994  1.00  0.00    -0.384 OA
ATOM     53  H   UNL     1      98.721 104.051  97.944  1.00  0.00     0.211 HD
ENDBRANCH   4  52
TORSDOF 16
ENDMDL
MODEL 2
REMARK VINA RESULT:    42.147      1.447      6.039
REMARK INTER + INTRA:          70.310
REMARK INTER:                  66.269
REMARK INTRA:                   4.041
REMARK UNBOUND:                 1.060
REMARK SMILES C[C@H]1O[C@H](OC[C@H]2O[C@H](Oc3c(-c4ccc(O)c(O)c4)oc4cc(O)cc(O)c4c3=O)[C@H](O)[C@@H](O)[C@@H]2O)[C@@H](O)[C@@H](O)[C@H]1O
REMARK SMILES IDX 7 1 36 2 34 3 32 4 9 5 8 6 6 7 5 8 4 9 1 10 2 11 42 12 3 13
REMARK SMILES IDX 40 14 38 15 43 16 41 18 39 20 37 22 35 24 10 26 11 27 12 28
REMARK SMILES IDX 30 29 21 30 29 31 31 32 22 33 27 34 23 35 26 36 24 37 13 38
REMARK SMILES IDX 20 39 14 40 18 41 15 42 16 43 19 44 17 46 28 48 25 50 33 52
REMARK H PARENT 43 17 41 19 39 21 37 23 35 25 19 45 17 47 28 49 25 51 33 53
REMARK Flexibility Score: inf
ROOT
ATOM      1  C   UNL     1      93.480 101.227  99.607  1.00  0.00     0.180 C 
ATOM      2  C   UNL     1      93.014 100.285 100.747  1.00  0.00     0.177 C 
ATOM      3  C   UNL     1      93.446 100.855 102.103  1.00  0.00     0.180 C 
ATOM      4  C   UNL     1      92.988 102.319 102.226  1.00  0.00     0.214 C 
ATOM      5  C   UNL     1      93.448 103.122 100.998  1.00  0.00     0.339 C 
ATOM      6  O   UNL     1      92.961 102.535  99.799  1.00  0.00    -0.332 OA
ENDROOT
BRANCH   1   7
ATOM      7  C   UNL     1      93.008 100.724  98.237  1.00  0.00     0.198 C 
BRANCH   7   8
ATOM      8  O   UNL     1      92.932  99.312  98.254  1.00  0.00    -0.347 OA
BRANCH   8   9
ATOM      9  C   UNL     1      94.099  98.741  97.684  1.00  0.00     0.281 C 
ATOM     10  C   UNL     1      93.603  95.239  98.720  1.00  0.00     0.041 C 
ATOM     11  C   UNL     1      93.323  96.540  97.967  1.00  0.00     0.150 C 
ATOM     12  C   UNL     1      93.167  96.291  96.452  1.00  0.00     0.174 C 
ATOM     13  O   UNL     1      94.379  97.453  98.223  1.00  0.00    -0.344 OA
ATOM     14  C   UNL     1      92.894  97.631  95.752  1.00  0.00     0.179 C 
ATOM     15  C   UNL     1      93.953  98.683  96.150  1.00  0.00     0.202 C 
BRANCH  12  16
ATOM     16  O   UNL     1      94.333  95.708  95.924  1.00  0.00    -0.388 OA
ATOM     17  H   UNL     1      95.077  95.932  96.543  1.00  0.00     0.211 HD
ENDBRANCH  12  16
BRANCH  14  18
ATOM     18  O   UNL     1      92.875  97.444  94.359  1.00  0.00    -0.387 OA
ATOM     19  H   UNL     1      93.573  98.040  93.982  1.00  0.00     0.211 HD
ENDBRANCH  14  18
BRANCH  15  20
ATOM     20  O   UNL     1      95.200  98.375  95.580  1.00  0.00    -0.385 OA
ATOM     21  H   UNL     1      95.021  98.007  94.674  1.00  0.00     0.211 HD
ENDBRANCH  15  20
ENDBRANCH   8   9
ENDBRANCH   7   8
ENDBRANCH   1   7
BRANCH   2  22
ATOM     22  O   UNL     1      93.581  99.007 100.592  1.00  0.00    -0.387 OA
ATOM     23  H   UNL     1      93.022  98.517  99.936  1.00  0.00     0.211 HD
ENDBRANCH   2  22
BRANCH   3  24
ATOM     24  O   UNL     1      92.875 100.085 103.129  1.00  0.00    -0.387 OA
ATOM     25  H   UNL     1      93.461  99.293 103.258  1.00  0.00     0.211 HD
ENDBRANCH   3  24
BRANCH   5  26
ATOM     26  O   UNL     1      94.876 103.235 100.988  1.00  0.00    -0.454 OA
BRANCH  26  27
ATOM     27  C   UNL     1      95.737 103.178  99.874  1.00  0.00     0.214 A 
ATOM     28  C   UNL     1      96.344 104.378  99.452  1.00  0.00     0.180 A 
ATOM     29  C   UNL     1      95.999 102.000  99.137  1.00  0.00     0.239 A 
ATOM     30  O   UNL     1      97.105 104.398  98.364  1.00  0.00    -0.452 OA
ATOM     31  C   UNL     1      96.827 102.063  97.995  1.00  0.00     0.111 A 
ATOM     32  O   UNL     1      95.496 100.901  99.491  1.00  0.00    -0.285 OA
ATOM     33  C   UNL     1      97.363 103.322  97.635  1.00  0.00     0.146 A 
ATOM     34  C   UNL     1      97.129 100.933  97.195  1.00  0.00     0.134 A 
ATOM     35  C   UNL     1      98.173 103.446  96.502  1.00  0.00     0.094 A 
ATOM     36  C   UNL     1      97.942 101.080  96.062  1.00  0.00     0.093 A 
ATOM     37  C   UNL     1      98.462 102.328  95.714  1.00  0.00     0.123 A 
BRANCH  28  38
ATOM     38  C   UNL     1      96.139 105.647 100.183  1.00  0.00     0.025 A 
ATOM     39  C   UNL     1      96.089 106.876  99.503  1.00  0.00     0.062 A 
ATOM     40  C   UNL     1      95.956 105.625 101.574  1.00  0.00     0.016 A 
ATOM     41  C   UNL     1      95.900 108.071 100.205  1.00  0.00     0.158 A 
ATOM     42  C   UNL     1      95.769 106.817 102.278  1.00  0.00     0.051 A 
ATOM     43  C   UNL     1      95.746 108.045 101.601  1.00  0.00     0.157 A 
BRANCH  41  44
ATOM     44  O   UNL     1      95.869 109.272  99.499  1.00  0.00    -0.504 OA
ATOM     45  H   UNL     1      96.670 109.617  98.985  1.00  0.00     0.293 HD
ENDBRANCH  41  44
BRANCH  43  46
ATOM     46  O   UNL     1      95.567 109.232 102.308  1.00  0.00    -0.504 OA
ATOM     47  H   UNL     1      95.540 110.131 101.839  1.00  0.00     0.293 HD
ENDBRANCH  43  46
ENDBRANCH  28  38
BRANCH  34  48
ATOM     48  O   UNL     1      96.627  99.671  97.514  1.00  0.00    -0.507 OA
ATOM     49  H   UNL     1      96.929  99.170  98.340  1.00  0.00     0.293 HD
ENDBRANCH  34  48
BRANCH  37  50
ATOM     50  O   UNL     1      99.263 102.447  94.580  1.00  0.00    -0.508 OA
ATOM     51  H   UNL     1      99.753 103.309  94.364  1.00  0.00     0.293 HD
ENDBRANCH  37  50
ENDBRANCH  26  27
ENDBRANCH   5  26
BRANCH   4  52
ATOM     52  O   UNL     1      93.527 102.898 103.387  1.00  0.00    -0.384 OA
ATOM     53  H   UNL     1      92.931 102.646 104.139  1.00  0.00     0.211 HD
ENDBRANCH   4  52
TORSDOF 16
ENDMDL
MODEL 3
REMARK VINA RESULT:    42.213      1.315      4.353
REMARK INTER + INTRA:          70.418
REMARK INTER:                  70.736
REMARK INTRA:                  -0.318
REMARK UNBOUND:                 1.060
REMARK SMILES C[C@H]1O[C@H](OC[C@H]2O[C@H](Oc3c(-c4ccc(O)c(O)c4)oc4cc(O)cc(O)c4c3=O)[C@H](O)[C@@H](O)[C@@H]2O)[C@@H](O)[C@@H](O)[C@H]1O
REMARK SMILES IDX 7 1 36 2 34 3 32 4 9 5 8 6 6 7 5 8 4 9 1 10 2 11 42 12 3 13
REMARK SMILES IDX 40 14 38 15 43 16 41 18 39 20 37 22 35 24 10 26 11 27 12 28
REMARK SMILES IDX 30 29 21 30 29 31 31 32 22 33 27 34 23 35 26 36 24 37 13 38
REMARK SMILES IDX 20 39 14 40 18 41 15 42 16 43 19 44 17 46 28 48 25 50 33 52
REMARK H PARENT 43 17 41 19 39 21 37 23 35 25 19 45 17 47 28 49 25 51 33 53
REMARK Flexibility Score: inf
ROOT
ATOM      1  C   UNL     1      94.166 100.694  99.191  1.00  0.00     0.180 C 
ATOM      2  C   UNL     1      94.172  99.753 100.423  1.00  0.00     0.177 C 
ATOM      3  C   UNL     1      94.644 100.523 101.663  1.00  0.00     0.180 C 
ATOM      4  C   UNL     1      93.824 101.815 101.821  1.00  0.00     0.214 C 
ATOM      5  C   UNL     1      93.837 102.614 100.507  1.00  0.00     0.339 C 
ATOM      6  O   UNL     1      93.343 101.827  99.433  1.00  0.00    -0.332 OA
ENDROOT
BRANCH   1   7
ATOM      7  C   UNL     1      93.635  99.978  97.942  1.00  0.00     0.198 C 
BRANCH   7   8
ATOM      8  O   UNL     1      94.632  99.110  97.437  1.00  0.00    -0.347 OA
BRANCH   8   9
ATOM      9  C   UNL     1      94.337  98.735  96.101  1.00  0.00     0.281 C 
ATOM     10  C   UNL     1      97.574  97.226  95.190  1.00  0.00     0.041 C 
ATOM     11  C   UNL     1      96.240  97.366  95.925  1.00  0.00     0.150 C 
ATOM     12  C   UNL     1      95.421  96.059  95.857  1.00  0.00     0.174 C 
ATOM     13  O   UNL     1      95.516  98.446  95.356  1.00  0.00    -0.344 OA
ATOM     14  C   UNL     1      94.094  96.264  96.605  1.00  0.00     0.179 C 
ATOM     15  C   UNL     1      93.371  97.533  96.102  1.00  0.00     0.202 C 
BRANCH  12  16
ATOM     16  O   UNL     1      95.163  95.706  94.520  1.00  0.00    -0.388 OA
ATOM     17  H   UNL     1      94.748  96.496  94.084  1.00  0.00     0.211 HD
ENDBRANCH  12  16
BRANCH  14  18
ATOM     18  O   UNL     1      93.280  95.130  96.446  1.00  0.00    -0.387 OA
ATOM     19  H   UNL     1      92.505  95.247  97.054  1.00  0.00     0.211 HD
ENDBRANCH  14  18
BRANCH  15  20
ATOM     20  O   UNL     1      92.875  97.340  94.800  1.00  0.00    -0.385 OA
ATOM     21  H   UNL     1      91.884  97.386  94.858  1.00  0.00     0.211 HD
ENDBRANCH  15  20
ENDBRANCH   8   9
ENDBRANCH   7   8
ENDBRANCH   1   7
BRANCH   2  22
ATOM     22  O   UNL     1      95.038  98.667 100.208  1.00  0.00    -0.387 OA
ATOM     23  H   UNL     1      95.939  99.041 100.028  1.00  0.00     0.211 HD
ENDBRANCH   2  22
BRANCH   3  24
ATOM     24  O   UNL     1      94.484  99.710 102.797  1.00  0.00    -0.387 OA
ATOM     25  H   UNL     1      95.054  98.909 102.662  1.00  0.00     0.211 HD
ENDBRANCH   3  24
BRANCH   5  26
ATOM     26  O   UNL     1      95.155 103.104 100.240  1.00  0.00    -0.454 OA
BRANCH  26  27
ATOM     27  C   UNL     1      95.565 104.446 100.104  1.00  0.00     0.214 A 
ATOM     28  C   UNL     1      96.460 104.757  99.063  1.00  0.00     0.180 A 
ATOM     29  C   UNL     1      95.157 105.488 100.970  1.00  0.00     0.239 A 
ATOM     30  O   UNL     1      96.938 105.990  98.933  1.00  0.00    -0.452 OA
ATOM     31  C   UNL     1      95.677 106.787 100.787  1.00  0.00     0.111 A 
ATOM     32  O   UNL     1      94.340 105.261 101.901  1.00  0.00    -0.285 OA
ATOM     33  C   UNL     1      96.596 106.991  99.732  1.00  0.00     0.146 A 
ATOM     34  C   UNL     1      95.330 107.883 101.617  1.00  0.00     0.134 A 
ATOM     35  C   UNL     1      97.157 108.253  99.518  1.00  0.00     0.094 A 
ATOM     36  C   UNL     1      95.907 109.140 101.386  1.00  0.00     0.093 A 
ATOM     37  C   UNL     1      96.816 109.328 100.344  1.00  0.00     0.123 A 
BRANCH  28  38
ATOM     38  C   UNL     1      96.916 103.730  98.101  1.00  0.00     0.025 A 
ATOM     39  C   UNL     1      98.064 103.928  97.316  1.00  0.00     0.062 A 
ATOM     40  C   UNL     1      96.212 102.520  97.994  1.00  0.00     0.016 A 
ATOM     41  C   UNL     1      98.482 102.951  96.407  1.00  0.00     0.158 A 
ATOM     42  C   UNL     1      96.627 101.543  97.085  1.00  0.00     0.051 A 
ATOM     43  C   UNL     1      97.758 101.755  96.283  1.00  0.00     0.157 A 
BRANCH  41  44
ATOM     44  O   UNL     1      99.619 103.188  95.635  1.00  0.00    -0.504 OA
ATOM     45  H   UNL     1     100.533 102.846  95.902  1.00  0.00     0.293 HD
ENDBRANCH  41  44
BRANCH  43  46
ATOM     46  O   UNL     1      98.162 100.781  95.372  1.00  0.00    -0.504 OA
ATOM     47  H   UNL     1      97.888 100.821  94.396  1.00  0.00     0.293 HD
ENDBRANCH  43  46
ENDBRANCH  28  38
BRANCH  34  48
ATOM     48  O   UNL     1      94.424 107.731 102.668  1.00  0.00    -0.507 OA
ATOM     49  H   UNL     1      94.407 106.898 103.242  1.00  0.00     0.293 HD
ENDBRANCH  34  48
BRANCH  37  50
ATOM     50  O   UNL     1      97.378 110.587 100.140  1.00  0.00    -0.508 OA
ATOM     51  H   UNL     1      97.227 111.102  99.280  1.00  0.00     0.293 HD
ENDBRANCH  37  50
ENDBRANCH  26  27
ENDBRANCH   5  26
BRANCH   4  52
ATOM     52  O   UNL     1      94.362 102.607 102.849  1.00  0.00    -0.384 OA
ATOM     53  H   UNL     1      93.959 102.290 103.699  1.00  0.00     0.211 HD
ENDBRANCH   4  52
TORSDOF 16
ENDMDL
