MODEL 1
REMARK VINA RESULT:    -3.602      0.000      0.000
REMARK INTER + INTRA:          -4.565
REMARK INTER:                  -4.444
REMARK INTRA:                  -0.120
REMARK UNBOUND:                -0.120
REMARK SMILES CCCCCC(=O)[O-]
REMARK SMILES IDX 4 1 5 2 6 3 7 4 8 5 3 6 2 7 1 8
REMARK H PARENT
REMARK Flexibility Score: inf
ROOT
ATOM      1  C   UNL     1      44.018  -4.951  84.605  1.00  0.00     0.006 C 
ENDROOT
BRANCH   1   2
ATOM      2  C   UNL     1      42.825  -5.552  83.856  1.00  0.00     0.053 C 
BRANCH   2   3
ATOM      3  C   UNL     1      42.601  -6.970  84.276  1.00  0.00     0.041 C 
ATOM      4  O   UNL     1      43.030  -7.377  85.388  1.00  0.00    -0.550 OA
ATOM      5  O   UNL     1      41.875  -7.831  83.462  1.00  0.00    -0.550 OA
ENDBRANCH   2   3
ENDBRANCH   1   2
BRANCH   1   6
ATOM      6  C   UNL     1      45.299  -5.046  83.765  1.00  0.00     0.000 C 
BRANCH   6   7
ATOM      7  C   UNL     1      46.182  -3.795  83.891  1.00  0.00    -0.003 C 
ATOM      8  C   UNL     1      45.721  -2.855  85.005  1.00  0.00     0.004 C 
ENDBRANCH   6   7
ENDBRANCH   1   6
TORSDOF 4
ENDMDL
MODEL 2
REMARK VINA RESULT:    -3.514     14.378     15.356
REMARK INTER + INTRA:          -4.456
REMARK INTER:                  -4.348
REMARK INTRA:                  -0.108
REMARK UNBOUND:                -0.120
REMARK SMILES CCCCCC(=O)[O-]
REMARK SMILES IDX 4 1 5 2 6 3 7 4 8 5 3 6 2 7 1 8
REMARK H PARENT
REMARK Flexibility Score: inf
ROOT
ATOM      1  C   UNL     1      51.214  -0.875  72.234  1.00  0.00     0.006 C 
ENDROOT
BRANCH   1   2
ATOM      2  C   UNL     1      52.220  -1.774  72.960  1.00  0.00     0.053 C 
BRANCH   2   3
ATOM      3  C   UNL     1      53.482  -1.898  72.167  1.00  0.00     0.041 C 
ATOM      4  O   UNL     1      53.934  -0.906  71.536  1.00  0.00    -0.550 OA
ATOM      5  O   UNL     1      54.188  -3.095  72.164  1.00  0.00    -0.550 OA
ENDBRANCH   2   3
ENDBRANCH   1   2
BRANCH   1   6
ATOM      6  C   UNL     1      49.983  -1.676  71.789  1.00  0.00     0.000 C 
BRANCH   6   7
ATOM      7  C   UNL     1      48.692  -0.845  71.828  1.00  0.00    -0.003 C 
ATOM      8  C   UNL     1      48.649   0.126  73.008  1.00  0.00     0.004 C 
ENDBRANCH   6   7
ENDBRANCH   1   6
TORSDOF 4
ENDMDL
MODEL 3
REMARK VINA RESULT:    -3.410     14.346     15.073
REMARK INTER + INTRA:          -4.328
REMARK INTER:                  -4.105
REMARK INTRA:                  -0.223
REMARK UNBOUND:                -0.120
REMARK SMILES CCCCCC(=O)[O-]
REMARK SMILES IDX 4 1 5 2 6 3 7 4 8 5 3 6 2 7 1 8
REMARK H PARENT
REMARK Flexibility Score: inf
ROOT
ATOM      1  C   UNL     1      50.568  -2.498  71.873  1.00  0.00     0.006 C 
ENDROOT
BRANCH   1   2
ATOM      2  C   UNL     1      51.751  -2.132  72.774  1.00  0.00     0.053 C 
BRANCH   2   3
ATOM      3  C   UNL     1      52.575  -1.052  72.147  1.00  0.00     0.041 C 
ATOM      4  O   UNL     1      53.785  -1.260  71.868  1.00  0.00    -0.550 OA
ATOM      5  O   UNL     1      51.994   0.168  71.825  1.00  0.00    -0.550 OA
ENDBRANCH   2   3
ENDBRANCH   1   2
BRANCH   1   6
ATOM      6  C   UNL     1      49.235  -2.120  72.534  1.00  0.00     0.000 C 
BRANCH   6   7
ATOM      7  C   UNL     1      48.598  -0.871  71.908  1.00  0.00    -0.003 C 
ATOM      8  C   UNL     1      48.520   0.305  72.881  1.00  0.00     0.004 C 
ENDBRANCH   6   7
ENDBRANCH   1   6
TORSDOF 4
ENDMDL
MODEL 4
REMARK VINA RESULT:    -3.369     14.473     15.284
REMARK INTER + INTRA:          -4.277
REMARK INTER:                  -4.188
REMARK INTRA:                  -0.089
REMARK UNBOUND:                -0.120
REMARK SMILES CCCCCC(=O)[O-]
REMARK SMILES IDX 4 1 5 2 6 3 7 4 8 5 3 6 2 7 1 8
REMARK H PARENT
REMARK Flexibility Score: inf
ROOT
ATOM      1  C   UNL     1      52.795  -1.334  72.197  1.00  0.00     0.006 C 
ENDROOT
BRANCH   1   2
ATOM      2  C   UNL     1      52.931  -2.381  73.306  1.00  0.00     0.053 C 
BRANCH   2   3
ATOM      3  C   UNL     1      53.938  -3.420  72.927  1.00  0.00     0.041 C 
ATOM      4  O   UNL     1      54.550  -3.339  71.829  1.00  0.00    -0.550 OA
ATOM      5  O   UNL     1      54.239  -4.452  73.807  1.00  0.00    -0.550 OA
ENDBRANCH   2   3
ENDBRANCH   1   2
BRANCH   1   6
ATOM      6  C   UNL     1      51.411  -0.671  72.234  1.00  0.00     0.000 C 
BRANCH   6   7
ATOM      7  C   UNL     1      50.277  -1.651  71.897  1.00  0.00    -0.003 C 
ATOM      8  C   UNL     1      48.904  -0.980  71.868  1.00  0.00     0.004 C 
ENDBRANCH   6   7
ENDBRANCH   1   6
TORSDOF 4
ENDMDL
MODEL 5
REMARK VINA RESULT:    -3.341     14.081     15.212
REMARK INTER + INTRA:          -4.242
REMARK INTER:                  -4.138
REMARK INTRA:                  -0.104
REMARK UNBOUND:                -0.120
REMARK SMILES CCCCCC(=O)[O-]
REMARK SMILES IDX 4 1 5 2 6 3 7 4 8 5 3 6 2 7 1 8
REMARK H PARENT
REMARK Flexibility Score: inf
ROOT
ATOM      1  C   UNL     1      51.259  -0.641  72.257  1.00  0.00     0.006 C 
ENDROOT
BRANCH   1   2
ATOM      2  C   UNL     1      52.088  -1.748  72.915  1.00  0.00     0.053 C 
BRANCH   2   3
ATOM      3  C   UNL     1      53.438  -1.843  72.276  1.00  0.00     0.041 C 
ATOM      4  O   UNL     1      54.091  -2.918  72.334  1.00  0.00    -0.550 OA
ATOM      5  O   UNL     1      53.954  -0.761  71.574  1.00  0.00    -0.550 OA
ENDBRANCH   2   3
ENDBRANCH   1   2
BRANCH   1   6
ATOM      6  C   UNL     1      49.905  -1.181  71.776  1.00  0.00     0.000 C 
BRANCH   6   7
ATOM      7  C   UNL     1      49.026  -1.684  72.931  1.00  0.00    -0.003 C 
ATOM      8  C   UNL     1      48.670  -3.165  72.802  1.00  0.00     0.004 C 
ENDBRANCH   6   7
ENDBRANCH   1   6
TORSDOF 4
ENDMDL
MODEL 6
REMARK VINA RESULT:    -3.296      1.453      2.193
REMARK INTER + INTRA:          -4.187
REMARK INTER:                  -4.092
REMARK INTRA:                  -0.095
REMARK UNBOUND:                -0.120
REMARK SMILES CCCCCC(=O)[O-]
REMARK SMILES IDX 4 1 5 2 6 3 7 4 8 5 3 6 2 7 1 8
REMARK H PARENT
REMARK Flexibility Score: inf
ROOT
ATOM      1  C   UNL     1      45.570  -4.536  83.404  1.00  0.00     0.006 C 
ENDROOT
BRANCH   1   2
ATOM      2  C   UNL     1      44.923  -5.841  83.877  1.00  0.00     0.053 C 
BRANCH   2   3
ATOM      3  C   UNL     1      43.476  -5.627  84.190  1.00  0.00     0.041 C 
ATOM      4  O   UNL     1      42.644  -5.460  83.260  1.00  0.00    -0.550 OA
ATOM      5  O   UNL     1      43.037  -5.661  85.508  1.00  0.00    -0.550 OA
ENDBRANCH   2   3
ENDBRANCH   1   2
BRANCH   1   6
ATOM      6  C   UNL     1      45.687  -3.530  84.557  1.00  0.00     0.000 C 
BRANCH   6   7
ATOM      7  C   UNL     1      46.817  -2.512  84.340  1.00  0.00    -0.003 C 
ATOM      8  C   UNL     1      46.818  -1.397  85.387  1.00  0.00     0.004 C 
ENDBRANCH   6   7
ENDBRANCH   1   6
TORSDOF 4
ENDMDL
MODEL 7
REMARK VINA RESULT:    -3.237     13.662     14.698
REMARK INTER + INTRA:          -4.114
REMARK INTER:                  -3.984
REMARK INTRA:                  -0.130
REMARK UNBOUND:                -0.120
REMARK SMILES CCCCCC(=O)[O-]
REMARK SMILES IDX 4 1 5 2 6 3 7 4 8 5 3 6 2 7 1 8
REMARK H PARENT
REMARK Flexibility Score: inf
ROOT
ATOM      1  C   UNL     1      51.429  -0.424  72.242  1.00  0.00     0.006 C 
ENDROOT
BRANCH   1   2
ATOM      2  C   UNL     1      50.152  -1.166  71.839  1.00  0.00     0.053 C 
BRANCH   2   3
ATOM      3  C   UNL     1      49.477  -1.743  73.043  1.00  0.00     0.041 C 
ATOM      4  O   UNL     1      49.632  -1.209  74.173  1.00  0.00    -0.550 OA
ATOM      5  O   UNL     1      48.635  -2.840  72.910  1.00  0.00    -0.550 OA
ENDBRANCH   2   3
ENDBRANCH   1   2
BRANCH   1   6
ATOM      6  C   UNL     1      52.635  -1.374  72.263  1.00  0.00     0.000 C 
BRANCH   6   7
ATOM      7  C   UNL     1      53.856  -0.795  71.535  1.00  0.00    -0.003 C 
ATOM      8  C   UNL     1      53.577   0.569  70.903  1.00  0.00     0.004 C 
ENDBRANCH   6   7
ENDBRANCH   1   6
TORSDOF 4
ENDMDL
MODEL 8
REMARK VINA RESULT:    -3.233     17.913     18.900
REMARK INTER + INTRA:          -4.109
REMARK INTER:                  -4.030
REMARK INTRA:                  -0.079
REMARK UNBOUND:                -0.120
REMARK SMILES CCCCCC(=O)[O-]
REMARK SMILES IDX 4 1 5 2 6 3 7 4 8 5 3 6 2 7 1 8
REMARK H PARENT
REMARK Flexibility Score: inf
ROOT
ATOM      1  C   UNL     1      59.488  -8.399  73.275  1.00  0.00     0.006 C 
ENDROOT
BRANCH   1   2
ATOM      2  C   UNL     1      58.113  -8.878  73.749  1.00  0.00     0.053 C 
BRANCH   2   3
ATOM      3  C   UNL     1      57.132  -7.749  73.743  1.00  0.00     0.041 C 
ATOM      4  O   UNL     1      57.232  -6.817  74.585  1.00  0.00    -0.550 OA
ATOM      5  O   UNL     1      56.135  -7.698  72.777  1.00  0.00    -0.550 OA
ENDBRANCH   2   3
ENDBRANCH   1   2
BRANCH   1   6
ATOM      6  C   UNL     1      60.417  -9.587  72.990  1.00  0.00     0.000 C 
BRANCH   6   7
ATOM      7  C   UNL     1      61.855  -9.340  73.468  1.00  0.00    -0.003 C 
ATOM      8  C   UNL     1      62.125  -9.914  74.858  1.00  0.00     0.004 C 
ENDBRANCH   6   7
ENDBRANCH   1   6
TORSDOF 4
ENDMDL
MODEL 9
REMARK VINA RESULT:    -3.092     18.193     19.165
REMARK INTER + INTRA:          -3.936
REMARK INTER:                  -3.844
REMARK INTRA:                  -0.091
REMARK UNBOUND:                -0.120
REMARK SMILES CCCCCC(=O)[O-]
REMARK SMILES IDX 4 1 5 2 6 3 7 4 8 5 3 6 2 7 1 8
REMARK H PARENT
REMARK Flexibility Score: inf
ROOT
ATOM      1  C   UNL     1      59.674  -9.630  73.080  1.00  0.00     0.006 C 
ENDROOT
BRANCH   1   2
ATOM      2  C   UNL     1      58.352  -8.971  73.480  1.00  0.00     0.053 C 
BRANCH   2   3
ATOM      3  C   UNL     1      57.228  -9.956  73.404  1.00  0.00     0.041 C 
ATOM      4  O   UNL     1      57.369 -11.028  72.757  1.00  0.00    -0.550 OA
ATOM      5  O   UNL     1      56.044  -9.715  74.089  1.00  0.00    -0.550 OA
ENDBRANCH   2   3
ENDBRANCH   1   2
BRANCH   1   6
ATOM      6  C   UNL     1      60.857  -8.683  73.325  1.00  0.00     0.000 C 
BRANCH   6   7
ATOM      7  C   UNL     1      62.124  -9.425  73.778  1.00  0.00    -0.003 C 
ATOM      8  C   UNL     1      61.940 -10.149  75.111  1.00  0.00     0.004 C 
ENDBRANCH   6   7
ENDBRANCH   1   6
TORSDOF 4
ENDMDL
