MODEL 1
REMARK VINA RESULT:    -5.311      0.000      0.000
REMARK INTER + INTRA:          -5.810
REMARK INTER:                  -5.777
REMARK INTRA:                  -0.033
REMARK UNBOUND:                -0.033
REMARK SMILES O=C([O-])c1ccc(O)cc1
REMARK SMILES IDX 7 1 6 2 9 3 5 4 10 5 4 6 8 7 2 9 1 10 3 11
REMARK H PARENT 8 8
REMARK Flexibility Score: inf
ROOT
ATOM      1  C   UNL     1     -33.234  46.341  36.515  1.00  0.00     0.115 A 
ATOM      2  C   UNL     1     -34.525  46.006  36.930  1.00  0.00     0.047 A 
ATOM      3  C   UNL     1     -32.129  45.883  37.244  1.00  0.00     0.047 A 
ATOM      4  C   UNL     1     -34.717  45.217  38.069  1.00  0.00     0.014 A 
ATOM      5  C   UNL     1     -32.316  45.094  38.382  1.00  0.00     0.014 A 
ATOM      6  C   UNL     1     -33.614  44.752  38.807  1.00  0.00    -0.003 A 
ENDROOT
BRANCH   1   7
ATOM      7  O   UNL     1     -33.059  47.127  35.378  1.00  0.00    -0.508 OA
ATOM      8  H   UNL     1     -33.082  48.140  35.426  1.00  0.00     0.293 HD
ENDBRANCH   1   7
BRANCH   6   9
ATOM      9  C   UNL     1     -33.818  43.918  40.012  1.00  0.00     0.071 C 
ATOM     10  O   UNL     1     -33.016  42.988  40.292  1.00  0.00    -0.545 OA
ATOM     11  O   UNL     1     -34.900  44.150  40.854  1.00  0.00    -0.545 OA
ENDBRANCH   6   9
TORSDOF 2
ENDMDL
MODEL 2
REMARK VINA RESULT:    -5.305      0.029      1.532
REMARK INTER + INTRA:          -5.803
REMARK INTER:                  -5.770
REMARK INTRA:                  -0.033
REMARK UNBOUND:                -0.033
REMARK SMILES O=C([O-])c1ccc(O)cc1
REMARK SMILES IDX 7 1 6 2 9 3 5 4 10 5 4 6 8 7 2 9 1 10 3 11
REMARK H PARENT 8 8
REMARK Flexibility Score: inf
ROOT
ATOM      1  C   UNL     1     -33.246  46.338  36.504  1.00  0.00     0.115 A 
ATOM      2  C   UNL     1     -32.141  45.883  37.228  1.00  0.00     0.047 A 
ATOM      3  C   UNL     1     -34.539  45.994  36.920  1.00  0.00     0.047 A 
ATOM      4  C   UNL     1     -32.322  45.085  38.363  1.00  0.00     0.014 A 
ATOM      5  C   UNL     1     -34.724  45.199  38.054  1.00  0.00     0.014 A 
ATOM      6  C   UNL     1     -33.616  44.735  38.788  1.00  0.00    -0.003 A 
ENDROOT
BRANCH   1   7
ATOM      7  O   UNL     1     -33.050  47.131  35.376  1.00  0.00    -0.508 OA
ATOM      8  H   UNL     1     -33.824  47.409  34.782  1.00  0.00     0.293 HD
ENDBRANCH   1   7
BRANCH   6   9
ATOM      9  C   UNL     1     -33.806  43.892  39.989  1.00  0.00     0.071 C 
ATOM     10  O   UNL     1     -32.993  42.969  40.260  1.00  0.00    -0.545 OA
ATOM     11  O   UNL     1     -34.887  44.108  40.837  1.00  0.00    -0.545 OA
ENDBRANCH   6   9
TORSDOF 2
ENDMDL
MODEL 3
REMARK VINA RESULT:    -5.002     12.704     15.308
REMARK INTER + INTRA:          -5.473
REMARK INTER:                  -5.440
REMARK INTRA:                  -0.033
REMARK UNBOUND:                -0.033
REMARK SMILES O=C([O-])c1ccc(O)cc1
REMARK SMILES IDX 7 1 6 2 9 3 5 4 10 5 4 6 8 7 2 9 1 10 3 11
REMARK H PARENT 8 8
REMARK Flexibility Score: inf
ROOT
ATOM      1  C   UNL     1     -41.484  36.826  50.390  1.00  0.00     0.115 A 
ATOM      2  C   UNL     1     -41.204  38.132  49.981  1.00  0.00     0.047 A 
ATOM      3  C   UNL     1     -40.972  35.744  49.662  1.00  0.00     0.047 A 
ATOM      4  C   UNL     1     -40.414  38.361  48.848  1.00  0.00     0.014 A 
ATOM      5  C   UNL     1     -40.183  35.969  48.531  1.00  0.00     0.014 A 
ATOM      6  C   UNL     1     -39.895  37.281  48.111  1.00  0.00    -0.003 A 
ENDROOT
BRANCH   1   7
ATOM      7  O   UNL     1     -42.272  36.613  51.519  1.00  0.00    -0.508 OA
ATOM      8  H   UNL     1     -42.369  35.692  51.932  1.00  0.00     0.293 HD
ENDBRANCH   1   7
BRANCH   6   9
ATOM      9  C   UNL     1     -39.061  37.526  46.914  1.00  0.00     0.071 C 
ATOM     10  O   UNL     1     -38.151  36.717  46.591  1.00  0.00    -0.545 OA
ATOM     11  O   UNL     1     -39.271  38.653  46.128  1.00  0.00    -0.545 OA
ENDBRANCH   6   9
TORSDOF 2
ENDMDL
MODEL 4
REMARK VINA RESULT:    -4.989     12.704     15.330
REMARK INTER + INTRA:          -5.459
REMARK INTER:                  -5.426
REMARK INTRA:                  -0.033
REMARK UNBOUND:                -0.033
REMARK SMILES O=C([O-])c1ccc(O)cc1
REMARK SMILES IDX 7 1 6 2 9 3 5 4 10 5 4 6 8 7 2 9 1 10 3 11
REMARK H PARENT 8 8
REMARK Flexibility Score: inf
ROOT
ATOM      1  C   UNL     1     -41.492  36.803  50.401  1.00  0.00     0.115 A 
ATOM      2  C   UNL     1     -40.999  35.740  49.639  1.00  0.00     0.047 A 
ATOM      3  C   UNL     1     -41.203  38.121  50.023  1.00  0.00     0.047 A 
ATOM      4  C   UNL     1     -40.219  35.988  48.504  1.00  0.00     0.014 A 
ATOM      5  C   UNL     1     -40.425  38.373  48.889  1.00  0.00     0.014 A 
ATOM      6  C   UNL     1     -39.924  37.308  48.117  1.00  0.00    -0.003 A 
ENDROOT
BRANCH   1   7
ATOM      7  O   UNL     1     -42.267  36.541  51.528  1.00  0.00    -0.508 OA
ATOM      8  H   UNL     1     -43.124  37.051  51.712  1.00  0.00     0.293 HD
ENDBRANCH   1   7
BRANCH   6   9
ATOM      9  C   UNL     1     -39.100  37.568  46.917  1.00  0.00     0.071 C 
ATOM     10  O   UNL     1     -38.168  36.784  46.596  1.00  0.00    -0.545 OA
ATOM     11  O   UNL     1     -39.343  38.685  46.125  1.00  0.00    -0.545 OA
ENDBRANCH   6   9
TORSDOF 2
ENDMDL
MODEL 5
REMARK VINA RESULT:    -4.765     10.361     13.043
REMARK INTER + INTRA:          -5.216
REMARK INTER:                  -5.180
REMARK INTRA:                  -0.036
REMARK UNBOUND:                -0.033
REMARK SMILES O=C([O-])c1ccc(O)cc1
REMARK SMILES IDX 7 1 6 2 9 3 5 4 10 5 4 6 8 7 2 9 1 10 3 11
REMARK H PARENT 8 8
REMARK Flexibility Score: inf
ROOT
ATOM      1  C   UNL     1     -39.572  37.807  48.704  1.00  0.00     0.115 A 
ATOM      2  C   UNL     1     -38.356  38.189  48.132  1.00  0.00     0.047 A 
ATOM      3  C   UNL     1     -40.766  38.006  47.998  1.00  0.00     0.047 A 
ATOM      4  C   UNL     1     -38.328  38.768  46.858  1.00  0.00     0.014 A 
ATOM      5  C   UNL     1     -40.742  38.584  46.726  1.00  0.00     0.014 A 
ATOM      6  C   UNL     1     -39.521  38.971  46.142  1.00  0.00    -0.003 A 
ENDROOT
BRANCH   1   7
ATOM      7  O   UNL     1     -39.584  37.231  49.973  1.00  0.00    -0.508 OA
ATOM      8  H   UNL     1     -40.007  37.703  50.765  1.00  0.00     0.293 HD
ENDBRANCH   1   7
BRANCH   6   9
ATOM      9  C   UNL     1     -39.489  39.584  44.795  1.00  0.00     0.071 C 
ATOM     10  O   UNL     1     -40.511  39.565  44.058  1.00  0.00    -0.545 OA
ATOM     11  O   UNL     1     -38.330  40.190  44.325  1.00  0.00    -0.545 OA
ENDBRANCH   6   9
TORSDOF 2
ENDMDL
MODEL 6
REMARK VINA RESULT:    -4.763     10.302     12.909
REMARK INTER + INTRA:          -5.213
REMARK INTER:                  -5.177
REMARK INTRA:                  -0.036
REMARK UNBOUND:                -0.033
REMARK SMILES O=C([O-])c1ccc(O)cc1
REMARK SMILES IDX 7 1 6 2 9 3 5 4 10 5 4 6 8 7 2 9 1 10 3 11
REMARK H PARENT 8 8
REMARK Flexibility Score: inf
ROOT
ATOM      1  C   UNL     1     -39.496  37.817  48.705  1.00  0.00     0.115 A 
ATOM      2  C   UNL     1     -40.678  38.004  47.984  1.00  0.00     0.047 A 
ATOM      3  C   UNL     1     -38.271  38.207  48.146  1.00  0.00     0.047 A 
ATOM      4  C   UNL     1     -40.642  38.579  46.709  1.00  0.00     0.014 A 
ATOM      5  C   UNL     1     -38.232  38.783  46.873  1.00  0.00     0.014 A 
ATOM      6  C   UNL     1     -39.418  38.974  46.140  1.00  0.00    -0.003 A 
ENDROOT
BRANCH   1   7
ATOM      7  O   UNL     1     -39.547  37.244  49.973  1.00  0.00    -0.508 OA
ATOM      8  H   UNL     1     -39.777  37.793  50.794  1.00  0.00     0.293 HD
ENDBRANCH   1   7
BRANCH   6   9
ATOM      9  C   UNL     1     -39.382  39.582  44.791  1.00  0.00     0.071 C 
ATOM     10  O   UNL     1     -40.407  39.579  44.059  1.00  0.00    -0.545 OA
ATOM     11  O   UNL     1     -38.214  40.165  44.313  1.00  0.00    -0.545 OA
ENDBRANCH   6   9
TORSDOF 2
ENDMDL
MODEL 7
REMARK VINA RESULT:    -4.693      2.610      3.526
REMARK INTER + INTRA:          -5.137
REMARK INTER:                  -5.101
REMARK INTRA:                  -0.036
REMARK UNBOUND:                -0.033
REMARK SMILES O=C([O-])c1ccc(O)cc1
REMARK SMILES IDX 7 1 6 2 9 3 5 4 10 5 4 6 8 7 2 9 1 10 3 11
REMARK H PARENT 8 8
REMARK Flexibility Score: inf
ROOT
ATOM      1  C   UNL     1     -34.254  43.953  38.545  1.00  0.00     0.115 A 
ATOM      2  C   UNL     1     -34.379  42.737  39.222  1.00  0.00     0.047 A 
ATOM      3  C   UNL     1     -34.602  45.147  39.191  1.00  0.00     0.047 A 
ATOM      4  C   UNL     1     -34.849  42.709  40.540  1.00  0.00     0.014 A 
ATOM      5  C   UNL     1     -35.071  45.123  40.507  1.00  0.00     0.014 A 
ATOM      6  C   UNL     1     -35.200  43.903  41.196  1.00  0.00    -0.003 A 
ENDROOT
BRANCH   1   7
ATOM      7  O   UNL     1     -33.784  43.965  37.234  1.00  0.00    -0.508 OA
ATOM      8  H   UNL     1     -33.635  44.834  36.732  1.00  0.00     0.293 HD
ENDBRANCH   1   7
BRANCH   6   9
ATOM      9  C   UNL     1     -35.698  43.871  42.589  1.00  0.00     0.071 C 
ATOM     10  O   UNL     1     -35.835  44.938  43.245  1.00  0.00    -0.545 OA
ATOM     11  O   UNL     1     -36.022  42.662  43.194  1.00  0.00    -0.545 OA
ENDBRANCH   6   9
TORSDOF 2
ENDMDL
MODEL 8
REMARK VINA RESULT:    -4.610      1.970      2.654
REMARK INTER + INTRA:          -5.047
REMARK INTER:                  -5.016
REMARK INTRA:                  -0.031
REMARK UNBOUND:                -0.033
REMARK SMILES O=C([O-])c1ccc(O)cc1
REMARK SMILES IDX 7 1 6 2 9 3 5 4 10 5 4 6 8 7 2 9 1 10 3 11
REMARK H PARENT 8 8
REMARK Flexibility Score: inf
ROOT
ATOM      1  C   UNL     1     -34.741  45.396  38.164  1.00  0.00     0.115 A 
ATOM      2  C   UNL     1     -35.106  45.869  39.427  1.00  0.00     0.047 A 
ATOM      3  C   UNL     1     -34.354  44.059  38.007  1.00  0.00     0.047 A 
ATOM      4  C   UNL     1     -35.087  45.011  40.533  1.00  0.00     0.014 A 
ATOM      5  C   UNL     1     -34.334  43.199  39.109  1.00  0.00     0.014 A 
ATOM      6  C   UNL     1     -34.700  43.667  40.385  1.00  0.00    -0.003 A 
ENDROOT
BRANCH   1   7
ATOM      7  O   UNL     1     -34.765  46.262  37.072  1.00  0.00    -0.508 OA
ATOM      8  H   UNL     1     -34.553  45.938  36.135  1.00  0.00     0.293 HD
ENDBRANCH   1   7
BRANCH   6   9
ATOM      9  C   UNL     1     -34.680  42.762  41.555  1.00  0.00     0.071 C 
ATOM     10  O   UNL     1     -35.636  42.753  42.376  1.00  0.00    -0.545 OA
ATOM     11  O   UNL     1     -33.604  41.907  41.765  1.00  0.00    -0.545 OA
ENDBRANCH   6   9
TORSDOF 2
ENDMDL
MODEL 9
REMARK VINA RESULT:    -4.513      1.659      4.582
REMARK INTER + INTRA:          -4.941
REMARK INTER:                  -4.913
REMARK INTRA:                  -0.028
REMARK UNBOUND:                -0.033
REMARK SMILES O=C([O-])c1ccc(O)cc1
REMARK SMILES IDX 7 1 6 2 9 3 5 4 10 5 4 6 8 7 2 9 1 10 3 11
REMARK H PARENT 8 8
REMARK Flexibility Score: inf
ROOT
ATOM      1  C   UNL     1     -35.084  43.682  40.800  1.00  0.00     0.115 A 
ATOM      2  C   UNL     1     -34.618  42.969  39.693  1.00  0.00     0.047 A 
ATOM      3  C   UNL     1     -35.188  45.077  40.735  1.00  0.00     0.047 A 
ATOM      4  C   UNL     1     -34.256  43.643  38.522  1.00  0.00     0.014 A 
ATOM      5  C   UNL     1     -34.828  45.755  39.566  1.00  0.00     0.014 A 
ATOM      6  C   UNL     1     -34.358  45.044  38.446  1.00  0.00    -0.003 A 
ENDROOT
BRANCH   1   7
ATOM      7  O   UNL     1     -35.441  42.996  41.959  1.00  0.00    -0.508 OA
ATOM      8  H   UNL     1     -36.233  43.284  42.522  1.00  0.00     0.293 HD
ENDBRANCH   1   7
BRANCH   6   9
ATOM      9  C   UNL     1     -33.975  45.756  37.207  1.00  0.00     0.071 C 
ATOM     10  O   UNL     1     -34.854  46.250  36.453  1.00  0.00    -0.545 OA
ATOM     11  O   UNL     1     -32.635  45.889  36.857  1.00  0.00    -0.545 OA
ENDBRANCH   6   9
TORSDOF 2
ENDMDL
