MODEL 1
REMARK VINA RESULT:    -5.122      0.000      0.000
REMARK INTER + INTRA:          -6.155
REMARK INTER:                  -6.020
REMARK INTRA:                  -0.135
REMARK UNBOUND:                -0.135
REMARK SMILES O=C([O-])C=Cc1ccc(O)c(O)c1
REMARK SMILES IDX 6 1 13 2 7 3 11 4 8 5 9 6 5 7 4 8 2 9 1 10 3 11 12 12 10 14
REMARK H PARENT 12 13 10 15
REMARK Flexibility Score: inf
ROOT
ATOM      1  C   UNL     1      -9.188  -2.358  -0.251  1.00  0.00    -0.022 A 
ATOM      2  C   UNL     1      -9.567  -1.427   0.731  1.00  0.00     0.058 A 
ATOM      3  C   UNL     1      -8.902  -1.898  -1.551  1.00  0.00     0.012 A 
ATOM      4  C   UNL     1      -9.685  -0.067   0.421  1.00  0.00     0.157 A 
ATOM      5  C   UNL     1      -9.019  -0.540  -1.862  1.00  0.00     0.051 A 
ATOM      6  C   UNL     1      -9.413   0.379  -0.882  1.00  0.00     0.157 A 
ENDROOT
BRANCH   1   7
ATOM      7  C   UNL     1      -9.069  -3.787   0.134  1.00  0.00     0.010 C 
ATOM      8  C   UNL     1      -8.084  -4.593  -0.289  1.00  0.00     0.025 C 
BRANCH   8   9
ATOM      9  C   UNL     1      -8.004  -6.009   0.105  1.00  0.00     0.064 C 
ATOM     10  O   UNL     1      -8.791  -6.867  -0.379  1.00  0.00    -0.545 OA
ATOM     11  O   UNL     1      -7.046  -6.407   1.028  1.00  0.00    -0.545 OA
ENDBRANCH   8   9
ENDBRANCH   1   7
BRANCH   4  12
ATOM     12  O   UNL     1     -10.073   0.823   1.421  1.00  0.00    -0.504 OA
ATOM     13  H   UNL     1      -9.786   1.795   1.418  1.00  0.00     0.293 HD
ENDBRANCH   4  12
BRANCH   6  14
ATOM     14  O   UNL     1      -9.529   1.732  -1.196  1.00  0.00    -0.504 OA
ATOM     15  H   UNL     1      -9.520   2.057  -2.156  1.00  0.00     0.293 HD
ENDBRANCH   6  14
TORSDOF 4
ENDMDL
MODEL 2
REMARK VINA RESULT:    -4.999      0.795      1.860
REMARK INTER + INTRA:          -6.011
REMARK INTER:                  -5.879
REMARK INTRA:                  -0.132
REMARK UNBOUND:                -0.135
REMARK SMILES O=C([O-])C=Cc1ccc(O)c(O)c1
REMARK SMILES IDX 6 1 13 2 7 3 11 4 8 5 9 6 5 7 4 8 2 9 1 10 3 11 12 12 10 14
REMARK H PARENT 12 13 10 15
REMARK Flexibility Score: inf
ROOT
ATOM      1  C   UNL     1      -9.289  -2.272   0.168  1.00  0.00    -0.022 A 
ATOM      2  C   UNL     1      -9.019  -1.784  -1.121  1.00  0.00     0.058 A 
ATOM      3  C   UNL     1      -9.858  -1.403   1.119  1.00  0.00     0.012 A 
ATOM      4  C   UNL     1      -9.285  -0.450  -1.454  1.00  0.00     0.157 A 
ATOM      5  C   UNL     1     -10.125  -0.071   0.789  1.00  0.00     0.051 A 
ATOM      6  C   UNL     1      -9.838   0.412  -0.493  1.00  0.00     0.157 A 
ENDROOT
BRANCH   1   7
ATOM      7  C   UNL     1      -8.997  -3.698   0.463  1.00  0.00     0.010 C 
ATOM      8  C   UNL     1      -8.245  -4.481  -0.323  1.00  0.00     0.025 C 
BRANCH   8   9
ATOM      9  C   UNL     1      -7.986  -5.896  -0.005  1.00  0.00     0.064 C 
ATOM     10  O   UNL     1      -8.763  -6.806  -0.399  1.00  0.00    -0.545 OA
ATOM     11  O   UNL     1      -6.867  -6.232   0.745  1.00  0.00    -0.545 OA
ENDBRANCH   8   9
ENDBRANCH   1   7
BRANCH   4  12
ATOM     12  O   UNL     1      -8.994  -0.003  -2.741  1.00  0.00    -0.504 OA
ATOM     13  H   UNL     1      -9.142   0.959  -3.023  1.00  0.00     0.293 HD
ENDBRANCH   4  12
BRANCH   6  14
ATOM     14  O   UNL     1     -10.104   1.741  -0.818  1.00  0.00    -0.504 OA
ATOM     15  H   UNL     1      -9.480   2.279  -1.406  1.00  0.00     0.293 HD
ENDBRANCH   6  14
TORSDOF 4
ENDMDL
MODEL 3
REMARK VINA RESULT:    -4.703      1.147      6.082
REMARK INTER + INTRA:          -5.663
REMARK INTER:                  -5.535
REMARK INTRA:                  -0.128
REMARK UNBOUND:                -0.135
REMARK SMILES O=C([O-])C=Cc1ccc(O)c(O)c1
REMARK SMILES IDX 6 1 13 2 7 3 11 4 8 5 9 6 5 7 4 8 2 9 1 10 3 11 12 12 10 14
REMARK H PARENT 12 13 10 15
REMARK Flexibility Score: inf
ROOT
ATOM      1  C   UNL     1      -9.062  -3.859   0.517  1.00  0.00    -0.022 A 
ATOM      2  C   UNL     1      -7.707  -4.154   0.288  1.00  0.00     0.058 A 
ATOM      3  C   UNL     1      -9.992  -4.916   0.549  1.00  0.00     0.012 A 
ATOM      4  C   UNL     1      -7.287  -5.472   0.070  1.00  0.00     0.157 A 
ATOM      5  C   UNL     1      -9.574  -6.232   0.333  1.00  0.00     0.051 A 
ATOM      6  C   UNL     1      -8.225  -6.516   0.090  1.00  0.00     0.157 A 
ENDROOT
BRANCH   1   7
ATOM      7  C   UNL     1      -9.450  -2.445   0.752  1.00  0.00     0.010 C 
ATOM      8  C   UNL     1      -9.502  -1.517  -0.214  1.00  0.00     0.025 C 
BRANCH   8   9
ATOM      9  C   UNL     1      -9.881  -0.120   0.058  1.00  0.00     0.064 C 
ATOM     10  O   UNL     1     -10.123   0.273   1.231  1.00  0.00    -0.545 OA
ATOM     11  O   UNL     1      -9.974   0.779  -0.995  1.00  0.00    -0.545 OA
ENDBRANCH   8   9
ENDBRANCH   1   7
BRANCH   4  12
ATOM     12  O   UNL     1      -5.935  -5.721  -0.162  1.00  0.00    -0.504 OA
ATOM     13  H   UNL     1      -5.621  -6.336  -0.904  1.00  0.00     0.293 HD
ENDBRANCH   4  12
BRANCH   6  14
ATOM     14  O   UNL     1      -7.813  -7.830  -0.127  1.00  0.00    -0.504 OA
ATOM     15  H   UNL     1      -7.137  -8.063  -0.845  1.00  0.00     0.293 HD
ENDBRANCH   6  14
TORSDOF 4
ENDMDL
MODEL 4
REMARK VINA RESULT:    -4.630     15.025     15.930
REMARK INTER + INTRA:          -5.577
REMARK INTER:                  -5.438
REMARK INTRA:                  -0.140
REMARK UNBOUND:                -0.135
REMARK SMILES O=C([O-])C=Cc1ccc(O)c(O)c1
REMARK SMILES IDX 6 1 13 2 7 3 11 4 8 5 9 6 5 7 4 8 2 9 1 10 3 11 12 12 10 14
REMARK H PARENT 12 13 10 15
REMARK Flexibility Score: inf
ROOT
ATOM      1  C   UNL     1       6.432  -1.335  -1.055  1.00  0.00    -0.022 A 
ATOM      2  C   UNL     1       7.259  -0.198  -1.082  1.00  0.00     0.058 A 
ATOM      3  C   UNL     1       6.825  -2.479  -1.776  1.00  0.00     0.012 A 
ATOM      4  C   UNL     1       8.441  -0.190  -1.832  1.00  0.00     0.157 A 
ATOM      5  C   UNL     1       8.005  -2.472  -2.524  1.00  0.00     0.051 A 
ATOM      6  C   UNL     1       8.816  -1.331  -2.559  1.00  0.00     0.157 A 
ENDROOT
BRANCH   1   7
ATOM      7  C   UNL     1       5.195  -1.293  -0.235  1.00  0.00     0.010 C 
ATOM      8  C   UNL     1       4.337  -2.318  -0.129  1.00  0.00     0.025 C 
BRANCH   8   9
ATOM      9  C   UNL     1       3.112  -2.236   0.685  1.00  0.00     0.064 C 
ATOM     10  O   UNL     1       2.731  -3.209   1.390  1.00  0.00    -0.545 OA
ATOM     11  O   UNL     1       2.364  -1.067   0.675  1.00  0.00    -0.545 OA
ENDBRANCH   8   9
ENDBRANCH   1   7
BRANCH   4  12
ATOM     12  O   UNL     1       9.229   0.960  -1.840  1.00  0.00    -0.504 OA
ATOM     13  H   UNL     1       9.738   1.270  -1.020  1.00  0.00     0.293 HD
ENDBRANCH   4  12
BRANCH   6  14
ATOM     14  O   UNL     1       9.991  -1.328  -3.308  1.00  0.00    -0.504 OA
ATOM     15  H   UNL     1      10.830  -0.865  -2.978  1.00  0.00     0.293 HD
ENDBRANCH   6  14
TORSDOF 4
ENDMDL
MODEL 5
REMARK VINA RESULT:    -4.576      3.063      6.781
REMARK INTER + INTRA:          -5.513
REMARK INTER:                  -5.375
REMARK INTRA:                  -0.138
REMARK UNBOUND:                -0.135
REMARK SMILES O=C([O-])C=Cc1ccc(O)c(O)c1
REMARK SMILES IDX 6 1 13 2 7 3 11 4 8 5 9 6 5 7 4 8 2 9 1 10 3 11 12 12 10 14
REMARK H PARENT 12 13 10 15
REMARK Flexibility Score: inf
ROOT
ATOM      1  C   UNL     1      -6.649  -5.086   1.590  1.00  0.00    -0.022 A 
ATOM      2  C   UNL     1      -6.814  -5.967   2.672  1.00  0.00     0.058 A 
ATOM      3  C   UNL     1      -5.475  -5.171   0.816  1.00  0.00     0.012 A 
ATOM      4  C   UNL     1      -5.820  -6.899   2.996  1.00  0.00     0.157 A 
ATOM      5  C   UNL     1      -4.483  -6.101   1.136  1.00  0.00     0.051 A 
ATOM      6  C   UNL     1      -4.648  -6.966   2.226  1.00  0.00     0.157 A 
ENDROOT
BRANCH   1   7
ATOM      7  C   UNL     1      -7.739  -4.124   1.286  1.00  0.00     0.010 C 
ATOM      8  C   UNL     1      -7.931  -3.575   0.078  1.00  0.00     0.025 C 
BRANCH   8   9
ATOM      9  C   UNL     1      -9.017  -2.615  -0.185  1.00  0.00     0.064 C 
ATOM     10  O   UNL     1      -8.957  -1.813  -1.154  1.00  0.00    -0.545 OA
ATOM     11  O   UNL     1     -10.125  -2.593   0.652  1.00  0.00    -0.545 OA
ENDBRANCH   8   9
ENDBRANCH   1   7
BRANCH   4  12
ATOM     12  O   UNL     1      -6.018  -7.749   4.082  1.00  0.00    -0.504 OA
ATOM     13  H   UNL     1      -6.462  -8.655   3.984  1.00  0.00     0.293 HD
ENDBRANCH   4  12
BRANCH   6  14
ATOM     14  O   UNL     1      -3.655  -7.891   2.543  1.00  0.00    -0.504 OA
ATOM     15  H   UNL     1      -2.759  -7.601   2.917  1.00  0.00     0.293 HD
ENDBRANCH   6  14
TORSDOF 4
ENDMDL
MODEL 6
REMARK VINA RESULT:    -4.559      1.895      6.294
REMARK INTER + INTRA:          -5.494
REMARK INTER:                  -5.367
REMARK INTRA:                  -0.128
REMARK UNBOUND:                -0.135
REMARK SMILES O=C([O-])C=Cc1ccc(O)c(O)c1
REMARK SMILES IDX 6 1 13 2 7 3 11 4 8 5 9 6 5 7 4 8 2 9 1 10 3 11 12 12 10 14
REMARK H PARENT 12 13 10 15
REMARK Flexibility Score: inf
ROOT
ATOM      1  C   UNL     1      -7.846  -4.581   0.583  1.00  0.00    -0.022 A 
ATOM      2  C   UNL     1      -6.459  -4.469   0.781  1.00  0.00     0.058 A 
ATOM      3  C   UNL     1      -8.439  -5.858   0.628  1.00  0.00     0.012 A 
ATOM      4  C   UNL     1      -5.671  -5.606   0.993  1.00  0.00     0.157 A 
ATOM      5  C   UNL     1      -7.654  -6.994   0.841  1.00  0.00     0.051 A 
ATOM      6  C   UNL     1      -6.270  -6.876   1.021  1.00  0.00     0.157 A 
ENDROOT
BRANCH   1   7
ATOM      7  C   UNL     1      -8.635  -3.341   0.372  1.00  0.00     0.010 C 
ATOM      8  C   UNL     1      -8.619  -2.633  -0.766  1.00  0.00     0.025 C 
BRANCH   8   9
ATOM      9  C   UNL     1      -9.406  -1.400  -0.935  1.00  0.00     0.064 C 
ATOM     10  O   UNL     1     -10.101  -0.935   0.008  1.00  0.00    -0.545 OA
ATOM     11  O   UNL     1      -9.385  -0.739  -2.156  1.00  0.00    -0.545 OA
ENDBRANCH   8   9
ENDBRANCH   1   7
BRANCH   4  12
ATOM     12  O   UNL     1      -4.298  -5.453   1.176  1.00  0.00    -0.504 OA
ATOM     13  H   UNL     1      -3.836  -4.559   1.064  1.00  0.00     0.293 HD
ENDBRANCH   4  12
BRANCH   6  14
ATOM     14  O   UNL     1      -5.491  -8.012   1.231  1.00  0.00    -0.504 OA
ATOM     15  H   UNL     1      -5.847  -8.942   1.045  1.00  0.00     0.293 HD
ENDBRANCH   6  14
TORSDOF 4
ENDMDL
MODEL 7
REMARK VINA RESULT:    -4.541      1.665      5.949
REMARK INTER + INTRA:          -5.473
REMARK INTER:                  -5.342
REMARK INTRA:                  -0.131
REMARK UNBOUND:                -0.135
REMARK SMILES O=C([O-])C=Cc1ccc(O)c(O)c1
REMARK SMILES IDX 6 1 13 2 7 3 11 4 8 5 9 6 5 7 4 8 2 9 1 10 3 11 12 12 10 14
REMARK H PARENT 12 13 10 15
REMARK Flexibility Score: inf
ROOT
ATOM      1  C   UNL     1      -8.488  -4.033   0.169  1.00  0.00    -0.022 A 
ATOM      2  C   UNL     1      -7.324  -4.150   0.947  1.00  0.00     0.058 A 
ATOM      3  C   UNL     1      -9.496  -5.008   0.302  1.00  0.00     0.012 A 
ATOM      4  C   UNL     1      -7.153  -5.228   1.824  1.00  0.00     0.157 A 
ATOM      5  C   UNL     1      -9.327  -6.084   1.178  1.00  0.00     0.051 A 
ATOM      6  C   UNL     1      -8.158  -6.201   1.939  1.00  0.00     0.157 A 
ENDROOT
BRANCH   1   7
ATOM      7  C   UNL     1      -8.621  -2.865  -0.737  1.00  0.00     0.010 C 
ATOM      8  C   UNL     1      -9.346  -1.775  -0.445  1.00  0.00     0.025 C 
BRANCH   8   9
ATOM      9  C   UNL     1      -9.465  -0.638  -1.374  1.00  0.00     0.064 C 
ATOM     10  O   UNL     1      -9.227  -0.774  -2.604  1.00  0.00    -0.545 OA
ATOM     11  O   UNL     1      -9.844   0.605  -0.886  1.00  0.00    -0.545 OA
ENDBRANCH   8   9
ENDBRANCH   1   7
BRANCH   4  12
ATOM     12  O   UNL     1      -5.979  -5.312   2.572  1.00  0.00    -0.504 OA
ATOM     13  H   UNL     1      -5.961  -5.713   3.502  1.00  0.00     0.293 HD
ENDBRANCH   4  12
BRANCH   6  14
ATOM     14  O   UNL     1      -7.993  -7.277   2.809  1.00  0.00    -0.504 OA
ATOM     15  H   UNL     1      -8.669  -7.481   3.536  1.00  0.00     0.293 HD
ENDBRANCH   6  14
TORSDOF 4
ENDMDL
MODEL 8
REMARK VINA RESULT:    -4.492     16.691     17.717
REMARK INTER + INTRA:          -5.415
REMARK INTER:                  -5.275
REMARK INTRA:                  -0.141
REMARK UNBOUND:                -0.135
REMARK SMILES O=C([O-])C=Cc1ccc(O)c(O)c1
REMARK SMILES IDX 6 1 13 2 7 3 11 4 8 5 9 6 5 7 4 8 2 9 1 10 3 11 12 12 10 14
REMARK H PARENT 12 13 10 15
REMARK Flexibility Score: inf
ROOT
ATOM      1  C   UNL     1       8.566  -3.474   0.360  1.00  0.00    -0.022 A 
ATOM      2  C   UNL     1       7.930  -3.388  -0.890  1.00  0.00     0.058 A 
ATOM      3  C   UNL     1       8.793  -2.291   1.091  1.00  0.00     0.012 A 
ATOM      4  C   UNL     1       7.549  -2.147  -1.416  1.00  0.00     0.157 A 
ATOM      5  C   UNL     1       8.412  -1.053   0.568  1.00  0.00     0.051 A 
ATOM      6  C   UNL     1       7.793  -0.974  -0.686  1.00  0.00     0.157 A 
ENDROOT
BRANCH   1   7
ATOM      7  C   UNL     1       8.940  -4.815   0.875  1.00  0.00     0.010 C 
ATOM      8  C   UNL     1       9.372  -5.039   2.125  1.00  0.00     0.025 C 
BRANCH   8   9
ATOM      9  C   UNL     1       9.745  -6.383   2.597  1.00  0.00     0.064 C 
ATOM     10  O   UNL     1      10.125  -6.575   3.784  1.00  0.00    -0.545 OA
ATOM     11  O   UNL     1       9.679  -7.458   1.720  1.00  0.00    -0.545 OA
ENDBRANCH   8   9
ENDBRANCH   1   7
BRANCH   4  12
ATOM     12  O   UNL     1       6.929  -2.104  -2.664  1.00  0.00    -0.504 OA
ATOM     13  H   UNL     1       6.399  -2.887  -3.030  1.00  0.00     0.293 HD
ENDBRANCH   4  12
BRANCH   6  14
ATOM     14  O   UNL     1       7.416   0.264  -1.205  1.00  0.00    -0.504 OA
ATOM     15  H   UNL     1       7.559   0.496  -2.180  1.00  0.00     0.293 HD
ENDBRANCH   6  14
TORSDOF 4
ENDMDL
MODEL 9
REMARK VINA RESULT:    -4.390     16.864     17.795
REMARK INTER + INTRA:          -5.295
REMARK INTER:                  -5.164
REMARK INTRA:                  -0.132
REMARK UNBOUND:                -0.135
REMARK SMILES O=C([O-])C=Cc1ccc(O)c(O)c1
REMARK SMILES IDX 6 1 13 2 7 3 11 4 8 5 9 6 5 7 4 8 2 9 1 10 3 11 12 12 10 14
REMARK H PARENT 12 13 10 15
REMARK Flexibility Score: inf
ROOT
ATOM      1  C   UNL     1       8.523  -3.517   0.149  1.00  0.00    -0.022 A 
ATOM      2  C   UNL     1       9.156  -2.374   0.663  1.00  0.00     0.058 A 
ATOM      3  C   UNL     1       7.531  -3.360  -0.839  1.00  0.00     0.012 A 
ATOM      4  C   UNL     1       8.795  -1.094   0.223  1.00  0.00     0.157 A 
ATOM      5  C   UNL     1       7.170  -2.084  -1.280  1.00  0.00     0.051 A 
ATOM      6  C   UNL     1       7.795  -0.948  -0.751  1.00  0.00     0.157 A 
ENDROOT
BRANCH   1   7
ATOM      7  C   UNL     1       8.953  -4.850   0.643  1.00  0.00     0.010 C 
ATOM      8  C   UNL     1       9.278  -5.100   1.920  1.00  0.00     0.025 C 
BRANCH   8   9
ATOM      9  C   UNL     1       9.712  -6.433   2.372  1.00  0.00     0.064 C 
ATOM     10  O   UNL     1       9.713  -7.420   1.588  1.00  0.00    -0.545 OA
ATOM     11  O   UNL     1      10.125  -6.606   3.686  1.00  0.00    -0.545 OA
ENDBRANCH   8   9
ENDBRANCH   1   7
BRANCH   4  12
ATOM     12  O   UNL     1       9.441   0.015   0.765  1.00  0.00    -0.504 OA
ATOM     13  H   UNL     1      10.352  -0.053   1.204  1.00  0.00     0.293 HD
ENDBRANCH   4  12
BRANCH   6  14
ATOM     14  O   UNL     1       7.429   0.323  -1.193  1.00  0.00    -0.504 OA
ATOM     15  H   UNL     1       6.871   0.944  -0.619  1.00  0.00     0.293 HD
ENDBRANCH   6  14
TORSDOF 4
ENDMDL
