MODEL 1
REMARK VINA RESULT:    -5.841      0.000      0.000
REMARK INTER + INTRA:          -6.388
REMARK INTER:                  -6.353
REMARK INTRA:                  -0.035
REMARK UNBOUND:                -0.035
REMARK SMILES O=C([O-])c1ccc(O)cc1
REMARK SMILES IDX 7 1 6 2 9 3 5 4 10 5 4 6 8 7 2 9 1 10 3 11
REMARK H PARENT 8 8
REMARK Flexibility Score: inf
ROOT
ATOM      1  C   UNL     1       9.416  45.908  -6.521  1.00  0.00     0.115 A 
ATOM      2  C   UNL     1       8.179  46.518  -6.765  1.00  0.00     0.047 A 
ATOM      3  C   UNL     1       9.489  44.807  -5.663  1.00  0.00     0.047 A 
ATOM      4  C   UNL     1       7.021  46.027  -6.154  1.00  0.00     0.014 A 
ATOM      5  C   UNL     1       8.333  44.313  -5.050  1.00  0.00     0.014 A 
ATOM      6  C   UNL     1       7.087  44.918  -5.288  1.00  0.00    -0.003 A 
ENDROOT
BRANCH   1   7
ATOM      7  O   UNL     1      10.576  46.388  -7.124  1.00  0.00    -0.508 OA
ATOM      8  H   UNL     1      10.625  46.549  -8.124  1.00  0.00     0.293 HD
ENDBRANCH   1   7
BRANCH   6   9
ATOM      9  C   UNL     1       5.865  44.394  -4.638  1.00  0.00     0.071 C 
ATOM     10  O   UNL     1       5.839  43.222  -4.176  1.00  0.00    -0.545 OA
ATOM     11  O   UNL     1       4.730  45.188  -4.529  1.00  0.00    -0.545 OA
ENDBRANCH   6   9
TORSDOF 2
ENDMDL
MODEL 2
REMARK VINA RESULT:    -5.515     11.927     12.805
REMARK INTER + INTRA:          -6.034
REMARK INTER:                  -6.002
REMARK INTRA:                  -0.032
REMARK UNBOUND:                -0.035
REMARK SMILES O=C([O-])c1ccc(O)cc1
REMARK SMILES IDX 7 1 6 2 9 3 5 4 10 5 4 6 8 7 2 9 1 10 3 11
REMARK H PARENT 8 8
REMARK Flexibility Score: inf
ROOT
ATOM      1  C   UNL     1      -2.868  44.811   0.297  1.00  0.00     0.115 A 
ATOM      2  C   UNL     1      -2.909  43.930   1.385  1.00  0.00     0.047 A 
ATOM      3  C   UNL     1      -2.230  46.048   0.430  1.00  0.00     0.047 A 
ATOM      4  C   UNL     1      -2.315  44.286   2.600  1.00  0.00     0.014 A 
ATOM      5  C   UNL     1      -1.635  46.408   1.644  1.00  0.00     0.014 A 
ATOM      6  C   UNL     1      -1.672  45.530   2.742  1.00  0.00    -0.003 A 
ENDROOT
BRANCH   1   7
ATOM      7  O   UNL     1      -3.455  44.467  -0.919  1.00  0.00    -0.508 OA
ATOM      8  H   UNL     1      -3.038  44.734  -1.803  1.00  0.00     0.293 HD
ENDBRANCH   1   7
BRANCH   6   9
ATOM      9  C   UNL     1      -1.042  45.912   4.025  1.00  0.00     0.071 C 
ATOM     10  O   UNL     1       0.075  46.496   4.041  1.00  0.00    -0.545 OA
ATOM     11  O   UNL     1      -1.675  45.633   5.230  1.00  0.00    -0.545 OA
ENDBRANCH   6   9
TORSDOF 2
ENDMDL
MODEL 3
REMARK VINA RESULT:    -5.498      8.838     11.551
REMARK INTER + INTRA:          -6.015
REMARK INTER:                  -5.983
REMARK INTRA:                  -0.032
REMARK UNBOUND:                -0.035
REMARK SMILES O=C([O-])c1ccc(O)cc1
REMARK SMILES IDX 7 1 6 2 9 3 5 4 10 5 4 6 8 7 2 9 1 10 3 11
REMARK H PARENT 8 8
REMARK Flexibility Score: inf
ROOT
ATOM      1  C   UNL     1      -3.097  44.952   1.586  1.00  0.00     0.115 A 
ATOM      2  C   UNL     1      -3.080  45.735   0.425  1.00  0.00     0.047 A 
ATOM      3  C   UNL     1      -2.017  44.112   1.872  1.00  0.00     0.047 A 
ATOM      4  C   UNL     1      -1.987  45.677  -0.446  1.00  0.00     0.014 A 
ATOM      5  C   UNL     1      -0.923  44.051   1.004  1.00  0.00     0.014 A 
ATOM      6  C   UNL     1      -0.896  44.833  -0.165  1.00  0.00    -0.003 A 
ENDROOT
BRANCH   1   7
ATOM      7  O   UNL     1      -4.181  45.002   2.460  1.00  0.00    -0.508 OA
ATOM      8  H   UNL     1      -5.112  45.238   2.136  1.00  0.00     0.293 HD
ENDBRANCH   1   7
BRANCH   6   9
ATOM      9  C   UNL     1       0.263  44.767  -1.082  1.00  0.00     0.071 C 
ATOM     10  O   UNL     1       1.437  44.701  -0.627  1.00  0.00    -0.545 OA
ATOM     11  O   UNL     1       0.073  44.776  -2.458  1.00  0.00    -0.545 OA
ENDBRANCH   6   9
TORSDOF 2
ENDMDL
MODEL 4
REMARK VINA RESULT:    -5.486      8.851     11.667
REMARK INTER + INTRA:          -6.001
REMARK INTER:                  -5.969
REMARK INTRA:                  -0.032
REMARK UNBOUND:                -0.035
REMARK SMILES O=C([O-])c1ccc(O)cc1
REMARK SMILES IDX 7 1 6 2 9 3 5 4 10 5 4 6 8 7 2 9 1 10 3 11
REMARK H PARENT 8 8
REMARK Flexibility Score: inf
ROOT
ATOM      1  C   UNL     1      -3.121  44.891   1.580  1.00  0.00     0.115 A 
ATOM      2  C   UNL     1      -2.006  44.107   1.901  1.00  0.00     0.047 A 
ATOM      3  C   UNL     1      -3.131  45.629   0.393  1.00  0.00     0.047 A 
ATOM      4  C   UNL     1      -0.906  44.064   1.038  1.00  0.00     0.014 A 
ATOM      5  C   UNL     1      -2.033  45.589  -0.472  1.00  0.00     0.014 A 
ATOM      6  C   UNL     1      -0.908  44.806  -0.158  1.00  0.00    -0.003 A 
ENDROOT
BRANCH   1   7
ATOM      7  O   UNL     1      -4.223  44.941   2.431  1.00  0.00    -0.508 OA
ATOM      8  H   UNL     1      -4.131  44.768   3.426  1.00  0.00     0.293 HD
ENDBRANCH   1   7
BRANCH   6   9
ATOM      9  C   UNL     1       0.253  44.765  -1.074  1.00  0.00     0.071 C 
ATOM     10  O   UNL     1       1.427  44.740  -0.619  1.00  0.00    -0.545 OA
ATOM     11  O   UNL     1       0.063  44.753  -2.451  1.00  0.00    -0.545 OA
ENDBRANCH   6   9
TORSDOF 2
ENDMDL
MODEL 5
REMARK VINA RESULT:    -5.464     11.724     12.768
REMARK INTER + INTRA:          -5.978
REMARK INTER:                  -5.947
REMARK INTRA:                  -0.031
REMARK UNBOUND:                -0.035
REMARK SMILES O=C([O-])c1ccc(O)cc1
REMARK SMILES IDX 7 1 6 2 9 3 5 4 10 5 4 6 8 7 2 9 1 10 3 11
REMARK H PARENT 8 8
REMARK Flexibility Score: inf
ROOT
ATOM      1  C   UNL     1      -2.733  44.840   0.146  1.00  0.00     0.115 A 
ATOM      2  C   UNL     1      -2.038  46.027   0.413  1.00  0.00     0.047 A 
ATOM      3  C   UNL     1      -2.989  43.938   1.183  1.00  0.00     0.047 A 
ATOM      4  C   UNL     1      -1.601  46.308   1.711  1.00  0.00     0.014 A 
ATOM      5  C   UNL     1      -2.553  44.216   2.482  1.00  0.00     0.014 A 
ATOM      6  C   UNL     1      -1.854  45.404   2.760  1.00  0.00    -0.003 A 
ENDROOT
BRANCH   1   7
ATOM      7  O   UNL     1      -3.173  44.550  -1.144  1.00  0.00    -0.508 OA
ATOM      8  H   UNL     1      -4.137  44.699  -1.420  1.00  0.00     0.293 HD
ENDBRANCH   1   7
BRANCH   6   9
ATOM      9  C   UNL     1      -1.394  45.696   4.136  1.00  0.00     0.071 C 
ATOM     10  O   UNL     1      -0.222  46.110   4.345  1.00  0.00    -0.545 OA
ATOM     11  O   UNL     1      -2.249  45.517   5.217  1.00  0.00    -0.545 OA
ENDBRANCH   6   9
TORSDOF 2
ENDMDL
MODEL 6
REMARK VINA RESULT:    -5.438     11.445     13.531
REMARK INTER + INTRA:          -5.950
REMARK INTER:                  -5.917
REMARK INTRA:                  -0.033
REMARK UNBOUND:                -0.035
REMARK SMILES O=C([O-])c1ccc(O)cc1
REMARK SMILES IDX 7 1 6 2 9 3 5 4 10 5 4 6 8 7 2 9 1 10 3 11
REMARK H PARENT 8 8
REMARK Flexibility Score: inf
ROOT
ATOM      1  C   UNL     1      -1.482  44.483   1.494  1.00  0.00     0.115 A 
ATOM      2  C   UNL     1      -2.632  43.888   2.029  1.00  0.00     0.047 A 
ATOM      3  C   UNL     1      -0.796  45.452   2.232  1.00  0.00     0.047 A 
ATOM      4  C   UNL     1      -3.092  44.262   3.295  1.00  0.00     0.014 A 
ATOM      5  C   UNL     1      -1.253  45.829   3.499  1.00  0.00     0.014 A 
ATOM      6  C   UNL     1      -2.407  45.238   4.044  1.00  0.00    -0.003 A 
ENDROOT
BRANCH   1   7
ATOM      7  O   UNL     1      -1.014  44.119   0.234  1.00  0.00    -0.508 OA
ATOM      8  H   UNL     1      -1.612  43.651  -0.438  1.00  0.00     0.293 HD
ENDBRANCH   1   7
BRANCH   6   9
ATOM      9  C   UNL     1      -2.889  45.638   5.384  1.00  0.00     0.071 C 
ATOM     10  O   UNL     1      -2.075  46.010   6.272  1.00  0.00    -0.545 OA
ATOM     11  O   UNL     1      -4.245  45.607   5.682  1.00  0.00    -0.545 OA
ENDBRANCH   6   9
TORSDOF 2
ENDMDL
MODEL 7
REMARK VINA RESULT:    -5.405      9.198     11.895
REMARK INTER + INTRA:          -5.913
REMARK INTER:                  -5.885
REMARK INTRA:                  -0.029
REMARK UNBOUND:                -0.035
REMARK SMILES O=C([O-])c1ccc(O)cc1
REMARK SMILES IDX 7 1 6 2 9 3 5 4 10 5 4 6 8 7 2 9 1 10 3 11
REMARK H PARENT 8 8
REMARK Flexibility Score: inf
ROOT
ATOM      1  C   UNL     1      -2.607  44.738   2.739  1.00  0.00     0.115 A 
ATOM      2  C   UNL     1      -2.445  43.750   1.760  1.00  0.00     0.047 A 
ATOM      3  C   UNL     1      -1.585  45.665   2.965  1.00  0.00     0.047 A 
ATOM      4  C   UNL     1      -1.264  43.689   1.012  1.00  0.00     0.014 A 
ATOM      5  C   UNL     1      -0.404  45.608   2.219  1.00  0.00     0.014 A 
ATOM      6  C   UNL     1      -0.231  44.619   1.235  1.00  0.00    -0.003 A 
ENDROOT
BRANCH   1   7
ATOM      7  O   UNL     1      -3.779  44.808   3.490  1.00  0.00    -0.508 OA
ATOM      8  H   UNL     1      -3.913  44.236   4.315  1.00  0.00     0.293 HD
ENDBRANCH   1   7
BRANCH   6   9
ATOM      9  C   UNL     1       1.020  44.560   0.447  1.00  0.00     0.071 C 
ATOM     10  O   UNL     1       2.130  44.388   1.019  1.00  0.00    -0.545 OA
ATOM     11  O   UNL     1       0.988  44.693  -0.936  1.00  0.00    -0.545 OA
ENDBRANCH   6   9
TORSDOF 2
ENDMDL
MODEL 8
REMARK VINA RESULT:    -5.237      8.967     11.073
REMARK INTER + INTRA:          -5.731
REMARK INTER:                  -5.695
REMARK INTRA:                  -0.036
REMARK UNBOUND:                -0.035
REMARK SMILES O=C([O-])c1ccc(O)cc1
REMARK SMILES IDX 7 1 6 2 9 3 5 4 10 5 4 6 8 7 2 9 1 10 3 11
REMARK H PARENT 8 8
REMARK Flexibility Score: inf
ROOT
ATOM      1  C   UNL     1       0.096  44.830  -0.927  1.00  0.00     0.115 A 
ATOM      2  C   UNL     1      -1.160  45.215  -1.415  1.00  0.00     0.047 A 
ATOM      3  C   UNL     1       0.216  44.359   0.384  1.00  0.00     0.047 A 
ATOM      4  C   UNL     1      -2.288  45.130  -0.594  1.00  0.00     0.014 A 
ATOM      5  C   UNL     1      -0.911  44.273   1.208  1.00  0.00     0.014 A 
ATOM      6  C   UNL     1      -2.175  44.658   0.728  1.00  0.00    -0.003 A 
ENDROOT
BRANCH   1   7
ATOM      7  O   UNL     1       1.227  44.911  -1.736  1.00  0.00    -0.508 OA
ATOM      8  H   UNL     1       1.902  45.658  -1.629  1.00  0.00     0.293 HD
ENDBRANCH   1   7
BRANCH   6   9
ATOM      9  C   UNL     1      -3.366  44.565   1.601  1.00  0.00     0.071 C 
ATOM     10  O   UNL     1      -4.494  44.947   1.189  1.00  0.00    -0.545 OA
ATOM     11  O   UNL     1      -3.256  44.055   2.889  1.00  0.00    -0.545 OA
ENDBRANCH   6   9
TORSDOF 2
ENDMDL
MODEL 9
REMARK VINA RESULT:    -5.175     10.924     12.922
REMARK INTER + INTRA:          -5.664
REMARK INTER:                  -5.632
REMARK INTRA:                  -0.032
REMARK UNBOUND:                -0.035
REMARK SMILES O=C([O-])c1ccc(O)cc1
REMARK SMILES IDX 7 1 6 2 9 3 5 4 10 5 4 6 8 7 2 9 1 10 3 11
REMARK H PARENT 8 8
REMARK Flexibility Score: inf
ROOT
ATOM      1  C   UNL     1      -1.918  45.567   4.495  1.00  0.00     0.115 A 
ATOM      2  C   UNL     1      -0.807  46.040   3.786  1.00  0.00     0.047 A 
ATOM      3  C   UNL     1      -2.951  44.917   3.812  1.00  0.00     0.047 A 
ATOM      4  C   UNL     1      -0.731  45.864   2.400  1.00  0.00     0.014 A 
ATOM      5  C   UNL     1      -2.879  44.739   2.427  1.00  0.00     0.014 A 
ATOM      6  C   UNL     1      -1.767  45.212   1.706  1.00  0.00    -0.003 A 
ENDROOT
BRANCH   1   7
ATOM      7  O   UNL     1      -2.005  45.736   5.875  1.00  0.00    -0.508 OA
ATOM      8  H   UNL     1      -2.874  45.585   6.373  1.00  0.00     0.293 HD
ENDBRANCH   1   7
BRANCH   6   9
ATOM      9  C   UNL     1      -1.692  45.023   0.241  1.00  0.00     0.071 C 
ATOM     10  O   UNL     1      -0.598  44.731  -0.312  1.00  0.00    -0.545 OA
ATOM     11  O   UNL     1      -2.829  45.164  -0.546  1.00  0.00    -0.545 OA
ENDBRANCH   6   9
TORSDOF 2
ENDMDL
