MODEL 1
REMARK VINA RESULT:    -4.944      0.000      0.000
REMARK INTER + INTRA:          -6.002
REMARK INTER:                  -5.667
REMARK INTRA:                  -0.335
REMARK UNBOUND:                -0.335
REMARK SMILES COc1ccc(C(C)=O)c(O)c1
REMARK SMILES IDX 6 1 10 2 12 3 3 4 4 5 5 6 7 7 8 8 9 9 11 10 2 12 1 13
REMARK H PARENT 11 11
REMARK Flexibility Score: inf
ROOT
ATOM      1  C   UNL     1      58.654   0.596  -2.425  1.00  0.00     0.059 A 
ATOM      2  C   UNL     1      57.934   1.014  -1.281  1.00  0.00     0.130 A 
ATOM      3  C   UNL     1      57.280   0.069  -0.478  1.00  0.00     0.093 A 
ATOM      4  C   UNL     1      57.320  -1.292  -0.792  1.00  0.00     0.122 A 
ATOM      5  C   UNL     1      58.029  -1.711  -1.930  1.00  0.00     0.047 A 
ATOM      6  C   UNL     1      58.687  -0.778  -2.735  1.00  0.00     0.019 A 
ENDROOT
BRANCH   1   7
ATOM      7  C   UNL     1      59.368   1.579  -3.291  1.00  0.00     0.163 C 
ATOM      8  C   UNL     1      60.747   1.311  -3.816  1.00  0.00     0.093 C 
ATOM      9  O   UNL     1      58.828   2.681  -3.576  1.00  0.00    -0.294 OA
ENDBRANCH   1   7
BRANCH   2  10
ATOM     10  O   UNL     1      57.857   2.366  -0.942  1.00  0.00    -0.507 OA
ATOM     11  H   UNL     1      57.374   2.680  -0.108  1.00  0.00     0.293 HD
ENDBRANCH   2  10
BRANCH   4  12
ATOM     12  O   UNL     1      56.644  -2.191   0.047  1.00  0.00    -0.497 OA
ATOM     13  C   UNL     1      55.888  -1.810   1.191  1.00  0.00     0.278 C 
ENDBRANCH   4  12
TORSDOF 3
ENDMDL
MODEL 2
REMARK VINA RESULT:    -4.631      2.387      4.304
REMARK INTER + INTRA:          -5.642
REMARK INTER:                  -5.306
REMARK INTRA:                  -0.336
REMARK UNBOUND:                -0.335
REMARK SMILES COc1ccc(C(C)=O)c(O)c1
REMARK SMILES IDX 6 1 10 2 12 3 3 4 4 5 5 6 7 7 8 8 9 9 11 10 2 12 1 13
REMARK H PARENT 11 11
REMARK Flexibility Score: inf
ROOT
ATOM      1  C   UNL     1      59.918  -0.743  -0.972  1.00  0.00     0.059 A 
ATOM      2  C   UNL     1      58.940   0.063  -0.342  1.00  0.00     0.130 A 
ATOM      3  C   UNL     1      58.252   1.038  -1.080  1.00  0.00     0.093 A 
ATOM      4  C   UNL     1      58.520   1.235  -2.436  1.00  0.00     0.122 A 
ATOM      5  C   UNL     1      59.493   0.440  -3.064  1.00  0.00     0.047 A 
ATOM      6  C   UNL     1      60.182  -0.536  -2.340  1.00  0.00     0.019 A 
ENDROOT
BRANCH   1   7
ATOM      7  C   UNL     1      60.658  -1.794  -0.215  1.00  0.00     0.163 C 
ATOM      8  C   UNL     1      62.154  -1.885  -0.249  1.00  0.00     0.093 C 
ATOM      9  O   UNL     1      60.026  -2.656   0.453  1.00  0.00    -0.294 OA
ENDBRANCH   1   7
BRANCH   2  10
ATOM     10  O   UNL     1      58.655  -0.092   1.015  1.00  0.00    -0.507 OA
ATOM     11  H   UNL     1      59.390  -0.156   1.710  1.00  0.00     0.293 HD
ENDBRANCH   2  10
BRANCH   4  12
ATOM     12  O   UNL     1      57.802   2.227  -3.121  1.00  0.00    -0.497 OA
ATOM     13  C   UNL     1      58.315   3.515  -3.442  1.00  0.00     0.278 C 
ENDBRANCH   4  12
TORSDOF 3
ENDMDL
MODEL 3
REMARK VINA RESULT:    -4.592      2.121      3.207
REMARK INTER + INTRA:          -5.598
REMARK INTER:                  -5.261
REMARK INTRA:                  -0.337
REMARK UNBOUND:                -0.335
REMARK SMILES COc1ccc(C(C)=O)c(O)c1
REMARK SMILES IDX 6 1 10 2 12 3 3 4 4 5 5 6 7 7 8 8 9 9 11 10 2 12 1 13
REMARK H PARENT 11 11
REMARK Flexibility Score: inf
ROOT
ATOM      1  C   UNL     1      58.705   0.893  -2.392  1.00  0.00     0.059 A 
ATOM      2  C   UNL     1      58.012  -0.147  -1.729  1.00  0.00     0.130 A 
ATOM      3  C   UNL     1      58.393  -1.483  -1.926  1.00  0.00     0.093 A 
ATOM      4  C   UNL     1      59.452  -1.810  -2.777  1.00  0.00     0.122 A 
ATOM      5  C   UNL     1      60.140  -0.780  -3.439  1.00  0.00     0.047 A 
ATOM      6  C   UNL     1      59.770   0.553  -3.248  1.00  0.00     0.019 A 
ENDROOT
BRANCH   1   7
ATOM      7  C   UNL     1      58.327   2.322  -2.193  1.00  0.00     0.163 C 
ATOM      8  C   UNL     1      58.252   3.284  -3.341  1.00  0.00     0.093 C 
ATOM      9  O   UNL     1      58.091   2.760  -1.035  1.00  0.00    -0.294 OA
ENDBRANCH   1   7
BRANCH   2  10
ATOM     10  O   UNL     1      56.938   0.137  -0.884  1.00  0.00    -0.507 OA
ATOM     11  H   UNL     1      56.962  -0.091   0.103  1.00  0.00     0.293 HD
ENDBRANCH   2  10
BRANCH   4  12
ATOM     12  O   UNL     1      59.787  -3.163  -2.936  1.00  0.00    -0.497 OA
ATOM     13  C   UNL     1      61.068  -3.632  -3.343  1.00  0.00     0.278 C 
ENDBRANCH   4  12
TORSDOF 3
ENDMDL
MODEL 4
REMARK VINA RESULT:    -4.589      1.623      4.517
REMARK INTER + INTRA:          -5.594
REMARK INTER:                  -5.256
REMARK INTRA:                  -0.339
REMARK UNBOUND:                -0.335
REMARK SMILES COc1ccc(C(C)=O)c(O)c1
REMARK SMILES IDX 6 1 10 2 12 3 3 4 4 5 5 6 7 7 8 8 9 9 11 10 2 12 1 13
REMARK H PARENT 11 11
REMARK Flexibility Score: inf
ROOT
ATOM      1  C   UNL     1      58.427  -1.235  -2.062  1.00  0.00     0.059 A 
ATOM      2  C   UNL     1      57.807  -0.059  -1.577  1.00  0.00     0.130 A 
ATOM      3  C   UNL     1      58.216   1.197  -2.047  1.00  0.00     0.093 A 
ATOM      4  C   UNL     1      59.239   1.313  -2.992  1.00  0.00     0.122 A 
ATOM      5  C   UNL     1      59.860   0.148  -3.473  1.00  0.00     0.047 A 
ATOM      6  C   UNL     1      59.458  -1.108  -3.014  1.00  0.00     0.019 A 
ENDROOT
BRANCH   1   7
ATOM      7  C   UNL     1      58.005  -2.584  -1.587  1.00  0.00     0.163 C 
ATOM      8  C   UNL     1      57.766  -3.717  -2.541  1.00  0.00     0.093 C 
ATOM      9  O   UNL     1      57.809  -2.791  -0.360  1.00  0.00    -0.294 OA
ENDBRANCH   1   7
BRANCH   2  10
ATOM     10  O   UNL     1      56.792  -0.132  -0.621  1.00  0.00    -0.507 OA
ATOM     11  H   UNL     1      56.132   0.625  -0.486  1.00  0.00     0.293 HD
ENDBRANCH   2  10
BRANCH   4  12
ATOM     12  O   UNL     1      59.607   2.596  -3.423  1.00  0.00    -0.497 OA
ATOM     13  C   UNL     1      58.760   3.738  -3.363  1.00  0.00     0.278 C 
ENDBRANCH   4  12
TORSDOF 3
ENDMDL
MODEL 5
REMARK VINA RESULT:    -4.564      1.410      2.228
REMARK INTER + INTRA:          -5.566
REMARK INTER:                  -5.254
REMARK INTRA:                  -0.312
REMARK UNBOUND:                -0.335
REMARK SMILES COc1ccc(C(C)=O)c(O)c1
REMARK SMILES IDX 6 1 10 2 12 3 3 4 4 5 5 6 7 7 8 8 9 9 11 10 2 12 1 13
REMARK H PARENT 11 11
REMARK Flexibility Score: inf
ROOT
ATOM      1  C   UNL     1      58.679   0.476  -2.321  1.00  0.00     0.059 A 
ATOM      2  C   UNL     1      58.810  -0.899  -2.628  1.00  0.00     0.130 A 
ATOM      3  C   UNL     1      58.172  -1.861  -1.831  1.00  0.00     0.093 A 
ATOM      4  C   UNL     1      57.407  -1.485  -0.725  1.00  0.00     0.122 A 
ATOM      5  C   UNL     1      57.278  -0.122  -0.414  1.00  0.00     0.047 A 
ATOM      6  C   UNL     1      57.905   0.845  -1.203  1.00  0.00     0.019 A 
ENDROOT
BRANCH   1   7
ATOM      7  C   UNL     1      59.337   1.521  -3.158  1.00  0.00     0.163 C 
ATOM      8  C   UNL     1      58.699   2.858  -3.395  1.00  0.00     0.093 C 
ATOM      9  O   UNL     1      60.443   1.284  -3.712  1.00  0.00    -0.294 OA
ENDBRANCH   1   7
BRANCH   2  10
ATOM     10  O   UNL     1      59.579  -1.316  -3.716  1.00  0.00    -0.507 OA
ATOM     11  H   UNL     1      60.441  -1.835  -3.591  1.00  0.00     0.293 HD
ENDBRANCH   2  10
BRANCH   4  12
ATOM     12  O   UNL     1      56.795  -2.492   0.036  1.00  0.00    -0.497 OA
ATOM     13  C   UNL     1      56.071  -2.263   1.240  1.00  0.00     0.278 C 
ENDBRANCH   4  12
TORSDOF 3
ENDMDL
MODEL 6
REMARK VINA RESULT:    -4.361      1.366      5.131
REMARK INTER + INTRA:          -5.333
REMARK INTER:                  -4.998
REMARK INTRA:                  -0.336
REMARK UNBOUND:                -0.335
REMARK SMILES COc1ccc(C(C)=O)c(O)c1
REMARK SMILES IDX 6 1 10 2 12 3 3 4 4 5 5 6 7 7 8 8 9 9 11 10 2 12 1 13
REMARK H PARENT 11 11
REMARK Flexibility Score: inf
ROOT
ATOM      1  C   UNL     1      57.444  -1.223  -0.201  1.00  0.00     0.059 A 
ATOM      2  C   UNL     1      57.529  -1.812  -1.485  1.00  0.00     0.130 A 
ATOM      3  C   UNL     1      58.104  -1.101  -2.548  1.00  0.00     0.093 A 
ATOM      4  C   UNL     1      58.596   0.194  -2.364  1.00  0.00     0.122 A 
ATOM      5  C   UNL     1      58.509   0.784  -1.092  1.00  0.00     0.047 A 
ATOM      6  C   UNL     1      57.941   0.083  -0.026  1.00  0.00     0.019 A 
ENDROOT
BRANCH   1   7
ATOM      7  C   UNL     1      56.846  -1.961   0.949  1.00  0.00     0.163 C 
ATOM      8  C   UNL     1      55.946  -1.282   1.939  1.00  0.00     0.093 C 
ATOM      9  O   UNL     1      57.115  -3.179   1.130  1.00  0.00    -0.294 OA
ENDBRANCH   1   7
BRANCH   2  10
ATOM     10  O   UNL     1      57.035  -3.097  -1.714  1.00  0.00    -0.507 OA
ATOM     11  H   UNL     1      56.171  -3.254  -2.221  1.00  0.00     0.293 HD
ENDBRANCH   2  10
BRANCH   4  12
ATOM     12  O   UNL     1      59.159   0.857  -3.464  1.00  0.00    -0.497 OA
ATOM     13  C   UNL     1      59.555   2.224  -3.463  1.00  0.00     0.278 C 
ENDBRANCH   4  12
TORSDOF 3
ENDMDL
MODEL 7
REMARK VINA RESULT:    -4.318     10.573     11.802
REMARK INTER + INTRA:          -5.283
REMARK INTER:                  -4.946
REMARK INTRA:                  -0.337
REMARK UNBOUND:                -0.335
REMARK SMILES COc1ccc(C(C)=O)c(O)c1
REMARK SMILES IDX 6 1 10 2 12 3 3 4 4 5 5 6 7 7 8 8 9 9 11 10 2 12 1 13
REMARK H PARENT 11 11
REMARK Flexibility Score: inf
ROOT
ATOM      1  C   UNL     1      50.285  -7.776  -3.132  1.00  0.00     0.059 A 
ATOM      2  C   UNL     1      49.199  -6.872  -3.183  1.00  0.00     0.130 A 
ATOM      3  C   UNL     1      48.142  -6.990  -2.267  1.00  0.00     0.093 A 
ATOM      4  C   UNL     1      48.139  -7.997  -1.299  1.00  0.00     0.122 A 
ATOM      5  C   UNL     1      49.215  -8.899  -1.248  1.00  0.00     0.047 A 
ATOM      6  C   UNL     1      50.273  -8.789  -2.152  1.00  0.00     0.019 A 
ENDROOT
BRANCH   1   7
ATOM      7  C   UNL     1      51.427  -7.668  -4.086  1.00  0.00     0.163 C 
ATOM      8  C   UNL     1      51.879  -8.837  -4.910  1.00  0.00     0.093 C 
ATOM      9  O   UNL     1      52.060  -6.584  -4.196  1.00  0.00    -0.294 OA
ENDBRANCH   1   7
BRANCH   2  10
ATOM     10  O   UNL     1      49.156  -5.862  -4.146  1.00  0.00    -0.507 OA
ATOM     11  H   UNL     1      49.913  -5.196  -4.253  1.00  0.00     0.293 HD
ENDBRANCH   2  10
BRANCH   4  12
ATOM     12  O   UNL     1      47.055  -8.066  -0.412  1.00  0.00    -0.497 OA
ATOM     13  C   UNL     1      46.622  -6.991   0.414  1.00  0.00     0.278 C 
ENDBRANCH   4  12
TORSDOF 3
ENDMDL
MODEL 8
REMARK VINA RESULT:    -4.287      2.408      4.726
REMARK INTER + INTRA:          -5.248
REMARK INTER:                  -4.912
REMARK INTRA:                  -0.336
REMARK UNBOUND:                -0.335
REMARK SMILES COc1ccc(C(C)=O)c(O)c1
REMARK SMILES IDX 6 1 10 2 12 3 3 4 4 5 5 6 7 7 8 8 9 9 11 10 2 12 1 13
REMARK H PARENT 11 11
REMARK Flexibility Score: inf
ROOT
ATOM      1  C   UNL     1      59.389  -0.788  -0.854  1.00  0.00     0.059 A 
ATOM      2  C   UNL     1      59.887  -0.528  -2.153  1.00  0.00     0.130 A 
ATOM      3  C   UNL     1      59.366   0.534  -2.906  1.00  0.00     0.093 A 
ATOM      4  C   UNL     1      58.349   1.345  -2.397  1.00  0.00     0.122 A 
ATOM      5  C   UNL     1      57.848   1.088  -1.110  1.00  0.00     0.047 A 
ATOM      6  C   UNL     1      58.363   0.035  -0.350  1.00  0.00     0.019 A 
ENDROOT
BRANCH   1   7
ATOM      7  C   UNL     1      59.932  -1.904  -0.027  1.00  0.00     0.163 C 
ATOM      8  C   UNL     1      60.370  -1.692   1.392  1.00  0.00     0.093 C 
ATOM      9  O   UNL     1      60.062  -3.055  -0.523  1.00  0.00    -0.294 OA
ENDBRANCH   1   7
BRANCH   2  10
ATOM     10  O   UNL     1      60.891  -1.326  -2.703  1.00  0.00    -0.507 OA
ATOM     11  H   UNL     1      61.336  -2.066  -2.172  1.00  0.00     0.293 HD
ENDBRANCH   2  10
BRANCH   4  12
ATOM     12  O   UNL     1      57.865   2.391  -3.198  1.00  0.00    -0.497 OA
ATOM     13  C   UNL     1      58.567   3.605  -3.445  1.00  0.00     0.278 C 
ENDBRANCH   4  12
TORSDOF 3
ENDMDL
MODEL 9
REMARK VINA RESULT:    -4.188      2.322      2.588
REMARK INTER + INTRA:          -5.135
REMARK INTER:                  -4.826
REMARK INTRA:                  -0.309
REMARK UNBOUND:                -0.335
REMARK SMILES COc1ccc(C(C)=O)c(O)c1
REMARK SMILES IDX 6 1 10 2 12 3 3 4 4 5 5 6 7 7 8 8 9 9 11 10 2 12 1 13
REMARK H PARENT 11 11
REMARK Flexibility Score: inf
ROOT
ATOM      1  C   UNL     1      58.869  -0.030  -1.289  1.00  0.00     0.059 A 
ATOM      2  C   UNL     1      57.855  -0.629  -0.505  1.00  0.00     0.130 A 
ATOM      3  C   UNL     1      58.179  -1.642   0.409  1.00  0.00     0.093 A 
ATOM      4  C   UNL     1      59.497  -2.081   0.559  1.00  0.00     0.122 A 
ATOM      5  C   UNL     1      60.506  -1.492  -0.220  1.00  0.00     0.047 A 
ATOM      6  C   UNL     1      60.195  -0.480  -1.131  1.00  0.00     0.019 A 
ENDROOT
BRANCH   1   7
ATOM      7  C   UNL     1      58.555   1.056  -2.261  1.00  0.00     0.163 C 
ATOM      8  C   UNL     1      59.337   1.231  -3.529  1.00  0.00     0.093 C 
ATOM      9  O   UNL     1      57.631   1.878  -2.016  1.00  0.00    -0.294 OA
ENDBRANCH   1   7
BRANCH   2  10
ATOM     10  O   UNL     1      56.524  -0.230  -0.637  1.00  0.00    -0.507 OA
ATOM     11  H   UNL     1      56.144   0.075  -1.525  1.00  0.00     0.293 HD
ENDBRANCH   2  10
BRANCH   4  12
ATOM     12  O   UNL     1      59.760  -3.099   1.488  1.00  0.00    -0.497 OA
ATOM     13  C   UNL     1      59.852  -2.900   2.894  1.00  0.00     0.278 C 
ENDBRANCH   4  12
TORSDOF 3
ENDMDL
