MODEL 1
REMARK VINA RESULT:    -4.319      0.000      0.000
REMARK INTER + INTRA:          -5.700
REMARK INTER:                  -5.582
REMARK INTRA:                  -0.118
REMARK UNBOUND:                -0.118
REMARK SMILES CCCCCCC(=O)[O-]
REMARK SMILES IDX 5 1 6 2 7 3 8 4 9 5 4 6 3 7 2 8 1 9
REMARK H PARENT
REMARK Flexibility Score: inf
ROOT
ATOM      1  C   UNL     1      22.120   0.116  26.052  1.00  0.00     0.006 C 
ENDROOT
BRANCH   1   2
ATOM      2  C   UNL     1      23.512  -0.233  25.499  1.00  0.00     0.053 C 
BRANCH   2   3
ATOM      3  C   UNL     1      24.583   0.628  26.095  1.00  0.00     0.041 C 
ATOM      4  O   UNL     1      25.386   0.147  26.936  1.00  0.00    -0.550 OA
ATOM      5  O   UNL     1      24.674   1.969  25.745  1.00  0.00    -0.550 OA
ENDBRANCH   2   3
ENDBRANCH   1   2
BRANCH   1   6
ATOM      6  C   UNL     1      21.383  -1.067  26.708  1.00  0.00     0.000 C 
BRANCH   6   7
ATOM      7  C   UNL     1      20.889  -0.746  28.126  1.00  0.00    -0.000 C 
BRANCH   7   8
ATOM      8  C   UNL     1      21.036  -1.966  29.045  1.00  0.00    -0.003 C 
ATOM      9  C   UNL     1      22.017  -1.685  30.180  1.00  0.00     0.004 C 
ENDBRANCH   7   8
ENDBRANCH   6   7
ENDBRANCH   1   6
TORSDOF 5
ENDMDL
MODEL 2
REMARK VINA RESULT:    -4.199      2.541      4.647
REMARK INTER + INTRA:          -5.544
REMARK INTER:                  -5.418
REMARK INTRA:                  -0.126
REMARK UNBOUND:                -0.118
REMARK SMILES CCCCCCC(=O)[O-]
REMARK SMILES IDX 5 1 6 2 7 3 8 4 9 5 4 6 3 7 2 8 1 9
REMARK H PARENT
REMARK Flexibility Score: inf
ROOT
ATOM      1  C   UNL     1      21.191  -1.949  28.220  1.00  0.00     0.006 C 
ENDROOT
BRANCH   1   2
ATOM      2  C   UNL     1      21.194  -1.633  29.725  1.00  0.00     0.053 C 
BRANCH   2   3
ATOM      3  C   UNL     1      22.464  -2.069  30.388  1.00  0.00     0.041 C 
ATOM      4  O   UNL     1      23.421  -1.261  30.517  1.00  0.00    -0.550 OA
ATOM      5  O   UNL     1      22.603  -3.378  30.833  1.00  0.00    -0.550 OA
ENDBRANCH   2   3
ENDBRANCH   1   2
BRANCH   1   6
ATOM      6  C   UNL     1      21.035  -0.714  27.313  1.00  0.00     0.000 C 
BRANCH   6   7
ATOM      7  C   UNL     1      21.920  -0.781  26.060  1.00  0.00    -0.000 C 
BRANCH   7   8
ATOM      8  C   UNL     1      22.778   0.483  25.929  1.00  0.00    -0.003 C 
ATOM      9  C   UNL     1      24.263   0.135  25.858  1.00  0.00     0.004 C 
ENDBRANCH   7   8
ENDBRANCH   6   7
ENDBRANCH   1   6
TORSDOF 5
ENDMDL
MODEL 3
REMARK VINA RESULT:    -3.987      8.244      9.850
REMARK INTER + INTRA:          -5.271
REMARK INTER:                  -5.070
REMARK INTRA:                  -0.201
REMARK UNBOUND:                -0.118
REMARK SMILES CCCCCCC(=O)[O-]
REMARK SMILES IDX 5 1 6 2 7 3 8 4 9 5 4 6 3 7 2 8 1 9
REMARK H PARENT
REMARK Flexibility Score: inf
ROOT
ATOM      1  C   UNL     1      28.347   6.775  30.047  1.00  0.00     0.006 C 
ENDROOT
BRANCH   1   2
ATOM      2  C   UNL     1      27.347   5.753  30.612  1.00  0.00     0.053 C 
BRANCH   2   3
ATOM      3  C   UNL     1      27.839   4.347  30.466  1.00  0.00     0.041 C 
ATOM      4  O   UNL     1      28.314   3.735  31.459  1.00  0.00    -0.550 OA
ATOM      5  O   UNL     1      27.804   3.722  29.225  1.00  0.00    -0.550 OA
ENDBRANCH   2   3
ENDBRANCH   1   2
BRANCH   1   6
ATOM      6  C   UNL     1      27.956   8.245  30.286  1.00  0.00     0.000 C 
BRANCH   6   7
ATOM      7  C   UNL     1      26.591   8.393  30.975  1.00  0.00    -0.000 C 
BRANCH   7   8
ATOM      8  C   UNL     1      25.891   9.683  30.530  1.00  0.00    -0.003 C 
ATOM      9  C   UNL     1      26.340  10.099  29.132  1.00  0.00     0.004 C 
ENDBRANCH   7   8
ENDBRANCH   6   7
ENDBRANCH   1   6
TORSDOF 5
ENDMDL
MODEL 4
REMARK VINA RESULT:    -3.911      9.094     10.311
REMARK INTER + INTRA:          -5.172
REMARK INTER:                  -4.824
REMARK INTRA:                  -0.348
REMARK UNBOUND:                -0.118
REMARK SMILES CCCCCCC(=O)[O-]
REMARK SMILES IDX 5 1 6 2 7 3 8 4 9 5 4 6 3 7 2 8 1 9
REMARK H PARENT
REMARK Flexibility Score: inf
ROOT
ATOM      1  C   UNL     1      28.778  -7.772  31.559  1.00  0.00     0.006 C 
ENDROOT
BRANCH   1   2
ATOM      2  C   UNL     1      29.238  -6.425  30.980  1.00  0.00     0.053 C 
BRANCH   2   3
ATOM      3  C   UNL     1      28.096  -5.639  30.414  1.00  0.00     0.041 C 
ATOM      4  O   UNL     1      27.233  -6.205  29.692  1.00  0.00    -0.550 OA
ATOM      5  O   UNL     1      28.002  -4.274  30.657  1.00  0.00    -0.550 OA
ENDBRANCH   2   3
ENDBRANCH   1   2
BRANCH   1   6
ATOM      6  C   UNL     1      29.573  -8.988  31.045  1.00  0.00     0.000 C 
BRANCH   6   7
ATOM      7  C   UNL     1      28.673 -10.066  30.422  1.00  0.00    -0.000 C 
BRANCH   7   8
ATOM      8  C   UNL     1      28.179  -9.630  29.037  1.00  0.00    -0.003 C 
ATOM      9  C   UNL     1      29.324  -9.078  28.192  1.00  0.00     0.004 C 
ENDBRANCH   7   8
ENDBRANCH   6   7
ENDBRANCH   1   6
TORSDOF 5
ENDMDL
MODEL 5
REMARK VINA RESULT:    -3.906      7.203      8.959
REMARK INTER + INTRA:          -5.166
REMARK INTER:                  -5.037
REMARK INTRA:                  -0.129
REMARK UNBOUND:                -0.118
REMARK SMILES CCCCCCC(=O)[O-]
REMARK SMILES IDX 5 1 6 2 7 3 8 4 9 5 4 6 3 7 2 8 1 9
REMARK H PARENT
REMARK Flexibility Score: inf
ROOT
ATOM      1  C   UNL     1      27.801   4.817  30.710  1.00  0.00     0.006 C 
ENDROOT
BRANCH   1   2
ATOM      2  C   UNL     1      27.743   3.883  29.491  1.00  0.00     0.053 C 
BRANCH   2   3
ATOM      3  C   UNL     1      27.827   2.441  29.885  1.00  0.00     0.041 C 
ATOM      4  O   UNL     1      27.275   1.557  29.177  1.00  0.00    -0.550 OA
ATOM      5  O   UNL     1      28.487   2.075  31.051  1.00  0.00    -0.550 OA
ENDBRANCH   2   3
ENDBRANCH   1   2
BRANCH   1   6
ATOM      6  C   UNL     1      27.232   6.226  30.457  1.00  0.00     0.000 C 
BRANCH   6   7
ATOM      7  C   UNL     1      28.314   7.241  30.057  1.00  0.00    -0.000 C 
BRANCH   7   8
ATOM      8  C   UNL     1      27.892   8.666  30.434  1.00  0.00    -0.003 C 
ATOM      9  C   UNL     1      26.430   8.711  30.868  1.00  0.00     0.004 C 
ENDBRANCH   7   8
ENDBRANCH   6   7
ENDBRANCH   1   6
TORSDOF 5
ENDMDL
MODEL 6
REMARK VINA RESULT:    -3.900      8.362      9.394
REMARK INTER + INTRA:          -5.158
REMARK INTER:                  -4.932
REMARK INTRA:                  -0.226
REMARK UNBOUND:                -0.118
REMARK SMILES CCCCCCC(=O)[O-]
REMARK SMILES IDX 5 1 6 2 7 3 8 4 9 5 4 6 3 7 2 8 1 9
REMARK H PARENT
REMARK Flexibility Score: inf
ROOT
ATOM      1  C   UNL     1      28.901  -6.460  29.239  1.00  0.00     0.006 C 
ENDROOT
BRANCH   1   2
ATOM      2  C   UNL     1      27.592  -6.090  29.957  1.00  0.00     0.053 C 
BRANCH   2   3
ATOM      3  C   UNL     1      27.546  -4.640  30.329  1.00  0.00     0.041 C 
ATOM      4  O   UNL     1      26.452  -4.099  30.636  1.00  0.00    -0.550 OA
ATOM      5  O   UNL     1      28.708  -3.878  30.304  1.00  0.00    -0.550 OA
ENDBRANCH   2   3
ENDBRANCH   1   2
BRANCH   1   6
ATOM      6  C   UNL     1      29.025  -7.951  28.874  1.00  0.00     0.000 C 
BRANCH   6   7
ATOM      7  C   UNL     1      28.406  -8.875  29.933  1.00  0.00    -0.000 C 
BRANCH   7   8
ATOM      8  C   UNL     1      29.380  -9.105  31.095  1.00  0.00    -0.003 C 
ATOM      9  C   UNL     1      28.647  -9.118  32.433  1.00  0.00     0.004 C 
ENDBRANCH   7   8
ENDBRANCH   6   7
ENDBRANCH   1   6
TORSDOF 5
ENDMDL
MODEL 7
REMARK VINA RESULT:    -3.895      9.236     10.280
REMARK INTER + INTRA:          -5.151
REMARK INTER:                  -4.783
REMARK INTRA:                  -0.368
REMARK UNBOUND:                -0.118
REMARK SMILES CCCCCCC(=O)[O-]
REMARK SMILES IDX 5 1 6 2 7 3 8 4 9 5 4 6 3 7 2 8 1 9
REMARK H PARENT
REMARK Flexibility Score: inf
ROOT
ATOM      1  C   UNL     1      28.967  -7.591  28.865  1.00  0.00     0.006 C 
ENDROOT
BRANCH   1   2
ATOM      2  C   UNL     1      28.032  -6.718  29.718  1.00  0.00     0.053 C 
BRANCH   2   3
ATOM      3  C   UNL     1      28.766  -5.593  30.381  1.00  0.00     0.041 C 
ATOM      4  O   UNL     1      28.218  -4.466  30.507  1.00  0.00    -0.550 OA
ATOM      5  O   UNL     1      30.067  -5.780  30.831  1.00  0.00    -0.550 OA
ENDBRANCH   2   3
ENDBRANCH   1   2
BRANCH   1   6
ATOM      6  C   UNL     1      28.986  -9.078  29.265  1.00  0.00     0.000 C 
BRANCH   6   7
ATOM      7  C   UNL     1      29.848  -9.349  30.507  1.00  0.00    -0.000 C 
BRANCH   7   8
ATOM      8  C   UNL     1      29.018 -10.008  31.615  1.00  0.00    -0.003 C 
ATOM      9  C   UNL     1      28.527  -8.974  32.624  1.00  0.00     0.004 C 
ENDBRANCH   7   8
ENDBRANCH   6   7
ENDBRANCH   1   6
TORSDOF 5
ENDMDL
MODEL 8
REMARK VINA RESULT:    -3.840      9.664     10.833
REMARK INTER + INTRA:          -5.081
REMARK INTER:                  -4.786
REMARK INTRA:                  -0.295
REMARK UNBOUND:                -0.118
REMARK SMILES CCCCCCC(=O)[O-]
REMARK SMILES IDX 5 1 6 2 7 3 8 4 9 5 4 6 3 7 2 8 1 9
REMARK H PARENT
REMARK Flexibility Score: inf
ROOT
ATOM      1  C   UNL     1      28.788  -7.834  29.329  1.00  0.00     0.006 C 
ENDROOT
BRANCH   1   2
ATOM      2  C   UNL     1      28.297  -9.085  30.075  1.00  0.00     0.053 C 
BRANCH   2   3
ATOM      3  C   UNL     1      29.115  -9.366  31.298  1.00  0.00     0.041 C 
ATOM      4  O   UNL     1      30.176 -10.037  31.208  1.00  0.00    -0.550 OA
ATOM      5  O   UNL     1      28.688  -8.915  32.540  1.00  0.00    -0.550 OA
ENDBRANCH   2   3
ENDBRANCH   1   2
BRANCH   1   6
ATOM      6  C   UNL     1      27.964  -6.564  29.608  1.00  0.00     0.000 C 
BRANCH   6   7
ATOM      7  C   UNL     1      28.486  -5.769  30.814  1.00  0.00    -0.000 C 
BRANCH   7   8
ATOM      8  C   UNL     1      29.995  -5.521  30.693  1.00  0.00    -0.003 C 
ATOM      9  C   UNL     1      30.279  -4.208  29.968  1.00  0.00     0.004 C 
ENDBRANCH   7   8
ENDBRANCH   6   7
ENDBRANCH   1   6
TORSDOF 5
ENDMDL
MODEL 9
REMARK VINA RESULT:    -3.796      8.153      9.077
REMARK INTER + INTRA:          -5.023
REMARK INTER:                  -4.832
REMARK INTRA:                  -0.191
REMARK UNBOUND:                -0.118
REMARK SMILES CCCCCCC(=O)[O-]
REMARK SMILES IDX 5 1 6 2 7 3 8 4 9 5 4 6 3 7 2 8 1 9
REMARK H PARENT
REMARK Flexibility Score: inf
ROOT
ATOM      1  C   UNL     1      29.568  -5.606  30.416  1.00  0.00     0.006 C 
ENDROOT
BRANCH   1   2
ATOM      2  C   UNL     1      30.038  -4.226  29.928  1.00  0.00     0.053 C 
BRANCH   2   3
ATOM      3  C   UNL     1      28.948  -3.202  30.008  1.00  0.00     0.041 C 
ATOM      4  O   UNL     1      29.033  -2.134  29.347  1.00  0.00    -0.550 OA
ATOM      5  O   UNL     1      27.853  -3.413  30.837  1.00  0.00    -0.550 OA
ENDBRANCH   2   3
ENDBRANCH   1   2
BRANCH   1   6
ATOM      6  C   UNL     1      28.821  -6.434  29.354  1.00  0.00     0.000 C 
BRANCH   6   7
ATOM      7  C   UNL     1      28.481  -7.852  29.837  1.00  0.00    -0.000 C 
BRANCH   7   8
ATOM      8  C   UNL     1      28.730  -7.990  31.344  1.00  0.00    -0.003 C 
ATOM      9  C   UNL     1      29.362  -9.340  31.676  1.00  0.00     0.004 C 
ENDBRANCH   7   8
ENDBRANCH   6   7
ENDBRANCH   1   6
TORSDOF 5
ENDMDL
