MODEL 1
REMARK VINA RESULT:    -3.785      0.000      0.000
REMARK INTER + INTRA:          -6.070
REMARK INTER:                  -5.776
REMARK INTRA:                  -0.294
REMARK UNBOUND:                -0.294
REMARK SMILES CC1=CCC[C@@H](C)C(=O)C[C@H](C(C)C)C(=O)C1
REMARK SMILES IDX 8 1 9 2 6 3 7 4 5 5 4 6 3 7 2 8 1 9 10 11 11 12 15 13 16 14
REMARK SMILES IDX 17 15 12 17 13 18 14 19
REMARK H PARENT
REMARK Flexibility Score: 70.00
ROOT
ATOM      1  C   UNL     1       1.359   4.829  63.056  1.00  0.00     0.136 C 
ATOM      2  O   UNL     1       1.879   4.576  64.132  1.00  0.00    -0.299 OA
ENDROOT
BRANCH   1   3
ATOM      3  C   UNL     1       2.240   4.880  61.818  1.00  0.00     0.053 C 
ATOM      4  C   UNL     1       3.660   4.388  62.128  1.00  0.00     0.016 C 
BRANCH   3   5
ATOM      5  C   UNL     1       2.263   6.289  61.193  1.00  0.00     0.015 C 
BRANCH   5   6
ATOM      6  C   UNL     1       2.621   7.358  62.241  1.00  0.00     0.028 C 
BRANCH   6   7
ATOM      7  C   UNL     1       1.686   8.541  62.258  1.00  0.00    -0.028 C 
ATOM      8  C   UNL     1       0.641   8.735  63.103  1.00  0.00    -0.070 CG0
ATOM      9  C   UNL     1      -0.260   9.914  62.817  1.00  0.00     0.039 C 
ATOM     10  G   UNL     1       0.382   7.932  64.375  1.00  0.00     0.000 G0
ENDBRANCH   6   7
ENDBRANCH   5   6
ENDBRANCH   3   5
ENDBRANCH   1   3
BRANCH   1  11
ATOM     11  C   UNL     1      -0.130   5.115  62.997  1.00  0.00     0.087 C 
BRANCH  11  12
ATOM     12  C   UNL     1      -0.786   5.588  64.327  1.00  0.00     0.066 C 
BRANCH  12  13
ATOM     13  C   UNL     1      -0.889   7.103  64.452  1.00  0.00     0.140 C 
ATOM     14  O   UNL     1      -1.963   7.638  64.688  1.00  0.00    -0.299 OA
BRANCH  13  15
ATOM     15  C   UNL     1       0.372   7.933  64.413  1.00  0.00     0.106 CG0
ATOM     16  G   UNL     1       0.610   8.727  63.131  1.00  0.00     0.000 G0
ENDBRANCH  13  15
ENDBRANCH  12  13
BRANCH  12  17
ATOM     17  C   UNL     1      -2.074   4.797  64.728  1.00  0.00    -0.006 C 
ATOM     18  C   UNL     1      -2.848   4.306  63.492  1.00  0.00     0.008 C 
ATOM     19  C   UNL     1      -1.840   3.638  65.708  1.00  0.00     0.008 C 
ENDBRANCH  12  17
ENDBRANCH  11  12
ENDBRANCH   1  11
TORSDOF 1
ENDMDL
MODEL 2
REMARK VINA RESULT:    -3.243     14.213     16.130
REMARK INTER + INTRA:          -5.243
REMARK INTER:                  -4.798
REMARK INTRA:                  -0.445
REMARK UNBOUND:                -0.294
REMARK SMILES CC1=CCC[C@@H](C)C(=O)C[C@H](C(C)C)C(=O)C1
REMARK SMILES IDX 8 1 9 2 6 3 7 4 5 5 4 6 3 7 2 8 1 9 10 11 11 12 15 13 16 14
REMARK SMILES IDX 17 15 12 17 13 18 14 19
REMARK H PARENT
REMARK Flexibility Score: 70.00
ROOT
ATOM      1  C   UNL     1       5.394  16.879  72.467  1.00  0.00     0.136 C 
ATOM      2  O   UNL     1       6.184  17.186  71.589  1.00  0.00    -0.299 OA
ENDROOT
BRANCH   1   3
ATOM      3  C   UNL     1       4.302  15.871  72.141  1.00  0.00     0.053 C 
ATOM      4  C   UNL     1       4.900  14.545  71.655  1.00  0.00     0.016 C 
BRANCH   3   5
ATOM      5  C   UNL     1       3.293  16.435  71.120  1.00  0.00     0.015 C 
BRANCH   5   6
ATOM      6  C   UNL     1       2.171  17.220  71.823  1.00  0.00     0.028 C 
BRANCH   6   7
ATOM      7  C   UNL     1       1.683  16.586  73.101  1.00  0.00    -0.028 C 
ATOM      8  C   UNL     1       1.790  17.100  74.353  1.00  0.00    -0.070 CG0
ATOM      9  C   UNL     1       1.383  16.204  75.499  1.00  0.00     0.039 C 
ATOM     10  G   UNL     1       2.171  18.543  74.677  1.00  0.00     0.000 G0
ENDBRANCH   6   7
ENDBRANCH   5   6
ENDBRANCH   3   5
ENDBRANCH   1   3
BRANCH   1  11
ATOM     11  C   UNL     1       5.505  17.532  73.832  1.00  0.00     0.087 C 
BRANCH  11  12
ATOM     12  C   UNL     1       4.709  18.856  74.019  1.00  0.00     0.066 C 
BRANCH  12  13
ATOM     13  C   UNL     1       3.627  18.772  75.089  1.00  0.00     0.140 C 
ATOM     14  O   UNL     1       3.891  18.991  76.262  1.00  0.00    -0.299 OA
BRANCH  13  15
ATOM     15  C   UNL     1       2.194  18.545  74.670  1.00  0.00     0.106 CG0
ATOM     16  G   UNL     1       1.811  17.102  74.351  1.00  0.00     0.000 G0
ENDBRANCH  13  15
ENDBRANCH  12  13
BRANCH  12  17
ATOM     17  C   UNL     1       5.599  20.141  74.071  1.00  0.00    -0.006 C 
ATOM     18  C   UNL     1       7.047  19.815  74.474  1.00  0.00     0.008 C 
ATOM     19  C   UNL     1       5.577  20.993  72.794  1.00  0.00     0.008 C 
ENDBRANCH  12  17
ENDBRANCH  11  12
ENDBRANCH   1  11
TORSDOF 1
ENDMDL
MODEL 3
REMARK VINA RESULT:    -2.977     13.177     14.718
REMARK INTER + INTRA:          -4.837
REMARK INTER:                  -4.450
REMARK INTRA:                  -0.387
REMARK UNBOUND:                -0.294
REMARK SMILES CC1=CCC[C@@H](C)C(=O)C[C@H](C(C)C)C(=O)C1
REMARK SMILES IDX 8 1 9 2 6 3 7 4 5 5 4 6 3 7 2 8 1 9 10 11 11 12 15 13 16 14
REMARK SMILES IDX 17 15 12 17 13 18 14 19
REMARK H PARENT
REMARK Flexibility Score: 70.00
ROOT
ATOM      1  C   UNL     1       2.151  15.220  72.034  1.00  0.00     0.136 C 
ATOM      2  O   UNL     1       1.802  14.121  72.435  1.00  0.00    -0.299 OA
ENDROOT
BRANCH   1   3
ATOM      3  C   UNL     1       3.484  15.339  71.311  1.00  0.00     0.053 C 
ATOM      4  C   UNL     1       3.673  14.195  70.307  1.00  0.00     0.016 C 
BRANCH   3   5
ATOM      5  C   UNL     1       4.664  15.412  72.301  1.00  0.00     0.015 C 
BRANCH   5   6
ATOM      6  C   UNL     1       5.341  16.794  72.258  1.00  0.00     0.028 C 
BRANCH   6   7
ATOM      7  C   UNL     1       5.279  17.550  73.561  1.00  0.00    -0.028 C 
ATOM      8  C   UNL     1       4.392  18.524  73.891  1.00  0.00    -0.070 CG0
ATOM      9  C   UNL     1       4.634  19.259  75.190  1.00  0.00     0.039 C 
ATOM     10  G   UNL     1       3.115  18.844  73.118  1.00  0.00     0.000 G0
ENDBRANCH   6   7
ENDBRANCH   5   6
ENDBRANCH   3   5
ENDBRANCH   1   3
BRANCH   1  11
ATOM     11  C   UNL     1       1.268  16.425  72.297  1.00  0.00     0.087 C 
BRANCH  11  12
ATOM     12  C   UNL     1       1.344  17.025  73.731  1.00  0.00     0.066 C 
BRANCH  12  13
ATOM     13  C   UNL     1       1.801  18.479  73.761  1.00  0.00     0.140 C 
ATOM     14  O   UNL     1       1.176  19.316  74.396  1.00  0.00    -0.299 OA
BRANCH  13  15
ATOM     15  C   UNL     1       3.108  18.854  73.106  1.00  0.00     0.106 CG0
ATOM     16  G   UNL     1       4.371  18.537  73.903  1.00  0.00     0.000 G0
ENDBRANCH  13  15
ENDBRANCH  12  13
BRANCH  12  17
ATOM     17  C   UNL     1       0.112  16.695  74.635  1.00  0.00    -0.006 C 
ATOM     18  C   UNL     1      -1.204  16.727  73.838  1.00  0.00     0.008 C 
ATOM     19  C   UNL     1       0.226  15.385  75.428  1.00  0.00     0.008 C 
ENDBRANCH  12  17
ENDBRANCH  11  12
ENDBRANCH   1  11
TORSDOF 1
ENDMDL
MODEL 4
REMARK VINA RESULT:    -2.929     11.221     13.282
REMARK INTER + INTRA:          -4.764
REMARK INTER:                  -4.355
REMARK INTRA:                  -0.409
REMARK UNBOUND:                -0.294
REMARK SMILES CC1=CCC[C@@H](C)C(=O)C[C@H](C(C)C)C(=O)C1
REMARK SMILES IDX 8 1 9 2 6 3 7 4 5 5 4 6 3 7 2 8 1 9 10 11 11 12 15 13 16 14
REMARK SMILES IDX 17 15 12 17 13 18 14 19
REMARK H PARENT
REMARK Flexibility Score: 70.00
ROOT
ATOM      1  C   UNL     1      -0.256  13.006  72.155  1.00  0.00     0.136 C 
ATOM      2  O   UNL     1      -0.967  12.687  71.214  1.00  0.00    -0.299 OA
ENDROOT
BRANCH   1   3
ATOM      3  C   UNL     1      -0.911  13.274  73.501  1.00  0.00     0.053 C 
ATOM      4  C   UNL     1      -2.065  14.276  73.365  1.00  0.00     0.016 C 
BRANCH   3   5
ATOM      5  C   UNL     1       0.115  13.744  74.551  1.00  0.00     0.015 C 
BRANCH   5   6
ATOM      6  C   UNL     1       0.007  15.260  74.795  1.00  0.00     0.028 C 
BRANCH   6   7
ATOM      7  C   UNL     1       1.264  15.887  75.344  1.00  0.00    -0.028 C 
ATOM      8  C   UNL     1       2.348  16.286  74.631  1.00  0.00    -0.070 CG0
ATOM      9  C   UNL     1       3.560  16.728  75.417  1.00  0.00     0.039 C 
ATOM     10  G   UNL     1       2.389  16.437  73.112  1.00  0.00     0.000 G0
ENDBRANCH   6   7
ENDBRANCH   5   6
ENDBRANCH   3   5
ENDBRANCH   1   3
BRANCH   1  11
ATOM     11  C   UNL     1       1.239  13.156  71.943  1.00  0.00     0.087 C 
BRANCH  11  12
ATOM     12  C   UNL     1       1.718  14.544  71.429  1.00  0.00     0.066 C 
BRANCH  12  13
ATOM     13  C   UNL     1       2.768  15.197  72.321  1.00  0.00     0.140 C 
ATOM     14  O   UNL     1       3.920  14.789  72.330  1.00  0.00    -0.299 OA
BRANCH  13  15
ATOM     15  C   UNL     1       2.403  16.438  73.099  1.00  0.00     0.106 CG0
ATOM     16  G   UNL     1       2.351  16.286  74.617  1.00  0.00     0.000 G0
ENDBRANCH  13  15
ENDBRANCH  12  13
BRANCH  12  17
ATOM     17  C   UNL     1       2.022  14.595  69.896  1.00  0.00    -0.006 C 
ATOM     18  C   UNL     1       2.436  13.217  69.352  1.00  0.00     0.008 C 
ATOM     19  C   UNL     1       0.900  15.195  69.036  1.00  0.00     0.008 C 
ENDBRANCH  12  17
ENDBRANCH  11  12
ENDBRANCH   1  11
TORSDOF 1
ENDMDL
MODEL 5
REMARK VINA RESULT:    -2.891     13.550     15.366
REMARK INTER + INTRA:          -4.706
REMARK INTER:                  -4.436
REMARK INTRA:                  -0.270
REMARK UNBOUND:                -0.294
REMARK SMILES CC1=CCC[C@@H](C)C(=O)C[C@H](C(C)C)C(=O)C1
REMARK SMILES IDX 8 1 9 2 6 3 7 4 5 5 4 6 3 7 2 8 1 9 10 11 11 12 15 13 16 14
REMARK SMILES IDX 17 15 12 17 13 18 14 19
REMARK H PARENT
REMARK Flexibility Score: 70.00
ROOT
ATOM      1  C   UNL     1       4.243  18.539  74.953  1.00  0.00     0.136 C 
ATOM      2  O   UNL     1       3.561  19.163  75.750  1.00  0.00    -0.299 OA
ENDROOT
BRANCH   1   3
ATOM      3  C   UNL     1       5.311  19.287  74.170  1.00  0.00     0.053 C 
ATOM      4  C   UNL     1       4.707  19.998  72.951  1.00  0.00     0.016 C 
BRANCH   3   5
ATOM      5  C   UNL     1       6.470  18.358  73.756  1.00  0.00     0.015 C 
BRANCH   5   6
ATOM      6  C   UNL     1       6.856  18.574  72.281  1.00  0.00     0.028 C 
BRANCH   6   7
ATOM      7  C   UNL     1       7.203  17.305  71.544  1.00  0.00    -0.028 C 
ATOM      8  C   UNL     1       6.354  16.292  71.232  1.00  0.00    -0.070 CG0
ATOM      9  C   UNL     1       6.967  15.043  70.642  1.00  0.00     0.039 C 
ATOM     10  G   UNL     1       4.832  16.367  71.319  1.00  0.00     0.000 G0
ENDBRANCH   6   7
ENDBRANCH   5   6
ENDBRANCH   3   5
ENDBRANCH   1   3
BRANCH   1  11
ATOM     11  C   UNL     1       3.984  17.058  74.748  1.00  0.00     0.087 C 
BRANCH  11  12
ATOM     12  C   UNL     1       3.314  16.665  73.400  1.00  0.00     0.066 C 
BRANCH  12  13
ATOM     13  C   UNL     1       4.185  15.772  72.523  1.00  0.00     0.140 C 
ATOM     14  O   UNL     1       4.278  14.574  72.750  1.00  0.00    -0.299 OA
BRANCH  13  15
ATOM     15  C   UNL     1       4.830  16.356  71.290  1.00  0.00     0.106 CG0
ATOM     16  G   UNL     1       6.354  16.287  71.236  1.00  0.00     0.000 G0
ENDBRANCH  13  15
ENDBRANCH  12  13
BRANCH  12  17
ATOM     17  C   UNL     1       1.820  16.221  73.527  1.00  0.00    -0.006 C 
ATOM     18  C   UNL     1       1.176  16.754  74.818  1.00  0.00     0.008 C 
ATOM     19  C   UNL     1       0.943  16.556  72.312  1.00  0.00     0.008 C 
ENDBRANCH  12  17
ENDBRANCH  11  12
ENDBRANCH   1  11
TORSDOF 1
ENDMDL
MODEL 6
REMARK VINA RESULT:    -2.889      3.165      5.126
REMARK INTER + INTRA:          -4.704
REMARK INTER:                  -4.248
REMARK INTRA:                  -0.456
REMARK UNBOUND:                -0.294
REMARK SMILES CC1=CCC[C@@H](C)C(=O)C[C@H](C(C)C)C(=O)C1
REMARK SMILES IDX 8 1 9 2 6 3 7 4 5 5 4 6 3 7 2 8 1 9 10 11 11 12 15 13 16 14
REMARK SMILES IDX 17 15 12 17 13 18 14 19
REMARK H PARENT
REMARK Flexibility Score: 70.00
ROOT
ATOM      1  C   UNL     1       1.691   6.612  65.328  1.00  0.00     0.136 C 
ATOM      2  O   UNL     1       2.695   7.304  65.383  1.00  0.00    -0.299 OA
ENDROOT
BRANCH   1   3
ATOM      3  C   UNL     1       0.949   6.513  64.004  1.00  0.00     0.053 C 
ATOM      4  C   UNL     1      -0.178   7.551  63.922  1.00  0.00     0.016 C 
BRANCH   3   5
ATOM      5  C   UNL     1       0.413   5.088  63.756  1.00  0.00     0.015 C 
BRANCH   5   6
ATOM      6  C   UNL     1      -1.121   5.042  63.872  1.00  0.00     0.028 C 
BRANCH   6   7
ATOM      7  C   UNL     1      -1.628   4.146  64.973  1.00  0.00    -0.028 C 
ATOM      8  C   UNL     1      -1.852   4.498  66.266  1.00  0.00    -0.070 CG0
ATOM      9  C   UNL     1      -2.197   3.385  67.228  1.00  0.00     0.039 C 
ATOM     10  G   UNL     1      -1.901   5.932  66.786  1.00  0.00     0.000 G0
ENDBRANCH   6   7
ENDBRANCH   5   6
ENDBRANCH   3   5
ENDBRANCH   1   3
BRANCH   1  11
ATOM     11  C   UNL     1       1.202   5.908  66.580  1.00  0.00     0.087 C 
BRANCH  11  12
ATOM     12  C   UNL     1       0.431   6.793  67.602  1.00  0.00     0.066 C 
BRANCH  12  13
ATOM     13  C   UNL     1      -0.962   6.269  67.935  1.00  0.00     0.140 C 
ATOM     14  O   UNL     1      -1.347   6.215  69.093  1.00  0.00    -0.299 OA
BRANCH  13  15
ATOM     15  C   UNL     1      -1.912   5.940  66.809  1.00  0.00     0.106 CG0
ATOM     16  G   UNL     1      -1.847   4.511  66.275  1.00  0.00     0.000 G0
ENDBRANCH  13  15
ENDBRANCH  12  13
BRANCH  12  17
ATOM     17  C   UNL     1       1.283   7.249  68.831  1.00  0.00    -0.006 C 
ATOM     18  C   UNL     1       2.464   6.298  69.089  1.00  0.00     0.008 C 
ATOM     19  C   UNL     1       1.769   8.704  68.775  1.00  0.00     0.008 C 
ENDBRANCH  12  17
ENDBRANCH  11  12
ENDBRANCH   1  11
TORSDOF 1
ENDMDL
MODEL 7
REMARK VINA RESULT:    -2.806     12.269     14.201
REMARK INTER + INTRA:          -4.576
REMARK INTER:                  -4.327
REMARK INTRA:                  -0.250
REMARK UNBOUND:                -0.294
REMARK SMILES CC1=CCC[C@@H](C)C(=O)C[C@H](C(C)C)C(=O)C1
REMARK SMILES IDX 8 1 9 2 6 3 7 4 5 5 4 6 3 7 2 8 1 9 10 11 11 12 15 13 16 14
REMARK SMILES IDX 17 15 12 17 13 18 14 19
REMARK H PARENT
REMARK Flexibility Score: 70.00
ROOT
ATOM      1  C   UNL     1       1.903  17.367  74.665  1.00  0.00     0.136 C 
ATOM      2  O   UNL     1       1.583  18.494  74.321  1.00  0.00    -0.299 OA
ENDROOT
BRANCH   1   3
ATOM      3  C   UNL     1       3.218  17.180  75.405  1.00  0.00     0.053 C 
ATOM      4  C   UNL     1       3.867  18.531  75.730  1.00  0.00     0.016 C 
BRANCH   3   5
ATOM      5  C   UNL     1       4.187  16.268  74.625  1.00  0.00     0.015 C 
BRANCH   5   6
ATOM      6  C   UNL     1       4.579  16.899  73.276  1.00  0.00     0.028 C 
BRANCH   6   7
ATOM      7  C   UNL     1       5.008  15.899  72.232  1.00  0.00    -0.028 C 
ATOM      8  C   UNL     1       4.196  15.202  71.396  1.00  0.00    -0.070 CG0
ATOM      9  C   UNL     1       4.843  14.128  70.551  1.00  0.00     0.039 C 
ATOM     10  G   UNL     1       2.718  15.501  71.160  1.00  0.00     0.000 G0
ENDBRANCH   6   7
ENDBRANCH   5   6
ENDBRANCH   3   5
ENDBRANCH   1   3
BRANCH   1  11
ATOM     11  C   UNL     1       1.002  16.197  74.315  1.00  0.00     0.087 C 
BRANCH  11  12
ATOM     12  C   UNL     1       0.758  15.956  72.797  1.00  0.00     0.066 C 
BRANCH  12  13
ATOM     13  C   UNL     1       1.748  14.984  72.165  1.00  0.00     0.140 C 
ATOM     14  O   UNL     1       1.688  13.787  72.406  1.00  0.00    -0.299 OA
BRANCH  13  15
ATOM     15  C   UNL     1       2.726  15.495  71.135  1.00  0.00     0.106 CG0
ATOM     16  G   UNL     1       4.199  15.196  71.403  1.00  0.00     0.000 G0
ENDBRANCH  13  15
ENDBRANCH  12  13
BRANCH  12  17
ATOM     17  C   UNL     1      -0.740  15.724  72.413  1.00  0.00    -0.006 C 
ATOM     18  C   UNL     1      -1.686  16.075  73.574  1.00  0.00     0.008 C 
ATOM     19  C   UNL     1      -1.191  16.424  71.124  1.00  0.00     0.008 C 
ENDBRANCH  12  17
ENDBRANCH  11  12
ENDBRANCH   1  11
TORSDOF 1
ENDMDL
MODEL 8
REMARK VINA RESULT:    -2.744     14.743     16.534
REMARK INTER + INTRA:          -4.481
REMARK INTER:                  -3.997
REMARK INTRA:                  -0.484
REMARK UNBOUND:                -0.294
REMARK SMILES CC1=CCC[C@@H](C)C(=O)C[C@H](C(C)C)C(=O)C1
REMARK SMILES IDX 8 1 9 2 6 3 7 4 5 5 4 6 3 7 2 8 1 9 10 11 11 12 15 13 16 14
REMARK SMILES IDX 17 15 12 17 13 18 14 19
REMARK H PARENT
REMARK Flexibility Score: 70.00
ROOT
ATOM      1  C   UNL     1       6.043  19.683  74.578  1.00  0.00     0.136 C 
ATOM      2  O   UNL     1       5.420  20.143  75.523  1.00  0.00    -0.299 OA
ENDROOT
BRANCH   1   3
ATOM      3  C   UNL     1       7.095  20.555  73.910  1.00  0.00     0.053 C 
ATOM      4  C   UNL     1       6.450  21.564  72.950  1.00  0.00     0.016 C 
BRANCH   3   5
ATOM      5  C   UNL     1       8.165  19.708  73.193  1.00  0.00     0.015 C 
BRANCH   5   6
ATOM      6  C   UNL     1       8.186  20.001  71.682  1.00  0.00     0.028 C 
BRANCH   6   7
ATOM      7  C   UNL     1       8.169  18.767  70.815  1.00  0.00    -0.028 C 
ATOM      8  C   UNL     1       7.088  18.004  70.512  1.00  0.00    -0.070 CG0
ATOM      9  C   UNL     1       7.346  16.716  69.766  1.00  0.00     0.039 C 
ATOM     10  G   UNL     1       5.636  18.407  70.760  1.00  0.00     0.000 G0
ENDBRANCH   6   7
ENDBRANCH   5   6
ENDBRANCH   3   5
ENDBRANCH   1   3
BRANCH   1  11
ATOM     11  C   UNL     1       5.726  18.284  74.085  1.00  0.00     0.087 C 
BRANCH  11  12
ATOM     12  C   UNL     1       4.518  18.163  73.112  1.00  0.00     0.066 C 
BRANCH  12  13
ATOM     13  C   UNL     1       4.879  17.553  71.762  1.00  0.00     0.140 C 
ATOM     14  O   UNL     1       4.480  16.440  71.453  1.00  0.00    -0.299 OA
BRANCH  13  15
ATOM     15  C   UNL     1       5.628  18.391  70.753  1.00  0.00     0.106 CG0
ATOM     16  G   UNL     1       7.086  18.007  70.515  1.00  0.00     0.000 G0
ENDBRANCH  13  15
ENDBRANCH  12  13
BRANCH  12  17
ATOM     17  C   UNL     1       3.214  17.602  73.768  1.00  0.00    -0.006 C 
ATOM     18  C   UNL     1       3.528  16.664  74.947  1.00  0.00     0.008 C 
ATOM     19  C   UNL     1       2.193  18.668  74.190  1.00  0.00     0.008 C 
ENDBRANCH  12  17
ENDBRANCH  11  12
ENDBRANCH   1  11
TORSDOF 1
ENDMDL
MODEL 9
REMARK VINA RESULT:    -2.718     11.911     14.353
REMARK INTER + INTRA:          -4.442
REMARK INTER:                  -4.092
REMARK INTRA:                  -0.351
REMARK UNBOUND:                -0.294
REMARK SMILES CC1=CCC[C@@H](C)C(=O)C[C@H](C(C)C)C(=O)C1
REMARK SMILES IDX 8 1 9 2 6 3 7 4 5 5 4 6 3 7 2 8 1 9 10 11 11 12 15 13 16 14
REMARK SMILES IDX 17 15 12 17 13 18 14 19
REMARK H PARENT
REMARK Flexibility Score: 70.00
ROOT
ATOM      1  C   UNL     1      -1.339  16.999  73.301  1.00  0.00     0.136 C 
ATOM      2  O   UNL     1      -1.952  17.909  73.837  1.00  0.00    -0.299 OA
ENDROOT
BRANCH   1   3
ATOM      3  C   UNL     1      -1.611  15.573  73.755  1.00  0.00     0.053 C 
ATOM      4  C   UNL     1      -3.118  15.298  73.841  1.00  0.00     0.016 C 
BRANCH   3   5
ATOM      5  C   UNL     1      -0.910  15.257  75.092  1.00  0.00     0.015 C 
BRANCH   5   6
ATOM      6  C   UNL     1       0.193  14.200  74.905  1.00  0.00     0.028 C 
BRANCH   6   7
ATOM      7  C   UNL     1       0.106  13.444  73.603  1.00  0.00    -0.028 C 
ATOM      8  C   UNL     1       0.822  13.687  72.475  1.00  0.00    -0.070 CG0
ATOM      9  C   UNL     1       0.438  12.907  71.239  1.00  0.00     0.039 C 
ATOM     10  G   UNL     1       2.050  14.590  72.396  1.00  0.00     0.000 G0
ENDBRANCH   6   7
ENDBRANCH   5   6
ENDBRANCH   3   5
ENDBRANCH   1   3
BRANCH   1  11
ATOM     11  C   UNL     1      -0.310  17.321  72.233  1.00  0.00     0.087 C 
BRANCH  11  12
ATOM     12  C   UNL     1       1.174  17.051  72.615  1.00  0.00     0.066 C 
BRANCH  12  13
ATOM     13  C   UNL     1       1.833  15.961  71.777  1.00  0.00     0.140 C 
ATOM     14  O   UNL     1       2.269  16.208  70.663  1.00  0.00    -0.299 OA
BRANCH  13  15
ATOM     15  C   UNL     1       2.059  14.599  72.388  1.00  0.00     0.106 CG0
ATOM     16  G   UNL     1       0.831  13.697  72.487  1.00  0.00     0.000 G0
ENDBRANCH  13  15
ENDBRANCH  12  13
BRANCH  12  17
ATOM     17  C   UNL     1       2.032  18.342  72.821  1.00  0.00    -0.006 C 
ATOM     18  C   UNL     1       1.349  19.582  72.220  1.00  0.00     0.008 C 
ATOM     19  C   UNL     1       2.452  18.612  74.273  1.00  0.00     0.008 C 
ENDBRANCH  12  17
ENDBRANCH  11  12
ENDBRANCH   1  11
TORSDOF 1
ENDMDL
