MODEL 1
REMARK VINA RESULT:    -4.540      0.000      0.000
REMARK INTER + INTRA:          -7.197
REMARK INTER:                  -6.663
REMARK INTRA:                  -0.533
REMARK UNBOUND:                -0.533
REMARK SMILES O=C([O-])CCCCCCCC(=O)[O-]
REMARK SMILES IDX 7 1 6 2 5 3 4 4 2 5 1 6 3 7 8 8 9 9 10 10 11 11 12 12 13 13
REMARK H PARENT
REMARK Flexibility Score: inf
ROOT
ATOM      1  C   UNL     1      21.240  13.344  43.399  1.00  0.00     0.000 C 
ENDROOT
BRANCH   1   2
ATOM      2  C   UNL     1      20.141  14.328  43.835  1.00  0.00     0.000 C 
BRANCH   2   3
ATOM      3  C   UNL     1      19.380  14.933  42.646  1.00  0.00     0.006 C 
BRANCH   3   4
ATOM      4  C   UNL     1      19.643  16.438  42.537  1.00  0.00     0.053 C 
BRANCH   4   5
ATOM      5  C   UNL     1      20.954  16.695  41.864  1.00  0.00     0.041 C 
ATOM      6  O   UNL     1      21.188  16.213  40.726  1.00  0.00    -0.550 OA
ATOM      7  O   UNL     1      21.900  17.510  42.474  1.00  0.00    -0.550 OA
ENDBRANCH   4   5
ENDBRANCH   3   4
ENDBRANCH   2   3
ENDBRANCH   1   2
BRANCH   1   8
ATOM      8  C   UNL     1      20.713  12.253  42.449  1.00  0.00     0.000 C 
BRANCH   8   9
ATOM      9  C   UNL     1      20.933  10.835  43.001  1.00  0.00     0.006 C 
BRANCH   9  10
ATOM     10  C   UNL     1      21.281  10.828  44.496  1.00  0.00     0.053 C 
BRANCH  10  11
ATOM     11  C   UNL     1      20.067  10.518  45.312  1.00  0.00     0.041 C 
ATOM     12  O   UNL     1      19.414  11.448  45.854  1.00  0.00    -0.550 OA
ATOM     13  O   UNL     1      19.684   9.198  45.516  1.00  0.00    -0.550 OA
ENDBRANCH  10  11
ENDBRANCH   9  10
ENDBRANCH   8   9
ENDBRANCH   1   8
TORSDOF 8
ENDMDL
MODEL 2
REMARK VINA RESULT:    -4.452     11.560     13.110
REMARK INTER + INTRA:          -7.068
REMARK INTER:                  -6.536
REMARK INTRA:                  -0.532
REMARK UNBOUND:                -0.533
REMARK SMILES O=C([O-])CCCCCCCC(=O)[O-]
REMARK SMILES IDX 7 1 6 2 5 3 4 4 2 5 1 6 3 7 8 8 9 9 10 10 11 11 12 12 13 13
REMARK H PARENT
REMARK Flexibility Score: inf
ROOT
ATOM      1  C   UNL     1       8.129  13.189  40.934  1.00  0.00     0.000 C 
ENDROOT
BRANCH   1   2
ATOM      2  C   UNL     1       8.459  12.270  42.123  1.00  0.00     0.000 C 
BRANCH   2   3
ATOM      3  C   UNL     1       8.495  10.785  41.734  1.00  0.00     0.006 C 
BRANCH   3   4
ATOM      4  C   UNL     1       8.006  10.583  40.296  1.00  0.00     0.053 C 
BRANCH   4   5
ATOM      5  C   UNL     1       9.117  10.080  39.429  1.00  0.00     0.041 C 
ATOM      6  O   UNL     1       9.657  10.841  38.585  1.00  0.00    -0.550 OA
ATOM      7  O   UNL     1       9.590   8.783  39.589  1.00  0.00    -0.550 OA
ENDBRANCH   4   5
ENDBRANCH   3   4
ENDBRANCH   2   3
ENDBRANCH   1   2
BRANCH   1   8
ATOM      8  C   UNL     1       9.286  14.142  40.585  1.00  0.00     0.000 C 
BRANCH   8   9
ATOM      9  C   UNL     1       9.942  14.754  41.833  1.00  0.00     0.006 C 
BRANCH   9  10
ATOM     10  C   UNL     1       9.770  16.277  41.905  1.00  0.00     0.053 C 
BRANCH  10  11
ATOM     11  C   UNL     1       8.435  16.624  42.484  1.00  0.00     0.041 C 
ATOM     12  O   UNL     1       8.074  16.131  43.585  1.00  0.00    -0.550 OA
ATOM     13  O   UNL     1       7.568  17.453  41.784  1.00  0.00    -0.550 OA
ENDBRANCH  10  11
ENDBRANCH   9  10
ENDBRANCH   8   9
ENDBRANCH   1   8
TORSDOF 8
ENDMDL
MODEL 3
REMARK VINA RESULT:    -4.428      1.574      6.491
REMARK INTER + INTRA:          -7.032
REMARK INTER:                  -6.669
REMARK INTRA:                  -0.363
REMARK UNBOUND:                -0.533
REMARK SMILES O=C([O-])CCCCCCCC(=O)[O-]
REMARK SMILES IDX 7 1 6 2 5 3 4 4 2 5 1 6 3 7 8 8 9 9 10 10 11 11 12 12 13 13
REMARK H PARENT
REMARK Flexibility Score: inf
ROOT
ATOM      1  C   UNL     1      20.230  12.621  44.298  1.00  0.00     0.000 C 
ENDROOT
BRANCH   1   2
ATOM      2  C   UNL     1      19.565  12.287  45.643  1.00  0.00     0.000 C 
BRANCH   2   3
ATOM      3  C   UNL     1      19.897  10.871  46.135  1.00  0.00     0.006 C 
BRANCH   3   4
ATOM      4  C   UNL     1      20.419  10.001  44.988  1.00  0.00     0.053 C 
BRANCH   4   5
ATOM      5  C   UNL     1      21.724   9.371  45.357  1.00  0.00     0.041 C 
ATOM      6  O   UNL     1      22.699  10.088  45.703  1.00  0.00    -0.550 OA
ATOM      7  O   UNL     1      21.849   7.987  45.369  1.00  0.00    -0.550 OA
ENDBRANCH   4   5
ENDBRANCH   3   4
ENDBRANCH   2   3
ENDBRANCH   1   2
BRANCH   1   8
ATOM      8  C   UNL     1      20.358  14.137  44.062  1.00  0.00     0.000 C 
BRANCH   8   9
ATOM      9  C   UNL     1      19.489  14.627  42.893  1.00  0.00     0.006 C 
BRANCH   9  10
ATOM     10  C   UNL     1      19.591  16.142  42.672  1.00  0.00     0.053 C 
BRANCH  10  11
ATOM     11  C   UNL     1      20.898  16.487  42.031  1.00  0.00     0.041 C 
ATOM     12  O   UNL     1      21.170  16.061  40.878  1.00  0.00    -0.550 OA
ATOM     13  O   UNL     1      21.836  17.239  42.726  1.00  0.00    -0.550 OA
ENDBRANCH  10  11
ENDBRANCH   9  10
ENDBRANCH   8   9
ENDBRANCH   1   8
TORSDOF 8
ENDMDL
MODEL 4
REMARK VINA RESULT:    -4.414     11.629     12.396
REMARK INTER + INTRA:          -7.012
REMARK INTER:                  -6.461
REMARK INTRA:                  -0.551
REMARK UNBOUND:                -0.533
REMARK SMILES O=C([O-])CCCCCCCC(=O)[O-]
REMARK SMILES IDX 7 1 6 2 5 3 4 4 2 5 1 6 3 7 8 8 9 9 10 10 11 11 12 12 13 13
REMARK H PARENT
REMARK Flexibility Score: inf
ROOT
ATOM      1  C   UNL     1       7.893  13.160  41.004  1.00  0.00     0.000 C 
ENDROOT
BRANCH   1   2
ATOM      2  C   UNL     1       9.011  14.132  40.592  1.00  0.00     0.000 C 
BRANCH   2   3
ATOM      3  C   UNL     1       9.793  14.682  41.794  1.00  0.00     0.006 C 
BRANCH   3   4
ATOM      4  C   UNL     1       9.750  16.212  41.823  1.00  0.00     0.053 C 
BRANCH   4   5
ATOM      5  C   UNL     1       8.476  16.691  42.444  1.00  0.00     0.041 C 
ATOM      6  O   UNL     1       7.755  17.530  41.845  1.00  0.00    -0.550 OA
ATOM      7  O   UNL     1       8.059  16.171  43.663  1.00  0.00    -0.550 OA
ENDBRANCH   4   5
ENDBRANCH   3   4
ENDBRANCH   2   3
ENDBRANCH   1   2
BRANCH   1   8
ATOM      8  C   UNL     1       8.332  12.193  42.119  1.00  0.00     0.000 C 
BRANCH   8   9
ATOM      9  C   UNL     1       8.540  10.759  41.607  1.00  0.00     0.006 C 
BRANCH   9  10
ATOM     10  C   UNL     1       8.048  10.567  40.166  1.00  0.00     0.053 C 
BRANCH  10  11
ATOM     11  C   UNL     1       9.192  10.221  39.267  1.00  0.00     0.041 C 
ATOM     12  O   UNL     1       9.668   9.056  39.268  1.00  0.00    -0.550 OA
ATOM     13  O   UNL     1       9.765  11.199  38.464  1.00  0.00    -0.550 OA
ENDBRANCH  10  11
ENDBRANCH   9  10
ENDBRANCH   8   9
ENDBRANCH   1   8
TORSDOF 8
ENDMDL
MODEL 5
REMARK VINA RESULT:    -4.389      1.689      5.909
REMARK INTER + INTRA:          -6.976
REMARK INTER:                  -6.535
REMARK INTRA:                  -0.440
REMARK UNBOUND:                -0.533
REMARK SMILES O=C([O-])CCCCCCCC(=O)[O-]
REMARK SMILES IDX 7 1 6 2 5 3 4 4 2 5 1 6 3 7 8 8 9 9 10 10 11 11 12 12 13 13
REMARK H PARENT
REMARK Flexibility Score: inf
ROOT
ATOM      1  C   UNL     1      19.101  15.116  42.664  1.00  0.00     0.000 C 
ENDROOT
BRANCH   1   2
ATOM      2  C   UNL     1      19.941  13.844  42.865  1.00  0.00     0.000 C 
BRANCH   2   3
ATOM      3  C   UNL     1      20.504  13.723  44.288  1.00  0.00     0.006 C 
BRANCH   3   4
ATOM      4  C   UNL     1      19.544  12.946  45.193  1.00  0.00     0.053 C 
BRANCH   4   5
ATOM      5  C   UNL     1      19.966  11.515  45.302  1.00  0.00     0.041 C 
ATOM      6  O   UNL     1      20.373  10.895  44.285  1.00  0.00    -0.550 OA
ATOM      7  O   UNL     1      19.957  10.879  46.537  1.00  0.00    -0.550 OA
ENDBRANCH   4   5
ENDBRANCH   3   4
ENDBRANCH   2   3
ENDBRANCH   1   2
BRANCH   1   8
ATOM      8  C   UNL     1      19.958  16.396  42.666  1.00  0.00     0.000 C 
BRANCH   8   9
ATOM      9  C   UNL     1      20.954  16.440  41.496  1.00  0.00     0.006 C 
BRANCH   9  10
ATOM     10  C   UNL     1      22.327  16.988  41.907  1.00  0.00     0.053 C 
BRANCH  10  11
ATOM     11  C   UNL     1      23.349  15.897  41.890  1.00  0.00     0.041 C 
ATOM     12  O   UNL     1      23.032  14.737  41.516  1.00  0.00    -0.550 OA
ATOM     13  O   UNL     1      24.641  16.147  42.336  1.00  0.00    -0.550 OA
ENDBRANCH  10  11
ENDBRANCH   9  10
ENDBRANCH   8   9
ENDBRANCH   1   8
TORSDOF 8
ENDMDL
MODEL 6
REMARK VINA RESULT:    -4.338      1.998      5.796
REMARK INTER + INTRA:          -6.900
REMARK INTER:                  -6.285
REMARK INTRA:                  -0.615
REMARK UNBOUND:                -0.533
REMARK SMILES O=C([O-])CCCCCCCC(=O)[O-]
REMARK SMILES IDX 7 1 6 2 5 3 4 4 2 5 1 6 3 7 8 8 9 9 10 10 11 11 12 12 13 13
REMARK H PARENT
REMARK Flexibility Score: inf
ROOT
ATOM      1  C   UNL     1      19.397  14.746  42.741  1.00  0.00     0.000 C 
ENDROOT
BRANCH   1   2
ATOM      2  C   UNL     1      20.124  14.289  44.016  1.00  0.00     0.000 C 
BRANCH   2   3
ATOM      3  C   UNL     1      20.638  12.845  43.922  1.00  0.00     0.006 C 
BRANCH   3   4
ATOM      4  C   UNL     1      20.662  12.366  42.467  1.00  0.00     0.053 C 
BRANCH   4   5
ATOM      5  C   UNL     1      21.043  10.921  42.396  1.00  0.00     0.041 C 
ATOM      6  O   UNL     1      20.505  10.165  41.546  1.00  0.00    -0.550 OA
ATOM      7  O   UNL     1      22.031  10.420  43.235  1.00  0.00    -0.550 OA
ENDBRANCH   4   5
ENDBRANCH   3   4
ENDBRANCH   2   3
ENDBRANCH   1   2
BRANCH   1   8
ATOM      8  C   UNL     1      19.311  16.279  42.627  1.00  0.00     0.000 C 
BRANCH   8   9
ATOM      9  C   UNL     1      20.642  16.913  42.191  1.00  0.00     0.006 C 
BRANCH   9  10
ATOM     10  C   UNL     1      21.294  16.172  41.016  1.00  0.00     0.053 C 
BRANCH  10  11
ATOM     11  C   UNL     1      22.731  15.882  41.317  1.00  0.00     0.041 C 
ATOM     12  O   UNL     1      23.114  14.695  41.494  1.00  0.00    -0.550 OA
ATOM     13  O   UNL     1      23.637  16.925  41.452  1.00  0.00    -0.550 OA
ENDBRANCH  10  11
ENDBRANCH   9  10
ENDBRANCH   8   9
ENDBRANCH   1   8
TORSDOF 8
ENDMDL
MODEL 7
REMARK VINA RESULT:    -4.334     10.740     12.728
REMARK INTER + INTRA:          -6.894
REMARK INTER:                  -6.442
REMARK INTRA:                  -0.453
REMARK UNBOUND:                -0.533
REMARK SMILES O=C([O-])CCCCCCCC(=O)[O-]
REMARK SMILES IDX 7 1 6 2 5 3 4 4 2 5 1 6 3 7 8 8 9 9 10 10 11 11 12 12 13 13
REMARK H PARENT
REMARK Flexibility Score: inf
ROOT
ATOM      1  C   UNL     1       8.520  10.367  41.608  1.00  0.00     0.000 C 
ENDROOT
BRANCH   1   2
ATOM      2  C   UNL     1       8.593   8.992  42.292  1.00  0.00     0.000 C 
BRANCH   2   3
ATOM      3  C   UNL     1       8.785   9.095  43.813  1.00  0.00     0.006 C 
BRANCH   3   4
ATOM      4  C   UNL     1       9.945   8.211  44.279  1.00  0.00     0.053 C 
BRANCH   4   5
ATOM      5  C   UNL     1      10.885   8.989  45.144  1.00  0.00     0.041 C 
ATOM      6  O   UNL     1      11.908   8.437  45.627  1.00  0.00    -0.550 OA
ATOM      7  O   UNL     1      10.659  10.341  45.375  1.00  0.00    -0.550 OA
ENDBRANCH   4   5
ENDBRANCH   3   4
ENDBRANCH   2   3
ENDBRANCH   1   2
BRANCH   1   8
ATOM      8  C   UNL     1       8.335  11.519  42.612  1.00  0.00     0.000 C 
BRANCH   8   9
ATOM      9  C   UNL     1       7.551  12.699  42.016  1.00  0.00     0.006 C 
BRANCH   9  10
ATOM     10  C   UNL     1       8.224  14.052  42.284  1.00  0.00     0.053 C 
BRANCH  10  11
ATOM     11  C   UNL     1       9.439  14.208  41.425  1.00  0.00     0.041 C 
ATOM     12  O   UNL     1      10.475  14.755  41.886  1.00  0.00    -0.550 OA
ATOM     13  O   UNL     1       9.411  13.795  40.099  1.00  0.00    -0.550 OA
ENDBRANCH  10  11
ENDBRANCH   9  10
ENDBRANCH   8   9
ENDBRANCH   1   8
TORSDOF 8
ENDMDL
MODEL 8
REMARK VINA RESULT:    -4.326      1.845      2.676
REMARK INTER + INTRA:          -6.883
REMARK INTER:                  -6.536
REMARK INTRA:                  -0.347
REMARK UNBOUND:                -0.533
REMARK SMILES O=C([O-])CCCCCCCC(=O)[O-]
REMARK SMILES IDX 7 1 6 2 5 3 4 4 2 5 1 6 3 7 8 8 9 9 10 10 11 11 12 12 13 13
REMARK H PARENT
REMARK Flexibility Score: inf
ROOT
ATOM      1  C   UNL     1      19.519  12.791  45.724  1.00  0.00     0.000 C 
ENDROOT
BRANCH   1   2
ATOM      2  C   UNL     1      20.238  13.008  44.382  1.00  0.00     0.000 C 
BRANCH   2   3
ATOM      3  C   UNL     1      19.906  14.364  43.743  1.00  0.00     0.006 C 
BRANCH   3   4
ATOM      4  C   UNL     1      20.692  14.565  42.444  1.00  0.00     0.053 C 
BRANCH   4   5
ATOM      5  C   UNL     1      20.496  15.952  41.920  1.00  0.00     0.041 C 
ATOM      6  O   UNL     1      19.711  16.745  42.503  1.00  0.00    -0.550 OA
ATOM      7  O   UNL     1      21.220  16.387  40.817  1.00  0.00    -0.550 OA
ENDBRANCH   4   5
ENDBRANCH   3   4
ENDBRANCH   2   3
ENDBRANCH   1   2
BRANCH   1   8
ATOM      8  C   UNL     1      19.503  11.313  46.153  1.00  0.00     0.000 C 
BRANCH   8   9
ATOM      9  C   UNL     1      20.677  10.515  45.562  1.00  0.00     0.006 C 
BRANCH   9  10
ATOM     10  C   UNL     1      20.250   9.140  45.030  1.00  0.00     0.053 C 
BRANCH  10  11
ATOM     11  C   UNL     1      20.766   8.937  43.641  1.00  0.00     0.041 C 
ATOM     12  O   UNL     1      21.373   7.875  43.340  1.00  0.00    -0.550 OA
ATOM     13  O   UNL     1      20.621   9.940  42.691  1.00  0.00    -0.550 OA
ENDBRANCH  10  11
ENDBRANCH   9  10
ENDBRANCH   8   9
ENDBRANCH   1   8
TORSDOF 8
ENDMDL
MODEL 9
REMARK VINA RESULT:    -4.315     10.708     12.767
REMARK INTER + INTRA:          -6.867
REMARK INTER:                  -6.540
REMARK INTRA:                  -0.327
REMARK UNBOUND:                -0.533
REMARK SMILES O=C([O-])CCCCCCCC(=O)[O-]
REMARK SMILES IDX 7 1 6 2 5 3 4 4 2 5 1 6 3 7 8 8 9 9 10 10 11 11 12 12 13 13
REMARK H PARENT
REMARK Flexibility Score: inf
ROOT
ATOM      1  C   UNL     1       8.485  11.049  41.265  1.00  0.00     0.000 C 
ENDROOT
BRANCH   1   2
ATOM      2  C   UNL     1       8.497   9.727  42.050  1.00  0.00     0.000 C 
BRANCH   2   3
ATOM      3  C   UNL     1       8.676   9.935  43.561  1.00  0.00     0.006 C 
BRANCH   3   4
ATOM      4  C   UNL     1       9.393   8.740  44.197  1.00  0.00     0.053 C 
BRANCH   4   5
ATOM      5  C   UNL     1      10.497   9.206  45.093  1.00  0.00     0.041 C 
ATOM      6  O   UNL     1      10.625  10.430  45.357  1.00  0.00    -0.550 OA
ATOM      7  O   UNL     1      11.355   8.282  45.677  1.00  0.00    -0.550 OA
ENDBRANCH   4   5
ENDBRANCH   3   4
ENDBRANCH   2   3
ENDBRANCH   1   2
BRANCH   1   8
ATOM      8  C   UNL     1       8.672  12.277  42.173  1.00  0.00     0.000 C 
BRANCH   8   9
ATOM      9  C   UNL     1       8.572  13.602  41.400  1.00  0.00     0.006 C 
BRANCH   9  10
ATOM     10  C   UNL     1       9.783  14.515  41.629  1.00  0.00     0.053 C 
BRANCH  10  11
ATOM     11  C   UNL     1       9.345  15.831  42.190  1.00  0.00     0.041 C 
ATOM     12  O   UNL     1       9.959  16.886  41.884  1.00  0.00    -0.550 OA
ATOM     13  O   UNL     1       8.289  15.885  43.092  1.00  0.00    -0.550 OA
ENDBRANCH  10  11
ENDBRANCH   9  10
ENDBRANCH   8   9
ENDBRANCH   1   8
TORSDOF 8
ENDMDL
