MODEL 1
REMARK VINA RESULT:   135.852      0.000      0.000
REMARK INTER + INTRA:         147.897
REMARK INTER:                 147.765
REMARK INTRA:                   0.133
REMARK UNBOUND:                 0.133
REMARK SMILES C=C(C)[C@H]1CC[C@]2(C)CC[C@@]3(C)[C@@H](CC[C@H]4[C@@]5(C)CC[C@H](O)C(C)(C)[C@@H]5CC[C@]43C)[C@H]12
REMARK SMILES IDX 4 1 5 2 6 3 7 4 31 5 13 6 14 7 15 8 16 9 17 10 19 11 20 12
REMARK SMILES IDX 21 13 23 14 26 15 27 16 28 17 29 18 11 19 10 20 9 21 12 22
REMARK SMILES IDX 30 23 24 24 25 25 18 26 8 27 2 28 3 29 1 30 22 31
REMARK H PARENT 22 32
REMARK Flexibility Score: inf
ROOT
ATOM      1  C   UNL     1     -36.656  31.828 -24.833  1.00  0.00     0.018 C 
ATOM      2  C   UNL     1     -35.953  31.420 -26.125  1.00  0.00     0.009 C 
ATOM      3  C   UNL     1     -36.031  29.907 -26.125  1.00  0.00     0.008 C 
ATOM      4  C   UNL     1     -35.826  29.484 -24.656  1.00  0.00    -0.029 C 
ATOM      5  C   UNL     1     -36.449  30.661 -23.812  1.00  0.00     0.006 C 
ATOM      6  C   UNL     1     -37.786  30.393 -23.007  1.00  0.00    -0.000 C 
ATOM      7  C   UNL     1     -37.804  31.270 -21.755  1.00  0.00     0.005 C 
ATOM      8  C   UNL     1     -39.155  31.271 -21.069  1.00  0.00     0.005 C 
ATOM      9  C   UNL     1     -39.920  29.902 -20.903  1.00  0.00     0.002 C 
ATOM     10  C   UNL     1     -41.494  30.159 -20.697  1.00  0.00    -0.026 C 
ATOM     11  C   UNL     1     -41.788  31.216 -19.554  1.00  0.00     0.010 C 
ATOM     12  C   UNL     1     -42.908  32.235 -19.874  1.00  0.00     0.033 C 
ATOM     13  C   UNL     1     -44.094  31.626 -20.648  1.00  0.00     0.120 C 
ATOM     14  C   UNL     1     -43.660  30.999 -22.038  1.00  0.00    -0.006 C 
ATOM     15  C   UNL     1     -42.103  30.691 -22.049  1.00  0.00     0.003 C 
ATOM     16  C   UNL     1     -41.506  30.048 -23.336  1.00  0.00     0.005 C 
ATOM     17  C   UNL     1     -40.724  28.751 -23.117  1.00  0.00     0.008 C 
ATOM     18  C   UNL     1     -39.582  28.771 -22.011  1.00  0.00    -0.024 C 
ATOM     19  C   UNL     1     -38.076  28.921 -22.622  1.00  0.00    -0.024 C 
ATOM     20  C   UNL     1     -37.875  28.101 -23.940  1.00  0.00     0.008 C 
ATOM     21  C   UNL     1     -36.424  28.068 -24.409  1.00  0.00     0.007 C 
ATOM     22  C   UNL     1     -37.019  28.443 -21.559  1.00  0.00     0.012 C 
ATOM     23  C   UNL     1     -39.640  27.354 -21.322  1.00  0.00     0.012 C 
ATOM     24  C   UNL     1     -43.961  32.057 -23.141  1.00  0.00     0.014 C 
ATOM     25  C   UNL     1     -44.524  29.758 -22.381  1.00  0.00     0.014 C 
ATOM     26  C   UNL     1     -42.176  28.842 -20.219  1.00  0.00     0.012 C 
ATOM     27  C   UNL     1     -34.298  29.391 -24.385  1.00  0.00     0.011 C 
ENDROOT
BRANCH   1  28
ATOM     28  C   UNL     1     -36.217  33.198 -24.331  1.00  0.00    -0.077 C 
ATOM     29  C   UNL     1     -35.792  34.256 -25.318  1.00  0.00     0.039 C 
ATOM     30  C   UNL     1     -36.192  33.493 -23.022  1.00  0.00     0.008 C 
ENDBRANCH   1  28
BRANCH  13  31
ATOM     31  O   UNL     1     -44.740  30.699 -19.814  1.00  0.00    -0.393 OA
ATOM     32  H   UNL     1     -45.198  30.039 -20.394  1.00  0.00     0.210 HD
ENDBRANCH  13  31
TORSDOF 2
ENDMDL
MODEL 2
REMARK VINA RESULT:   137.053      3.930      7.103
REMARK INTER + INTRA:         149.204
REMARK INTER:                 148.933
REMARK INTRA:                   0.270
REMARK UNBOUND:                 0.133
REMARK SMILES C=C(C)[C@H]1CC[C@]2(C)CC[C@@]3(C)[C@@H](CC[C@H]4[C@@]5(C)CC[C@H](O)C(C)(C)[C@@H]5CC[C@]43C)[C@H]12
REMARK SMILES IDX 4 1 5 2 6 3 7 4 31 5 13 6 14 7 15 8 16 9 17 10 19 11 20 12
REMARK SMILES IDX 21 13 23 14 26 15 27 16 28 17 29 18 11 19 10 20 9 21 12 22
REMARK SMILES IDX 30 23 24 24 25 25 18 26 8 27 2 28 3 29 1 30 22 31
REMARK H PARENT 22 32
REMARK Flexibility Score: inf
ROOT
ATOM      1  C   UNL     1     -40.498  29.915 -20.593  1.00  0.00     0.018 C 
ATOM      2  C   UNL     1     -41.708  30.786 -20.919  1.00  0.00     0.009 C 
ATOM      3  C   UNL     1     -42.322  30.124 -22.135  1.00  0.00     0.008 C 
ATOM      4  C   UNL     1     -41.131  29.646 -22.990  1.00  0.00    -0.029 C 
ATOM      5  C   UNL     1     -40.006  29.295 -21.943  1.00  0.00     0.006 C 
ATOM      6  C   UNL     1     -39.609  27.776 -21.734  1.00  0.00    -0.000 C 
ATOM      7  C   UNL     1     -38.133  27.690 -21.342  1.00  0.00     0.005 C 
ATOM      8  C   UNL     1     -37.739  26.304 -20.872  1.00  0.00     0.005 C 
ATOM      9  C   UNL     1     -38.261  25.055 -21.681  1.00  0.00     0.002 C 
ATOM     10  C   UNL     1     -38.236  23.738 -20.758  1.00  0.00    -0.026 C 
ATOM     11  C   UNL     1     -36.833  23.523 -20.052  1.00  0.00     0.010 C 
ATOM     12  C   UNL     1     -36.904  23.070 -18.573  1.00  0.00     0.033 C 
ATOM     13  C   UNL     1     -38.043  22.071 -18.288  1.00  0.00     0.120 C 
ATOM     14  C   UNL     1     -39.474  22.657 -18.637  1.00  0.00    -0.006 C 
ATOM     15  C   UNL     1     -39.346  23.874 -19.648  1.00  0.00     0.003 C 
ATOM     16  C   UNL     1     -40.663  24.560 -20.118  1.00  0.00     0.005 C 
ATOM     17  C   UNL     1     -40.851  24.647 -21.635  1.00  0.00     0.008 C 
ATOM     18  C   UNL     1     -39.654  25.267 -22.478  1.00  0.00    -0.024 C 
ATOM     19  C   UNL     1     -39.894  26.820 -22.919  1.00  0.00    -0.024 C 
ATOM     20  C   UNL     1     -41.376  27.106 -23.335  1.00  0.00     0.008 C 
ATOM     21  C   UNL     1     -41.570  28.494 -23.940  1.00  0.00     0.007 C 
ATOM     22  C   UNL     1     -38.948  27.185 -24.122  1.00  0.00     0.012 C 
ATOM     23  C   UNL     1     -39.604  24.431 -23.814  1.00  0.00     0.012 C 
ATOM     24  C   UNL     1     -40.099  23.181 -17.311  1.00  0.00     0.014 C 
ATOM     25  C   UNL     1     -40.421  21.542 -19.151  1.00  0.00     0.014 C 
ATOM     26  C   UNL     1     -38.441  22.476 -21.649  1.00  0.00     0.012 C 
ATOM     27  C   UNL     1     -40.668  30.829 -23.885  1.00  0.00     0.011 C 
ENDROOT
BRANCH   1  28
ATOM     28  C   UNL     1     -39.427  30.664 -19.809  1.00  0.00    -0.077 C 
ATOM     29  C   UNL     1     -37.986  30.231 -19.910  1.00  0.00     0.039 C 
ATOM     30  C   UNL     1     -39.731  31.704 -19.018  1.00  0.00     0.008 C 
ENDBRANCH   1  28
BRANCH  13  31
ATOM     31  O   UNL     1     -37.766  20.875 -18.971  1.00  0.00    -0.393 OA
ATOM     32  H   UNL     1     -37.542  21.108 -19.909  1.00  0.00     0.210 HD
ENDBRANCH  13  31
TORSDOF 2
ENDMDL
MODEL 3
REMARK VINA RESULT:   137.834      2.525      4.904
REMARK INTER + INTRA:         150.054
REMARK INTER:                 150.221
REMARK INTRA:                  -0.167
REMARK UNBOUND:                 0.133
REMARK SMILES C=C(C)[C@H]1CC[C@]2(C)CC[C@@]3(C)[C@@H](CC[C@H]4[C@@]5(C)CC[C@H](O)C(C)(C)[C@@H]5CC[C@]43C)[C@H]12
REMARK SMILES IDX 4 1 5 2 6 3 7 4 31 5 13 6 14 7 15 8 16 9 17 10 19 11 20 12
REMARK SMILES IDX 21 13 23 14 26 15 27 16 28 17 29 18 11 19 10 20 9 21 12 22
REMARK SMILES IDX 30 23 24 24 25 25 18 26 8 27 2 28 3 29 1 30 22 31
REMARK H PARENT 22 32
REMARK Flexibility Score: inf
ROOT
ATOM      1  C   UNL     1     -38.778  25.415 -21.918  1.00  0.00     0.018 C 
ATOM      2  C   UNL     1     -37.912  24.440 -21.125  1.00  0.00     0.009 C 
ATOM      3  C   UNL     1     -37.136  25.328 -20.173  1.00  0.00     0.008 C 
ATOM      4  C   UNL     1     -36.794  26.597 -20.979  1.00  0.00    -0.029 C 
ATOM      5  C   UNL     1     -38.001  26.772 -21.978  1.00  0.00     0.006 C 
ATOM      6  C   UNL     1     -38.997  27.983 -21.760  1.00  0.00    -0.000 C 
ATOM      7  C   UNL     1     -39.554  28.427 -23.113  1.00  0.00     0.005 C 
ATOM      8  C   UNL     1     -40.706  29.402 -22.973  1.00  0.00     0.005 C 
ATOM      9  C   UNL     1     -40.587  30.567 -21.916  1.00  0.00     0.002 C 
ATOM     10  C   UNL     1     -42.046  31.113 -21.516  1.00  0.00    -0.026 C 
ATOM     11  C   UNL     1     -42.926  31.467 -22.785  1.00  0.00     0.010 C 
ATOM     12  C   UNL     1     -44.409  31.030 -22.698  1.00  0.00     0.033 C 
ATOM     13  C   UNL     1     -45.022  31.203 -21.294  1.00  0.00     0.120 C 
ATOM     14  C   UNL     1     -44.254  30.372 -20.185  1.00  0.00    -0.006 C 
ATOM     15  C   UNL     1     -42.790  30.006 -20.676  1.00  0.00     0.003 C 
ATOM     16  C   UNL     1     -41.881  29.205 -19.696  1.00  0.00     0.005 C 
ATOM     17  C   UNL     1     -40.520  29.840 -19.398  1.00  0.00     0.008 C 
ATOM     18  C   UNL     1     -39.631  30.265 -20.645  1.00  0.00    -0.024 C 
ATOM     19  C   UNL     1     -38.438  29.208 -20.995  1.00  0.00    -0.024 C 
ATOM     20  C   UNL     1     -37.758  28.620 -19.712  1.00  0.00     0.008 C 
ATOM     21  C   UNL     1     -36.515  27.791 -20.021  1.00  0.00     0.007 C 
ATOM     22  C   UNL     1     -37.340  29.914 -21.873  1.00  0.00     0.012 C 
ATOM     23  C   UNL     1     -38.922  31.607 -20.217  1.00  0.00     0.012 C 
ATOM     24  C   UNL     1     -45.044  29.048 -19.963  1.00  0.00     0.014 C 
ATOM     25  C   UNL     1     -44.267  31.116 -18.824  1.00  0.00     0.014 C 
ATOM     26  C   UNL     1     -41.901  32.452 -20.734  1.00  0.00     0.012 C 
ATOM     27  C   UNL     1     -35.486  26.330 -21.774  1.00  0.00     0.011 C 
ENDROOT
BRANCH   1  28
ATOM     28  C   UNL     1     -39.197  24.862 -23.275  1.00  0.00    -0.077 C 
ATOM     29  C   UNL     1     -40.361  25.480 -24.008  1.00  0.00     0.039 C 
ATOM     30  C   UNL     1     -38.558  23.826 -23.841  1.00  0.00     0.008 C 
ENDBRANCH   1  28
BRANCH  13  31
ATOM     31  O   UNL     1     -45.079  32.575 -21.000  1.00  0.00    -0.393 OA
ATOM     32  H   UNL     1     -45.931  32.927 -21.368  1.00  0.00     0.210 HD
ENDBRANCH  13  31
TORSDOF 2
ENDMDL
MODEL 4
REMARK VINA RESULT:   138.134      8.466     11.773
REMARK INTER + INTRA:         150.380
REMARK INTER:                 150.800
REMARK INTRA:                  -0.420
REMARK UNBOUND:                 0.133
REMARK SMILES C=C(C)[C@H]1CC[C@]2(C)CC[C@@]3(C)[C@@H](CC[C@H]4[C@@]5(C)CC[C@H](O)C(C)(C)[C@@H]5CC[C@]43C)[C@H]12
REMARK SMILES IDX 4 1 5 2 6 3 7 4 31 5 13 6 14 7 15 8 16 9 17 10 19 11 20 12
REMARK SMILES IDX 21 13 23 14 26 15 27 16 28 17 29 18 11 19 10 20 9 21 12 22
REMARK SMILES IDX 30 23 24 24 25 25 18 26 8 27 2 28 3 29 1 30 22 31
REMARK H PARENT 22 32
REMARK Flexibility Score: inf
ROOT
ATOM      1  C   UNL     1     -35.723  29.283 -17.191  1.00  0.00     0.018 C 
ATOM      2  C   UNL     1     -36.517  29.618 -18.450  1.00  0.00     0.009 C 
ATOM      3  C   UNL     1     -35.483  30.197 -19.394  1.00  0.00     0.008 C 
ATOM      4  C   UNL     1     -34.542  31.039 -18.509  1.00  0.00    -0.029 C 
ATOM      5  C   UNL     1     -34.531  30.295 -17.119  1.00  0.00     0.006 C 
ATOM      6  C   UNL     1     -33.209  29.552 -16.666  1.00  0.00    -0.000 C 
ATOM      7  C   UNL     1     -33.113  29.580 -15.140  1.00  0.00     0.005 C 
ATOM      8  C   UNL     1     -32.022  28.671 -14.612  1.00  0.00     0.005 C 
ATOM      9  C   UNL     1     -30.623  28.666 -15.341  1.00  0.00     0.002 C 
ATOM     10  C   UNL     1     -29.832  27.300 -15.030  1.00  0.00    -0.026 C 
ATOM     11  C   UNL     1     -29.763  26.984 -13.478  1.00  0.00     0.010 C 
ATOM     12  C   UNL     1     -29.995  25.501 -13.100  1.00  0.00     0.033 C 
ATOM     13  C   UNL     1     -29.363  24.505 -14.093  1.00  0.00     0.120 C 
ATOM     14  C   UNL     1     -29.920  24.674 -15.567  1.00  0.00    -0.006 C 
ATOM     15  C   UNL     1     -30.565  26.111 -15.758  1.00  0.00     0.003 C 
ATOM     16  C   UNL     1     -31.145  26.459 -17.161  1.00  0.00     0.005 C 
ATOM     17  C   UNL     1     -30.602  27.742 -17.795  1.00  0.00     0.008 C 
ATOM     18  C   UNL     1     -30.649  29.062 -16.910  1.00  0.00    -0.024 C 
ATOM     19  C   UNL     1     -31.884  30.062 -17.284  1.00  0.00    -0.024 C 
ATOM     20  C   UNL     1     -32.150  30.141 -18.825  1.00  0.00     0.008 C 
ATOM     21  C   UNL     1     -33.161  31.220 -19.203  1.00  0.00     0.007 C 
ATOM     22  C   UNL     1     -31.581  31.509 -16.745  1.00  0.00     0.012 C 
ATOM     23  C   UNL     1     -29.325  29.846 -17.256  1.00  0.00     0.012 C 
ATOM     24  C   UNL     1     -31.032  23.603 -15.772  1.00  0.00     0.014 C 
ATOM     25  C   UNL     1     -28.820  24.361 -16.615  1.00  0.00     0.014 C 
ATOM     26  C   UNL     1     -28.348  27.447 -15.482  1.00  0.00     0.012 C 
ATOM     27  C   UNL     1     -35.164  32.454 -18.346  1.00  0.00     0.011 C 
ENDROOT
BRANCH   1  28
ATOM     28  C   UNL     1     -36.593  29.236 -15.940  1.00  0.00    -0.077 C 
ATOM     29  C   UNL     1     -36.493  30.340 -14.917  1.00  0.00     0.039 C 
ATOM     30  C   UNL     1     -37.450  28.229 -15.716  1.00  0.00     0.008 C 
ENDBRANCH   1  28
BRANCH  13  31
ATOM     31  O   UNL     1     -27.966  24.634 -14.023  1.00  0.00    -0.393 OA
ATOM     32  H   UNL     1     -27.760  25.311 -13.329  1.00  0.00     0.210 HD
ENDBRANCH  13  31
TORSDOF 2
ENDMDL
