MODEL 1
REMARK VINA RESULT:     1.302      0.000      0.000
REMARK INTER + INTRA:           3.515
REMARK INTER:                   1.986
REMARK INTRA:                   1.529
REMARK UNBOUND:                 1.529
REMARK SMILES CC1=CCC[C@H](C)C(=O)C[C@@H](C(C)C)C(=O)C1
REMARK SMILES IDX 8 1 9 2 6 3 7 4 5 5 4 6 3 7 2 8 1 9 10 11 11 12 15 13 16 14
REMARK SMILES IDX 17 15 12 17 13 18 14 19
REMARK H PARENT
REMARK Flexibility Score: 70.00
ROOT
ATOM      1  C   UNL     1      76.239  74.397  72.528  1.00  0.00     0.136 C 
ATOM      2  O   UNL     1      77.283  74.035  72.004  1.00  0.00    -0.299 OA
ENDROOT
BRANCH   1   3
ATOM      3  C   UNL     1      75.962  75.872  72.708  1.00  0.00     0.053 C 
ATOM      4  C   UNL     1      74.833  76.317  71.770  1.00  0.00     0.016 C 
BRANCH   3   5
ATOM      5  C   UNL     1      75.616  76.201  74.174  1.00  0.00     0.015 C 
BRANCH   5   6
ATOM      6  C   UNL     1      76.635  75.616  75.176  1.00  0.00     0.028 C 
BRANCH   6   7
ATOM      7  C   UNL     1      76.014  75.401  76.537  1.00  0.00    -0.028 C 
ATOM      8  C   UNL     1      75.183  74.398  76.910  1.00  0.00    -0.070 CG0
ATOM      9  C   UNL     1      74.732  74.372  78.351  1.00  0.00     0.039 C 
ATOM     10  G   UNL     1      74.657  73.317  75.980  1.00  0.00     0.000 G0
ENDBRANCH   6   7
ENDBRANCH   5   6
ENDBRANCH   3   5
ENDBRANCH   1   3
BRANCH   1  11
ATOM     11  C   UNL     1      75.258  73.377  73.060  1.00  0.00     0.087 C 
BRANCH  11  12
ATOM     12  C   UNL     1      73.908  73.990  73.508  1.00  0.00     0.066 C 
BRANCH  12  13
ATOM     13  C   UNL     1      73.645  73.854  75.002  1.00  0.00     0.140 C 
ATOM     14  O   UNL     1      72.530  74.140  75.418  1.00  0.00    -0.299 OA
BRANCH  13  15
ATOM     15  C   UNL     1      74.664  73.315  75.981  1.00  0.00     0.106 CG0
ATOM     16  G   UNL     1      75.171  74.411  76.903  1.00  0.00     0.000 G0
ENDBRANCH  13  15
ENDBRANCH  12  13
BRANCH  12  17
ATOM     17  C   UNL     1      72.717  73.498  72.631  1.00  0.00    -0.006 C 
ATOM     18  C   UNL     1      72.110  74.584  71.727  1.00  0.00     0.008 C 
ATOM     19  C   UNL     1      73.113  72.278  71.785  1.00  0.00     0.008 C 
ENDBRANCH  12  17
ENDBRANCH  11  12
ENDBRANCH   1  11
TORSDOF 1
ENDMDL
MODEL 2
REMARK VINA RESULT:     1.818      1.629      3.902
REMARK INTER + INTRA:           4.304
REMARK INTER:                   2.402
REMARK INTRA:                   1.902
REMARK UNBOUND:                 1.529
REMARK SMILES CC1=CCC[C@H](C)C(=O)C[C@@H](C(C)C)C(=O)C1
REMARK SMILES IDX 8 1 9 2 6 3 7 4 5 5 4 6 3 7 2 8 1 9 10 11 11 12 15 13 16 14
REMARK SMILES IDX 17 15 12 17 13 18 14 19
REMARK H PARENT
REMARK Flexibility Score: 70.00
ROOT
ATOM      1  C   UNL     1      73.797  74.020  75.556  1.00  0.00     0.136 C 
ATOM      2  O   UNL     1      73.040  73.232  76.105  1.00  0.00    -0.299 OA
ENDROOT
BRANCH   1   3
ATOM      3  C   UNL     1      74.857  74.729  76.366  1.00  0.00     0.053 C 
ATOM      4  C   UNL     1      74.814  74.256  77.825  1.00  0.00     0.016 C 
BRANCH   3   5
ATOM      5  C   UNL     1      76.260  74.512  75.764  1.00  0.00     0.015 C 
BRANCH   5   6
ATOM      6  C   UNL     1      76.880  75.813  75.209  1.00  0.00     0.028 C 
BRANCH   6   7
ATOM      7  C   UNL     1      76.094  76.345  74.033  1.00  0.00    -0.028 C 
ATOM      8  C   UNL     1      75.884  75.733  72.843  1.00  0.00    -0.070 CG0
ATOM      9  C   UNL     1      75.016  76.452  71.838  1.00  0.00     0.039 C 
ATOM     10  G   UNL     1      76.475  74.392  72.441  1.00  0.00     0.000 G0
ENDBRANCH   6   7
ENDBRANCH   5   6
ENDBRANCH   3   5
ENDBRANCH   1   3
BRANCH   1  11
ATOM     11  C   UNL     1      73.631  74.342  74.088  1.00  0.00     0.087 C 
BRANCH  11  12
ATOM     12  C   UNL     1      74.175  73.239  73.147  1.00  0.00     0.066 C 
BRANCH  12  13
ATOM     13  C   UNL     1      75.692  73.245  73.016  1.00  0.00     0.140 C 
ATOM     14  O   UNL     1      76.302  72.236  73.345  1.00  0.00    -0.299 OA
BRANCH  13  15
ATOM     15  C   UNL     1      76.472  74.402  72.433  1.00  0.00     0.106 CG0
ATOM     16  G   UNL     1      75.871  75.733  72.850  1.00  0.00     0.000 G0
ENDBRANCH  13  15
ENDBRANCH  12  13
BRANCH  12  17
ATOM     17  C   UNL     1      73.443  73.227  71.770  1.00  0.00    -0.006 C 
ATOM     18  C   UNL     1      72.942  71.840  71.335  1.00  0.00     0.008 C 
ATOM     19  C   UNL     1      72.280  74.232  71.746  1.00  0.00     0.008 C 
ENDBRANCH  12  17
ENDBRANCH  11  12
ENDBRANCH   1  11
TORSDOF 1
ENDMDL
MODEL 3
REMARK VINA RESULT:     1.950      2.067      3.920
REMARK INTER + INTRA:           4.505
REMARK INTER:                   3.819
REMARK INTRA:                   0.686
REMARK UNBOUND:                 1.529
REMARK SMILES CC1=CCC[C@H](C)C(=O)C[C@@H](C(C)C)C(=O)C1
REMARK SMILES IDX 8 1 9 2 6 3 7 4 5 5 4 6 3 7 2 8 1 9 10 11 11 12 15 13 16 14
REMARK SMILES IDX 17 15 12 17 13 18 14 19
REMARK H PARENT
REMARK Flexibility Score: 70.00
ROOT
ATOM      1  C   UNL     1      74.131  73.813  75.920  1.00  0.00     0.136 C 
ATOM      2  O   UNL     1      74.339  72.618  76.075  1.00  0.00    -0.299 OA
ENDROOT
BRANCH   1   3
ATOM      3  C   UNL     1      74.877  74.821  76.764  1.00  0.00     0.053 C 
ATOM      4  C   UNL     1      74.917  74.360  78.227  1.00  0.00     0.016 C 
BRANCH   3   5
ATOM      5  C   UNL     1      76.303  75.053  76.227  1.00  0.00     0.015 C 
BRANCH   5   6
ATOM      6  C   UNL     1      76.332  75.970  74.984  1.00  0.00     0.028 C 
BRANCH   6   7
ATOM      7  C   UNL     1      76.776  75.219  73.750  1.00  0.00    -0.028 C 
ATOM      8  C   UNL     1      76.244  75.298  72.506  1.00  0.00    -0.070 CG0
ATOM      9  C   UNL     1      76.899  74.479  71.420  1.00  0.00     0.039 C 
ATOM     10  G   UNL     1      75.028  76.131  72.135  1.00  0.00     0.000 G0
ENDBRANCH   6   7
ENDBRANCH   5   6
ENDBRANCH   3   5
ENDBRANCH   1   3
BRANCH   1  11
ATOM     11  C   UNL     1      73.080  74.284  74.940  1.00  0.00     0.087 C 
BRANCH  11  12
ATOM     12  C   UNL     1      73.579  74.338  73.475  1.00  0.00     0.066 C 
BRANCH  12  13
ATOM     13  C   UNL     1      73.846  75.752  72.975  1.00  0.00     0.140 C 
ATOM     14  O   UNL     1      73.089  76.643  73.335  1.00  0.00    -0.299 OA
BRANCH  13  15
ATOM     15  C   UNL     1      75.038  76.120  72.119  1.00  0.00     0.106 CG0
ATOM     16  G   UNL     1      76.262  75.307  72.506  1.00  0.00     0.000 G0
ENDBRANCH  13  15
ENDBRANCH  12  13
BRANCH  12  17
ATOM     17  C   UNL     1      72.672  73.512  72.513  1.00  0.00    -0.006 C 
ATOM     18  C   UNL     1      71.877  74.364  71.510  1.00  0.00     0.008 C 
ATOM     19  C   UNL     1      73.482  72.444  71.762  1.00  0.00     0.008 C 
ENDBRANCH  12  17
ENDBRANCH  11  12
ENDBRANCH   1  11
TORSDOF 1
ENDMDL
MODEL 4
REMARK VINA RESULT:     2.845      1.594      4.073
REMARK INTER + INTRA:           5.870
REMARK INTER:                   3.014
REMARK INTRA:                   2.856
REMARK UNBOUND:                 1.529
REMARK SMILES CC1=CCC[C@H](C)C(=O)C[C@@H](C(C)C)C(=O)C1
REMARK SMILES IDX 8 1 9 2 6 3 7 4 5 5 4 6 3 7 2 8 1 9 10 11 11 12 15 13 16 14
REMARK SMILES IDX 17 15 12 17 13 18 14 19
REMARK H PARENT
REMARK Flexibility Score: 70.00
ROOT
ATOM      1  C   UNL     1      75.986  73.617  73.411  1.00  0.00     0.136 C 
ATOM      2  O   UNL     1      75.620  72.450  73.417  1.00  0.00    -0.299 OA
ENDROOT
BRANCH   1   3
ATOM      3  C   UNL     1      76.446  74.252  72.119  1.00  0.00     0.053 C 
ATOM      4  C   UNL     1      75.646  73.687  70.938  1.00  0.00     0.016 C 
BRANCH   3   5
ATOM      5  C   UNL     1      76.324  75.788  72.176  1.00  0.00     0.015 C 
BRANCH   5   6
ATOM      6  C   UNL     1      74.944  76.296  71.703  1.00  0.00     0.028 C 
BRANCH   6   7
ATOM      7  C   UNL     1      73.930  75.178  71.646  1.00  0.00    -0.028 C 
ATOM      8  C   UNL     1      73.128  74.746  72.650  1.00  0.00    -0.070 CG0
ATOM      9  C   UNL     1      72.155  73.636  72.331  1.00  0.00     0.039 C 
ATOM     10  G   UNL     1      73.154  75.283  74.071  1.00  0.00     0.000 G0
ENDBRANCH   6   7
ENDBRANCH   5   6
ENDBRANCH   3   5
ENDBRANCH   1   3
BRANCH   1  11
ATOM     11  C   UNL     1      76.048  74.405  74.700  1.00  0.00     0.087 C 
BRANCH  11  12
ATOM     12  C   UNL     1      74.906  74.065  75.689  1.00  0.00     0.066 C 
BRANCH  12  13
ATOM     13  C   UNL     1      73.515  74.240  75.096  1.00  0.00     0.140 C 
ATOM     14  O   UNL     1      72.617  73.520  75.512  1.00  0.00    -0.299 OA
BRANCH  13  15
ATOM     15  C   UNL     1      73.173  75.305  74.078  1.00  0.00     0.106 CG0
ATOM     16  G   UNL     1      73.136  74.726  72.673  1.00  0.00     0.000 G0
ENDBRANCH  13  15
ENDBRANCH  12  13
BRANCH  12  17
ATOM     17  C   UNL     1      75.081  74.786  77.061  1.00  0.00    -0.006 C 
ATOM     18  C   UNL     1      74.893  73.872  78.282  1.00  0.00     0.008 C 
ATOM     19  C   UNL     1      76.440  75.498  77.148  1.00  0.00     0.008 C 
ENDBRANCH  12  17
ENDBRANCH  11  12
ENDBRANCH   1  11
TORSDOF 1
ENDMDL
MODEL 5
REMARK VINA RESULT:     2.960      1.935      4.286
REMARK INTER + INTRA:           6.046
REMARK INTER:                   3.514
REMARK INTRA:                   2.532
REMARK UNBOUND:                 1.529
REMARK SMILES CC1=CCC[C@H](C)C(=O)C[C@@H](C(C)C)C(=O)C1
REMARK SMILES IDX 8 1 9 2 6 3 7 4 5 5 4 6 3 7 2 8 1 9 10 11 11 12 15 13 16 14
REMARK SMILES IDX 17 15 12 17 13 18 14 19
REMARK H PARENT
REMARK Flexibility Score: 70.00
ROOT
ATOM      1  C   UNL     1      75.760  75.324  75.473  1.00  0.00     0.136 C 
ATOM      2  O   UNL     1      75.225  76.407  75.668  1.00  0.00    -0.299 OA
ENDROOT
BRANCH   1   3
ATOM      3  C   UNL     1      75.451  74.160  76.386  1.00  0.00     0.053 C 
ATOM      4  C   UNL     1      75.381  74.635  77.843  1.00  0.00     0.016 C 
BRANCH   3   5
ATOM      5  C   UNL     1      74.139  73.461  75.976  1.00  0.00     0.015 C 
BRANCH   5   6
ATOM      6  C   UNL     1      73.026  74.458  75.586  1.00  0.00     0.028 C 
BRANCH   6   7
ATOM      7  C   UNL     1      72.559  74.241  74.165  1.00  0.00    -0.028 C 
ATOM      8  C   UNL     1      72.937  74.932  73.063  1.00  0.00    -0.070 CG0
ATOM      9  C   UNL     1      72.363  74.490  71.738  1.00  0.00     0.039 C 
ATOM     10  G   UNL     1      73.876  76.127  73.069  1.00  0.00     0.000 G0
ENDBRANCH   6   7
ENDBRANCH   5   6
ENDBRANCH   3   5
ENDBRANCH   1   3
BRANCH   1  11
ATOM     11  C   UNL     1      76.781  75.164  74.369  1.00  0.00     0.087 C 
BRANCH  11  12
ATOM     12  C   UNL     1      76.164  74.749  73.011  1.00  0.00     0.066 C 
BRANCH  12  13
ATOM     13  C   UNL     1      75.204  75.781  72.437  1.00  0.00     0.140 C 
ATOM     14  O   UNL     1      75.501  76.319  71.379  1.00  0.00    -0.299 OA
BRANCH  13  15
ATOM     15  C   UNL     1      73.871  76.120  73.069  1.00  0.00     0.106 CG0
ATOM     16  G   UNL     1      72.935  74.924  73.046  1.00  0.00     0.000 G0
ENDBRANCH  13  15
ENDBRANCH  12  13
BRANCH  12  17
ATOM     17  C   UNL     1      75.562  73.311  73.052  1.00  0.00    -0.006 C 
ATOM     18  C   UNL     1      74.836  72.894  71.762  1.00  0.00     0.008 C 
ATOM     19  C   UNL     1      76.632  72.267  73.409  1.00  0.00     0.008 C 
ENDBRANCH  12  17
ENDBRANCH  11  12
ENDBRANCH   1  11
TORSDOF 1
ENDMDL
MODEL 6
REMARK VINA RESULT:     2.960      1.812      4.550
REMARK INTER + INTRA:           6.047
REMARK INTER:                   3.920
REMARK INTRA:                   2.127
REMARK UNBOUND:                 1.529
REMARK SMILES CC1=CCC[C@H](C)C(=O)C[C@@H](C(C)C)C(=O)C1
REMARK SMILES IDX 8 1 9 2 6 3 7 4 5 5 4 6 3 7 2 8 1 9 10 11 11 12 15 13 16 14
REMARK SMILES IDX 17 15 12 17 13 18 14 19
REMARK H PARENT
REMARK Flexibility Score: 70.00
ROOT
ATOM      1  C   UNL     1      73.275  74.804  74.073  1.00  0.00     0.136 C 
ATOM      2  O   UNL     1      73.256  76.012  73.884  1.00  0.00    -0.299 OA
ENDROOT
BRANCH   1   3
ATOM      3  C   UNL     1      72.797  73.867  72.988  1.00  0.00     0.053 C 
ATOM      4  C   UNL     1      72.365  74.666  71.752  1.00  0.00     0.016 C 
BRANCH   3   5
ATOM      5  C   UNL     1      73.883  72.836  72.620  1.00  0.00     0.015 C 
BRANCH   5   6
ATOM      6  C   UNL     1      74.651  73.211  71.334  1.00  0.00     0.028 C 
BRANCH   6   7
ATOM      7  C   UNL     1      75.397  74.515  71.493  1.00  0.00    -0.028 C 
ATOM      8  C   UNL     1      76.128  74.917  72.562  1.00  0.00    -0.070 CG0
ATOM      9  C   UNL     1      76.824  76.253  72.461  1.00  0.00     0.039 C 
ATOM     10  G   UNL     1      76.276  74.133  73.854  1.00  0.00     0.000 G0
ENDBRANCH   6   7
ENDBRANCH   5   6
ENDBRANCH   3   5
ENDBRANCH   1   3
BRANCH   1  11
ATOM     11  C   UNL     1      73.708  74.247  75.410  1.00  0.00     0.087 C 
BRANCH  11  12
ATOM     12  C   UNL     1      74.929  74.980  76.021  1.00  0.00     0.066 C 
BRANCH  12  13
ATOM     13  C   UNL     1      76.130  75.042  75.088  1.00  0.00     0.140 C 
ATOM     14  O   UNL     1      77.036  75.817  75.366  1.00  0.00    -0.299 OA
BRANCH  13  15
ATOM     15  C   UNL     1      76.294  74.145  73.881  1.00  0.00     0.106 CG0
ATOM     16  G   UNL     1      76.117  74.926  72.590  1.00  0.00     0.000 G0
ENDBRANCH  13  15
ENDBRANCH  12  13
BRANCH  12  17
ATOM     17  C   UNL     1      75.286  74.446  77.442  1.00  0.00    -0.006 C 
ATOM     18  C   UNL     1      74.631  75.230  78.592  1.00  0.00     0.008 C 
ATOM     19  C   UNL     1      74.955  72.951  77.576  1.00  0.00     0.008 C 
ENDBRANCH  12  17
ENDBRANCH  11  12
ENDBRANCH   1  11
TORSDOF 1
ENDMDL
MODEL 7
REMARK VINA RESULT:     3.048      1.571      3.443
REMARK INTER + INTRA:           6.181
REMARK INTER:                   4.832
REMARK INTRA:                   1.349
REMARK UNBOUND:                 1.529
REMARK SMILES CC1=CCC[C@H](C)C(=O)C[C@@H](C(C)C)C(=O)C1
REMARK SMILES IDX 8 1 9 2 6 3 7 4 5 5 4 6 3 7 2 8 1 9 10 11 11 12 15 13 16 14
REMARK SMILES IDX 17 15 12 17 13 18 14 19
REMARK H PARENT
REMARK Flexibility Score: 70.00
ROOT
ATOM      1  C   UNL     1      73.125  74.881  72.540  1.00  0.00     0.136 C 
ATOM      2  O   UNL     1      72.428  75.352  71.652  1.00  0.00    -0.299 OA
ENDROOT
BRANCH   1   3
ATOM      3  C   UNL     1      73.089  73.394  72.812  1.00  0.00     0.053 C 
ATOM      4  C   UNL     1      73.708  72.626  71.637  1.00  0.00     0.016 C 
BRANCH   3   5
ATOM      5  C   UNL     1      73.810  73.049  74.130  1.00  0.00     0.015 C 
BRANCH   5   6
ATOM      6  C   UNL     1      73.046  73.546  75.377  1.00  0.00     0.028 C 
BRANCH   6   7
ATOM      7  C   UNL     1      73.919  73.518  76.610  1.00  0.00    -0.028 C 
ATOM      8  C   UNL     1      74.748  74.495  77.051  1.00  0.00    -0.070 CG0
ATOM      9  C   UNL     1      75.483  74.248  78.346  1.00  0.00     0.039 C 
ATOM     10  G   UNL     1      75.005  75.805  76.325  1.00  0.00     0.000 G0
ENDBRANCH   6   7
ENDBRANCH   5   6
ENDBRANCH   3   5
ENDBRANCH   1   3
BRANCH   1  11
ATOM     11  C   UNL     1      73.968  75.784  73.411  1.00  0.00     0.087 C 
BRANCH  11  12
ATOM     12  C   UNL     1      75.368  75.205  73.734  1.00  0.00     0.066 C 
BRANCH  12  13
ATOM     13  C   UNL     1      75.890  75.606  75.107  1.00  0.00     0.140 C 
ATOM     14  O   UNL     1      77.086  75.838  75.222  1.00  0.00    -0.299 OA
BRANCH  13  15
ATOM     15  C   UNL     1      74.997  75.803  76.312  1.00  0.00     0.106 CG0
ATOM     16  G   UNL     1      74.781  74.494  77.053  1.00  0.00     0.000 G0
ENDBRANCH  13  15
ENDBRANCH  12  13
BRANCH  12  17
ATOM     17  C   UNL     1      76.393  75.470  72.589  1.00  0.00    -0.006 C 
ATOM     18  C   UNL     1      76.873  74.200  71.867  1.00  0.00     0.008 C 
ATOM     19  C   UNL     1      75.840  76.474  71.565  1.00  0.00     0.008 C 
ENDBRANCH  12  17
ENDBRANCH  11  12
ENDBRANCH   1  11
TORSDOF 1
ENDMDL
MODEL 8
REMARK VINA RESULT:     3.053      1.719      4.006
REMARK INTER + INTRA:           6.188
REMARK INTER:                   4.810
REMARK INTRA:                   1.378
REMARK UNBOUND:                 1.529
REMARK SMILES CC1=CCC[C@H](C)C(=O)C[C@@H](C(C)C)C(=O)C1
REMARK SMILES IDX 8 1 9 2 6 3 7 4 5 5 4 6 3 7 2 8 1 9 10 11 11 12 15 13 16 14
REMARK SMILES IDX 17 15 12 17 13 18 14 19
REMARK H PARENT
REMARK Flexibility Score: 70.00
ROOT
ATOM      1  C   UNL     1      74.500  76.149  73.058  1.00  0.00     0.136 C 
ATOM      2  O   UNL     1      73.339  76.384  72.753  1.00  0.00    -0.299 OA
ENDROOT
BRANCH   1   3
ATOM      3  C   UNL     1      75.487  75.735  71.991  1.00  0.00     0.053 C 
ATOM      4  C   UNL     1      76.180  76.971  71.403  1.00  0.00     0.016 C 
BRANCH   3   5
ATOM      5  C   UNL     1      76.525  74.739  72.545  1.00  0.00     0.015 C 
BRANCH   5   6
ATOM      6  C   UNL     1      75.947  73.321  72.745  1.00  0.00     0.028 C 
BRANCH   6   7
ATOM      7  C   UNL     1      74.551  73.206  72.177  1.00  0.00    -0.028 C 
ATOM      8  C   UNL     1      73.398  73.023  72.865  1.00  0.00    -0.070 CG0
ATOM      9  C   UNL     1      72.115  72.990  72.069  1.00  0.00     0.039 C 
ATOM     10  G   UNL     1      73.308  72.828  74.369  1.00  0.00     0.000 G0
ENDBRANCH   6   7
ENDBRANCH   5   6
ENDBRANCH   3   5
ENDBRANCH   1   3
BRANCH   1  11
ATOM     11  C   UNL     1      74.935  76.202  74.505  1.00  0.00     0.087 C 
BRANCH  11  12
ATOM     12  C   UNL     1      74.891  74.827  75.217  1.00  0.00     0.066 C 
BRANCH  12  13
ATOM     13  C   UNL     1      73.536  74.138  75.125  1.00  0.00     0.140 C 
ATOM     14  O   UNL     1      72.569  74.702  75.618  1.00  0.00    -0.299 OA
BRANCH  13  15
ATOM     15  C   UNL     1      73.315  72.832  74.393  1.00  0.00     0.106 CG0
ATOM     16  G   UNL     1      73.396  73.028  72.889  1.00  0.00     0.000 G0
ENDBRANCH  13  15
ENDBRANCH  12  13
BRANCH  12  17
ATOM     17  C   UNL     1      75.441  74.900  76.674  1.00  0.00    -0.006 C 
ATOM     18  C   UNL     1      74.979  73.747  77.580  1.00  0.00     0.008 C 
ATOM     19  C   UNL     1      76.975  74.990  76.688  1.00  0.00     0.008 C 
ENDBRANCH  12  17
ENDBRANCH  11  12
ENDBRANCH   1  11
TORSDOF 1
ENDMDL
MODEL 9
REMARK VINA RESULT:     3.650      1.968      4.691
REMARK INTER + INTRA:           7.099
REMARK INTER:                   5.044
REMARK INTRA:                   2.055
REMARK UNBOUND:                 1.529
REMARK SMILES CC1=CCC[C@H](C)C(=O)C[C@@H](C(C)C)C(=O)C1
REMARK SMILES IDX 8 1 9 2 6 3 7 4 5 5 4 6 3 7 2 8 1 9 10 11 11 12 15 13 16 14
REMARK SMILES IDX 17 15 12 17 13 18 14 19
REMARK H PARENT
REMARK Flexibility Score: 70.00
ROOT
ATOM      1  C   UNL     1      74.808  72.939  73.564  1.00  0.00     0.136 C 
ATOM      2  O   UNL     1      76.008  72.734  73.689  1.00  0.00    -0.299 OA
ENDROOT
BRANCH   1   3
ATOM      3  C   UNL     1      74.167  72.834  72.200  1.00  0.00     0.053 C 
ATOM      4  C   UNL     1      74.257  71.393  71.682  1.00  0.00     0.016 C 
BRANCH   3   5
ATOM      5  C   UNL     1      72.701  73.312  72.232  1.00  0.00     0.015 C 
BRANCH   5   6
ATOM      6  C   UNL     1      72.519  74.724  71.634  1.00  0.00     0.028 C 
BRANCH   6   7
ATOM      7  C   UNL     1      73.848  75.359  71.295  1.00  0.00    -0.028 C 
ATOM      8  C   UNL     1      74.647  76.080  72.119  1.00  0.00    -0.070 CG0
ATOM      9  C   UNL     1      75.959  76.571  71.556  1.00  0.00     0.039 C 
ATOM     10  G   UNL     1      74.306  76.446  73.553  1.00  0.00     0.000 G0
ENDBRANCH   6   7
ENDBRANCH   5   6
ENDBRANCH   3   5
ENDBRANCH   1   3
BRANCH   1  11
ATOM     11  C   UNL     1      73.978  73.364  74.755  1.00  0.00     0.087 C 
BRANCH  11  12
ATOM     12  C   UNL     1      74.531  74.616  75.480  1.00  0.00     0.066 C 
BRANCH  12  13
ATOM     13  C   UNL     1      75.122  75.655  74.536  1.00  0.00     0.140 C 
ATOM     14  O   UNL     1      76.335  75.812  74.539  1.00  0.00    -0.299 OA
BRANCH  13  15
ATOM     15  C   UNL     1      74.294  76.446  73.548  1.00  0.00     0.106 CG0
ATOM     16  G   UNL     1      74.642  76.069  72.118  1.00  0.00     0.000 G0
ENDBRANCH  13  15
ENDBRANCH  12  13
BRANCH  12  17
ATOM     17  C   UNL     1      75.489  74.242  76.652  1.00  0.00    -0.006 C 
ATOM     18  C   UNL     1      76.842  74.974  76.619  1.00  0.00     0.008 C 
ATOM     19  C   UNL     1      74.814  74.458  78.016  1.00  0.00     0.008 C 
ENDBRANCH  12  17
ENDBRANCH  11  12
ENDBRANCH   1  11
TORSDOF 1
ENDMDL
