MODEL 1
REMARK VINA RESULT:    -4.398      0.000      0.000
REMARK INTER + INTRA:          -6.520
REMARK INTER:                  -5.941
REMARK INTRA:                  -0.579
REMARK UNBOUND:                -0.579
REMARK SMILES CCCCCCC=CC(=O)[O-]
REMARK SMILES IDX 5 1 6 2 7 3 8 4 9 5 10 6 11 7 4 8 3 9 2 10 1 11
REMARK H PARENT
REMARK Flexibility Score: inf
ROOT
ATOM      1  C   UNL     1      -0.077  -4.339  -1.379  1.00  0.00     0.004 C 
ENDROOT
BRANCH   1   2
ATOM      2  C   UNL     1      -0.190  -5.773  -1.914  1.00  0.00     0.027 C 
BRANCH   2   3
ATOM      3  C   UNL     1      -1.429  -6.453  -1.396  1.00  0.00    -0.025 C 
ATOM      4  C   UNL     1      -2.629  -6.471  -1.999  1.00  0.00     0.020 C 
BRANCH   4   5
ATOM      5  C   UNL     1      -2.972  -5.865  -3.303  1.00  0.00     0.064 C 
ATOM      6  O   UNL     1      -2.756  -6.454  -4.393  1.00  0.00    -0.545 OA
ATOM      7  O   UNL     1      -3.572  -4.613  -3.323  1.00  0.00    -0.545 OA
ENDBRANCH   4   5
ENDBRANCH   2   3
ENDBRANCH   1   2
BRANCH   1   8
ATOM      8  C   UNL     1      -0.280  -3.316  -2.503  1.00  0.00     0.000 C 
BRANCH   8   9
ATOM      9  C   UNL     1       0.416  -3.771  -3.793  1.00  0.00    -0.000 C 
BRANCH   9  10
ATOM     10  C   UNL     1       1.326  -2.685  -4.389  1.00  0.00    -0.003 C 
ATOM     11  C   UNL     1       2.770  -3.154  -4.562  1.00  0.00     0.004 C 
ENDBRANCH   9  10
ENDBRANCH   8   9
ENDBRANCH   1   8
TORSDOF 6
ENDMDL
MODEL 2
REMARK VINA RESULT:    -4.317      2.180      4.357
REMARK INTER + INTRA:          -6.411
REMARK INTER:                  -5.547
REMARK INTRA:                  -0.864
REMARK UNBOUND:                -0.579
REMARK SMILES CCCCCCC=CC(=O)[O-]
REMARK SMILES IDX 5 1 6 2 7 3 8 4 9 5 10 6 11 7 4 8 3 9 2 10 1 11
REMARK H PARENT
REMARK Flexibility Score: inf
ROOT
ATOM      1  C   UNL     1      -0.406  -6.821  -1.807  1.00  0.00     0.004 C 
ENDROOT
BRANCH   1   2
ATOM      2  C   UNL     1       0.580  -5.761  -1.301  1.00  0.00     0.027 C 
BRANCH   2   3
ATOM      3  C   UNL     1      -0.016  -4.381  -1.374  1.00  0.00    -0.025 C 
ATOM      4  C   UNL     1       0.108  -3.521  -2.399  1.00  0.00     0.020 C 
BRANCH   4   5
ATOM      5  C   UNL     1       0.817  -3.763  -3.673  1.00  0.00     0.064 C 
ATOM      6  O   UNL     1       0.303  -4.427  -4.610  1.00  0.00    -0.545 OA
ATOM      7  O   UNL     1       2.082  -3.219  -3.849  1.00  0.00    -0.545 OA
ENDBRANCH   4   5
ENDBRANCH   2   3
ENDBRANCH   1   2
BRANCH   1   8
ATOM      8  C   UNL     1      -1.655  -6.879  -0.921  1.00  0.00     0.000 C 
BRANCH   8   9
ATOM      9  C   UNL     1      -2.934  -6.842  -1.770  1.00  0.00    -0.000 C 
BRANCH   9  10
ATOM     10  C   UNL     1      -2.689  -6.289  -3.183  1.00  0.00    -0.003 C 
ATOM     11  C   UNL     1      -3.178  -4.850  -3.347  1.00  0.00     0.004 C 
ENDBRANCH   9  10
ENDBRANCH   8   9
ENDBRANCH   1   8
TORSDOF 6
ENDMDL
MODEL 3
REMARK VINA RESULT:    -4.257      1.377      2.526
REMARK INTER + INTRA:          -6.330
REMARK INTER:                  -6.050
REMARK INTRA:                  -0.280
REMARK UNBOUND:                -0.579
REMARK SMILES CCCCCCC=CC(=O)[O-]
REMARK SMILES IDX 5 1 6 2 7 3 8 4 9 5 10 6 11 7 4 8 3 9 2 10 1 11
REMARK H PARENT
REMARK Flexibility Score: inf
ROOT
ATOM      1  C   UNL     1       1.456  -3.447  -3.536  1.00  0.00     0.004 C 
ENDROOT
BRANCH   1   2
ATOM      2  C   UNL     1       0.123  -3.030  -2.901  1.00  0.00     0.027 C 
BRANCH   2   3
ATOM      3  C   UNL     1      -0.368  -4.069  -1.930  1.00  0.00    -0.025 C 
ATOM      4  C   UNL     1      -1.285  -5.017  -2.185  1.00  0.00     0.020 C 
BRANCH   4   5
ATOM      5  C   UNL     1      -1.970  -5.258  -3.473  1.00  0.00     0.064 C 
ATOM      6  O   UNL     1      -1.368  -5.726  -4.474  1.00  0.00    -0.545 OA
ATOM      7  O   UNL     1      -3.327  -4.981  -3.573  1.00  0.00    -0.545 OA
ENDBRANCH   4   5
ENDBRANCH   2   3
ENDBRANCH   1   2
BRANCH   1   8
ATOM      8  C   UNL     1       1.631  -2.807  -4.918  1.00  0.00     0.000 C 
BRANCH   8   9
ATOM      9  C   UNL     1       3.085  -2.364  -5.139  1.00  0.00    -0.000 C 
BRANCH   9  10
ATOM     10  C   UNL     1       4.034  -3.549  -5.373  1.00  0.00    -0.003 C 
ATOM     11  C   UNL     1       5.237  -3.181  -6.242  1.00  0.00     0.004 C 
ENDBRANCH   9  10
ENDBRANCH   8   9
ENDBRANCH   1   8
TORSDOF 6
ENDMDL
MODEL 4
REMARK VINA RESULT:    -4.257      2.169      4.477
REMARK INTER + INTRA:          -6.330
REMARK INTER:                  -5.792
REMARK INTRA:                  -0.537
REMARK UNBOUND:                -0.579
REMARK SMILES CCCCCCC=CC(=O)[O-]
REMARK SMILES IDX 5 1 6 2 7 3 8 4 9 5 10 6 11 7 4 8 3 9 2 10 1 11
REMARK H PARENT
REMARK Flexibility Score: inf
ROOT
ATOM      1  C   UNL     1       0.047  -3.822  -1.826  1.00  0.00     0.004 C 
ENDROOT
BRANCH   1   2
ATOM      2  C   UNL     1       0.226  -3.007  -3.114  1.00  0.00     0.027 C 
BRANCH   2   3
ATOM      3  C   UNL     1       1.605  -3.190  -3.689  1.00  0.00    -0.025 C 
ATOM      4  C   UNL     1       1.903  -3.812  -4.841  1.00  0.00     0.020 C 
BRANCH   4   5
ATOM      5  C   UNL     1       0.945  -4.408  -5.796  1.00  0.00     0.064 C 
ATOM      6  O   UNL     1       0.381  -5.511  -5.578  1.00  0.00    -0.545 OA
ATOM      7  O   UNL     1       0.641  -3.716  -6.961  1.00  0.00    -0.545 OA
ENDBRANCH   4   5
ENDBRANCH   2   3
ENDBRANCH   1   2
BRANCH   1   8
ATOM      8  C   UNL     1      -0.985  -4.938  -2.021  1.00  0.00     0.000 C 
BRANCH   8   9
ATOM      9  C   UNL     1      -1.942  -4.607  -3.175  1.00  0.00    -0.000 C 
BRANCH   9  10
ATOM     10  C   UNL     1      -3.065  -5.645  -3.328  1.00  0.00    -0.003 C 
ATOM     11  C   UNL     1      -2.798  -6.643  -4.454  1.00  0.00     0.004 C 
ENDBRANCH   9  10
ENDBRANCH   8   9
ENDBRANCH   1   8
TORSDOF 6
ENDMDL
MODEL 5
REMARK VINA RESULT:    -4.224      3.574      5.997
REMARK INTER + INTRA:          -6.285
REMARK INTER:                  -5.949
REMARK INTRA:                  -0.335
REMARK UNBOUND:                -0.579
REMARK SMILES CCCCCCC=CC(=O)[O-]
REMARK SMILES IDX 5 1 6 2 7 3 8 4 9 5 10 6 11 7 4 8 3 9 2 10 1 11
REMARK H PARENT
REMARK Flexibility Score: inf
ROOT
ATOM      1  C   UNL     1       1.515  -3.601  -3.606  1.00  0.00     0.004 C 
ENDROOT
BRANCH   1   2
ATOM      2  C   UNL     1       2.075  -3.199  -4.977  1.00  0.00     0.027 C 
BRANCH   2   3
ATOM      3  C   UNL     1       3.519  -2.788  -4.877  1.00  0.00    -0.025 C 
ATOM      4  C   UNL     1       4.581  -3.556  -5.177  1.00  0.00     0.020 C 
BRANCH   4   5
ATOM      5  C   UNL     1       4.551  -4.939  -5.698  1.00  0.00     0.064 C 
ATOM      6  O   UNL     1       4.694  -5.197  -6.920  1.00  0.00    -0.545 OA
ATOM      7  O   UNL     1       4.382  -5.988  -4.804  1.00  0.00    -0.545 OA
ENDBRANCH   4   5
ENDBRANCH   2   3
ENDBRANCH   1   2
BRANCH   1   8
ATOM      8  C   UNL     1       0.300  -2.742  -3.235  1.00  0.00     0.000 C 
BRANCH   8   9
ATOM      9  C   UNL     1      -0.745  -3.570  -2.473  1.00  0.00    -0.000 C 
BRANCH   9  10
ATOM     10  C   UNL     1      -1.264  -4.763  -3.290  1.00  0.00    -0.003 C 
ATOM     11  C   UNL     1      -2.791  -4.825  -3.341  1.00  0.00     0.004 C 
ENDBRANCH   9  10
ENDBRANCH   8   9
ENDBRANCH   1   8
TORSDOF 6
ENDMDL
MODEL 6
REMARK VINA RESULT:    -4.195      1.280      2.058
REMARK INTER + INTRA:          -6.246
REMARK INTER:                  -5.685
REMARK INTRA:                  -0.561
REMARK UNBOUND:                -0.579
REMARK SMILES CCCCCCC=CC(=O)[O-]
REMARK SMILES IDX 5 1 6 2 7 3 8 4 9 5 10 6 11 7 4 8 3 9 2 10 1 11
REMARK H PARENT
REMARK Flexibility Score: inf
ROOT
ATOM      1  C   UNL     1       0.358  -2.492  -3.166  1.00  0.00     0.004 C 
ENDROOT
BRANCH   1   2
ATOM      2  C   UNL     1      -0.945  -3.047  -2.577  1.00  0.00     0.027 C 
BRANCH   2   3
ATOM      3  C   UNL     1      -0.782  -4.478  -2.141  1.00  0.00    -0.025 C 
ATOM      4  C   UNL     1      -1.563  -5.508  -2.508  1.00  0.00     0.020 C 
BRANCH   4   5
ATOM      5  C   UNL     1      -2.711  -5.459  -3.438  1.00  0.00     0.064 C 
ATOM      6  O   UNL     1      -2.775  -6.187  -4.461  1.00  0.00    -0.545 OA
ATOM      7  O   UNL     1      -3.763  -4.597  -3.158  1.00  0.00    -0.545 OA
ENDBRANCH   4   5
ENDBRANCH   2   3
ENDBRANCH   1   2
BRANCH   1   8
ATOM      8  C   UNL     1       1.278  -3.627  -3.632  1.00  0.00     0.000 C 
BRANCH   8   9
ATOM      9  C   UNL     1       1.902  -3.303  -4.997  1.00  0.00    -0.000 C 
BRANCH   9  10
ATOM     10  C   UNL     1       1.101  -3.896  -6.167  1.00  0.00    -0.003 C 
ATOM     11  C   UNL     1       0.345  -5.167  -5.782  1.00  0.00     0.004 C 
ENDBRANCH   9  10
ENDBRANCH   8   9
ENDBRANCH   1   8
TORSDOF 6
ENDMDL
MODEL 7
REMARK VINA RESULT:    -4.119      3.063      5.108
REMARK INTER + INTRA:          -6.143
REMARK INTER:                  -5.559
REMARK INTRA:                  -0.584
REMARK UNBOUND:                -0.579
REMARK SMILES CCCCCCC=CC(=O)[O-]
REMARK SMILES IDX 5 1 6 2 7 3 8 4 9 5 10 6 11 7 4 8 3 9 2 10 1 11
REMARK H PARENT
REMARK Flexibility Score: inf
ROOT
ATOM      1  C   UNL     1      -0.588  -3.998  -2.049  1.00  0.00     0.004 C 
ENDROOT
BRANCH   1   2
ATOM      2  C   UNL     1       0.686  -3.620  -2.816  1.00  0.00     0.027 C 
BRANCH   2   3
ATOM      3  C   UNL     1       0.673  -4.187  -4.209  1.00  0.00    -0.025 C 
ATOM      4  C   UNL     1       1.208  -3.614  -5.300  1.00  0.00     0.020 C 
BRANCH   4   5
ATOM      5  C   UNL     1       1.948  -2.335  -5.352  1.00  0.00     0.064 C 
ATOM      6  O   UNL     1       1.378  -1.240  -5.592  1.00  0.00    -0.545 OA
ATOM      7  O   UNL     1       3.315  -2.342  -5.105  1.00  0.00    -0.545 OA
ENDBRANCH   4   5
ENDBRANCH   2   3
ENDBRANCH   1   2
BRANCH   1   8
ATOM      8  C   UNL     1      -0.644  -5.507  -1.785  1.00  0.00     0.000 C 
BRANCH   8   9
ATOM      9  C   UNL     1      -2.077  -6.039  -1.938  1.00  0.00    -0.000 C 
BRANCH   9  10
ATOM     10  C   UNL     1      -2.788  -5.473  -3.177  1.00  0.00    -0.003 C 
ATOM     11  C   UNL     1      -2.664  -6.385  -4.397  1.00  0.00     0.004 C 
ENDBRANCH   9  10
ENDBRANCH   8   9
ENDBRANCH   1   8
TORSDOF 6
ENDMDL
MODEL 8
REMARK VINA RESULT:    -4.114      1.511      1.857
REMARK INTER + INTRA:          -6.137
REMARK INTER:                  -5.599
REMARK INTRA:                  -0.538
REMARK UNBOUND:                -0.579
REMARK SMILES CCCCCCC=CC(=O)[O-]
REMARK SMILES IDX 5 1 6 2 7 3 8 4 9 5 10 6 11 7 4 8 3 9 2 10 1 11
REMARK H PARENT
REMARK Flexibility Score: inf
ROOT
ATOM      1  C   UNL     1       0.106  -3.767  -2.092  1.00  0.00     0.004 C 
ENDROOT
BRANCH   1   2
ATOM      2  C   UNL     1      -0.664  -4.959  -2.675  1.00  0.00     0.027 C 
BRANCH   2   3
ATOM      3  C   UNL     1      -2.021  -4.543  -3.172  1.00  0.00    -0.025 C 
ATOM      4  C   UNL     1      -2.988  -5.366  -3.610  1.00  0.00     0.020 C 
BRANCH   4   5
ATOM      5  C   UNL     1      -2.935  -6.843  -3.659  1.00  0.00     0.064 C 
ATOM      6  O   UNL     1      -2.889  -7.476  -4.745  1.00  0.00    -0.545 OA
ATOM      7  O   UNL     1      -2.913  -7.552  -2.466  1.00  0.00    -0.545 OA
ENDBRANCH   4   5
ENDBRANCH   2   3
ENDBRANCH   1   2
BRANCH   1   8
ATOM      8  C   UNL     1       0.457  -2.751  -3.184  1.00  0.00     0.000 C 
BRANCH   8   9
ATOM      9  C   UNL     1       1.674  -3.215  -3.996  1.00  0.00    -0.000 C 
BRANCH   9  10
ATOM     10  C   UNL     1       1.463  -3.072  -5.512  1.00  0.00    -0.003 C 
ATOM     11  C   UNL     1       0.782  -4.292  -6.131  1.00  0.00     0.004 C 
ENDBRANCH   9  10
ENDBRANCH   8   9
ENDBRANCH   1   8
TORSDOF 6
ENDMDL
MODEL 9
REMARK VINA RESULT:    -4.093      3.594      6.055
REMARK INTER + INTRA:          -6.108
REMARK INTER:                  -5.749
REMARK INTRA:                  -0.360
REMARK UNBOUND:                -0.579
REMARK SMILES CCCCCCC=CC(=O)[O-]
REMARK SMILES IDX 5 1 6 2 7 3 8 4 9 5 10 6 11 7 4 8 3 9 2 10 1 11
REMARK H PARENT
REMARK Flexibility Score: inf
ROOT
ATOM      1  C   UNL     1       1.677  -3.447  -3.700  1.00  0.00     0.004 C 
ENDROOT
BRANCH   1   2
ATOM      2  C   UNL     1       2.158  -3.049  -5.102  1.00  0.00     0.027 C 
BRANCH   2   3
ATOM      3  C   UNL     1       3.602  -2.628  -5.085  1.00  0.00    -0.025 C 
ATOM      4  C   UNL     1       4.658  -3.422  -5.330  1.00  0.00     0.020 C 
BRANCH   4   5
ATOM      5  C   UNL     1       4.620  -4.852  -5.701  1.00  0.00     0.064 C 
ATOM      6  O   UNL     1       4.440  -5.760  -4.849  1.00  0.00    -0.545 OA
ATOM      7  O   UNL     1       4.766  -5.202  -7.037  1.00  0.00    -0.545 OA
ENDBRANCH   4   5
ENDBRANCH   2   3
ENDBRANCH   1   2
BRANCH   1   8
ATOM      8  C   UNL     1       0.486  -2.588  -3.262  1.00  0.00     0.000 C 
BRANCH   8   9
ATOM      9  C   UNL     1      -0.557  -3.433  -2.515  1.00  0.00    -0.000 C 
BRANCH   9  10
ATOM     10  C   UNL     1       0.065  -4.287  -1.399  1.00  0.00    -0.003 C 
ATOM     11  C   UNL     1      -0.337  -5.759  -1.488  1.00  0.00     0.004 C 
ENDBRANCH   9  10
ENDBRANCH   8   9
ENDBRANCH   1   8
TORSDOF 6
ENDMDL
