MODEL 1
REMARK VINA RESULT:    -8.037      0.000      0.000
REMARK INTER + INTRA:         -12.688
REMARK INTER:                 -10.856
REMARK INTRA:                  -1.832
REMARK UNBOUND:                -1.832
REMARK SMILES CC[C@H](CC[C@@H](C)[C@@H]1CC[C@@H]2[C@@H]3CC(=O)C4=CC(=O)CC[C@]4(C)[C@@H]3CC[C@]21C)C(C)C
REMARK SMILES IDX 4 1 3 2 2 3 1 4 29 5 30 6 31 7 5 8 6 9 7 10 8 11 9 12 27 13
REMARK SMILES IDX 10 14 11 15 26 16 28 17 12 18 25 19 24 20 13 21 22 22 14 23
REMARK SMILES IDX 16 24 21 25 23 26 15 27 17 28 20 29 18 30 19 31
REMARK H PARENT
REMARK Flexibility Score: inf
ROOT
ATOM      1  C   UNL     1     212.632 150.055 180.538  1.00  0.00     0.004 C 
ENDROOT
BRANCH   1   2
ATOM      2  C   UNL     1     211.828 150.372 181.834  1.00  0.00    -0.009 C 
BRANCH   2   3
ATOM      3  C   UNL     1     212.802 150.663 183.010  1.00  0.00     0.000 C 
ATOM      4  C   UNL     1     214.245 150.897 182.557  1.00  0.00     0.004 C 
ENDBRANCH   2   3
BRANCH   2   5
ATOM      5  C   UNL     1     210.769 151.512 181.645  1.00  0.00    -0.014 C 
ATOM      6  C   UNL     1     209.365 150.968 181.325  1.00  0.00     0.007 C 
ATOM      7  C   UNL     1     210.702 152.488 182.830  1.00  0.00     0.007 C 
ENDBRANCH   2   5
ENDBRANCH   1   2
BRANCH   1   8
ATOM      8  C   UNL     1     212.310 150.986 179.351  1.00  0.00     0.004 C 
BRANCH   8   9
ATOM      9  C   UNL     1     213.409 152.053 179.088  1.00  0.00    -0.011 C 
ATOM     10  C   UNL     1     214.139 151.756 177.756  1.00  0.00     0.008 C 
BRANCH   9  11
ATOM     11  C   UNL     1     212.801 153.504 179.180  1.00  0.00    -0.002 C 
ATOM     12  C   UNL     1     212.671 154.298 177.849  1.00  0.00     0.005 C 
ATOM     13  C   UNL     1     213.454 154.509 180.175  1.00  0.00    -0.026 C 
ATOM     14  C   UNL     1     212.739 155.794 178.224  1.00  0.00     0.005 C 
ATOM     15  C   UNL     1     212.708 155.790 179.745  1.00  0.00    -0.001 C 
ATOM     16  C   UNL     1     213.133 154.262 181.664  1.00  0.00     0.007 C 
ATOM     17  C   UNL     1     215.000 154.538 179.978  1.00  0.00     0.012 C 
ATOM     18  C   UNL     1     212.993 157.086 180.539  1.00  0.00     0.004 C 
ATOM     19  C   UNL     1     213.467 155.500 182.541  1.00  0.00     0.005 C 
ATOM     20  C   UNL     1     212.764 156.811 182.066  1.00  0.00     0.003 C 
ATOM     21  C   UNL     1     214.325 157.783 180.190  1.00  0.00     0.085 C 
ATOM     22  C   UNL     1     213.020 158.091 182.967  1.00  0.00    -0.000 C 
ATOM     23  C   UNL     1     214.663 158.894 181.128  1.00  0.00     0.159 C 
ATOM     24  C   UNL     1     214.300 158.822 182.560  1.00  0.00     0.005 C 
ATOM     25  C   UNL     1     213.090 157.706 184.482  1.00  0.00     0.020 C 
ATOM     26  C   UNL     1     211.840 159.081 182.765  1.00  0.00     0.017 C 
ATOM     27  O   UNL     1     215.340 159.866 180.692  1.00  0.00    -0.295 OA
ATOM     28  C   UNL     1     214.993 159.558 183.452  1.00  0.00     0.055 C 
ATOM     29  C   UNL     1     213.421 158.893 185.394  1.00  0.00     0.081 C 
ATOM     30  C   UNL     1     214.617 159.631 184.874  1.00  0.00     0.156 C 
ATOM     31  O   UNL     1     215.288 160.354 185.658  1.00  0.00    -0.295 OA
ENDBRANCH   9  11
ENDBRANCH   8   9
ENDBRANCH   1   8
TORSDOF 6
ENDMDL
MODEL 2
REMARK VINA RESULT:    -7.287      2.073      5.049
REMARK INTER + INTRA:         -11.676
REMARK INTER:                 -10.494
REMARK INTRA:                  -1.181
REMARK UNBOUND:                -1.832
REMARK SMILES CC[C@H](CC[C@@H](C)[C@@H]1CC[C@@H]2[C@@H]3CC(=O)C4=CC(=O)CC[C@]4(C)[C@@H]3CC[C@]21C)C(C)C
REMARK SMILES IDX 4 1 3 2 2 3 1 4 29 5 30 6 31 7 5 8 6 9 7 10 8 11 9 12 27 13
REMARK SMILES IDX 10 14 11 15 26 16 28 17 12 18 25 19 24 20 13 21 22 22 14 23
REMARK SMILES IDX 16 24 21 25 23 26 15 27 17 28 20 29 18 30 19 31
REMARK H PARENT
REMARK Flexibility Score: inf
ROOT
ATOM      1  C   UNL     1     211.143 152.996 183.067  1.00  0.00     0.004 C 
ENDROOT
BRANCH   1   2
ATOM      2  C   UNL     1     212.183 151.988 182.494  1.00  0.00    -0.009 C 
BRANCH   2   3
ATOM      3  C   UNL     1     212.977 151.322 183.654  1.00  0.00     0.000 C 
ATOM      4  C   UNL     1     213.424 149.893 183.338  1.00  0.00     0.004 C 
ENDBRANCH   2   3
BRANCH   2   5
ATOM      5  C   UNL     1     211.554 150.931 181.522  1.00  0.00    -0.014 C 
ATOM      6  C   UNL     1     210.019 151.017 181.468  1.00  0.00     0.007 C 
ATOM      7  C   UNL     1     212.139 150.984 180.101  1.00  0.00     0.007 C 
ENDBRANCH   2   5
ENDBRANCH   1   2
BRANCH   1   8
ATOM      8  C   UNL     1     211.533 153.601 184.431  1.00  0.00     0.004 C 
BRANCH   8   9
ATOM      9  C   UNL     1     210.984 155.039 184.650  1.00  0.00    -0.011 C 
ATOM     10  C   UNL     1     210.128 155.097 185.938  1.00  0.00     0.008 C 
BRANCH   9  11
ATOM     11  C   UNL     1     212.157 156.089 184.607  1.00  0.00    -0.002 C 
ATOM     12  C   UNL     1     212.225 157.117 185.772  1.00  0.00     0.005 C 
ATOM     13  C   UNL     1     212.326 156.946 183.316  1.00  0.00    -0.026 C 
ATOM     14  C   UNL     1     212.923 158.372 185.208  1.00  0.00     0.005 C 
ATOM     15  C   UNL     1     213.392 157.938 183.827  1.00  0.00    -0.001 C 
ATOM     16  C   UNL     1     212.927 156.200 182.106  1.00  0.00     0.007 C 
ATOM     17  C   UNL     1     210.962 157.581 182.907  1.00  0.00     0.012 C 
ATOM     18  C   UNL     1     213.942 158.979 182.823  1.00  0.00     0.004 C 
ATOM     19  C   UNL     1     213.433 157.183 181.015  1.00  0.00     0.005 C 
ATOM     20  C   UNL     1     214.463 158.231 181.546  1.00  0.00     0.003 C 
ATOM     21  C   UNL     1     213.005 160.174 182.547  1.00  0.00     0.085 C 
ATOM     22  C   UNL     1     215.061 159.216 180.457  1.00  0.00    -0.000 C 
ATOM     23  C   UNL     1     213.471 161.028 181.414  1.00  0.00     0.159 C 
ATOM     24  C   UNL     1     214.167 160.439 180.250  1.00  0.00     0.005 C 
ATOM     25  C   UNL     1     215.276 158.481 179.092  1.00  0.00     0.020 C 
ATOM     26  C   UNL     1     216.437 159.731 180.961  1.00  0.00     0.017 C 
ATOM     27  O   UNL     1     213.188 162.258 181.431  1.00  0.00    -0.295 OA
ATOM     28  C   UNL     1     214.155 161.099 179.073  1.00  0.00     0.055 C 
ATOM     29  C   UNL     1     215.773 159.407 177.977  1.00  0.00     0.081 C 
ATOM     30  C   UNL     1     214.922 160.638 177.904  1.00  0.00     0.156 C 
ATOM     31  O   UNL     1     214.891 161.308 176.838  1.00  0.00    -0.295 OA
ENDBRANCH   9  11
ENDBRANCH   8   9
ENDBRANCH   1   8
TORSDOF 6
ENDMDL
MODEL 3
REMARK VINA RESULT:    -7.281      1.307      2.300
REMARK INTER + INTRA:         -11.667
REMARK INTER:                  -9.710
REMARK INTRA:                  -1.957
REMARK UNBOUND:                -1.832
REMARK SMILES CC[C@H](CC[C@@H](C)[C@@H]1CC[C@@H]2[C@@H]3CC(=O)C4=CC(=O)CC[C@]4(C)[C@@H]3CC[C@]21C)C(C)C
REMARK SMILES IDX 4 1 3 2 2 3 1 4 29 5 30 6 31 7 5 8 6 9 7 10 8 11 9 12 27 13
REMARK SMILES IDX 10 14 11 15 26 16 28 17 12 18 25 19 24 20 13 21 22 22 14 23
REMARK SMILES IDX 16 24 21 25 23 26 15 27 17 28 20 29 18 30 19 31
REMARK H PARENT
REMARK Flexibility Score: inf
ROOT
ATOM      1  C   UNL     1     211.904 151.009 182.705  1.00  0.00     0.004 C 
ENDROOT
BRANCH   1   2
ATOM      2  C   UNL     1     213.390 151.361 183.013  1.00  0.00    -0.009 C 
BRANCH   2   3
ATOM      3  C   UNL     1     213.479 152.238 184.294  1.00  0.00     0.000 C 
ATOM      4  C   UNL     1     212.162 152.937 184.640  1.00  0.00     0.004 C 
ENDBRANCH   2   3
BRANCH   2   5
ATOM      5  C   UNL     1     214.324 150.104 183.089  1.00  0.00    -0.014 C 
ATOM      6  C   UNL     1     215.436 150.128 182.025  1.00  0.00     0.007 C 
ATOM      7  C   UNL     1     214.929 149.875 184.483  1.00  0.00     0.007 C 
ENDBRANCH   2   5
ENDBRANCH   1   2
BRANCH   1   8
ATOM      8  C   UNL     1     211.443 151.398 181.286  1.00  0.00     0.004 C 
BRANCH   8   9
ATOM      9  C   UNL     1     212.618 151.744 180.328  1.00  0.00    -0.011 C 
ATOM     10  C   UNL     1     212.715 150.693 179.195  1.00  0.00     0.008 C 
BRANCH   9  11
ATOM     11  C   UNL     1     212.496 153.230 179.821  1.00  0.00    -0.002 C 
ATOM     12  C   UNL     1     212.745 153.480 178.306  1.00  0.00     0.005 C 
ATOM     13  C   UNL     1     213.341 154.322 180.543  1.00  0.00    -0.026 C 
ATOM     14  C   UNL     1     213.250 154.933 178.179  1.00  0.00     0.005 C 
ATOM     15  C   UNL     1     213.081 155.501 179.580  1.00  0.00    -0.001 C 
ATOM     16  C   UNL     1     212.824 154.738 181.936  1.00  0.00     0.007 C 
ATOM     17  C   UNL     1     214.827 153.868 180.658  1.00  0.00     0.012 C 
ATOM     18  C   UNL     1     213.689 156.874 179.949  1.00  0.00     0.004 C 
ATOM     19  C   UNL     1     213.453 156.077 182.410  1.00  0.00     0.005 C 
ATOM     20  C   UNL     1     213.248 157.255 181.405  1.00  0.00     0.003 C 
ATOM     21  C   UNL     1     215.200 157.014 179.663  1.00  0.00     0.085 C 
ATOM     22  C   UNL     1     213.814 158.661 181.872  1.00  0.00    -0.000 C 
ATOM     23  C   UNL     1     215.786 158.262 180.236  1.00  0.00     0.159 C 
ATOM     24  C   UNL     1     215.291 158.823 181.511  1.00  0.00     0.005 C 
ATOM     25  C   UNL     1     213.621 158.860 183.412  1.00  0.00     0.020 C 
ATOM     26  C   UNL     1     213.032 159.779 181.130  1.00  0.00     0.017 C 
ATOM     27  O   UNL     1     216.773 158.788 179.650  1.00  0.00    -0.295 OA
ATOM     28  C   UNL     1     216.098 159.627 182.234  1.00  0.00     0.055 C 
ATOM     29  C   UNL     1     214.227 160.168 183.934  1.00  0.00     0.081 C 
ATOM     30  C   UNL     1     215.638 160.318 183.450  1.00  0.00     0.156 C 
ATOM     31  O   UNL     1     216.429 161.075 184.072  1.00  0.00    -0.295 OA
ENDBRANCH   9  11
ENDBRANCH   8   9
ENDBRANCH   1   8
TORSDOF 6
ENDMDL
MODEL 4
REMARK VINA RESULT:    -7.152      3.128      7.954
REMARK INTER + INTRA:         -11.492
REMARK INTER:                 -10.368
REMARK INTRA:                  -1.125
REMARK UNBOUND:                -1.832
REMARK SMILES CC[C@H](CC[C@@H](C)[C@@H]1CC[C@@H]2[C@@H]3CC(=O)C4=CC(=O)CC[C@]4(C)[C@@H]3CC[C@]21C)C(C)C
REMARK SMILES IDX 4 1 3 2 2 3 1 4 29 5 30 6 31 7 5 8 6 9 7 10 8 11 9 12 27 13
REMARK SMILES IDX 10 14 11 15 26 16 28 17 12 18 25 19 24 20 13 21 22 22 14 23
REMARK SMILES IDX 16 24 21 25 23 26 15 27 17 28 20 29 18 30 19 31
REMARK H PARENT
REMARK Flexibility Score: inf
ROOT
ATOM      1  C   UNL     1     211.843 158.158 181.962  1.00  0.00     0.004 C 
ENDROOT
BRANCH   1   2
ATOM      2  C   UNL     1     212.937 159.266 182.019  1.00  0.00    -0.009 C 
BRANCH   2   3
ATOM      3  C   UNL     1     214.167 158.763 182.826  1.00  0.00     0.000 C 
ATOM      4  C   UNL     1     214.348 159.483 184.165  1.00  0.00     0.004 C 
ENDBRANCH   2   3
BRANCH   2   5
ATOM      5  C   UNL     1     213.338 159.817 180.608  1.00  0.00    -0.014 C 
ATOM      6  C   UNL     1     214.712 160.512 180.613  1.00  0.00     0.007 C 
ATOM      7  C   UNL     1     213.286 158.754 179.499  1.00  0.00     0.007 C 
ENDBRANCH   2   5
ENDBRANCH   1   2
BRANCH   1   8
ATOM      8  C   UNL     1     211.178 157.856 183.321  1.00  0.00     0.004 C 
BRANCH   8   9
ATOM      9  C   UNL     1     211.860 156.694 184.097  1.00  0.00    -0.011 C 
ATOM     10  C   UNL     1     211.526 156.787 185.605  1.00  0.00     0.008 C 
BRANCH   9  11
ATOM     11  C   UNL     1     211.499 155.308 183.440  1.00  0.00    -0.002 C 
ATOM     12  C   UNL     1     211.163 154.137 184.407  1.00  0.00     0.005 C 
ATOM     13  C   UNL     1     212.507 154.697 182.420  1.00  0.00    -0.026 C 
ATOM     14  C   UNL     1     211.527 152.836 183.662  1.00  0.00     0.005 C 
ATOM     15  C   UNL     1     211.864 153.304 182.255  1.00  0.00    -0.001 C 
ATOM     16  C   UNL     1     212.523 155.369 181.031  1.00  0.00     0.007 C 
ATOM     17  C   UNL     1     213.948 154.703 183.014  1.00  0.00     0.012 C 
ATOM     18  C   UNL     1     212.509 152.333 181.238  1.00  0.00     0.004 C 
ATOM     19  C   UNL     1     213.229 154.482 179.969  1.00  0.00     0.005 C 
ATOM     20  C   UNL     1     212.621 153.049 179.847  1.00  0.00     0.003 C 
ATOM     21  C   UNL     1     213.801 151.645 181.728  1.00  0.00     0.085 C 
ATOM     22  C   UNL     1     213.262 152.124 178.730  1.00  0.00    -0.000 C 
ATOM     23  C   UNL     1     214.507 150.897 180.645  1.00  0.00     0.159 C 
ATOM     24  C   UNL     1     214.494 151.383 179.248  1.00  0.00     0.005 C 
ATOM     25  C   UNL     1     213.643 152.959 177.461  1.00  0.00     0.020 C 
ATOM     26  C   UNL     1     212.217 151.052 178.317  1.00  0.00     0.017 C 
ATOM     27  O   UNL     1     215.187 149.881 180.959  1.00  0.00    -0.295 OA
ATOM     28  C   UNL     1     215.478 150.998 178.409  1.00  0.00     0.055 C 
ATOM     29  C   UNL     1     214.345 152.131 176.380  1.00  0.00     0.081 C 
ATOM     30  C   UNL     1     215.471 151.343 176.977  1.00  0.00     0.156 C 
ATOM     31  O   UNL     1     216.405 150.936 176.236  1.00  0.00    -0.295 OA
ENDBRANCH   9  11
ENDBRANCH   8   9
ENDBRANCH   1   8
TORSDOF 6
ENDMDL
MODEL 5
REMARK VINA RESULT:    -7.090      2.245      4.170
REMARK INTER + INTRA:         -11.409
REMARK INTER:                 -10.849
REMARK INTRA:                  -0.560
REMARK UNBOUND:                -1.832
REMARK SMILES CC[C@H](CC[C@@H](C)[C@@H]1CC[C@@H]2[C@@H]3CC(=O)C4=CC(=O)CC[C@]4(C)[C@@H]3CC[C@]21C)C(C)C
REMARK SMILES IDX 4 1 3 2 2 3 1 4 29 5 30 6 31 7 5 8 6 9 7 10 8 11 9 12 27 13
REMARK SMILES IDX 10 14 11 15 26 16 28 17 12 18 25 19 24 20 13 21 22 22 14 23
REMARK SMILES IDX 16 24 21 25 23 26 15 27 17 28 20 29 18 30 19 31
REMARK H PARENT
REMARK Flexibility Score: inf
ROOT
ATOM      1  C   UNL     1     213.946 149.933 180.398  1.00  0.00     0.004 C 
ENDROOT
BRANCH   1   2
ATOM      2  C   UNL     1     213.691 150.662 179.045  1.00  0.00    -0.009 C 
BRANCH   2   3
ATOM      3  C   UNL     1     212.298 151.352 179.063  1.00  0.00     0.000 C 
ATOM      4  C   UNL     1     211.570 151.282 177.718  1.00  0.00     0.004 C 
ENDBRANCH   2   3
BRANCH   2   5
ATOM      5  C   UNL     1     214.839 151.651 178.645  1.00  0.00    -0.014 C 
ATOM      6  C   UNL     1     215.438 151.336 177.263  1.00  0.00     0.007 C 
ATOM      7  C   UNL     1     214.424 153.130 178.718  1.00  0.00     0.007 C 
ENDBRANCH   2   5
ENDBRANCH   1   2
BRANCH   1   8
ATOM      8  C   UNL     1     214.421 150.861 181.535  1.00  0.00     0.004 C 
BRANCH   8   9
ATOM      9  C   UNL     1     213.886 150.447 182.934  1.00  0.00    -0.011 C 
ATOM     10  C   UNL     1     215.046 150.385 183.957  1.00  0.00     0.008 C 
BRANCH   9  11
ATOM     11  C   UNL     1     212.694 151.383 183.367  1.00  0.00    -0.002 C 
ATOM     12  C   UNL     1     211.403 151.323 182.503  1.00  0.00     0.005 C 
ATOM     13  C   UNL     1     212.983 152.905 183.536  1.00  0.00    -0.026 C 
ATOM     14  C   UNL     1     210.720 152.700 182.640  1.00  0.00     0.005 C 
ATOM     15  C   UNL     1     211.534 153.404 183.715  1.00  0.00    -0.001 C 
ATOM     16  C   UNL     1     213.767 153.287 184.809  1.00  0.00     0.007 C 
ATOM     17  C   UNL     1     213.731 153.455 182.284  1.00  0.00     0.012 C 
ATOM     18  C   UNL     1     211.325 154.911 183.996  1.00  0.00     0.004 C 
ATOM     19  C   UNL     1     213.667 154.807 185.114  1.00  0.00     0.005 C 
ATOM     20  C   UNL     1     212.199 155.327 185.230  1.00  0.00     0.003 C 
ATOM     21  C   UNL     1     211.455 155.827 182.760  1.00  0.00     0.085 C 
ATOM     22  C   UNL     1     212.042 156.859 185.606  1.00  0.00    -0.000 C 
ATOM     23  C   UNL     1     211.469 157.278 183.111  1.00  0.00     0.159 C 
ATOM     24  C   UNL     1     212.090 157.753 184.367  1.00  0.00     0.005 C 
ATOM     25  C   UNL     1     213.147 157.304 186.622  1.00  0.00     0.020 C 
ATOM     26  C   UNL     1     210.653 157.065 186.269  1.00  0.00     0.017 C 
ATOM     27  O   UNL     1     211.012 158.105 182.275  1.00  0.00    -0.295 OA
ATOM     28  C   UNL     1     212.512 159.032 184.449  1.00  0.00     0.055 C 
ATOM     29  C   UNL     1     213.096 158.799 186.956  1.00  0.00     0.081 C 
ATOM     30  C   UNL     1     213.030 159.612 185.699  1.00  0.00     0.156 C 
ATOM     31  O   UNL     1     213.388 160.819 185.723  1.00  0.00    -0.295 OA
ENDBRANCH   9  11
ENDBRANCH   8   9
ENDBRANCH   1   8
TORSDOF 6
ENDMDL
MODEL 6
REMARK VINA RESULT:    -6.908      3.280      5.253
REMARK INTER + INTRA:         -11.163
REMARK INTER:                  -9.689
REMARK INTRA:                  -1.474
REMARK UNBOUND:                -1.832
REMARK SMILES CC[C@H](CC[C@@H](C)[C@@H]1CC[C@@H]2[C@@H]3CC(=O)C4=CC(=O)CC[C@]4(C)[C@@H]3CC[C@]21C)C(C)C
REMARK SMILES IDX 4 1 3 2 2 3 1 4 29 5 30 6 31 7 5 8 6 9 7 10 8 11 9 12 27 13
REMARK SMILES IDX 10 14 11 15 26 16 28 17 12 18 25 19 24 20 13 21 22 22 14 23
REMARK SMILES IDX 16 24 21 25 23 26 15 27 17 28 20 29 18 30 19 31
REMARK H PARENT
REMARK Flexibility Score: inf
ROOT
ATOM      1  C   UNL     1     211.942 151.946 183.267  1.00  0.00     0.004 C 
ENDROOT
BRANCH   1   2
ATOM      2  C   UNL     1     213.428 151.598 182.955  1.00  0.00    -0.009 C 
BRANCH   2   3
ATOM      3  C   UNL     1     214.215 151.374 184.278  1.00  0.00     0.000 C 
ATOM      4  C   UNL     1     213.403 151.718 185.530  1.00  0.00     0.004 C 
ENDBRANCH   2   3
BRANCH   2   5
ATOM      5  C   UNL     1     213.590 150.400 181.959  1.00  0.00    -0.014 C 
ATOM      6  C   UNL     1     212.253 149.966 181.333  1.00  0.00     0.007 C 
ATOM      7  C   UNL     1     214.632 150.656 180.857  1.00  0.00     0.007 C 
ENDBRANCH   2   5
ENDBRANCH   1   2
BRANCH   1   8
ATOM      8  C   UNL     1     211.426 153.211 182.552  1.00  0.00     0.004 C 
BRANCH   8   9
ATOM      9  C   UNL     1     212.561 154.176 182.107  1.00  0.00    -0.011 C 
ATOM     10  C   UNL     1     212.718 154.147 180.567  1.00  0.00     0.008 C 
BRANCH   9  11
ATOM     11  C   UNL     1     212.327 155.614 182.705  1.00  0.00    -0.002 C 
ATOM     12  C   UNL     1     213.285 156.741 182.224  1.00  0.00     0.005 C 
ATOM     13  C   UNL     1     212.290 155.765 184.256  1.00  0.00    -0.026 C 
ATOM     14  C   UNL     1     213.346 157.780 183.364  1.00  0.00     0.005 C 
ATOM     15  C   UNL     1     212.284 157.306 184.345  1.00  0.00    -0.001 C 
ATOM     16  C   UNL     1     211.002 155.255 184.935  1.00  0.00     0.007 C 
ATOM     17  C   UNL     1     213.525 155.063 184.897  1.00  0.00     0.012 C 
ATOM     18  C   UNL     1     212.176 157.941 185.752  1.00  0.00     0.004 C 
ATOM     19  C   UNL     1     210.862 155.792 186.386  1.00  0.00     0.005 C 
ATOM     20  C   UNL     1     210.922 157.349 186.485  1.00  0.00     0.003 C 
ATOM     21  C   UNL     1     213.484 157.929 186.572  1.00  0.00     0.085 C 
ATOM     22  C   UNL     1     210.718 157.952 187.937  1.00  0.00    -0.000 C 
ATOM     23  C   UNL     1     213.282 158.343 187.993  1.00  0.00     0.159 C 
ATOM     24  C   UNL     1     212.034 158.013 188.714  1.00  0.00     0.005 C 
ATOM     25  C   UNL     1     209.665 157.124 188.746  1.00  0.00     0.020 C 
ATOM     26  C   UNL     1     210.197 159.409 187.799  1.00  0.00     0.017 C 
ATOM     27  O   UNL     1     214.233 158.914 188.595  1.00  0.00    -0.295 OA
ATOM     28  C   UNL     1     212.048 157.961 190.063  1.00  0.00     0.055 C 
ATOM     29  C   UNL     1     209.489 157.610 190.189  1.00  0.00     0.081 C 
ATOM     30  C   UNL     1     210.824 157.756 190.855  1.00  0.00     0.156 C 
ATOM     31  O   UNL     1     210.894 157.740 192.112  1.00  0.00    -0.295 OA
ENDBRANCH   9  11
ENDBRANCH   8   9
ENDBRANCH   1   8
TORSDOF 6
ENDMDL
MODEL 7
REMARK VINA RESULT:    -6.897      2.785      7.712
REMARK INTER + INTRA:         -11.148
REMARK INTER:                  -9.174
REMARK INTRA:                  -1.974
REMARK UNBOUND:                -1.832
REMARK SMILES CC[C@H](CC[C@@H](C)[C@@H]1CC[C@@H]2[C@@H]3CC(=O)C4=CC(=O)CC[C@]4(C)[C@@H]3CC[C@]21C)C(C)C
REMARK SMILES IDX 4 1 3 2 2 3 1 4 29 5 30 6 31 7 5 8 6 9 7 10 8 11 9 12 27 13
REMARK SMILES IDX 10 14 11 15 26 16 28 17 12 18 25 19 24 20 13 21 22 22 14 23
REMARK SMILES IDX 16 24 21 25 23 26 15 27 17 28 20 29 18 30 19 31
REMARK H PARENT
REMARK Flexibility Score: inf
ROOT
ATOM      1  C   UNL     1     214.491 161.502 183.756  1.00  0.00     0.004 C 
ENDROOT
BRANCH   1   2
ATOM      2  C   UNL     1     214.898 160.686 185.019  1.00  0.00    -0.009 C 
BRANCH   2   3
ATOM      3  C   UNL     1     213.714 159.789 185.481  1.00  0.00     0.000 C 
ATOM      4  C   UNL     1     214.148 158.379 185.889  1.00  0.00     0.004 C 
ENDBRANCH   2   3
BRANCH   2   5
ATOM      5  C   UNL     1     216.223 159.870 184.832  1.00  0.00    -0.014 C 
ATOM      6  C   UNL     1     216.869 160.099 183.454  1.00  0.00     0.007 C 
ATOM      7  C   UNL     1     217.253 160.112 185.947  1.00  0.00     0.007 C 
ENDBRANCH   2   5
ENDBRANCH   1   2
BRANCH   1   8
ATOM      8  C   UNL     1     213.161 161.055 183.116  1.00  0.00     0.004 C 
BRANCH   8   9
ATOM      9  C   UNL     1     213.286 160.714 181.605  1.00  0.00    -0.011 C 
ATOM     10  C   UNL     1     213.781 161.948 180.814  1.00  0.00     0.008 C 
BRANCH   9  11
ATOM     11  C   UNL     1     214.165 159.422 181.403  1.00  0.00    -0.002 C 
ATOM     12  C   UNL     1     215.158 159.427 180.206  1.00  0.00     0.005 C 
ATOM     13  C   UNL     1     213.437 158.048 181.304  1.00  0.00    -0.026 C 
ATOM     14  C   UNL     1     215.357 157.952 179.797  1.00  0.00     0.005 C 
ATOM     15  C   UNL     1     214.637 157.172 180.886  1.00  0.00    -0.001 C 
ATOM     16  C   UNL     1     212.899 157.493 182.640  1.00  0.00     0.007 C 
ATOM     17  C   UNL     1     212.273 158.126 180.271  1.00  0.00     0.012 C 
ATOM     18  C   UNL     1     214.394 155.652 180.733  1.00  0.00     0.004 C 
ATOM     19  C   UNL     1     212.558 155.981 182.541  1.00  0.00     0.005 C 
ATOM     20  C   UNL     1     213.753 155.101 182.054  1.00  0.00     0.003 C 
ATOM     21  C   UNL     1     213.677 155.236 179.431  1.00  0.00     0.085 C 
ATOM     22  C   UNL     1     213.478 153.540 181.999  1.00  0.00    -0.000 C 
ATOM     23  C   UNL     1     213.266 153.801 179.427  1.00  0.00     0.159 C 
ATOM     24  C   UNL     1     212.841 153.125 180.673  1.00  0.00     0.005 C 
ATOM     25  C   UNL     1     212.564 153.089 183.188  1.00  0.00     0.020 C 
ATOM     26  C   UNL     1     214.835 152.795 182.113  1.00  0.00     0.017 C 
ATOM     27  O   UNL     1     213.209 153.193 178.323  1.00  0.00    -0.295 OA
ATOM     28  C   UNL     1     212.051 152.034 180.592  1.00  0.00     0.055 C 
ATOM     29  C   UNL     1     212.194 151.603 183.137  1.00  0.00     0.081 C 
ATOM     30  C   UNL     1     211.684 151.239 181.776  1.00  0.00     0.156 C 
ATOM     31  O   UNL     1     210.962 150.216 181.638  1.00  0.00    -0.295 OA
ENDBRANCH   9  11
ENDBRANCH   8   9
ENDBRANCH   1   8
TORSDOF 6
ENDMDL
MODEL 8
REMARK VINA RESULT:    -6.839      1.145      1.407
REMARK INTER + INTRA:         -11.070
REMARK INTER:                  -9.626
REMARK INTRA:                  -1.443
REMARK UNBOUND:                -1.832
REMARK SMILES CC[C@H](CC[C@@H](C)[C@@H]1CC[C@@H]2[C@@H]3CC(=O)C4=CC(=O)CC[C@]4(C)[C@@H]3CC[C@]21C)C(C)C
REMARK SMILES IDX 4 1 3 2 2 3 1 4 29 5 30 6 31 7 5 8 6 9 7 10 8 11 9 12 27 13
REMARK SMILES IDX 10 14 11 15 26 16 28 17 12 18 25 19 24 20 13 21 22 22 14 23
REMARK SMILES IDX 16 24 21 25 23 26 15 27 17 28 20 29 18 30 19 31
REMARK H PARENT
REMARK Flexibility Score: inf
ROOT
ATOM      1  C   UNL     1     213.401 152.029 180.579  1.00  0.00     0.004 C 
ENDROOT
BRANCH   1   2
ATOM      2  C   UNL     1     212.580 151.478 181.783  1.00  0.00    -0.009 C 
BRANCH   2   3
ATOM      3  C   UNL     1     213.473 151.414 183.055  1.00  0.00     0.000 C 
ATOM      4  C   UNL     1     213.638 149.996 183.608  1.00  0.00     0.004 C 
ENDBRANCH   2   3
BRANCH   2   5
ATOM      5  C   UNL     1     211.244 152.259 182.034  1.00  0.00    -0.014 C 
ATOM      6  C   UNL     1     209.998 151.422 181.696  1.00  0.00     0.007 C 
ATOM      7  C   UNL     1     211.129 152.832 183.456  1.00  0.00     0.007 C 
ENDBRANCH   2   5
ENDBRANCH   1   2
BRANCH   1   8
ATOM      8  C   UNL     1     212.539 152.527 179.402  1.00  0.00     0.004 C 
BRANCH   8   9
ATOM      9  C   UNL     1     213.186 153.703 178.616  1.00  0.00    -0.011 C 
ATOM     10  C   UNL     1     213.010 153.492 177.093  1.00  0.00     0.008 C 
BRANCH   9  11
ATOM     11  C   UNL     1     212.641 155.083 179.144  1.00  0.00    -0.002 C 
ATOM     12  C   UNL     1     212.422 156.204 178.088  1.00  0.00     0.005 C 
ATOM     13  C   UNL     1     213.416 155.782 180.302  1.00  0.00    -0.026 C 
ATOM     14  C   UNL     1     212.577 157.545 178.834  1.00  0.00     0.005 C 
ATOM     15  C   UNL     1     212.681 157.139 180.296  1.00  0.00    -0.001 C 
ATOM     16  C   UNL     1     213.219 155.153 181.697  1.00  0.00     0.007 C 
ATOM     17  C   UNL     1     214.938 155.844 179.973  1.00  0.00     0.012 C 
ATOM     18  C   UNL     1     213.082 158.175 181.372  1.00  0.00     0.004 C 
ATOM     19  C   UNL     1     213.674 156.110 182.832  1.00  0.00     0.005 C 
ATOM     20  C   UNL     1     212.980 157.508 182.788  1.00  0.00     0.003 C 
ATOM     21  C   UNL     1     214.402 158.924 181.092  1.00  0.00     0.085 C 
ATOM     22  C   UNL     1     213.360 158.501 183.964  1.00  0.00    -0.000 C 
ATOM     23  C   UNL     1     214.862 159.743 182.253  1.00  0.00     0.159 C 
ATOM     24  C   UNL     1     214.625 159.299 183.644  1.00  0.00     0.005 C 
ATOM     25  C   UNL     1     213.551 157.727 185.312  1.00  0.00     0.020 C 
ATOM     26  C   UNL     1     212.204 159.522 184.143  1.00  0.00     0.017 C 
ATOM     27  O   UNL     1     215.532 160.789 182.025  1.00  0.00    -0.295 OA
ATOM     28  C   UNL     1     215.421 159.764 184.628  1.00  0.00     0.055 C 
ATOM     29  C   UNL     1     214.004 158.626 186.467  1.00  0.00     0.081 C 
ATOM     30  C   UNL     1     215.175 159.462 186.048  1.00  0.00     0.156 C 
ATOM     31  O   UNL     1     215.939 159.944 186.927  1.00  0.00    -0.295 OA
ENDBRANCH   9  11
ENDBRANCH   8   9
ENDBRANCH   1   8
TORSDOF 6
ENDMDL
MODEL 9
REMARK VINA RESULT:    -6.783      3.599      8.500
REMARK INTER + INTRA:         -10.995
REMARK INTER:                  -9.956
REMARK INTRA:                  -1.039
REMARK UNBOUND:                -1.832
REMARK SMILES CC[C@H](CC[C@@H](C)[C@@H]1CC[C@@H]2[C@@H]3CC(=O)C4=CC(=O)CC[C@]4(C)[C@@H]3CC[C@]21C)C(C)C
REMARK SMILES IDX 4 1 3 2 2 3 1 4 29 5 30 6 31 7 5 8 6 9 7 10 8 11 9 12 27 13
REMARK SMILES IDX 10 14 11 15 26 16 28 17 12 18 25 19 24 20 13 21 22 22 14 23
REMARK SMILES IDX 16 24 21 25 23 26 15 27 17 28 20 29 18 30 19 31
REMARK H PARENT
REMARK Flexibility Score: inf
ROOT
ATOM      1  C   UNL     1     212.954 162.990 182.702  1.00  0.00     0.004 C 
ENDROOT
BRANCH   1   2
ATOM      2  C   UNL     1     211.489 163.315 183.121  1.00  0.00    -0.009 C 
BRANCH   2   3
ATOM      3  C   UNL     1     211.469 163.972 184.530  1.00  0.00     0.000 C 
ATOM      4  C   UNL     1     211.971 163.043 185.638  1.00  0.00     0.004 C 
ENDBRANCH   2   3
BRANCH   2   5
ATOM      5  C   UNL     1     210.714 164.168 182.058  1.00  0.00    -0.014 C 
ATOM      6  C   UNL     1     209.953 165.348 182.687  1.00  0.00     0.007 C 
ATOM      7  C   UNL     1     211.602 164.663 180.905  1.00  0.00     0.007 C 
ENDBRANCH   2   5
ENDBRANCH   1   2
BRANCH   1   8
ATOM      8  C   UNL     1     213.269 161.482 182.629  1.00  0.00     0.004 C 
BRANCH   8   9
ATOM      9  C   UNL     1     213.462 160.960 181.177  1.00  0.00    -0.011 C 
ATOM     10  C   UNL     1     214.060 162.072 180.282  1.00  0.00     0.008 C 
BRANCH   9  11
ATOM     11  C   UNL     1     214.288 159.619 181.179  1.00  0.00    -0.002 C 
ATOM     12  C   UNL     1     215.419 159.487 180.120  1.00  0.00     0.005 C 
ATOM     13  C   UNL     1     213.504 158.275 181.085  1.00  0.00    -0.026 C 
ATOM     14  C   UNL     1     215.586 157.978 179.843  1.00  0.00     0.005 C 
ATOM     15  C   UNL     1     214.696 157.317 180.884  1.00  0.00    -0.001 C 
ATOM     16  C   UNL     1     212.776 157.848 182.377  1.00  0.00     0.007 C 
ATOM     17  C   UNL     1     212.482 158.328 179.909  1.00  0.00     0.012 C 
ATOM     18  C   UNL     1     214.392 155.802 180.808  1.00  0.00     0.004 C 
ATOM     19  C   UNL     1     212.368 156.350 182.341  1.00  0.00     0.005 C 
ATOM     20  C   UNL     1     213.564 155.382 182.072  1.00  0.00     0.003 C 
ATOM     21  C   UNL     1     213.818 155.321 179.458  1.00  0.00     0.085 C 
ATOM     22  C   UNL     1     213.213 153.836 182.092  1.00  0.00    -0.000 C 
ATOM     23  C   UNL     1     213.333 153.910 179.502  1.00  0.00     0.159 C 
ATOM     24  C   UNL     1     212.723 153.350 180.727  1.00  0.00     0.005 C 
ATOM     25  C   UNL     1     212.137 153.518 183.183  1.00  0.00     0.020 C 
ATOM     26  C   UNL     1     214.504 153.040 182.427  1.00  0.00     0.017 C 
ATOM     27  O   UNL     1     213.380 153.223 178.444  1.00  0.00    -0.295 OA
ATOM     28  C   UNL     1     211.890 152.293 180.624  1.00  0.00     0.055 C 
ATOM     29  C   UNL     1     211.696 152.050 183.190  1.00  0.00     0.081 C 
ATOM     30  C   UNL     1     211.338 151.608 181.804  1.00  0.00     0.156 C 
ATOM     31  O   UNL     1     210.584 150.611 181.647  1.00  0.00    -0.295 OA
ENDBRANCH   9  11
ENDBRANCH   8   9
ENDBRANCH   1   8
TORSDOF 6
ENDMDL
