MODEL 1
REMARK VINA RESULT:    -5.123      0.000      0.000
REMARK INTER + INTRA:          -8.489
REMARK INTER:                  -8.118
REMARK INTRA:                  -0.372
REMARK UNBOUND:                -0.372
REMARK SMILES CCCCCCCCCCCC(=O)[O-]
REMARK SMILES IDX 7 1 8 2 9 3 10 4 11 5 12 6 13 7 14 8 6 9 5 10 4 11 3 12 2 13
REMARK SMILES IDX 1 14
REMARK H PARENT
REMARK Flexibility Score: inf
ROOT
ATOM      1  C   UNL     1      27.769  42.460  33.841  1.00  0.00     0.000 C 
ENDROOT
BRANCH   1   2
ATOM      2  C   UNL     1      27.733  41.383  32.747  1.00  0.00     0.000 C 
BRANCH   2   3
ATOM      3  C   UNL     1      27.700  39.956  33.319  1.00  0.00     0.000 C 
BRANCH   3   4
ATOM      4  C   UNL     1      27.790  38.878  32.225  1.00  0.00     0.006 C 
BRANCH   4   5
ATOM      5  C   UNL     1      27.437  37.483  32.757  1.00  0.00     0.053 C 
BRANCH   5   6
ATOM      6  C   UNL     1      27.281  36.488  31.647  1.00  0.00     0.041 C 
ATOM      7  O   UNL     1      26.133  36.155  31.249  1.00  0.00    -0.550 OA
ATOM      8  O   UNL     1      28.405  35.949  31.034  1.00  0.00    -0.550 OA
ENDBRANCH   5   6
ENDBRANCH   4   5
ENDBRANCH   3   4
ENDBRANCH   2   3
ENDBRANCH   1   2
BRANCH   1   9
ATOM      9  C   UNL     1      26.570  42.317  34.790  1.00  0.00     0.000 C 
BRANCH   9  10
ATOM     10  C   UNL     1      26.392  43.532  35.718  1.00  0.00    -0.000 C 
BRANCH  10  11
ATOM     11  C   UNL     1      24.989  43.679  36.341  1.00  0.00    -0.000 C 
BRANCH  11  12
ATOM     12  C   UNL     1      23.824  43.246  35.434  1.00  0.00    -0.000 C 
BRANCH  12  13
ATOM     13  C   UNL     1      22.664  44.253  35.434  1.00  0.00    -0.003 C 
ATOM     14  C   UNL     1      22.812  45.261  36.570  1.00  0.00     0.004 C 
ENDBRANCH  12  13
ENDBRANCH  11  12
ENDBRANCH  10  11
ENDBRANCH   9  10
ENDBRANCH   1   9
TORSDOF 10
ENDMDL
MODEL 2
REMARK VINA RESULT:    -5.110      3.907      8.272
REMARK INTER + INTRA:          -8.468
REMARK INTER:                  -7.740
REMARK INTRA:                  -0.728
REMARK UNBOUND:                -0.372
REMARK SMILES CCCCCCCCCCCC(=O)[O-]
REMARK SMILES IDX 7 1 8 2 9 3 10 4 11 5 12 6 13 7 14 8 6 9 5 10 4 11 3 12 2 13
REMARK SMILES IDX 1 14
REMARK H PARENT
REMARK Flexibility Score: inf
ROOT
ATOM      1  C   UNL     1      27.496  35.511  33.726  1.00  0.00     0.000 C 
ENDROOT
BRANCH   1   2
ATOM      2  C   UNL     1      27.505  37.044  33.823  1.00  0.00     0.000 C 
BRANCH   2   3
ATOM      3  C   UNL     1      27.346  37.727  32.455  1.00  0.00     0.000 C 
BRANCH   3   4
ATOM      4  C   UNL     1      27.889  39.166  32.445  1.00  0.00     0.006 C 
BRANCH   4   5
ATOM      5  C   UNL     1      27.810  39.824  33.830  1.00  0.00     0.053 C 
BRANCH   5   6
ATOM      6  C   UNL     1      27.444  41.274  33.736  1.00  0.00     0.041 C 
ATOM      7  O   UNL     1      26.978  41.877  34.739  1.00  0.00    -0.550 OA
ATOM      8  O   UNL     1      27.643  41.965  32.548  1.00  0.00    -0.550 OA
ENDBRANCH   5   6
ENDBRANCH   4   5
ENDBRANCH   3   4
ENDBRANCH   2   3
ENDBRANCH   1   2
BRANCH   1   9
ATOM      9  C   UNL     1      28.386  35.032  32.570  1.00  0.00     0.000 C 
BRANCH   9  10
ATOM     10  C   UNL     1      28.106  33.574  32.163  1.00  0.00    -0.000 C 
BRANCH  10  11
ATOM     11  C   UNL     1      27.498  33.391  30.758  1.00  0.00    -0.000 C 
BRANCH  11  12
ATOM     12  C   UNL     1      26.679  34.587  30.242  1.00  0.00    -0.000 C 
BRANCH  12  13
ATOM     13  C   UNL     1      25.167  34.321  30.249  1.00  0.00    -0.003 C 
ATOM     14  C   UNL     1      24.833  33.032  29.502  1.00  0.00     0.004 C 
ENDBRANCH  12  13
ENDBRANCH  11  12
ENDBRANCH  10  11
ENDBRANCH   9  10
ENDBRANCH   1   9
TORSDOF 10
ENDMDL
MODEL 3
REMARK VINA RESULT:    -5.091      1.222      2.101
REMARK INTER + INTRA:          -8.439
REMARK INTER:                  -7.878
REMARK INTRA:                  -0.561
REMARK UNBOUND:                -0.372
REMARK SMILES CCCCCCCCCCCC(=O)[O-]
REMARK SMILES IDX 7 1 8 2 9 3 10 4 11 5 12 6 13 7 14 8 6 9 5 10 4 11 3 12 2 13
REMARK SMILES IDX 1 14
REMARK H PARENT
REMARK Flexibility Score: inf
ROOT
ATOM      1  C   UNL     1      27.129  40.587  33.886  1.00  0.00     0.000 C 
ENDROOT
BRANCH   1   2
ATOM      2  C   UNL     1      27.772  39.305  33.338  1.00  0.00     0.000 C 
BRANCH   2   3
ATOM      3  C   UNL     1      27.433  38.064  34.181  1.00  0.00     0.000 C 
BRANCH   3   4
ATOM      4  C   UNL     1      27.529  36.758  33.374  1.00  0.00     0.006 C 
BRANCH   4   5
ATOM      5  C   UNL     1      27.457  37.006  31.861  1.00  0.00     0.053 C 
BRANCH   5   6
ATOM      6  C   UNL     1      28.195  35.953  31.090  1.00  0.00     0.041 C 
ATOM      7  O   UNL     1      28.344  36.066  29.844  1.00  0.00    -0.550 OA
ATOM      8  O   UNL     1      28.740  34.861  31.752  1.00  0.00    -0.550 OA
ENDBRANCH   5   6
ENDBRANCH   4   5
ENDBRANCH   3   4
ENDBRANCH   2   3
ENDBRANCH   1   2
BRANCH   1   9
ATOM      9  C   UNL     1      27.621  41.820  33.113  1.00  0.00     0.000 C 
BRANCH   9  10
ATOM     10  C   UNL     1      27.877  43.035  34.023  1.00  0.00    -0.000 C 
BRANCH  10  11
ATOM     11  C   UNL     1      27.254  42.941  35.430  1.00  0.00    -0.000 C 
BRANCH  11  12
ATOM     12  C   UNL     1      25.952  43.737  35.622  1.00  0.00    -0.000 C 
BRANCH  12  13
ATOM     13  C   UNL     1      24.709  42.838  35.694  1.00  0.00    -0.003 C 
ATOM     14  C   UNL     1      23.450  43.609  35.309  1.00  0.00     0.004 C 
ENDBRANCH  12  13
ENDBRANCH  11  12
ENDBRANCH  10  11
ENDBRANCH   9  10
ENDBRANCH   1   9
TORSDOF 10
ENDMDL
MODEL 4
REMARK VINA RESULT:    -5.028      3.534      8.085
REMARK INTER + INTRA:          -8.339
REMARK INTER:                  -7.766
REMARK INTRA:                  -0.573
REMARK UNBOUND:                -0.372
REMARK SMILES CCCCCCCCCCCC(=O)[O-]
REMARK SMILES IDX 7 1 8 2 9 3 10 4 11 5 12 6 13 7 14 8 6 9 5 10 4 11 3 12 2 13
REMARK SMILES IDX 1 14
REMARK H PARENT
REMARK Flexibility Score: inf
ROOT
ATOM      1  C   UNL     1      27.162  37.898  32.469  1.00  0.00     0.000 C 
ENDROOT
BRANCH   1   2
ATOM      2  C   UNL     1      27.845  39.080  33.171  1.00  0.00     0.000 C 
BRANCH   2   3
ATOM      3  C   UNL     1      28.149  40.245  32.214  1.00  0.00     0.000 C 
BRANCH   3   4
ATOM      4  C   UNL     1      27.575  41.583  32.710  1.00  0.00     0.006 C 
BRANCH   4   5
ATOM      5  C   UNL     1      27.858  41.817  34.200  1.00  0.00     0.053 C 
BRANCH   5   6
ATOM      6  C   UNL     1      26.714  42.503  34.882  1.00  0.00     0.041 C 
ATOM      7  O   UNL     1      25.635  41.886  35.088  1.00  0.00    -0.550 OA
ATOM      8  O   UNL     1      26.849  43.816  35.314  1.00  0.00    -0.550 OA
ENDBRANCH   5   6
ENDBRANCH   4   5
ENDBRANCH   3   4
ENDBRANCH   2   3
ENDBRANCH   1   2
BRANCH   1   9
ATOM      9  C   UNL     1      27.461  36.580  33.200  1.00  0.00     0.000 C 
BRANCH   9  10
ATOM     10  C   UNL     1      28.163  35.544  32.304  1.00  0.00    -0.000 C 
BRANCH  10  11
ATOM     11  C   UNL     1      28.198  35.894  30.803  1.00  0.00    -0.000 C 
BRANCH  11  12
ATOM     12  C   UNL     1      27.530  34.864  29.876  1.00  0.00    -0.000 C 
BRANCH  12  13
ATOM     13  C   UNL     1      26.786  33.764  30.647  1.00  0.00    -0.003 C 
ATOM     14  C   UNL     1      25.603  33.233  29.843  1.00  0.00     0.004 C 
ENDBRANCH  12  13
ENDBRANCH  11  12
ENDBRANCH  10  11
ENDBRANCH   9  10
ENDBRANCH   1   9
TORSDOF 10
ENDMDL
MODEL 5
REMARK VINA RESULT:    -4.940      1.776      3.422
REMARK INTER + INTRA:          -8.200
REMARK INTER:                  -7.789
REMARK INTRA:                  -0.411
REMARK UNBOUND:                -0.372
REMARK SMILES CCCCCCCCCCCC(=O)[O-]
REMARK SMILES IDX 7 1 8 2 9 3 10 4 11 5 12 6 13 7 14 8 6 9 5 10 4 11 3 12 2 13
REMARK SMILES IDX 1 14
REMARK H PARENT
REMARK Flexibility Score: inf
ROOT
ATOM      1  C   UNL     1      27.738  38.748  32.363  1.00  0.00     0.000 C 
ENDROOT
BRANCH   1   2
ATOM      2  C   UNL     1      27.521  37.283  32.771  1.00  0.00     0.000 C 
BRANCH   2   3
ATOM      3  C   UNL     1      26.946  36.427  31.630  1.00  0.00     0.000 C 
BRANCH   3   4
ATOM      4  C   UNL     1      28.031  35.928  30.661  1.00  0.00     0.006 C 
BRANCH   4   5
ATOM      5  C   UNL     1      28.803  34.727  31.226  1.00  0.00     0.053 C 
BRANCH   5   6
ATOM      6  C   UNL     1      27.909  33.542  31.437  1.00  0.00     0.041 C 
ATOM      7  O   UNL     1      27.105  33.185  30.536  1.00  0.00    -0.550 OA
ATOM      8  O   UNL     1      27.984  32.817  32.619  1.00  0.00    -0.550 OA
ENDBRANCH   5   6
ENDBRANCH   4   5
ENDBRANCH   3   4
ENDBRANCH   2   3
ENDBRANCH   1   2
BRANCH   1   9
ATOM      9  C   UNL     1      27.871  39.646  33.602  1.00  0.00     0.000 C 
BRANCH   9  10
ATOM     10  C   UNL     1      27.683  41.140  33.281  1.00  0.00    -0.000 C 
BRANCH  10  11
ATOM     11  C   UNL     1      26.955  41.955  34.368  1.00  0.00    -0.000 C 
BRANCH  11  12
ATOM     12  C   UNL     1      25.607  41.373  34.827  1.00  0.00    -0.000 C 
BRANCH  12  13
ATOM     13  C   UNL     1      24.779  42.368  35.653  1.00  0.00    -0.003 C 
ATOM     14  C   UNL     1      25.608  43.593  36.029  1.00  0.00     0.004 C 
ENDBRANCH  12  13
ENDBRANCH  11  12
ENDBRANCH  10  11
ENDBRANCH   9  10
ENDBRANCH   1   9
TORSDOF 10
ENDMDL
MODEL 6
REMARK VINA RESULT:    -4.880      3.762      7.961
REMARK INTER + INTRA:          -8.104
REMARK INTER:                  -7.398
REMARK INTRA:                  -0.706
REMARK UNBOUND:                -0.372
REMARK SMILES CCCCCCCCCCCC(=O)[O-]
REMARK SMILES IDX 7 1 8 2 9 3 10 4 11 5 12 6 13 7 14 8 6 9 5 10 4 11 3 12 2 13
REMARK SMILES IDX 1 14
REMARK H PARENT
REMARK Flexibility Score: inf
ROOT
ATOM      1  C   UNL     1      27.500  37.976  32.263  1.00  0.00     0.000 C 
ENDROOT
BRANCH   1   2
ATOM      2  C   UNL     1      27.931  39.440  32.436  1.00  0.00     0.000 C 
BRANCH   2   3
ATOM      3  C   UNL     1      27.829  39.922  33.893  1.00  0.00     0.000 C 
BRANCH   3   4
ATOM      4  C   UNL     1      27.349  41.379  34.001  1.00  0.00     0.006 C 
BRANCH   4   5
ATOM      5  C   UNL     1      25.973  41.487  34.673  1.00  0.00     0.053 C 
BRANCH   5   6
ATOM      6  C   UNL     1      25.835  42.757  35.455  1.00  0.00     0.041 C 
ATOM      7  O   UNL     1      24.699  43.149  35.836  1.00  0.00    -0.550 OA
ATOM      8  O   UNL     1      26.963  43.496  35.787  1.00  0.00    -0.550 OA
ENDBRANCH   5   6
ENDBRANCH   4   5
ENDBRANCH   3   4
ENDBRANCH   2   3
ENDBRANCH   1   2
BRANCH   1   9
ATOM      9  C   UNL     1      27.495  37.245  33.614  1.00  0.00     0.000 C 
BRANCH   9  10
ATOM     10  C   UNL     1      27.363  35.718  33.468  1.00  0.00    -0.000 C 
BRANCH  10  11
ATOM     11  C   UNL     1      28.400  35.059  32.537  1.00  0.00    -0.000 C 
BRANCH  11  12
ATOM     12  C   UNL     1      27.812  34.139  31.453  1.00  0.00    -0.000 C 
BRANCH  12  13
ATOM     13  C   UNL     1      27.274  34.915  30.242  1.00  0.00    -0.003 C 
ATOM     14  C   UNL     1      28.402  35.630  29.503  1.00  0.00     0.004 C 
ENDBRANCH  12  13
ENDBRANCH  11  12
ENDBRANCH  10  11
ENDBRANCH   9  10
ENDBRANCH   1   9
TORSDOF 10
ENDMDL
MODEL 7
REMARK VINA RESULT:    -4.797      1.747      3.512
REMARK INTER + INTRA:          -7.973
REMARK INTER:                  -7.658
REMARK INTRA:                  -0.316
REMARK UNBOUND:                -0.372
REMARK SMILES CCCCCCCCCCCC(=O)[O-]
REMARK SMILES IDX 7 1 8 2 9 3 10 4 11 5 12 6 13 7 14 8 6 9 5 10 4 11 3 12 2 13
REMARK SMILES IDX 1 14
REMARK H PARENT
REMARK Flexibility Score: inf
ROOT
ATOM      1  C   UNL     1      27.924  39.052  32.472  1.00  0.00     0.000 C 
ENDROOT
BRANCH   1   2
ATOM      2  C   UNL     1      27.200  37.697  32.455  1.00  0.00     0.000 C 
BRANCH   2   3
ATOM      3  C   UNL     1      27.865  36.682  31.510  1.00  0.00     0.000 C 
BRANCH   3   4
ATOM      4  C   UNL     1      28.202  35.355  32.212  1.00  0.00     0.006 C 
BRANCH   4   5
ATOM      5  C   UNL     1      28.896  34.362  31.270  1.00  0.00     0.053 C 
BRANCH   5   6
ATOM      6  C   UNL     1      27.937  33.769  30.283  1.00  0.00     0.041 C 
ATOM      7  O   UNL     1      28.245  33.696  29.064  1.00  0.00    -0.550 OA
ATOM      8  O   UNL     1      26.714  33.272  30.714  1.00  0.00    -0.550 OA
ENDBRANCH   5   6
ENDBRANCH   4   5
ENDBRANCH   3   4
ENDBRANCH   2   3
ENDBRANCH   1   2
BRANCH   1   9
ATOM      9  C   UNL     1      27.804  39.718  33.851  1.00  0.00     0.000 C 
BRANCH   9  10
ATOM     10  C   UNL     1      27.201  41.132  33.784  1.00  0.00    -0.000 C 
BRANCH  10  11
ATOM     11  C   UNL     1      27.928  42.195  34.632  1.00  0.00    -0.000 C 
BRANCH  11  12
ATOM     12  C   UNL     1      27.194  43.540  34.762  1.00  0.00    -0.000 C 
BRANCH  12  13
ATOM     13  C   UNL     1      26.398  43.661  36.069  1.00  0.00    -0.003 C 
ATOM     14  C   UNL     1      24.980  43.120  35.900  1.00  0.00     0.004 C 
ENDBRANCH  12  13
ENDBRANCH  11  12
ENDBRANCH  10  11
ENDBRANCH   9  10
ENDBRANCH   1   9
TORSDOF 10
ENDMDL
MODEL 8
REMARK VINA RESULT:    -4.797      5.059      9.518
REMARK INTER + INTRA:          -7.972
REMARK INTER:                  -7.203
REMARK INTRA:                  -0.769
REMARK UNBOUND:                -0.372
REMARK SMILES CCCCCCCCCCCC(=O)[O-]
REMARK SMILES IDX 7 1 8 2 9 3 10 4 11 5 12 6 13 7 14 8 6 9 5 10 4 11 3 12 2 13
REMARK SMILES IDX 1 14
REMARK H PARENT
REMARK Flexibility Score: inf
ROOT
ATOM      1  C   UNL     1      27.688  34.189  29.505  1.00  0.00     0.000 C 
ENDROOT
BRANCH   1   2
ATOM      2  C   UNL     1      28.259  35.338  30.348  1.00  0.00     0.000 C 
BRANCH   2   3
ATOM      3  C   UNL     1      28.408  34.968  31.833  1.00  0.00     0.000 C 
BRANCH   3   4
ATOM      4  C   UNL     1      27.630  35.918  32.760  1.00  0.00     0.006 C 
BRANCH   4   5
ATOM      5  C   UNL     1      27.168  37.187  32.031  1.00  0.00     0.053 C 
BRANCH   5   6
ATOM      6  C   UNL     1      27.598  38.429  32.751  1.00  0.00     0.041 C 
ATOM      7  O   UNL     1      27.667  38.442  34.009  1.00  0.00    -0.550 OA
ATOM      8  O   UNL     1      27.950  39.563  32.031  1.00  0.00    -0.550 OA
ENDBRANCH   5   6
ENDBRANCH   4   5
ENDBRANCH   3   4
ENDBRANCH   2   3
ENDBRANCH   1   2
BRANCH   1   9
ATOM      9  C   UNL     1      26.662  33.378  30.310  1.00  0.00     0.000 C 
BRANCH   9  10
ATOM     10  C   UNL     1      25.227  33.915  30.166  1.00  0.00    -0.000 C 
BRANCH  10  11
ATOM     11  C   UNL     1      24.293  33.060  29.285  1.00  0.00    -0.000 C 
BRANCH  11  12
ATOM     12  C   UNL     1      24.999  31.993  28.432  1.00  0.00    -0.000 C 
BRANCH  12  13
ATOM     13  C   UNL     1      24.289  30.632  28.474  1.00  0.00    -0.003 C 
ATOM     14  C   UNL     1      22.970  30.724  29.237  1.00  0.00     0.004 C 
ENDBRANCH  12  13
ENDBRANCH  11  12
ENDBRANCH  10  11
ENDBRANCH   9  10
ENDBRANCH   1   9
TORSDOF 10
ENDMDL
MODEL 9
REMARK VINA RESULT:    -4.763      3.987      8.912
REMARK INTER + INTRA:          -7.919
REMARK INTER:                  -7.593
REMARK INTRA:                  -0.327
REMARK UNBOUND:                -0.372
REMARK SMILES CCCCCCCCCCCC(=O)[O-]
REMARK SMILES IDX 7 1 8 2 9 3 10 4 11 5 12 6 13 7 14 8 6 9 5 10 4 11 3 12 2 13
REMARK SMILES IDX 1 14
REMARK H PARENT
REMARK Flexibility Score: inf
ROOT
ATOM      1  C   UNL     1      27.985  36.042  31.410  1.00  0.00     0.000 C 
ENDROOT
BRANCH   1   2
ATOM      2  C   UNL     1      27.272  37.309  31.907  1.00  0.00     0.000 C 
BRANCH   2   3
ATOM      3  C   UNL     1      27.386  37.497  33.429  1.00  0.00     0.000 C 
BRANCH   3   4
ATOM      4  C   UNL     1      28.107  38.800  33.811  1.00  0.00     0.006 C 
BRANCH   4   5
ATOM      5  C   UNL     1      27.152  40.001  33.848  1.00  0.00     0.053 C 
BRANCH   5   6
ATOM      6  C   UNL     1      27.697  41.168  33.083  1.00  0.00     0.041 C 
ATOM      7  O   UNL     1      27.836  42.287  33.644  1.00  0.00    -0.550 OA
ATOM      8  O   UNL     1      28.078  41.013  31.756  1.00  0.00    -0.550 OA
ENDBRANCH   5   6
ENDBRANCH   4   5
ENDBRANCH   3   4
ENDBRANCH   2   3
ENDBRANCH   1   2
BRANCH   1   9
ATOM      9  C   UNL     1      27.197  35.382  30.269  1.00  0.00     0.000 C 
BRANCH   9  10
ATOM     10  C   UNL     1      26.573  34.035  30.674  1.00  0.00    -0.000 C 
BRANCH  10  11
ATOM     11  C   UNL     1      25.182  33.751  30.070  1.00  0.00    -0.000 C 
BRANCH  11  12
ATOM     12  C   UNL     1      25.134  32.590  29.062  1.00  0.00    -0.000 C 
BRANCH  12  13
ATOM     13  C   UNL     1      23.704  32.244  28.621  1.00  0.00    -0.003 C 
ATOM     14  C   UNL     1      23.309  30.846  29.086  1.00  0.00     0.004 C 
ENDBRANCH  12  13
ENDBRANCH  11  12
ENDBRANCH  10  11
ENDBRANCH   9  10
ENDBRANCH   1   9
TORSDOF 10
ENDMDL
