MODEL 1
REMARK VINA RESULT:    -3.220      0.000      0.000
REMARK INTER + INTRA:         -10.950
REMARK INTER:                  -6.984
REMARK INTRA:                  -3.965
REMARK UNBOUND:                -3.965
REMARK SMILES CCCCCCCCCCCCCCCCCCCCCC(=O)[O-]
REMARK SMILES IDX 12 1 11 2 10 3 9 4 8 5 7 6 6 7 5 8 4 9 3 10 2 11 1 12 13 13
REMARK SMILES IDX 14 14 15 15 16 16 17 17 18 18 19 19 20 20 21 21 22 22 23 23
REMARK SMILES IDX 24 24
REMARK H PARENT
REMARK Flexibility Score: inf
ROOT
ATOM      1  C   UNL     1     -19.228  23.659  45.883  1.00  0.00     0.000 C 
ENDROOT
BRANCH   1   2
ATOM      2  C   UNL     1     -19.899  22.353  45.426  1.00  0.00     0.000 C 
BRANCH   2   3
ATOM      3  C   UNL     1     -19.488  21.152  46.301  1.00  0.00     0.000 C 
BRANCH   3   4
ATOM      4  C   UNL     1     -18.834  19.999  45.513  1.00  0.00    -0.000 C 
BRANCH   4   5
ATOM      5  C   UNL     1     -17.808  20.455  44.452  1.00  0.00    -0.000 C 
BRANCH   5   6
ATOM      6  C   UNL     1     -16.346  20.526  44.943  1.00  0.00    -0.000 C 
BRANCH   6   7
ATOM      7  C   UNL     1     -15.913  21.879  45.544  1.00  0.00    -0.000 C 
BRANCH   7   8
ATOM      8  C   UNL     1     -14.765  22.546  44.771  1.00  0.00    -0.000 C 
BRANCH   8   9
ATOM      9  C   UNL     1     -15.190  22.866  43.330  1.00  0.00    -0.000 C 
BRANCH   9  10
ATOM     10  C   UNL     1     -14.201  23.802  42.617  1.00  0.00    -0.000 C 
BRANCH  10  11
ATOM     11  C   UNL     1     -14.739  25.235  42.483  1.00  0.00    -0.003 C 
ATOM     12  C   UNL     1     -14.735  25.951  43.830  1.00  0.00     0.004 C 
ENDBRANCH  10  11
ENDBRANCH   9  10
ENDBRANCH   8   9
ENDBRANCH   7   8
ENDBRANCH   6   7
ENDBRANCH   5   6
ENDBRANCH   4   5
ENDBRANCH   3   4
ENDBRANCH   2   3
ENDBRANCH   1   2
BRANCH   1  13
ATOM     13  C   UNL     1     -18.459  24.367  44.756  1.00  0.00     0.000 C 
BRANCH  13  14
ATOM     14  C   UNL     1     -18.742  23.788  43.353  1.00  0.00     0.000 C 
BRANCH  14  15
ATOM     15  C   UNL     1     -18.504  24.824  42.240  1.00  0.00     0.000 C 
BRANCH  15  16
ATOM     16  C   UNL     1     -18.261  26.239  42.790  1.00  0.00     0.000 C 
BRANCH  16  17
ATOM     17  C   UNL     1     -19.158  27.296  42.128  1.00  0.00     0.000 C 
BRANCH  17  18
ATOM     18  C   UNL     1     -20.598  27.195  42.652  1.00  0.00     0.000 C 
BRANCH  18  19
ATOM     19  C   UNL     1     -20.717  27.560  44.141  1.00  0.00     0.000 C 
BRANCH  19  20
ATOM     20  C   UNL     1     -21.508  26.518  44.945  1.00  0.00     0.006 C 
BRANCH  20  21
ATOM     21  C   UNL     1     -22.081  25.435  44.025  1.00  0.00     0.053 C 
BRANCH  21  22
ATOM     22  C   UNL     1     -23.001  24.531  44.785  1.00  0.00     0.041 C 
ATOM     23  O   UNL     1     -24.007  24.029  44.218  1.00  0.00    -0.550 OA
ATOM     24  O   UNL     1     -22.771  24.279  46.132  1.00  0.00    -0.550 OA
ENDBRANCH  21  22
ENDBRANCH  20  21
ENDBRANCH  19  20
ENDBRANCH  18  19
ENDBRANCH  17  18
ENDBRANCH  16  17
ENDBRANCH  15  16
ENDBRANCH  14  15
ENDBRANCH  13  14
ENDBRANCH   1  13
TORSDOF 20
ENDMDL
MODEL 2
REMARK VINA RESULT:    -3.213      2.180      3.523
REMARK INTER + INTRA:         -10.935
REMARK INTER:                  -7.154
REMARK INTRA:                  -3.781
REMARK UNBOUND:                -3.965
REMARK SMILES CCCCCCCCCCCCCCCCCCCCCC(=O)[O-]
REMARK SMILES IDX 12 1 11 2 10 3 9 4 8 5 7 6 6 7 5 8 4 9 3 10 2 11 1 12 13 13
REMARK SMILES IDX 14 14 15 15 16 16 17 17 18 18 19 19 20 20 21 21 22 22 23 23
REMARK SMILES IDX 24 24
REMARK H PARENT
REMARK Flexibility Score: inf
ROOT
ATOM      1  C   UNL     1     -16.811  24.456  42.654  1.00  0.00     0.000 C 
ENDROOT
BRANCH   1   2
ATOM      2  C   UNL     1     -18.107  23.629  42.675  1.00  0.00     0.000 C 
BRANCH   2   3
ATOM      3  C   UNL     1     -17.832  22.115  42.568  1.00  0.00     0.000 C 
BRANCH   3   4
ATOM      4  C   UNL     1     -17.926  21.367  43.913  1.00  0.00    -0.000 C 
BRANCH   4   5
ATOM      5  C   UNL     1     -16.560  21.007  44.537  1.00  0.00    -0.000 C 
BRANCH   5   6
ATOM      6  C   UNL     1     -15.330  21.395  43.690  1.00  0.00    -0.000 C 
BRANCH   6   7
ATOM      7  C   UNL     1     -13.970  21.299  44.411  1.00  0.00    -0.000 C 
BRANCH   7   8
ATOM      8  C   UNL     1     -12.845  22.056  43.689  1.00  0.00    -0.000 C 
BRANCH   8   9
ATOM      9  C   UNL     1     -13.405  22.887  42.525  1.00  0.00    -0.000 C 
BRANCH   9  10
ATOM     10  C   UNL     1     -12.965  24.359  42.585  1.00  0.00    -0.000 C 
BRANCH  10  11
ATOM     11  C   UNL     1     -13.092  25.067  41.228  1.00  0.00    -0.003 C 
ATOM     12  C   UNL     1     -13.456  24.079  40.124  1.00  0.00     0.004 C 
ENDBRANCH  10  11
ENDBRANCH   9  10
ENDBRANCH   8   9
ENDBRANCH   7   8
ENDBRANCH   6   7
ENDBRANCH   5   6
ENDBRANCH   4   5
ENDBRANCH   3   4
ENDBRANCH   2   3
ENDBRANCH   1   2
BRANCH   1  13
ATOM     13  C   UNL     1     -16.690  25.415  43.850  1.00  0.00     0.000 C 
BRANCH  13  14
ATOM     14  C   UNL     1     -15.709  24.929  44.938  1.00  0.00     0.000 C 
BRANCH  14  15
ATOM     15  C   UNL     1     -16.348  24.932  46.338  1.00  0.00     0.000 C 
BRANCH  15  16
ATOM     16  C   UNL     1     -17.458  23.877  46.483  1.00  0.00     0.000 C 
BRANCH  16  17
ATOM     17  C   UNL     1     -18.842  24.500  46.718  1.00  0.00     0.000 C 
BRANCH  17  18
ATOM     18  C   UNL     1     -19.949  23.606  46.139  1.00  0.00     0.000 C 
BRANCH  18  19
ATOM     19  C   UNL     1     -20.641  24.230  44.917  1.00  0.00     0.000 C 
BRANCH  19  20
ATOM     20  C   UNL     1     -20.571  25.764  44.916  1.00  0.00     0.006 C 
BRANCH  20  21
ATOM     21  C   UNL     1     -21.638  26.361  43.992  1.00  0.00     0.053 C 
BRANCH  21  22
ATOM     22  C   UNL     1     -20.999  27.048  42.826  1.00  0.00     0.041 C 
ATOM     23  O   UNL     1     -19.850  26.704  42.440  1.00  0.00    -0.550 OA
ATOM     24  O   UNL     1     -21.653  28.098  42.193  1.00  0.00    -0.550 OA
ENDBRANCH  21  22
ENDBRANCH  20  21
ENDBRANCH  19  20
ENDBRANCH  18  19
ENDBRANCH  17  18
ENDBRANCH  16  17
ENDBRANCH  15  16
ENDBRANCH  14  15
ENDBRANCH  13  14
ENDBRANCH   1  13
TORSDOF 20
ENDMDL
MODEL 3
REMARK VINA RESULT:    -3.185      2.428      4.310
REMARK INTER + INTRA:         -10.875
REMARK INTER:                  -7.067
REMARK INTRA:                  -3.808
REMARK UNBOUND:                -3.965
REMARK SMILES CCCCCCCCCCCCCCCCCCCCCC(=O)[O-]
REMARK SMILES IDX 12 1 11 2 10 3 9 4 8 5 7 6 6 7 5 8 4 9 3 10 2 11 1 12 13 13
REMARK SMILES IDX 14 14 15 15 16 16 17 17 18 18 19 19 20 20 21 21 22 22 23 23
REMARK SMILES IDX 24 24
REMARK H PARENT
REMARK Flexibility Score: inf
ROOT
ATOM      1  C   UNL     1     -17.063  21.458  43.591  1.00  0.00     0.000 C 
ENDROOT
BRANCH   1   2
ATOM      2  C   UNL     1     -17.999  22.093  42.549  1.00  0.00     0.000 C 
BRANCH   2   3
ATOM      3  C   UNL     1     -17.730  23.601  42.369  1.00  0.00     0.000 C 
BRANCH   3   4
ATOM      4  C   UNL     1     -16.294  24.027  42.734  1.00  0.00    -0.000 C 
BRANCH   4   5
ATOM      5  C   UNL     1     -16.212  25.266  43.652  1.00  0.00    -0.000 C 
BRANCH   5   6
ATOM      6  C   UNL     1     -15.234  25.137  44.840  1.00  0.00    -0.000 C 
BRANCH   6   7
ATOM      7  C   UNL     1     -15.410  23.875  45.709  1.00  0.00    -0.000 C 
BRANCH   7   8
ATOM      8  C   UNL     1     -14.172  22.965  45.715  1.00  0.00    -0.000 C 
BRANCH   8   9
ATOM      9  C   UNL     1     -13.147  23.429  44.669  1.00  0.00    -0.000 C 
BRANCH   9  10
ATOM     10  C   UNL     1     -12.845  22.349  43.618  1.00  0.00    -0.000 C 
BRANCH  10  11
ATOM     11  C   UNL     1     -13.370  20.965  44.028  1.00  0.00    -0.003 C 
ATOM     12  C   UNL     1     -12.222  20.025  44.382  1.00  0.00     0.004 C 
ENDBRANCH  10  11
ENDBRANCH   9  10
ENDBRANCH   8   9
ENDBRANCH   7   8
ENDBRANCH   6   7
ENDBRANCH   5   6
ENDBRANCH   4   5
ENDBRANCH   3   4
ENDBRANCH   2   3
ENDBRANCH   1   2
BRANCH   1  13
ATOM     13  C   UNL     1     -17.813  20.633  44.649  1.00  0.00     0.000 C 
BRANCH  13  14
ATOM     14  C   UNL     1     -18.328  21.471  45.839  1.00  0.00     0.000 C 
BRANCH  14  15
ATOM     15  C   UNL     1     -19.856  21.646  45.807  1.00  0.00     0.000 C 
BRANCH  15  16
ATOM     16  C   UNL     1     -20.280  23.086  45.473  1.00  0.00     0.000 C 
BRANCH  16  17
ATOM     17  C   UNL     1     -19.175  24.113  45.764  1.00  0.00     0.000 C 
BRANCH  17  18
ATOM     18  C   UNL     1     -19.516  25.474  45.140  1.00  0.00     0.000 C 
BRANCH  18  19
ATOM     19  C   UNL     1     -20.507  25.361  43.970  1.00  0.00     0.000 C 
BRANCH  19  20
ATOM     20  C   UNL     1     -20.119  26.246  42.776  1.00  0.00     0.006 C 
BRANCH  20  21
ATOM     21  C   UNL     1     -21.154  27.354  42.556  1.00  0.00     0.053 C 
BRANCH  21  22
ATOM     22  C   UNL     1     -20.543  28.699  42.794  1.00  0.00     0.041 C 
ATOM     23  O   UNL     1     -20.582  29.580  41.895  1.00  0.00    -0.550 OA
ATOM     24  O   UNL     1     -19.892  28.965  43.993  1.00  0.00    -0.550 OA
ENDBRANCH  21  22
ENDBRANCH  20  21
ENDBRANCH  19  20
ENDBRANCH  18  19
ENDBRANCH  17  18
ENDBRANCH  16  17
ENDBRANCH  15  16
ENDBRANCH  14  15
ENDBRANCH  13  14
ENDBRANCH   1  13
TORSDOF 20
ENDMDL
MODEL 4
REMARK VINA RESULT:    -3.164      1.529      3.557
REMARK INTER + INTRA:         -10.829
REMARK INTER:                  -6.973
REMARK INTRA:                  -3.855
REMARK UNBOUND:                -3.965
REMARK SMILES CCCCCCCCCCCCCCCCCCCCCC(=O)[O-]
REMARK SMILES IDX 12 1 11 2 10 3 9 4 8 5 7 6 6 7 5 8 4 9 3 10 2 11 1 12 13 13
REMARK SMILES IDX 14 14 15 15 16 16 17 17 18 18 19 19 20 20 21 21 22 22 23 23
REMARK SMILES IDX 24 24
REMARK H PARENT
REMARK Flexibility Score: inf
ROOT
ATOM      1  C   UNL     1     -18.796  22.250  46.133  1.00  0.00     0.000 C 
ENDROOT
BRANCH   1   2
ATOM      2  C   UNL     1     -19.616  23.540  45.962  1.00  0.00     0.000 C 
BRANCH   2   3
ATOM      3  C   UNL     1     -18.733  24.803  46.030  1.00  0.00     0.000 C 
BRANCH   3   4
ATOM      4  C   UNL     1     -17.220  24.509  46.019  1.00  0.00    -0.000 C 
BRANCH   4   5
ATOM      5  C   UNL     1     -16.334  25.739  45.724  1.00  0.00    -0.000 C 
BRANCH   5   6
ATOM      6  C   UNL     1     -15.167  25.486  44.746  1.00  0.00    -0.000 C 
BRANCH   6   7
ATOM      7  C   UNL     1     -14.677  26.722  43.964  1.00  0.00    -0.000 C 
BRANCH   7   8
ATOM      8  C   UNL     1     -14.616  26.494  42.446  1.00  0.00    -0.000 C 
BRANCH   8   9
ATOM      9  C   UNL     1     -13.159  26.424  41.963  1.00  0.00    -0.000 C 
BRANCH   9  10
ATOM     10  C   UNL     1     -12.775  25.027  41.448  1.00  0.00    -0.000 C 
BRANCH  10  11
ATOM     11  C   UNL     1     -12.638  23.999  42.581  1.00  0.00    -0.003 C 
ATOM     12  C   UNL     1     -13.648  22.866  42.421  1.00  0.00     0.004 C 
ENDBRANCH  10  11
ENDBRANCH   9  10
ENDBRANCH   8   9
ENDBRANCH   7   8
ENDBRANCH   6   7
ENDBRANCH   5   6
ENDBRANCH   4   5
ENDBRANCH   3   4
ENDBRANCH   2   3
ENDBRANCH   1   2
BRANCH   1  13
ATOM     13  C   UNL     1     -18.987  21.258  44.974  1.00  0.00     0.000 C 
BRANCH  13  14
ATOM     14  C   UNL     1     -17.663  20.698  44.413  1.00  0.00     0.000 C 
BRANCH  14  15
ATOM     15  C   UNL     1     -16.989  21.674  43.433  1.00  0.00     0.000 C 
BRANCH  15  16
ATOM     16  C   UNL     1     -18.006  22.474  42.602  1.00  0.00     0.000 C 
BRANCH  16  17
ATOM     17  C   UNL     1     -17.543  23.911  42.320  1.00  0.00     0.000 C 
BRANCH  17  18
ATOM     18  C   UNL     1     -18.736  24.880  42.322  1.00  0.00     0.000 C 
BRANCH  18  19
ATOM     19  C   UNL     1     -18.332  26.320  42.677  1.00  0.00     0.000 C 
BRANCH  19  20
ATOM     20  C   UNL     1     -19.532  27.188  43.085  1.00  0.00     0.006 C 
BRANCH  20  21
ATOM     21  C   UNL     1     -20.853  26.460  42.815  1.00  0.00     0.053 C 
BRANCH  21  22
ATOM     22  C   UNL     1     -21.595  26.225  44.092  1.00  0.00     0.041 C 
ATOM     23  O   UNL     1     -22.414  25.273  44.182  1.00  0.00    -0.550 OA
ATOM     24  O   UNL     1     -21.415  27.084  45.170  1.00  0.00    -0.550 OA
ENDBRANCH  21  22
ENDBRANCH  20  21
ENDBRANCH  19  20
ENDBRANCH  18  19
ENDBRANCH  17  18
ENDBRANCH  16  17
ENDBRANCH  15  16
ENDBRANCH  14  15
ENDBRANCH  13  14
ENDBRANCH   1  13
TORSDOF 20
ENDMDL
MODEL 5
REMARK VINA RESULT:    -3.156      1.506      4.860
REMARK INTER + INTRA:         -10.812
REMARK INTER:                  -6.844
REMARK INTRA:                  -3.969
REMARK UNBOUND:                -3.965
REMARK SMILES CCCCCCCCCCCCCCCCCCCCCC(=O)[O-]
REMARK SMILES IDX 12 1 11 2 10 3 9 4 8 5 7 6 6 7 5 8 4 9 3 10 2 11 1 12 13 13
REMARK SMILES IDX 14 14 15 15 16 16 17 17 18 18 19 19 20 20 21 21 22 22 23 23
REMARK SMILES IDX 24 24
REMARK H PARENT
REMARK Flexibility Score: inf
ROOT
ATOM      1  C   UNL     1     -14.083  21.612  44.554  1.00  0.00     0.000 C 
ENDROOT
BRANCH   1   2
ATOM      2  C   UNL     1     -13.159  22.303  43.537  1.00  0.00     0.000 C 
BRANCH   2   3
ATOM      3  C   UNL     1     -13.948  22.940  42.375  1.00  0.00     0.000 C 
BRANCH   3   4
ATOM      4  C   UNL     1     -13.184  24.061  41.642  1.00  0.00    -0.000 C 
BRANCH   4   5
ATOM      5  C   UNL     1     -13.796  25.468  41.818  1.00  0.00    -0.000 C 
BRANCH   5   6
ATOM      6  C   UNL     1     -13.445  26.172  43.147  1.00  0.00    -0.000 C 
BRANCH   6   7
ATOM      7  C   UNL     1     -14.627  26.392  44.113  1.00  0.00    -0.000 C 
BRANCH   7   8
ATOM      8  C   UNL     1     -14.784  25.265  45.145  1.00  0.00    -0.000 C 
BRANCH   8   9
ATOM      9  C   UNL     1     -16.198  24.668  45.091  1.00  0.00    -0.000 C 
BRANCH   9  10
ATOM     10  C   UNL     1     -17.015  25.191  43.897  1.00  0.00    -0.000 C 
BRANCH  10  11
ATOM     11  C   UNL     1     -17.653  24.058  43.080  1.00  0.00    -0.003 C 
ATOM     12  C   UNL     1     -18.823  24.573  42.246  1.00  0.00     0.004 C 
ENDBRANCH  10  11
ENDBRANCH   9  10
ENDBRANCH   8   9
ENDBRANCH   7   8
ENDBRANCH   6   7
ENDBRANCH   5   6
ENDBRANCH   4   5
ENDBRANCH   3   4
ENDBRANCH   2   3
ENDBRANCH   1   2
BRANCH   1  13
ATOM     13  C   UNL     1     -15.460  21.255  43.970  1.00  0.00     0.000 C 
BRANCH  13  14
ATOM     14  C   UNL     1     -16.519  20.918  45.040  1.00  0.00     0.000 C 
BRANCH  14  15
ATOM     15  C   UNL     1     -17.891  20.599  44.419  1.00  0.00     0.000 C 
BRANCH  15  16
ATOM     16  C   UNL     1     -19.059  21.177  45.235  1.00  0.00     0.000 C 
BRANCH  16  17
ATOM     17  C   UNL     1     -18.589  22.006  46.439  1.00  0.00     0.000 C 
BRANCH  17  18
ATOM     18  C   UNL     1     -19.245  23.396  46.435  1.00  0.00     0.000 C 
BRANCH  18  19
ATOM     19  C   UNL     1     -20.449  23.483  45.483  1.00  0.00     0.000 C 
BRANCH  19  20
ATOM     20  C   UNL     1     -21.062  24.890  45.429  1.00  0.00     0.006 C 
BRANCH  20  21
ATOM     21  C   UNL     1     -22.089  24.997  44.297  1.00  0.00     0.053 C 
BRANCH  21  22
ATOM     22  C   UNL     1     -23.463  24.688  44.802  1.00  0.00     0.041 C 
ATOM     23  O   UNL     1     -24.051  25.493  45.571  1.00  0.00    -0.550 OA
ATOM     24  O   UNL     1     -24.076  23.489  44.459  1.00  0.00    -0.550 OA
ENDBRANCH  21  22
ENDBRANCH  20  21
ENDBRANCH  19  20
ENDBRANCH  18  19
ENDBRANCH  17  18
ENDBRANCH  16  17
ENDBRANCH  15  16
ENDBRANCH  14  15
ENDBRANCH  13  14
ENDBRANCH   1  13
TORSDOF 20
ENDMDL
MODEL 6
REMARK VINA RESULT:    -3.150      1.211      4.873
REMARK INTER + INTRA:         -10.798
REMARK INTER:                  -7.160
REMARK INTRA:                  -3.638
REMARK UNBOUND:                -3.965
REMARK SMILES CCCCCCCCCCCCCCCCCCCCCC(=O)[O-]
REMARK SMILES IDX 12 1 11 2 10 3 9 4 8 5 7 6 6 7 5 8 4 9 3 10 2 11 1 12 13 13
REMARK SMILES IDX 14 14 15 15 16 16 17 17 18 18 19 19 20 20 21 21 22 22 23 23
REMARK SMILES IDX 24 24
REMARK H PARENT
REMARK Flexibility Score: inf
ROOT
ATOM      1  C   UNL     1     -15.765  21.853  45.588  1.00  0.00     0.000 C 
ENDROOT
BRANCH   1   2
ATOM      2  C   UNL     1     -15.780  23.385  45.461  1.00  0.00     0.000 C 
BRANCH   2   3
ATOM      3  C   UNL     1     -14.913  23.880  44.286  1.00  0.00     0.000 C 
BRANCH   3   4
ATOM      4  C   UNL     1     -15.713  24.584  43.172  1.00  0.00    -0.000 C 
BRANCH   4   5
ATOM      5  C   UNL     1     -17.228  24.696  43.449  1.00  0.00    -0.000 C 
BRANCH   5   6
ATOM      6  C   UNL     1     -18.140  24.357  42.250  1.00  0.00    -0.000 C 
BRANCH   6   7
ATOM      7  C   UNL     1     -19.389  25.248  42.094  1.00  0.00    -0.000 C 
BRANCH   7   8
ATOM      8  C   UNL     1     -19.086  26.747  42.239  1.00  0.00    -0.000 C 
BRANCH   8   9
ATOM      9  C   UNL     1     -20.383  27.554  42.396  1.00  0.00    -0.000 C 
BRANCH   9  10
ATOM     10  C   UNL     1     -20.417  28.371  43.698  1.00  0.00    -0.000 C 
BRANCH  10  11
ATOM     11  C   UNL     1     -19.181  28.128  44.577  1.00  0.00    -0.003 C 
ATOM     12  C   UNL     1     -19.399  28.661  45.991  1.00  0.00     0.004 C 
ENDBRANCH  10  11
ENDBRANCH   9  10
ENDBRANCH   8   9
ENDBRANCH   7   8
ENDBRANCH   6   7
ENDBRANCH   5   6
ENDBRANCH   4   5
ENDBRANCH   3   4
ENDBRANCH   2   3
ENDBRANCH   1   2
BRANCH   1  13
ATOM     13  C   UNL     1     -16.049  21.136  44.257  1.00  0.00     0.000 C 
BRANCH  13  14
ATOM     14  C   UNL     1     -17.552  20.970  43.951  1.00  0.00     0.000 C 
BRANCH  14  15
ATOM     15  C   UNL     1     -18.291  20.213  45.069  1.00  0.00     0.000 C 
BRANCH  15  16
ATOM     16  C   UNL     1     -19.443  21.031  45.675  1.00  0.00     0.000 C 
BRANCH  16  17
ATOM     17  C   UNL     1     -19.533  22.451  45.096  1.00  0.00     0.000 C 
BRANCH  17  18
ATOM     18  C   UNL     1     -20.555  23.295  45.873  1.00  0.00     0.000 C 
BRANCH  18  19
ATOM     19  C   UNL     1     -20.389  24.803  45.629  1.00  0.00     0.000 C 
BRANCH  19  20
ATOM     20  C   UNL     1     -21.729  25.516  45.392  1.00  0.00     0.006 C 
BRANCH  20  21
ATOM     21  C   UNL     1     -22.519  24.839  44.266  1.00  0.00     0.053 C 
BRANCH  21  22
ATOM     22  C   UNL     1     -23.858  24.390  44.760  1.00  0.00     0.041 C 
ATOM     23  O   UNL     1     -24.291  23.245  44.463  1.00  0.00    -0.550 OA
ATOM     24  O   UNL     1     -24.648  25.253  45.510  1.00  0.00    -0.550 OA
ENDBRANCH  21  22
ENDBRANCH  20  21
ENDBRANCH  19  20
ENDBRANCH  18  19
ENDBRANCH  17  18
ENDBRANCH  16  17
ENDBRANCH  15  16
ENDBRANCH  14  15
ENDBRANCH  13  14
ENDBRANCH   1  13
TORSDOF 20
ENDMDL
MODEL 7
REMARK VINA RESULT:    -3.145      1.667      3.690
REMARK INTER + INTRA:         -10.787
REMARK INTER:                  -7.024
REMARK INTRA:                  -3.762
REMARK UNBOUND:                -3.965
REMARK SMILES CCCCCCCCCCCCCCCCCCCCCC(=O)[O-]
REMARK SMILES IDX 12 1 11 2 10 3 9 4 8 5 7 6 6 7 5 8 4 9 3 10 2 11 1 12 13 13
REMARK SMILES IDX 14 14 15 15 16 16 17 17 18 18 19 19 20 20 21 21 22 22 23 23
REMARK SMILES IDX 24 24
REMARK H PARENT
REMARK Flexibility Score: inf
ROOT
ATOM      1  C   UNL     1     -17.001  21.593  43.524  1.00  0.00     0.000 C 
ENDROOT
BRANCH   1   2
ATOM      2  C   UNL     1     -17.990  22.155  42.490  1.00  0.00     0.000 C 
BRANCH   2   3
ATOM      3  C   UNL     1     -17.975  23.696  42.449  1.00  0.00     0.000 C 
BRANCH   3   4
ATOM      4  C   UNL     1     -16.586  24.315  42.705  1.00  0.00    -0.000 C 
BRANCH   4   5
ATOM      5  C   UNL     1     -16.599  25.544  43.639  1.00  0.00    -0.000 C 
BRANCH   5   6
ATOM      6  C   UNL     1     -15.621  25.471  44.831  1.00  0.00    -0.000 C 
BRANCH   6   7
ATOM      7  C   UNL     1     -15.674  24.167  45.653  1.00  0.00    -0.000 C 
BRANCH   7   8
ATOM      8  C   UNL     1     -14.285  23.637  46.041  1.00  0.00    -0.000 C 
BRANCH   8   9
ATOM      9  C   UNL     1     -13.177  24.502  45.420  1.00  0.00    -0.000 C 
BRANCH   9  10
ATOM     10  C   UNL     1     -12.287  23.713  44.447  1.00  0.00    -0.000 C 
BRANCH  10  11
ATOM     11  C   UNL     1     -12.732  23.867  42.985  1.00  0.00    -0.003 C 
ATOM     12  C   UNL     1     -13.507  22.639  42.514  1.00  0.00     0.004 C 
ENDBRANCH  10  11
ENDBRANCH   9  10
ENDBRANCH   8   9
ENDBRANCH   7   8
ENDBRANCH   6   7
ENDBRANCH   5   6
ENDBRANCH   4   5
ENDBRANCH   3   4
ENDBRANCH   2   3
ENDBRANCH   1   2
BRANCH   1  13
ATOM     13  C   UNL     1     -17.646  20.580  44.485  1.00  0.00     0.000 C 
BRANCH  13  14
ATOM     14  C   UNL     1     -18.182  21.214  45.786  1.00  0.00     0.000 C 
BRANCH  14  15
ATOM     15  C   UNL     1     -19.720  21.224  45.836  1.00  0.00     0.000 C 
BRANCH  15  16
ATOM     16  C   UNL     1     -20.308  22.635  45.677  1.00  0.00     0.000 C 
BRANCH  16  17
ATOM     17  C   UNL     1     -19.272  23.742  45.926  1.00  0.00     0.000 C 
BRANCH  17  18
ATOM     18  C   UNL     1     -19.800  25.103  45.446  1.00  0.00     0.000 C 
BRANCH  18  19
ATOM     19  C   UNL     1     -20.733  24.984  44.230  1.00  0.00     0.000 C 
BRANCH  19  20
ATOM     20  C   UNL     1     -22.057  25.738  44.423  1.00  0.00     0.006 C 
BRANCH  20  21
ATOM     21  C   UNL     1     -23.252  24.783  44.325  1.00  0.00     0.053 C 
BRANCH  21  22
ATOM     22  C   UNL     1     -23.964  24.694  45.638  1.00  0.00     0.041 C 
ATOM     23  O   UNL     1     -23.542  23.918  46.535  1.00  0.00    -0.550 OA
ATOM     24  O   UNL     1     -25.119  25.435  45.854  1.00  0.00    -0.550 OA
ENDBRANCH  21  22
ENDBRANCH  20  21
ENDBRANCH  19  20
ENDBRANCH  18  19
ENDBRANCH  17  18
ENDBRANCH  16  17
ENDBRANCH  15  16
ENDBRANCH  14  15
ENDBRANCH  13  14
ENDBRANCH   1  13
TORSDOF 20
ENDMDL
MODEL 8
REMARK VINA RESULT:    -3.098      2.241      4.611
REMARK INTER + INTRA:         -10.687
REMARK INTER:                  -6.932
REMARK INTRA:                  -3.755
REMARK UNBOUND:                -3.965
REMARK SMILES CCCCCCCCCCCCCCCCCCCCCC(=O)[O-]
REMARK SMILES IDX 12 1 11 2 10 3 9 4 8 5 7 6 6 7 5 8 4 9 3 10 2 11 1 12 13 13
REMARK SMILES IDX 14 14 15 15 16 16 17 17 18 18 19 19 20 20 21 21 22 22 23 23
REMARK SMILES IDX 24 24
REMARK H PARENT
REMARK Flexibility Score: inf
ROOT
ATOM      1  C   UNL     1     -17.926  22.108  43.030  1.00  0.00     0.000 C 
ENDROOT
BRANCH   1   2
ATOM      2  C   UNL     1     -17.271  23.440  42.628  1.00  0.00     0.000 C 
BRANCH   2   3
ATOM      3  C   UNL     1     -16.948  24.321  43.852  1.00  0.00     0.000 C 
BRANCH   3   4
ATOM      4  C   UNL     1     -15.822  25.344  43.606  1.00  0.00    -0.000 C 
BRANCH   4   5
ATOM      5  C   UNL     1     -14.791  24.912  42.541  1.00  0.00    -0.000 C 
BRANCH   5   6
ATOM      6  C   UNL     1     -13.555  24.166  43.090  1.00  0.00    -0.000 C 
BRANCH   6   7
ATOM      7  C   UNL     1     -13.389  22.712  42.606  1.00  0.00    -0.000 C 
BRANCH   7   8
ATOM      8  C   UNL     1     -13.168  21.712  43.751  1.00  0.00    -0.000 C 
BRANCH   8   9
ATOM      9  C   UNL     1     -14.451  21.534  44.577  1.00  0.00    -0.000 C 
BRANCH   9  10
ATOM     10  C   UNL     1     -14.317  22.092  46.004  1.00  0.00    -0.000 C 
BRANCH  10  11
ATOM     11  C   UNL     1     -15.668  22.191  46.726  1.00  0.00    -0.003 C 
ATOM     12  C   UNL     1     -15.863  23.575  47.339  1.00  0.00     0.004 C 
ENDBRANCH  10  11
ENDBRANCH   9  10
ENDBRANCH   8   9
ENDBRANCH   7   8
ENDBRANCH   6   7
ENDBRANCH   5   6
ENDBRANCH   4   5
ENDBRANCH   3   4
ENDBRANCH   2   3
ENDBRANCH   1   2
BRANCH   1  13
ATOM     13  C   UNL     1     -18.493  22.123  44.460  1.00  0.00     0.000 C 
BRANCH  13  14
ATOM     14  C   UNL     1     -18.704  20.717  45.058  1.00  0.00     0.000 C 
BRANCH  14  15
ATOM     15  C   UNL     1     -19.805  20.704  46.134  1.00  0.00     0.000 C 
BRANCH  15  16
ATOM     16  C   UNL     1     -20.191  22.116  46.603  1.00  0.00     0.000 C 
BRANCH  16  17
ATOM     17  C   UNL     1     -21.702  22.379  46.517  1.00  0.00     0.000 C 
BRANCH  17  18
ATOM     18  C   UNL     1     -22.013  23.436  45.446  1.00  0.00     0.000 C 
BRANCH  18  19
ATOM     19  C   UNL     1     -21.036  24.622  45.479  1.00  0.00     0.000 C 
BRANCH  19  20
ATOM     20  C   UNL     1     -20.662  25.122  44.076  1.00  0.00     0.006 C 
BRANCH  20  21
ATOM     21  C   UNL     1     -19.920  26.460  44.150  1.00  0.00     0.053 C 
BRANCH  21  22
ATOM     22  C   UNL     1     -19.584  26.952  42.777  1.00  0.00     0.041 C 
ATOM     23  O   UNL     1     -19.578  28.188  42.531  1.00  0.00    -0.550 OA
ATOM     24  O   UNL     1     -19.321  26.045  41.758  1.00  0.00    -0.550 OA
ENDBRANCH  21  22
ENDBRANCH  20  21
ENDBRANCH  19  20
ENDBRANCH  18  19
ENDBRANCH  17  18
ENDBRANCH  16  17
ENDBRANCH  15  16
ENDBRANCH  14  15
ENDBRANCH  13  14
ENDBRANCH   1  13
TORSDOF 20
ENDMDL
MODEL 9
REMARK VINA RESULT:    -3.077      2.590      5.530
REMARK INTER + INTRA:         -10.640
REMARK INTER:                  -6.853
REMARK INTRA:                  -3.787
REMARK UNBOUND:                -3.965
REMARK SMILES CCCCCCCCCCCCCCCCCCCCCC(=O)[O-]
REMARK SMILES IDX 12 1 11 2 10 3 9 4 8 5 7 6 6 7 5 8 4 9 3 10 2 11 1 12 13 13
REMARK SMILES IDX 14 14 15 15 16 16 17 17 18 18 19 19 20 20 21 21 22 22 23 23
REMARK SMILES IDX 24 24
REMARK H PARENT
REMARK Flexibility Score: inf
ROOT
ATOM      1  C   UNL     1     -12.795  26.671  42.868  1.00  0.00     0.000 C 
ENDROOT
BRANCH   1   2
ATOM      2  C   UNL     1     -12.185  25.468  42.129  1.00  0.00     0.000 C 
BRANCH   2   3
ATOM      3  C   UNL     1     -13.170  24.849  41.117  1.00  0.00     0.000 C 
BRANCH   3   4
ATOM      4  C   UNL     1     -13.447  23.350  41.351  1.00  0.00    -0.000 C 
BRANCH   4   5
ATOM      5  C   UNL     1     -13.211  22.879  42.803  1.00  0.00    -0.000 C 
BRANCH   5   6
ATOM      6  C   UNL     1     -14.388  22.110  43.441  1.00  0.00    -0.000 C 
BRANCH   6   7
ATOM      7  C   UNL     1     -14.573  22.321  44.958  1.00  0.00    -0.000 C 
BRANCH   7   8
ATOM      8  C   UNL     1     -15.956  21.887  45.466  1.00  0.00    -0.000 C 
BRANCH   8   9
ATOM      9  C   UNL     1     -16.429  20.615  44.746  1.00  0.00    -0.000 C 
BRANCH   9  10
ATOM     10  C   UNL     1     -17.895  20.704  44.292  1.00  0.00    -0.000 C 
BRANCH  10  11
ATOM     11  C   UNL     1     -18.882  20.372  45.421  1.00  0.00    -0.003 C 
ATOM     12  C   UNL     1     -19.712  21.594  45.803  1.00  0.00     0.004 C 
ENDBRANCH  10  11
ENDBRANCH   9  10
ENDBRANCH   8   9
ENDBRANCH   7   8
ENDBRANCH   6   7
ENDBRANCH   5   6
ENDBRANCH   4   5
ENDBRANCH   3   4
ENDBRANCH   2   3
ENDBRANCH   1   2
BRANCH   1  13
ATOM     13  C   UNL     1     -14.331  26.632  42.916  1.00  0.00     0.000 C 
BRANCH  13  14
ATOM     14  C   UNL     1     -14.901  26.377  44.328  1.00  0.00     0.000 C 
BRANCH  14  15
ATOM     15  C   UNL     1     -16.128  25.449  44.299  1.00  0.00     0.000 C 
BRANCH  15  16
ATOM     16  C   UNL     1     -16.470  24.965  42.880  1.00  0.00     0.000 C 
BRANCH  16  17
ATOM     17  C   UNL     1     -17.756  24.126  42.833  1.00  0.00     0.000 C 
BRANCH  17  18
ATOM     18  C   UNL     1     -18.725  24.547  43.948  1.00  0.00     0.000 C 
BRANCH  18  19
ATOM     19  C   UNL     1     -20.056  25.093  43.405  1.00  0.00     0.000 C 
BRANCH  19  20
ATOM     20  C   UNL     1     -19.865  26.293  42.466  1.00  0.00     0.006 C 
BRANCH  20  21
ATOM     21  C   UNL     1     -19.553  27.566  43.259  1.00  0.00     0.053 C 
BRANCH  21  22
ATOM     22  C   UNL     1     -18.357  28.262  42.689  1.00  0.00     0.041 C 
ATOM     23  O   UNL     1     -17.423  28.638  43.445  1.00  0.00    -0.550 OA
ATOM     24  O   UNL     1     -18.295  28.534  41.328  1.00  0.00    -0.550 OA
ENDBRANCH  21  22
ENDBRANCH  20  21
ENDBRANCH  19  20
ENDBRANCH  18  19
ENDBRANCH  17  18
ENDBRANCH  16  17
ENDBRANCH  15  16
ENDBRANCH  14  15
ENDBRANCH  13  14
ENDBRANCH   1  13
TORSDOF 20
ENDMDL
