MODEL 1
REMARK VINA RESULT:    -4.143      0.000      0.000
REMARK INTER + INTRA:          -4.385
REMARK INTER:                  -4.385
REMARK INTRA:                   0.000
REMARK UNBOUND:                 0.000
REMARK SMILES O=c1ccc2cc(O)c(O)cc2o1
REMARK SMILES IDX 4 1 3 2 2 3 1 4 13 5 12 6 11 7 9 8 7 9 6 10 5 11 8 12 10 14
REMARK H PARENT 8 13 10 15
REMARK Flexibility Score: inf
ROOT
ATOM      1  C   UNL     1      20.925  12.468 -10.672  1.00  0.00     0.019 A 
ATOM      2  C   UNL     1      19.885  13.318 -11.049  1.00  0.00     0.094 A 
ATOM      3  C   UNL     1      18.644  13.194 -10.414  1.00  0.00     0.336 A 
ATOM      4  O   UNL     1      17.694  13.952 -10.740  1.00  0.00    -0.246 OA
ATOM      5  O   UNL     1      18.462  12.279  -9.466  1.00  0.00    -0.423 OA
ATOM      6  C   UNL     1      19.427  11.448  -9.077  1.00  0.00     0.142 A 
ATOM      7  C   UNL     1      19.176  10.507  -8.074  1.00  0.00     0.098 A 
ATOM      8  C   UNL     1      20.189   9.629  -7.660  1.00  0.00     0.161 A 
ATOM      9  C   UNL     1      21.462   9.697  -8.255  1.00  0.00     0.158 A 
ATOM     10  C   UNL     1      21.716  10.640  -9.258  1.00  0.00     0.062 A 
ATOM     11  C   UNL     1      20.704  11.516  -9.672  1.00  0.00     0.022 A 
ENDROOT
BRANCH   9  12
ATOM     12  O   UNL     1      22.488   8.835  -7.861  1.00  0.00    -0.504 OA
ATOM     13  H   UNL     1      22.730   8.697  -6.888  1.00  0.00     0.293 HD
ENDBRANCH   9  12
BRANCH   8  14
ATOM     14  O   UNL     1      19.935   8.690  -6.660  1.00  0.00    -0.504 OA
ATOM     15  H   UNL     1      19.478   8.948  -5.794  1.00  0.00     0.293 HD
ENDBRANCH   8  14
TORSDOF 2
ENDMDL
MODEL 2
REMARK VINA RESULT:    -3.541     10.147     12.563
REMARK INTER + INTRA:          -3.748
REMARK INTER:                  -3.748
REMARK INTRA:                   0.000
REMARK UNBOUND:                 0.000
REMARK SMILES O=c1ccc2cc(O)c(O)cc2o1
REMARK SMILES IDX 4 1 3 2 2 3 1 4 13 5 12 6 11 7 9 8 7 9 6 10 5 11 8 12 10 14
REMARK H PARENT 8 13 10 15
REMARK Flexibility Score: inf
ROOT
ATOM      1  C   UNL     1      18.991  -1.986  -8.732  1.00  0.00     0.019 A 
ATOM      2  C   UNL     1      19.892  -2.811  -8.058  1.00  0.00     0.094 A 
ATOM      3  C   UNL     1      21.221  -2.394  -7.923  1.00  0.00     0.336 A 
ATOM      4  O   UNL     1      22.049  -3.124  -7.317  1.00  0.00    -0.246 OA
ATOM      5  O   UNL     1      21.616  -1.229  -8.428  1.00  0.00    -0.423 OA
ATOM      6  C   UNL     1      20.789  -0.412  -9.078  1.00  0.00     0.142 A 
ATOM      7  C   UNL     1      21.261   0.801  -9.587  1.00  0.00     0.098 A 
ATOM      8  C   UNL     1      20.395   1.666 -10.273  1.00  0.00     0.161 A 
ATOM      9  C   UNL     1      19.045   1.310 -10.447  1.00  0.00     0.158 A 
ATOM     10  C   UNL     1      18.568   0.097  -9.937  1.00  0.00     0.062 A 
ATOM     11  C   UNL     1      19.434  -0.767  -9.253  1.00  0.00     0.022 A 
ENDROOT
BRANCH   9  12
ATOM     12  O   UNL     1      18.161   2.152 -11.125  1.00  0.00    -0.504 OA
ATOM     13  H   UNL     1      18.232   3.161 -11.072  1.00  0.00     0.293 HD
ENDBRANCH   9  12
BRANCH   8  14
ATOM     14  O   UNL     1      20.871   2.874 -10.780  1.00  0.00    -0.504 OA
ATOM     15  H   UNL     1      21.316   2.930 -11.688  1.00  0.00     0.293 HD
ENDBRANCH   8  14
TORSDOF 2
ENDMDL
MODEL 3
REMARK VINA RESULT:    -3.301      2.725      3.871
REMARK INTER + INTRA:          -3.494
REMARK INTER:                  -3.494
REMARK INTRA:                   0.000
REMARK UNBOUND:                 0.000
REMARK SMILES O=c1ccc2cc(O)c(O)cc2o1
REMARK SMILES IDX 4 1 3 2 2 3 1 4 13 5 12 6 11 7 9 8 7 9 6 10 5 11 8 12 10 14
REMARK H PARENT 8 13 10 15
REMARK Flexibility Score: inf
ROOT
ATOM      1  C   UNL     1      18.017  14.944 -11.125  1.00  0.00     0.019 A 
ATOM      2  C   UNL     1      18.840  15.937 -10.591  1.00  0.00     0.094 A 
ATOM      3  C   UNL     1      19.645  15.629  -9.489  1.00  0.00     0.336 A 
ATOM      4  O   UNL     1      20.394  16.512  -8.994  1.00  0.00    -0.246 OA
ATOM      5  O   UNL     1      19.624  14.409  -8.960  1.00  0.00    -0.423 OA
ATOM      6  C   UNL     1      18.855  13.434  -9.437  1.00  0.00     0.142 A 
ATOM      7  C   UNL     1      18.876  12.170  -8.840  1.00  0.00     0.098 A 
ATOM      8  C   UNL     1      18.067  11.138  -9.338  1.00  0.00     0.161 A 
ATOM      9  C   UNL     1      17.232  11.376 -10.445  1.00  0.00     0.158 A 
ATOM     10  C   UNL     1      17.209  12.640 -11.047  1.00  0.00     0.062 A 
ATOM     11  C   UNL     1      18.017  13.670 -10.548  1.00  0.00     0.022 A 
ENDROOT
BRANCH   9  12
ATOM     12  O   UNL     1      16.417  10.367 -10.961  1.00  0.00    -0.504 OA
ATOM     13  H   UNL     1      16.736   9.736 -11.686  1.00  0.00     0.293 HD
ENDBRANCH   9  12
BRANCH   8  14
ATOM     14  O   UNL     1      18.091   9.880  -8.738  1.00  0.00    -0.504 OA
ATOM     15  H   UNL     1      18.619   9.112  -9.136  1.00  0.00     0.293 HD
ENDBRANCH   8  14
TORSDOF 2
ENDMDL
MODEL 4
REMARK VINA RESULT:    -3.217     10.065     12.424
REMARK INTER + INTRA:          -3.406
REMARK INTER:                  -3.406
REMARK INTRA:                   0.000
REMARK UNBOUND:                 0.000
REMARK SMILES O=c1ccc2cc(O)c(O)cc2o1
REMARK SMILES IDX 4 1 3 2 2 3 1 4 13 5 12 6 11 7 9 8 7 9 6 10 5 11 8 12 10 14
REMARK H PARENT 8 13 10 15
REMARK Flexibility Score: inf
ROOT
ATOM      1  C   UNL     1      22.695   0.162  -8.368  1.00  0.00     0.019 A 
ATOM      2  C   UNL     1      23.119  -0.992  -7.710  1.00  0.00     0.094 A 
ATOM      3  C   UNL     1      22.239  -2.074  -7.602  1.00  0.00     0.336 A 
ATOM      4  O   UNL     1      22.604  -3.125  -7.013  1.00  0.00    -0.246 OA
ATOM      5  O   UNL     1      21.016  -2.001  -8.120  1.00  0.00    -0.423 OA
ATOM      6  C   UNL     1      20.570  -0.919  -8.755  1.00  0.00     0.142 A 
ATOM      7  C   UNL     1      19.274  -0.900  -9.279  1.00  0.00     0.098 A 
ATOM      8  C   UNL     1      18.799   0.237  -9.949  1.00  0.00     0.161 A 
ATOM      9  C   UNL     1      19.630   1.363 -10.095  1.00  0.00     0.158 A 
ATOM     10  C   UNL     1      20.929   1.346  -9.572  1.00  0.00     0.062 A 
ATOM     11  C   UNL     1      21.403   0.211  -8.903  1.00  0.00     0.022 A 
ENDROOT
BRANCH   9  12
ATOM     12  O   UNL     1      19.182   2.507 -10.757  1.00  0.00    -0.504 OA
ATOM     13  H   UNL     1      18.234   2.849 -10.659  1.00  0.00     0.293 HD
ENDBRANCH   9  12
BRANCH   8  14
ATOM     14  O   UNL     1      17.505   0.252 -10.469  1.00  0.00    -0.504 OA
ATOM     15  H   UNL     1      16.739  -0.215 -10.000  1.00  0.00     0.293 HD
ENDBRANCH   8  14
TORSDOF 2
ENDMDL
MODEL 5
REMARK VINA RESULT:    -2.942      1.233      2.374
REMARK INTER + INTRA:          -3.114
REMARK INTER:                  -3.114
REMARK INTRA:                   0.000
REMARK UNBOUND:                 0.000
REMARK SMILES O=c1ccc2cc(O)c(O)cc2o1
REMARK SMILES IDX 4 1 3 2 2 3 1 4 13 5 12 6 11 7 9 8 7 9 6 10 5 11 8 12 10 14
REMARK H PARENT 8 13 10 15
REMARK Flexibility Score: inf
ROOT
ATOM      1  C   UNL     1      18.558  11.643  -8.544  1.00  0.00     0.019 A 
ATOM      2  C   UNL     1      18.620  12.645  -9.513  1.00  0.00     0.094 A 
ATOM      3  C   UNL     1      19.801  12.808 -10.245  1.00  0.00     0.336 A 
ATOM      4  O   UNL     1      19.875  13.706 -11.125  1.00  0.00    -0.246 OA
ATOM      5  O   UNL     1      20.847  12.019 -10.019  1.00  0.00    -0.423 OA
ATOM      6  C   UNL     1      20.832  11.052  -9.104  1.00  0.00     0.142 A 
ATOM      7  C   UNL     1      21.962  10.253  -8.911  1.00  0.00     0.098 A 
ATOM      8  C   UNL     1      21.952   9.233  -7.949  1.00  0.00     0.161 A 
ATOM      9  C   UNL     1      20.798   9.012  -7.175  1.00  0.00     0.158 A 
ATOM     10  C   UNL     1      19.663   9.809  -7.367  1.00  0.00     0.062 A 
ATOM     11  C   UNL     1      19.675  10.829  -8.328  1.00  0.00     0.022 A 
ENDROOT
BRANCH   9  12
ATOM     12  O   UNL     1      20.760   8.004  -6.210  1.00  0.00    -0.504 OA
ATOM     13  H   UNL     1      19.895   7.709  -5.774  1.00  0.00     0.293 HD
ENDBRANCH   9  12
BRANCH   8  14
ATOM     14  O   UNL     1      23.083   8.439  -7.759  1.00  0.00    -0.504 OA
ATOM     15  H   UNL     1      23.830   8.721  -7.136  1.00  0.00     0.293 HD
ENDBRANCH   8  14
TORSDOF 2
ENDMDL
MODEL 6
REMARK VINA RESULT:    -2.935      2.746      3.799
REMARK INTER + INTRA:          -3.106
REMARK INTER:                  -3.106
REMARK INTRA:                   0.000
REMARK UNBOUND:                 0.000
REMARK SMILES O=c1ccc2cc(O)c(O)cc2o1
REMARK SMILES IDX 4 1 3 2 2 3 1 4 13 5 12 6 11 7 9 8 7 9 6 10 5 11 8 12 10 14
REMARK H PARENT 8 13 10 15
REMARK Flexibility Score: inf
ROOT
ATOM      1  C   UNL     1      19.447  14.481  -8.844  1.00  0.00     0.019 A 
ATOM      2  C   UNL     1      19.407  15.742  -9.439  1.00  0.00     0.094 A 
ATOM      3  C   UNL     1      18.611  15.931 -10.574  1.00  0.00     0.336 A 
ATOM      4  O   UNL     1      18.561  17.062 -11.125  1.00  0.00    -0.246 OA
ATOM      5  O   UNL     1      17.903  14.922 -11.076  1.00  0.00    -0.423 OA
ATOM      6  C   UNL     1      17.913  13.704 -10.540  1.00  0.00     0.142 A 
ATOM      7  C   UNL     1      17.149  12.683 -11.111  1.00  0.00     0.098 A 
ATOM      8  C   UNL     1      17.154  11.397 -10.551  1.00  0.00     0.161 A 
ATOM      9  C   UNL     1      17.933  11.134  -9.408  1.00  0.00     0.158 A 
ATOM     10  C   UNL     1      18.698  12.155  -8.833  1.00  0.00     0.062 A 
ATOM     11  C   UNL     1      18.692  13.439  -9.393  1.00  0.00     0.022 A 
ENDROOT
BRANCH   9  12
ATOM     12  O   UNL     1      17.957   9.864  -8.830  1.00  0.00    -0.504 OA
ATOM     13  H   UNL     1      17.108   9.362  -8.598  1.00  0.00     0.293 HD
ENDBRANCH   9  12
BRANCH   8  14
ATOM     14  O   UNL     1      16.391  10.381 -11.124  1.00  0.00    -0.504 OA
ATOM     15  H   UNL     1      16.757   9.443 -11.241  1.00  0.00     0.293 HD
ENDBRANCH   8  14
TORSDOF 2
ENDMDL
MODEL 7
REMARK VINA RESULT:    -2.849      1.746      4.929
REMARK INTER + INTRA:          -3.015
REMARK INTER:                  -3.015
REMARK INTRA:                   0.000
REMARK UNBOUND:                 0.000
REMARK SMILES O=c1ccc2cc(O)c(O)cc2o1
REMARK SMILES IDX 4 1 3 2 2 3 1 4 13 5 12 6 11 7 9 8 7 9 6 10 5 11 8 12 10 14
REMARK H PARENT 8 13 10 15
REMARK Flexibility Score: inf
ROOT
ATOM      1  C   UNL     1      19.120  10.219  -7.370  1.00  0.00     0.019 A 
ATOM      2  C   UNL     1      19.460   9.224  -6.453  1.00  0.00     0.094 A 
ATOM      3  C   UNL     1      20.739   8.660  -6.508  1.00  0.00     0.336 A 
ATOM      4  O   UNL     1      21.064   7.761  -5.688  1.00  0.00    -0.246 OA
ATOM      5  O   UNL     1      21.616   9.068  -7.420  1.00  0.00    -0.423 OA
ATOM      6  C   UNL     1      21.333  10.014  -8.314  1.00  0.00     0.142 A 
ATOM      7  C   UNL     1      22.296  10.402  -9.249  1.00  0.00     0.098 A 
ATOM      8  C   UNL     1      22.005  11.398 -10.193  1.00  0.00     0.161 A 
ATOM      9  C   UNL     1      20.737  12.010 -10.197  1.00  0.00     0.158 A 
ATOM     10  C   UNL     1      19.771  11.624  -9.260  1.00  0.00     0.062 A 
ATOM     11  C   UNL     1      20.063  10.628  -8.319  1.00  0.00     0.022 A 
ENDROOT
BRANCH   9  12
ATOM     12  O   UNL     1      20.420  13.003 -11.125  1.00  0.00    -0.504 OA
ATOM     13  H   UNL     1      20.320  12.804 -12.113  1.00  0.00     0.293 HD
ENDBRANCH   9  12
BRANCH   8  14
ATOM     14  O   UNL     1      22.968  11.782 -11.125  1.00  0.00    -0.504 OA
ATOM     15  H   UNL     1      23.907  12.037 -10.843  1.00  0.00     0.293 HD
ENDBRANCH   8  14
TORSDOF 2
ENDMDL
MODEL 8
REMARK VINA RESULT:    -2.292      3.325      5.108
REMARK INTER + INTRA:          -2.426
REMARK INTER:                  -2.426
REMARK INTRA:                   0.000
REMARK UNBOUND:                 0.000
REMARK SMILES O=c1ccc2cc(O)c(O)cc2o1
REMARK SMILES IDX 4 1 3 2 2 3 1 4 13 5 12 6 11 7 9 8 7 9 6 10 5 11 8 12 10 14
REMARK H PARENT 8 13 10 15
REMARK Flexibility Score: inf
ROOT
ATOM      1  C   UNL     1      19.615  16.615 -10.831  1.00  0.00     0.019 A 
ATOM      2  C   UNL     1      20.977  16.868 -10.664  1.00  0.00     0.094 A 
ATOM      3  C   UNL     1      21.850  15.789 -10.484  1.00  0.00     0.336 A 
ATOM      4  O   UNL     1      23.082  15.997 -10.332  1.00  0.00    -0.246 OA
ATOM      5  O   UNL     1      21.386  14.542 -10.474  1.00  0.00    -0.423 OA
ATOM      6  C   UNL     1      20.095  14.257 -10.630  1.00  0.00     0.142 A 
ATOM      7  C   UNL     1      19.666  12.927 -10.611  1.00  0.00     0.098 A 
ATOM      8  C   UNL     1      18.307  12.619 -10.775  1.00  0.00     0.161 A 
ATOM      9  C   UNL     1      17.372  13.654 -10.960  1.00  0.00     0.158 A 
ATOM     10  C   UNL     1      17.799  14.987 -10.981  1.00  0.00     0.062 A 
ATOM     11  C   UNL     1      19.156  15.294 -10.816  1.00  0.00     0.022 A 
ENDROOT
BRANCH   9  12
ATOM     12  O   UNL     1      16.014  13.376 -11.125  1.00  0.00    -0.504 OA
ATOM     13  H   UNL     1      15.548  12.645 -10.603  1.00  0.00     0.293 HD
ENDBRANCH   9  12
BRANCH   8  14
ATOM     14  O   UNL     1      17.884  11.291 -10.754  1.00  0.00    -0.504 OA
ATOM     15  H   UNL     1      17.632  10.827  -9.889  1.00  0.00     0.293 HD
ENDBRANCH   8  14
TORSDOF 2
ENDMDL
