MODEL 1
REMARK VINA RESULT:    -3.825      0.000      0.000
REMARK INTER + INTRA:          -3.825
REMARK INTER:                  -3.825
REMARK INTRA:                   0.000
REMARK UNBOUND:                 0.000
REMARK SMILES c1cc[nH]c1
REMARK SMILES IDX 1 1 5 2 4 3 3 4 2 5
REMARK H PARENT 4 6
REMARK Flexibility Score: inf
ROOT
ATOM      1  C   UNL     1      -9.351  -8.121  19.909  1.00  0.00     0.019 A 
ATOM      2  C   UNL     1     -10.017  -7.271  19.049  1.00  0.00     0.082 A 
ATOM      3  N   UNL     1     -10.909  -6.533  19.733  1.00  0.00    -0.368 N 
ATOM      4  C   UNL     1     -10.820  -6.900  21.023  1.00  0.00     0.082 A 
ATOM      5  C   UNL     1      -9.862  -7.883  21.169  1.00  0.00     0.019 A 
ATOM      6  H   UNL     1     -11.549  -5.810  19.337  1.00  0.00     0.165 HD
ENDROOT
TORSDOF 0
ENDMDL
MODEL 2
REMARK VINA RESULT:    -3.674      1.074      1.858
REMARK INTER + INTRA:          -3.674
REMARK INTER:                  -3.674
REMARK INTRA:                   0.000
REMARK UNBOUND:                 0.000
REMARK SMILES c1cc[nH]c1
REMARK SMILES IDX 1 1 5 2 4 3 3 4 2 5
REMARK H PARENT 4 6
REMARK Flexibility Score: inf
ROOT
ATOM      1  C   UNL     1     -10.457  -7.220  19.349  1.00  0.00     0.019 A 
ATOM      2  C   UNL     1     -10.993  -6.911  20.582  1.00  0.00     0.082 A 
ATOM      3  N   UNL     1     -10.302  -7.538  21.552  1.00  0.00    -0.368 N 
ATOM      4  C   UNL     1      -9.329  -8.244  20.951  1.00  0.00     0.082 A 
ATOM      5  C   UNL     1      -9.395  -8.069  19.584  1.00  0.00     0.019 A 
ATOM      6  H   UNL     1     -10.488  -7.485  22.577  1.00  0.00     0.165 HD
ENDROOT
TORSDOF 0
ENDMDL
MODEL 3
REMARK VINA RESULT:    -3.165      6.811      7.317
REMARK INTER + INTRA:          -3.165
REMARK INTER:                  -3.165
REMARK INTRA:                   0.000
REMARK UNBOUND:                 0.000
REMARK SMILES c1cc[nH]c1
REMARK SMILES IDX 1 1 5 2 4 3 3 4 2 5
REMARK H PARENT 4 6
REMARK Flexibility Score: inf
ROOT
ATOM      1  C   UNL     1     -13.148  -1.316  21.777  1.00  0.00     0.019 A 
ATOM      2  C   UNL     1     -13.914  -1.156  22.914  1.00  0.00     0.082 A 
ATOM      3  N   UNL     1     -15.067  -1.839  22.789  1.00  0.00    -0.368 N 
ATOM      4  C   UNL     1     -15.046  -2.434  21.584  1.00  0.00     0.082 A 
ATOM      5  C   UNL     1     -13.869  -2.132  20.929  1.00  0.00     0.019 A 
ATOM      6  H   UNL     1     -15.833  -1.895  23.495  1.00  0.00     0.165 HD
ENDROOT
TORSDOF 0
ENDMDL
MODEL 4
REMARK VINA RESULT:    -3.024      7.579      8.205
REMARK INTER + INTRA:          -3.024
REMARK INTER:                  -3.024
REMARK INTRA:                   0.000
REMARK UNBOUND:                 0.000
REMARK SMILES c1cc[nH]c1
REMARK SMILES IDX 1 1 5 2 4 3 3 4 2 5
REMARK H PARENT 4 6
REMARK Flexibility Score: inf
ROOT
ATOM      1  C   UNL     1     -15.317  -1.608  18.153  1.00  0.00     0.019 A 
ATOM      2  C   UNL     1     -16.102  -1.174  17.105  1.00  0.00     0.082 A 
ATOM      3  N   UNL     1     -15.767  -1.830  15.979  1.00  0.00    -0.368 N 
ATOM      4  C   UNL     1     -14.777  -2.681  16.297  1.00  0.00     0.082 A 
ATOM      5  C   UNL     1     -14.472  -2.570  17.639  1.00  0.00     0.019 A 
ATOM      6  H   UNL     1     -16.197  -1.702  15.037  1.00  0.00     0.165 HD
ENDROOT
TORSDOF 0
ENDMDL
MODEL 5
REMARK VINA RESULT:    -3.021      6.601      7.322
REMARK INTER + INTRA:          -3.021
REMARK INTER:                  -3.021
REMARK INTRA:                   0.000
REMARK UNBOUND:                 0.000
REMARK SMILES c1cc[nH]c1
REMARK SMILES IDX 1 1 5 2 4 3 3 4 2 5
REMARK H PARENT 4 6
REMARK Flexibility Score: inf
ROOT
ATOM      1  C   UNL     1     -15.316  -2.027  17.700  1.00  0.00     0.019 A 
ATOM      2  C   UNL     1     -14.235  -2.298  18.514  1.00  0.00     0.082 A 
ATOM      3  N   UNL     1     -13.210  -2.760  17.776  1.00  0.00    -0.368 N 
ATOM      4  C   UNL     1     -13.623  -2.786  16.497  1.00  0.00     0.082 A 
ATOM      5  C   UNL     1     -14.926  -2.338  16.413  1.00  0.00     0.019 A 
ATOM      6  H   UNL     1     -12.270  -3.043  18.130  1.00  0.00     0.165 HD
ENDROOT
TORSDOF 0
ENDMDL
MODEL 6
REMARK VINA RESULT:    -2.561      6.446      7.006
REMARK INTER + INTRA:          -2.561
REMARK INTER:                  -2.561
REMARK INTRA:                   0.000
REMARK UNBOUND:                 0.000
REMARK SMILES c1cc[nH]c1
REMARK SMILES IDX 1 1 5 2 4 3 3 4 2 5
REMARK H PARENT 4 6
REMARK Flexibility Score: inf
ROOT
ATOM      1  C   UNL     1     -15.062  -2.363  21.595  1.00  0.00     0.019 A 
ATOM      2  C   UNL     1     -14.051  -2.371  20.655  1.00  0.00     0.082 A 
ATOM      3  N   UNL     1     -12.996  -1.672  21.113  1.00  0.00    -0.368 N 
ATOM      4  C   UNL     1     -13.322  -1.218  22.335  1.00  0.00     0.082 A 
ATOM      5  C   UNL     1     -14.597  -1.629  22.667  1.00  0.00     0.019 A 
ATOM      6  H   UNL     1     -12.095  -1.513  20.611  1.00  0.00     0.165 HD
ENDROOT
TORSDOF 0
ENDMDL
MODEL 7
REMARK VINA RESULT:    -2.484      8.119      8.730
REMARK INTER + INTRA:          -2.484
REMARK INTER:                  -2.484
REMARK INTRA:                   0.000
REMARK UNBOUND:                 0.000
REMARK SMILES c1cc[nH]c1
REMARK SMILES IDX 1 1 5 2 4 3 3 4 2 5
REMARK H PARENT 4 6
REMARK Flexibility Score: inf
ROOT
ATOM      1  C   UNL     1     -16.375  -1.891  15.791  1.00  0.00     0.019 A 
ATOM      2  C   UNL     1     -16.474  -0.934  16.780  1.00  0.00     0.082 A 
ATOM      3  N   UNL     1     -15.486  -1.100  17.678  1.00  0.00    -0.368 N 
ATOM      4  C   UNL     1     -14.756  -2.153  17.273  1.00  0.00     0.082 A 
ATOM      5  C   UNL     1     -15.279  -2.669  16.105  1.00  0.00     0.019 A 
ATOM      6  H   UNL     1     -15.319  -0.519  18.529  1.00  0.00     0.165 HD
ENDROOT
TORSDOF 0
ENDMDL
MODEL 8
REMARK VINA RESULT:    -2.253      6.485      7.147
REMARK INTER + INTRA:          -2.253
REMARK INTER:                  -2.253
REMARK INTRA:                   0.000
REMARK UNBOUND:                 0.000
REMARK SMILES c1cc[nH]c1
REMARK SMILES IDX 1 1 5 2 4 3 3 4 2 5
REMARK H PARENT 4 6
REMARK Flexibility Score: inf
ROOT
ATOM      1  C   UNL     1     -15.317  -2.944  16.457  1.00  0.00     0.019 A 
ATOM      2  C   UNL     1     -14.893  -4.127  15.888  1.00  0.00     0.082 A 
ATOM      3  N   UNL     1     -13.548  -4.181  15.892  1.00  0.00    -0.368 N 
ATOM      4  C   UNL     1     -13.109  -3.044  16.458  1.00  0.00     0.082 A 
ATOM      5  C   UNL     1     -14.179  -2.253  16.822  1.00  0.00     0.019 A 
ATOM      6  H   UNL     1     -12.959  -4.960  15.524  1.00  0.00     0.165 HD
ENDROOT
TORSDOF 0
ENDMDL
MODEL 9
REMARK VINA RESULT:    -2.144     16.893     17.739
REMARK INTER + INTRA:          -2.144
REMARK INTER:                  -2.144
REMARK INTRA:                   0.000
REMARK UNBOUND:                 0.000
REMARK SMILES c1cc[nH]c1
REMARK SMILES IDX 1 1 5 2 4 3 3 4 2 5
REMARK H PARENT 4 6
REMARK Flexibility Score: inf
ROOT
ATOM      1  C   UNL     1     -20.826   8.125  20.585  1.00  0.00     0.019 A 
ATOM      2  C   UNL     1     -19.450   8.122  20.493  1.00  0.00     0.082 A 
ATOM      3  N   UNL     1     -18.967   6.929  20.884  1.00  0.00    -0.368 N 
ATOM      4  C   UNL     1     -20.021   6.168  21.225  1.00  0.00     0.082 A 
ATOM      5  C   UNL     1     -21.191   6.878  21.051  1.00  0.00     0.019 A 
ATOM      6  H   UNL     1     -17.962   6.648  20.917  1.00  0.00     0.165 HD
ENDROOT
TORSDOF 0
ENDMDL
