MODEL 1
REMARK VINA RESULT:    -4.735      0.000      0.000
REMARK INTER + INTRA:          -5.772
REMARK INTER:                  -5.427
REMARK INTRA:                  -0.345
REMARK UNBOUND:                -0.345
REMARK SMILES COc1ccc(C(C)=O)c(O)c1
REMARK SMILES IDX 6 1 10 2 12 3 3 4 4 5 5 6 7 7 8 8 9 9 11 10 2 12 1 13
REMARK H PARENT 11 11
REMARK Flexibility Score: inf
ROOT
ATOM      1  C   UNL     1     479.117  36.851 460.152  1.00  0.00     0.059 A 
ATOM      2  C   UNL     1     478.987  35.453 460.318  1.00  0.00     0.130 A 
ATOM      3  C   UNL     1     478.054  34.936 461.229  1.00  0.00     0.093 A 
ATOM      4  C   UNL     1     477.238  35.785 461.981  1.00  0.00     0.122 A 
ATOM      5  C   UNL     1     477.361  37.174 461.817  1.00  0.00     0.047 A 
ATOM      6  C   UNL     1     478.288  37.699 460.914  1.00  0.00     0.019 A 
ENDROOT
BRANCH   1   7
ATOM      7  C   UNL     1     480.109  37.428 459.199  1.00  0.00     0.163 C 
ATOM      8  C   UNL     1     481.067  38.505 459.614  1.00  0.00     0.093 C 
ATOM      9  O   UNL     1     480.180  36.994 458.018  1.00  0.00    -0.294 OA
ENDBRANCH   1   7
BRANCH   2  10
ATOM     10  O   UNL     1     479.773  34.571 459.575  1.00  0.00    -0.507 OA
ATOM     11  H   UNL     1     479.799  34.601 458.563  1.00  0.00     0.293 HD
ENDBRANCH   2  10
BRANCH   4  12
ATOM     12  O   UNL     1     476.322  35.210 462.875  1.00  0.00    -0.497 OA
ATOM     13  C   UNL     1     476.126  33.809 463.035  1.00  0.00     0.278 C 
ENDBRANCH   4  12
TORSDOF 3
ENDMDL
MODEL 2
REMARK VINA RESULT:    -4.436      1.810      2.863
REMARK INTER + INTRA:          -5.429
REMARK INTER:                  -5.126
REMARK INTRA:                  -0.303
REMARK UNBOUND:                -0.345
REMARK SMILES COc1ccc(C(C)=O)c(O)c1
REMARK SMILES IDX 6 1 10 2 12 3 3 4 4 5 5 6 7 7 8 8 9 9 11 10 2 12 1 13
REMARK H PARENT 11 11
REMARK Flexibility Score: inf
ROOT
ATOM      1  C   UNL     1     478.008  35.882 461.352  1.00  0.00     0.059 A 
ATOM      2  C   UNL     1     477.097  36.801 461.923  1.00  0.00     0.130 A 
ATOM      3  C   UNL     1     476.090  36.348 462.789  1.00  0.00     0.093 A 
ATOM      4  C   UNL     1     475.970  34.992 463.103  1.00  0.00     0.122 A 
ATOM      5  C   UNL     1     476.874  34.077 462.541  1.00  0.00     0.047 A 
ATOM      6  C   UNL     1     477.879  34.517 461.677  1.00  0.00     0.019 A 
ENDROOT
BRANCH   1   7
ATOM      7  C   UNL     1     479.081  36.335 460.420  1.00  0.00     0.163 C 
ATOM      8  C   UNL     1     479.584  35.458 459.312  1.00  0.00     0.093 C 
ATOM      9  O   UNL     1     479.572  37.490 460.532  1.00  0.00    -0.294 OA
ENDBRANCH   1   7
BRANCH   2  10
ATOM     10  O   UNL     1     477.193  38.165 461.646  1.00  0.00    -0.507 OA
ATOM     11  H   UNL     1     476.696  38.858 462.193  1.00  0.00     0.293 HD
ENDBRANCH   2  10
BRANCH   4  12
ATOM     12  O   UNL     1     474.944  34.598 463.975  1.00  0.00    -0.497 OA
ATOM     13  C   UNL     1     474.486  33.259 464.126  1.00  0.00     0.278 C 
ENDBRANCH   4  12
TORSDOF 3
ENDMDL
MODEL 3
REMARK VINA RESULT:    -4.232      1.221      5.017
REMARK INTER + INTRA:          -5.195
REMARK INTER:                  -4.900
REMARK INTRA:                  -0.295
REMARK UNBOUND:                -0.345
REMARK SMILES COc1ccc(C(C)=O)c(O)c1
REMARK SMILES IDX 6 1 10 2 12 3 3 4 4 5 5 6 7 7 8 8 9 9 11 10 2 12 1 13
REMARK H PARENT 11 11
REMARK Flexibility Score: inf
ROOT
ATOM      1  C   UNL     1     477.876  35.865 461.471  1.00  0.00     0.059 A 
ATOM      2  C   UNL     1     478.098  37.262 461.440  1.00  0.00     0.130 A 
ATOM      3  C   UNL     1     479.005  37.810 460.521  1.00  0.00     0.093 A 
ATOM      4  C   UNL     1     479.699  36.994 459.623  1.00  0.00     0.122 A 
ATOM      5  C   UNL     1     479.479  35.608 459.648  1.00  0.00     0.047 A 
ATOM      6  C   UNL     1     478.579  35.052 460.560  1.00  0.00     0.019 A 
ENDROOT
BRANCH   1   7
ATOM      7  C   UNL     1     476.925  35.254 462.444  1.00  0.00     0.163 C 
ATOM      8  C   UNL     1     477.122  33.864 462.972  1.00  0.00     0.093 C 
ATOM      9  O   UNL     1     475.940  35.916 462.868  1.00  0.00    -0.294 OA
ENDBRANCH   1   7
BRANCH   2  10
ATOM     10  O   UNL     1     477.413  38.111 462.310  1.00  0.00    -0.507 OA
ATOM     11  H   UNL     1     477.881  38.584 463.074  1.00  0.00     0.293 HD
ENDBRANCH   2  10
BRANCH   4  12
ATOM     12  O   UNL     1     480.593  37.600 458.727  1.00  0.00    -0.497 OA
ATOM     13  C   UNL     1     481.608  38.523 459.105  1.00  0.00     0.278 C 
ENDBRANCH   4  12
TORSDOF 3
ENDMDL
MODEL 4
REMARK VINA RESULT:    -4.116      1.700      4.633
REMARK INTER + INTRA:          -5.063
REMARK INTER:                  -4.812
REMARK INTRA:                  -0.251
REMARK UNBOUND:                -0.345
REMARK SMILES COc1ccc(C(C)=O)c(O)c1
REMARK SMILES IDX 6 1 10 2 12 3 3 4 4 5 5 6 7 7 8 8 9 9 11 10 2 12 1 13
REMARK H PARENT 11 11
REMARK Flexibility Score: inf
ROOT
ATOM      1  C   UNL     1     477.137  35.633 462.187  1.00  0.00     0.059 A 
ATOM      2  C   UNL     1     478.196  35.625 461.249  1.00  0.00     0.130 A 
ATOM      3  C   UNL     1     478.537  36.800 460.563  1.00  0.00     0.093 A 
ATOM      4  C   UNL     1     477.848  37.993 460.793  1.00  0.00     0.122 A 
ATOM      5  C   UNL     1     476.798  38.007 461.726  1.00  0.00     0.047 A 
ATOM      6  C   UNL     1     476.449  36.843 462.414  1.00  0.00     0.019 A 
ENDROOT
BRANCH   1   7
ATOM      7  C   UNL     1     476.745  34.397 462.922  1.00  0.00     0.163 C 
ATOM      8  C   UNL     1     475.363  34.212 463.475  1.00  0.00     0.093 C 
ATOM      9  O   UNL     1     477.573  33.458 463.070  1.00  0.00    -0.294 OA
ENDBRANCH   1   7
BRANCH   2  10
ATOM     10  O   UNL     1     478.919  34.457 461.001  1.00  0.00    -0.507 OA
ATOM     11  H   UNL     1     479.417  33.972 461.737  1.00  0.00     0.293 HD
ENDBRANCH   2  10
BRANCH   4  12
ATOM     12  O   UNL     1     478.235  39.136 460.079  1.00  0.00    -0.497 OA
ATOM     13  C   UNL     1     478.919  39.110 458.830  1.00  0.00     0.278 C 
ENDBRANCH   4  12
TORSDOF 3
ENDMDL
MODEL 5
REMARK VINA RESULT:    -4.058      1.437      2.236
REMARK INTER + INTRA:          -4.996
REMARK INTER:                  -4.652
REMARK INTRA:                  -0.344
REMARK UNBOUND:                -0.345
REMARK SMILES COc1ccc(C(C)=O)c(O)c1
REMARK SMILES IDX 6 1 10 2 12 3 3 4 4 5 5 6 7 7 8 8 9 9 11 10 2 12 1 13
REMARK H PARENT 11 11
REMARK Flexibility Score: inf
ROOT
ATOM      1  C   UNL     1     479.139  36.989 460.248  1.00  0.00     0.059 A 
ATOM      2  C   UNL     1     478.294  37.790 461.050  1.00  0.00     0.130 A 
ATOM      3  C   UNL     1     477.346  37.188 461.893  1.00  0.00     0.093 A 
ATOM      4  C   UNL     1     477.224  35.798 461.959  1.00  0.00     0.122 A 
ATOM      5  C   UNL     1     478.064  34.999 461.167  1.00  0.00     0.047 A 
ATOM      6  C   UNL     1     479.008  35.587 460.323  1.00  0.00     0.019 A 
ENDROOT
BRANCH   1   7
ATOM      7  C   UNL     1     480.147  37.601 459.335  1.00  0.00     0.163 C 
ATOM      8  C   UNL     1     480.184  37.278 457.871  1.00  0.00     0.093 C 
ATOM      9  O   UNL     1     480.980  38.436 459.779  1.00  0.00    -0.294 OA
ENDBRANCH   1   7
BRANCH   2  10
ATOM     10  O   UNL     1     478.395  39.181 461.025  1.00  0.00    -0.507 OA
ATOM     11  H   UNL     1     479.156  39.670 461.482  1.00  0.00     0.293 HD
ENDBRANCH   2  10
BRANCH   4  12
ATOM     12  O   UNL     1     476.260  35.254 462.821  1.00  0.00    -0.497 OA
ATOM     13  C   UNL     1     476.136  33.867 463.115  1.00  0.00     0.278 C 
ENDBRANCH   4  12
TORSDOF 3
ENDMDL
MODEL 6
REMARK VINA RESULT:    -3.859      7.147      7.977
REMARK INTER + INTRA:          -4.768
REMARK INTER:                  -4.433
REMARK INTRA:                  -0.335
REMARK UNBOUND:                -0.345
REMARK SMILES COc1ccc(C(C)=O)c(O)c1
REMARK SMILES IDX 6 1 10 2 12 3 3 4 4 5 5 6 7 7 8 8 9 9 11 10 2 12 1 13
REMARK H PARENT 11 11
REMARK Flexibility Score: inf
ROOT
ATOM      1  C   UNL     1     483.940  39.234 457.192  1.00  0.00     0.059 A 
ATOM      2  C   UNL     1     484.595  38.546 458.239  1.00  0.00     0.130 A 
ATOM      3  C   UNL     1     485.217  39.263 459.272  1.00  0.00     0.093 A 
ATOM      4  C   UNL     1     485.199  40.660 459.288  1.00  0.00     0.122 A 
ATOM      5  C   UNL     1     484.547  41.347 458.252  1.00  0.00     0.047 A 
ATOM      6  C   UNL     1     483.926  40.644 457.218  1.00  0.00     0.019 A 
ENDROOT
BRANCH   1   7
ATOM      7  C   UNL     1     483.279  38.498 456.075  1.00  0.00     0.163 C 
ATOM      8  C   UNL     1     483.427  38.932 454.647  1.00  0.00     0.093 C 
ATOM      9  O   UNL     1     482.599  37.464 456.313  1.00  0.00    -0.294 OA
ENDBRANCH   1   7
BRANCH   2  10
ATOM     10  O   UNL     1     484.622  37.151 458.267  1.00  0.00    -0.507 OA
ATOM     11  H   UNL     1     484.083  36.593 457.615  1.00  0.00     0.293 HD
ENDBRANCH   2  10
BRANCH   4  12
ATOM     12  O   UNL     1     485.837  41.322 460.347  1.00  0.00    -0.497 OA
ATOM     13  C   UNL     1     486.122  40.731 461.610  1.00  0.00     0.278 C 
ENDBRANCH   4  12
TORSDOF 3
ENDMDL
MODEL 7
REMARK VINA RESULT:    -3.840      1.430      4.703
REMARK INTER + INTRA:          -4.746
REMARK INTER:                  -4.431
REMARK INTRA:                  -0.315
REMARK UNBOUND:                -0.345
REMARK SMILES COc1ccc(C(C)=O)c(O)c1
REMARK SMILES IDX 6 1 10 2 12 3 3 4 4 5 5 6 7 7 8 8 9 9 11 10 2 12 1 13
REMARK H PARENT 11 11
REMARK Flexibility Score: inf
ROOT
ATOM      1  C   UNL     1     478.673  36.534 461.008  1.00  0.00     0.059 A 
ATOM      2  C   UNL     1     479.271  36.230 459.763  1.00  0.00     0.130 A 
ATOM      3  C   UNL     1     480.090  37.175 459.126  1.00  0.00     0.093 A 
ATOM      4  C   UNL     1     480.332  38.423 459.706  1.00  0.00     0.122 A 
ATOM      5  C   UNL     1     479.743  38.727 460.944  1.00  0.00     0.047 A 
ATOM      6  C   UNL     1     478.925  37.795 461.586  1.00  0.00     0.019 A 
ENDROOT
BRANCH   1   7
ATOM      7  C   UNL     1     477.789  35.553 461.702  1.00  0.00     0.163 C 
ATOM      8  C   UNL     1     476.560  35.986 462.444  1.00  0.00     0.093 C 
ATOM      9  O   UNL     1     478.049  34.321 461.652  1.00  0.00    -0.294 OA
ENDBRANCH   1   7
BRANCH   2  10
ATOM     10  O   UNL     1     479.066  34.989 459.158  1.00  0.00    -0.507 OA
ATOM     11  H   UNL     1     478.855  34.160 459.699  1.00  0.00     0.293 HD
ENDBRANCH   2  10
BRANCH   4  12
ATOM     12  O   UNL     1     481.160  39.326 459.023  1.00  0.00    -0.497 OA
ATOM     13  C   UNL     1     482.534  39.542 459.324  1.00  0.00     0.278 C 
ENDBRANCH   4  12
TORSDOF 3
ENDMDL
MODEL 8
REMARK VINA RESULT:    -3.830      4.888      6.780
REMARK INTER + INTRA:          -4.734
REMARK INTER:                  -4.405
REMARK INTRA:                  -0.329
REMARK UNBOUND:                -0.345
REMARK SMILES COc1ccc(C(C)=O)c(O)c1
REMARK SMILES IDX 6 1 10 2 12 3 3 4 4 5 5 6 7 7 8 8 9 9 11 10 2 12 1 13
REMARK H PARENT 11 11
REMARK Flexibility Score: inf
ROOT
ATOM      1  C   UNL     1     482.773  38.554 458.915  1.00  0.00     0.059 A 
ATOM      2  C   UNL     1     484.116  38.111 458.953  1.00  0.00     0.130 A 
ATOM      3  C   UNL     1     484.968  38.536 459.984  1.00  0.00     0.093 A 
ATOM      4  C   UNL     1     484.509  39.394 460.987  1.00  0.00     0.122 A 
ATOM      5  C   UNL     1     483.176  39.833 460.954  1.00  0.00     0.047 A 
ATOM      6  C   UNL     1     482.320  39.418 459.933  1.00  0.00     0.019 A 
ENDROOT
BRANCH   1   7
ATOM      7  C   UNL     1     481.848  38.127 457.825  1.00  0.00     0.163 C 
ATOM      8  C   UNL     1     480.422  37.754 458.101  1.00  0.00     0.093 C 
ATOM      9  O   UNL     1     482.248  38.099 456.630  1.00  0.00    -0.294 OA
ENDBRANCH   1   7
BRANCH   2  10
ATOM     10  O   UNL     1     484.607  37.242 457.978  1.00  0.00    -0.507 OA
ATOM     11  H   UNL     1     483.991  36.677 457.407  1.00  0.00     0.293 HD
ENDBRANCH   2  10
BRANCH   4  12
ATOM     12  O   UNL     1     485.407  39.784 461.992  1.00  0.00    -0.497 OA
ATOM     13  C   UNL     1     486.234  40.941 461.927  1.00  0.00     0.278 C 
ENDBRANCH   4  12
TORSDOF 3
ENDMDL
MODEL 9
REMARK VINA RESULT:    -3.690      5.624      7.199
REMARK INTER + INTRA:          -4.574
REMARK INTER:                  -4.262
REMARK INTRA:                  -0.312
REMARK UNBOUND:                -0.345
REMARK SMILES COc1ccc(C(C)=O)c(O)c1
REMARK SMILES IDX 6 1 10 2 12 3 3 4 4 5 5 6 7 7 8 8 9 9 11 10 2 12 1 13
REMARK H PARENT 11 11
REMARK Flexibility Score: inf
ROOT
ATOM      1  C   UNL     1     483.741  39.092 460.773  1.00  0.00     0.059 A 
ATOM      2  C   UNL     1     484.804  38.678 459.937  1.00  0.00     0.130 A 
ATOM      3  C   UNL     1     484.548  38.282 458.616  1.00  0.00     0.093 A 
ATOM      4  C   UNL     1     483.248  38.292 458.102  1.00  0.00     0.122 A 
ATOM      5  C   UNL     1     482.190  38.705 458.928  1.00  0.00     0.047 A 
ATOM      6  C   UNL     1     482.434  39.100 460.245  1.00  0.00     0.019 A 
ENDROOT
BRANCH   1   7
ATOM      7  C   UNL     1     483.983  39.507 462.185  1.00  0.00     0.163 C 
ATOM      8  C   UNL     1     483.007  39.192 463.278  1.00  0.00     0.093 C 
ATOM      9  O   UNL     1     485.042  40.117 462.493  1.00  0.00    -0.294 OA
ENDBRANCH   1   7
BRANCH   2  10
ATOM     10  O   UNL     1     486.118  38.669 460.408  1.00  0.00    -0.507 OA
ATOM     11  H   UNL     1     486.809  39.330 460.075  1.00  0.00     0.293 HD
ENDBRANCH   2  10
BRANCH   4  12
ATOM     12  O   UNL     1     483.053  37.886 456.774  1.00  0.00    -0.497 OA
ATOM     13  C   UNL     1     483.565  38.576 455.639  1.00  0.00     0.278 C 
ENDBRANCH   4  12
TORSDOF 3
ENDMDL
