MODEL 1
REMARK VINA RESULT:    -3.620      0.000      0.000
REMARK INTER + INTRA:          -4.637
REMARK INTER:                  -4.466
REMARK INTRA:                  -0.171
REMARK UNBOUND:                -0.171
REMARK SMILES CCCCC=CC(C)=O
REMARK SMILES IDX 4 1 3 2 2 3 1 4 5 5 6 6 7 7 9 8 8 9
REMARK H PARENT
REMARK Flexibility Score: inf
ROOT
ATOM      1  C   UNL     1      20.834  24.742  26.218  1.00  0.00     0.027 C 
ENDROOT
BRANCH   1   2
ATOM      2  C   UNL     1      20.981  23.601  25.199  1.00  0.00     0.004 C 
BRANCH   2   3
ATOM      3  C   UNL     1      21.629  24.076  23.892  1.00  0.00    -0.003 C 
ATOM      4  C   UNL     1      22.149  22.896  23.075  1.00  0.00     0.004 C 
ENDBRANCH   2   3
ENDBRANCH   1   2
BRANCH   1   5
ATOM      5  C   UNL     1      20.011  24.342  27.415  1.00  0.00    -0.023 C 
ATOM      6  C   UNL     1      19.382  25.179  28.256  1.00  0.00     0.042 C 
BRANCH   6   7
ATOM      7  C   UNL     1      19.412  26.659  28.211  1.00  0.00     0.152 C 
ATOM      8  O   UNL     1      20.359  27.318  28.715  1.00  0.00    -0.295 OA
ATOM      9  C   UNL     1      18.254  27.394  27.617  1.00  0.00     0.093 C 
ENDBRANCH   6   7
ENDBRANCH   1   5
TORSDOF 4
ENDMDL
MODEL 2
REMARK VINA RESULT:    -3.495      2.838      4.499
REMARK INTER + INTRA:          -4.483
REMARK INTER:                  -4.072
REMARK INTRA:                  -0.411
REMARK UNBOUND:                -0.171
REMARK SMILES CCCCC=CC(C)=O
REMARK SMILES IDX 4 1 3 2 2 3 1 4 5 5 6 6 7 7 9 8 8 9
REMARK H PARENT
REMARK Flexibility Score: inf
ROOT
ATOM      1  C   UNL     1      16.642  25.262  28.462  1.00  0.00     0.027 C 
ENDROOT
BRANCH   1   2
ATOM      2  C   UNL     1      15.637  24.709  27.440  1.00  0.00     0.004 C 
BRANCH   2   3
ATOM      3  C   UNL     1      16.184  23.480  26.701  1.00  0.00    -0.003 C 
ATOM      4  C   UNL     1      15.357  23.173  25.455  1.00  0.00     0.004 C 
ENDBRANCH   2   3
ENDBRANCH   1   2
BRANCH   1   5
ATOM      5  C   UNL     1      17.517  26.342  27.881  1.00  0.00    -0.023 C 
ATOM      6  C   UNL     1      18.838  26.250  27.652  1.00  0.00     0.042 C 
BRANCH   6   7
ATOM      7  C   UNL     1      19.707  25.094  27.973  1.00  0.00     0.152 C 
ATOM      8  O   UNL     1      20.348  25.028  29.056  1.00  0.00    -0.295 OA
ATOM      9  C   UNL     1      19.889  24.014  26.957  1.00  0.00     0.093 C 
ENDBRANCH   6   7
ENDBRANCH   1   5
TORSDOF 4
ENDMDL
MODEL 3
REMARK VINA RESULT:    -3.478      3.287      4.191
REMARK INTER + INTRA:          -4.462
REMARK INTER:                  -4.264
REMARK INTRA:                  -0.198
REMARK UNBOUND:                -0.171
REMARK SMILES CCCCC=CC(C)=O
REMARK SMILES IDX 4 1 3 2 2 3 1 4 5 5 6 6 7 7 9 8 8 9
REMARK H PARENT
REMARK Flexibility Score: inf
ROOT
ATOM      1  C   UNL     1      21.672  25.870  28.580  1.00  0.00     0.027 C 
ENDROOT
BRANCH   1   2
ATOM      2  C   UNL     1      20.503  25.512  27.650  1.00  0.00     0.004 C 
BRANCH   2   3
ATOM      3  C   UNL     1      20.538  24.040  27.219  1.00  0.00    -0.003 C 
ATOM      4  C   UNL     1      20.831  23.909  25.727  1.00  0.00     0.004 C 
ENDBRANCH   2   3
ENDBRANCH   1   2
BRANCH   1   5
ATOM      5  C   UNL     1      21.588  27.285  29.091  1.00  0.00    -0.023 C 
ATOM      6  C   UNL     1      22.500  28.251  28.890  1.00  0.00     0.042 C 
BRANCH   6   7
ATOM      7  C   UNL     1      23.790  28.109  28.178  1.00  0.00     0.152 C 
ATOM      8  O   UNL     1      23.889  28.312  26.939  1.00  0.00    -0.295 OA
ATOM      9  C   UNL     1      24.992  27.641  28.933  1.00  0.00     0.093 C 
ENDBRANCH   6   7
ENDBRANCH   1   5
TORSDOF 4
ENDMDL
MODEL 4
REMARK VINA RESULT:    -3.425      3.589      4.812
REMARK INTER + INTRA:          -4.397
REMARK INTER:                  -3.997
REMARK INTRA:                  -0.400
REMARK UNBOUND:                -0.171
REMARK SMILES CCCCC=CC(C)=O
REMARK SMILES IDX 4 1 3 2 2 3 1 4 5 5 6 6 7 7 9 8 8 9
REMARK H PARENT
REMARK Flexibility Score: inf
ROOT
ATOM      1  C   UNL     1      17.553  25.424  28.446  1.00  0.00     0.027 C 
ENDROOT
BRANCH   1   2
ATOM      2  C   UNL     1      18.758  25.904  27.622  1.00  0.00     0.004 C 
BRANCH   2   3
ATOM      3  C   UNL     1      19.940  24.929  27.708  1.00  0.00    -0.003 C 
ATOM      4  C   UNL     1      19.743  23.740  26.771  1.00  0.00     0.004 C 
ENDBRANCH   2   3
ENDBRANCH   1   2
BRANCH   1   5
ATOM      5  C   UNL     1      16.240  25.869  27.857  1.00  0.00    -0.023 C 
ATOM      6  C   UNL     1      15.295  25.067  27.337  1.00  0.00     0.042 C 
BRANCH   6   7
ATOM      7  C   UNL     1      15.374  23.596  27.189  1.00  0.00     0.152 C 
ATOM      8  O   UNL     1      14.929  22.816  28.072  1.00  0.00    -0.295 OA
ATOM      9  C   UNL     1      16.066  23.019  25.996  1.00  0.00     0.093 C 
ENDBRANCH   6   7
ENDBRANCH   1   5
TORSDOF 4
ENDMDL
MODEL 5
REMARK VINA RESULT:    -3.408      2.779      4.790
REMARK INTER + INTRA:          -4.376
REMARK INTER:                  -3.748
REMARK INTRA:                  -0.628
REMARK UNBOUND:                -0.171
REMARK SMILES CCCCC=CC(C)=O
REMARK SMILES IDX 4 1 3 2 2 3 1 4 5 5 6 6 7 7 9 8 8 9
REMARK H PARENT
REMARK Flexibility Score: inf
ROOT
ATOM      1  C   UNL     1      18.038  26.211  28.242  1.00  0.00     0.027 C 
ENDROOT
BRANCH   1   2
ATOM      2  C   UNL     1      18.105  27.581  27.549  1.00  0.00     0.004 C 
BRANCH   2   3
ATOM      3  C   UNL     1      18.882  28.610  28.381  1.00  0.00    -0.003 C 
ATOM      4  C   UNL     1      18.893  28.230  29.859  1.00  0.00     0.004 C 
ENDBRANCH   2   3
ENDBRANCH   1   2
BRANCH   1   5
ATOM      5  C   UNL     1      18.824  25.156  27.507  1.00  0.00    -0.023 C 
ATOM      6  C   UNL     1      20.095  24.800  27.760  1.00  0.00     0.042 C 
BRANCH   6   7
ATOM      7  C   UNL     1      20.994  25.404  28.770  1.00  0.00     0.152 C 
ATOM      8  O   UNL     1      20.906  25.114  29.993  1.00  0.00    -0.295 OA
ATOM      9  C   UNL     1      21.982  26.440  28.341  1.00  0.00     0.093 C 
ENDBRANCH   6   7
ENDBRANCH   1   5
TORSDOF 4
ENDMDL
MODEL 6
REMARK VINA RESULT:    -3.393      2.862      4.221
REMARK INTER + INTRA:          -4.358
REMARK INTER:                  -3.868
REMARK INTRA:                  -0.489
REMARK UNBOUND:                -0.171
REMARK SMILES CCCCC=CC(C)=O
REMARK SMILES IDX 4 1 3 2 2 3 1 4 5 5 6 6 7 7 9 8 8 9
REMARK H PARENT
REMARK Flexibility Score: inf
ROOT
ATOM      1  C   UNL     1      19.492  25.488  27.386  1.00  0.00     0.027 C 
ENDROOT
BRANCH   1   2
ATOM      2  C   UNL     1      18.187  25.409  28.192  1.00  0.00     0.004 C 
BRANCH   2   3
ATOM      3  C   UNL     1      17.455  26.757  28.238  1.00  0.00    -0.003 C 
ATOM      4  C   UNL     1      18.254  27.843  27.523  1.00  0.00     0.004 C 
ENDBRANCH   2   3
ENDBRANCH   1   2
BRANCH   1   5
ATOM      5  C   UNL     1      20.637  24.791  28.076  1.00  0.00    -0.023 C 
ATOM      6  C   UNL     1      21.688  25.390  28.661  1.00  0.00     0.042 C 
BRANCH   6   7
ATOM      7  C   UNL     1      21.963  26.845  28.699  1.00  0.00     0.152 C 
ATOM      8  O   UNL     1      22.797  27.382  27.923  1.00  0.00    -0.295 OA
ATOM      9  C   UNL     1      21.289  27.687  29.734  1.00  0.00     0.093 C 
ENDBRANCH   6   7
ENDBRANCH   1   5
TORSDOF 4
ENDMDL
MODEL 7
REMARK VINA RESULT:    -3.377      5.398      7.798
REMARK INTER + INTRA:          -4.338
REMARK INTER:                  -3.923
REMARK INTRA:                  -0.414
REMARK UNBOUND:                -0.171
REMARK SMILES CCCCC=CC(C)=O
REMARK SMILES IDX 4 1 3 2 2 3 1 4 5 5 6 6 7 7 9 8 8 9
REMARK H PARENT
REMARK Flexibility Score: inf
ROOT
ATOM      1  C   UNL     1      18.428  31.766  29.700  1.00  0.00     0.027 C 
ENDROOT
BRANCH   1   2
ATOM      2  C   UNL     1      18.936  30.625  28.805  1.00  0.00     0.004 C 
BRANCH   2   3
ATOM      3  C   UNL     1      18.183  29.313  29.059  1.00  0.00    -0.003 C 
ATOM      4  C   UNL     1      18.414  28.316  27.927  1.00  0.00     0.004 C 
ENDBRANCH   2   3
ENDBRANCH   1   2
BRANCH   1   5
ATOM      5  C   UNL     1      17.480  32.686  28.975  1.00  0.00    -0.023 C 
ATOM      6  C   UNL     1      16.155  32.774  29.179  1.00  0.00     0.042 C 
BRANCH   6   7
ATOM      7  C   UNL     1      15.352  31.952  30.113  1.00  0.00     0.152 C 
ATOM      8  O   UNL     1      15.154  32.306  31.305  1.00  0.00    -0.295 OA
ATOM      9  C   UNL     1      14.824  30.631  29.652  1.00  0.00     0.093 C 
ENDBRANCH   6   7
ENDBRANCH   1   5
TORSDOF 4
ENDMDL
MODEL 8
REMARK VINA RESULT:    -3.365      7.091      9.281
REMARK INTER + INTRA:          -4.322
REMARK INTER:                  -3.767
REMARK INTRA:                  -0.556
REMARK UNBOUND:                -0.171
REMARK SMILES CCCCC=CC(C)=O
REMARK SMILES IDX 4 1 3 2 2 3 1 4 5 5 6 6 7 7 9 8 8 9
REMARK H PARENT
REMARK Flexibility Score: inf
ROOT
ATOM      1  C   UNL     1      15.763  32.851  31.002  1.00  0.00     0.027 C 
ENDROOT
BRANCH   1   2
ATOM      2  C   UNL     1      14.637  31.807  31.054  1.00  0.00     0.004 C 
BRANCH   2   3
ATOM      3  C   UNL     1      15.156  30.385  30.805  1.00  0.00    -0.003 C 
ATOM      4  C   UNL     1      14.605  29.818  29.499  1.00  0.00     0.004 C 
ENDBRANCH   2   3
ENDBRANCH   1   2
BRANCH   1   5
ATOM      5  C   UNL     1      16.090  33.273  29.593  1.00  0.00    -0.023 C 
ATOM      6  C   UNL     1      17.201  32.949  28.910  1.00  0.00     0.042 C 
BRANCH   6   7
ATOM      7  C   UNL     1      18.348  32.162  29.418  1.00  0.00     0.152 C 
ATOM      8  O   UNL     1      19.249  32.685  30.126  1.00  0.00    -0.295 OA
ATOM      9  C   UNL     1      18.481  30.727  29.020  1.00  0.00     0.093 C 
ENDBRANCH   6   7
ENDBRANCH   1   5
TORSDOF 4
ENDMDL
MODEL 9
REMARK VINA RESULT:    -3.346      6.506      8.919
REMARK INTER + INTRA:          -4.299
REMARK INTER:                  -3.677
REMARK INTRA:                  -0.622
REMARK UNBOUND:                -0.171
REMARK SMILES CCCCC=CC(C)=O
REMARK SMILES IDX 4 1 3 2 2 3 1 4 5 5 6 6 7 7 9 8 8 9
REMARK H PARENT
REMARK Flexibility Score: inf
ROOT
ATOM      1  C   UNL     1      15.690  32.454  30.126  1.00  0.00     0.027 C 
ENDROOT
BRANCH   1   2
ATOM      2  C   UNL     1      16.303  33.259  28.969  1.00  0.00     0.004 C 
BRANCH   2   3
ATOM      3  C   UNL     1      17.703  33.785  29.311  1.00  0.00    -0.003 C 
ATOM      4  C   UNL     1      17.992  33.655  30.804  1.00  0.00     0.004 C 
ENDBRANCH   2   3
ENDBRANCH   1   2
BRANCH   1   5
ATOM      5  C   UNL     1      15.345  31.043  29.724  1.00  0.00    -0.023 C 
ATOM      6  C   UNL     1      16.191  30.000  29.703  1.00  0.00     0.042 C 
BRANCH   6   7
ATOM      7  C   UNL     1      17.638  30.033  30.014  1.00  0.00     0.152 C 
ATOM      8  O   UNL     1      18.061  30.003  31.200  1.00  0.00    -0.295 OA
ATOM      9  C   UNL     1      18.621  30.181  28.898  1.00  0.00     0.093 C 
ENDBRANCH   6   7
ENDBRANCH   1   5
TORSDOF 4
ENDMDL
