MODEL 1
REMARK VINA RESULT:    -3.165      0.000      0.000
REMARK INTER + INTRA:          -3.443
REMARK INTER:                  -3.443
REMARK INTRA:                   0.000
REMARK UNBOUND:                 0.000
REMARK SMILES [NH3+]CC(=O)[O-]
REMARK SMILES IDX 2 1 1 2 3 6 4 7 5 8
REMARK H PARENT 1 3 1 4 1 5
REMARK Flexibility Score: inf
ROOT
ATOM      1  C   UNL     1     -24.855  -6.600  14.165  1.00  0.00     0.312 C 
ENDROOT
BRANCH   1   2
ATOM      2  N   UNL     1     -24.832  -6.401  12.717  1.00  0.00    -0.353 N 
ATOM      3  H   UNL     1     -24.759  -7.331  12.244  1.00  0.00     0.344 HD
ATOM      4  H   UNL     1     -25.712  -5.930  12.405  1.00  0.00     0.344 HD
ATOM      5  H   UNL     1     -24.005  -5.819  12.448  1.00  0.00     0.344 HD
ENDBRANCH   1   2
BRANCH   1   6
ATOM      6  C   UNL     1     -23.696  -5.908  14.812  1.00  0.00     0.096 C 
ATOM      7  O   UNL     1     -23.806  -4.714  15.197  1.00  0.00    -0.544 OA
ATOM      8  O   UNL     1     -22.512  -6.598  15.036  1.00  0.00    -0.544 OA
ENDBRANCH   1   6
TORSDOF 2
ENDMDL
MODEL 2
REMARK VINA RESULT:    -3.135      0.159      1.456
REMARK INTER + INTRA:          -3.410
REMARK INTER:                  -3.410
REMARK INTRA:                   0.000
REMARK UNBOUND:                 0.000
REMARK SMILES [NH3+]CC(=O)[O-]
REMARK SMILES IDX 2 1 1 2 3 6 4 7 5 8
REMARK H PARENT 1 3 1 4 1 5
REMARK Flexibility Score: inf
ROOT
ATOM      1  C   UNL     1     -24.819  -6.541  14.296  1.00  0.00     0.312 C 
ENDROOT
BRANCH   1   2
ATOM      2  N   UNL     1     -24.801  -6.422  12.839  1.00  0.00    -0.353 N 
ATOM      3  H   UNL     1     -24.723  -7.376  12.418  1.00  0.00     0.344 HD
ATOM      4  H   UNL     1     -25.684  -5.974  12.504  1.00  0.00     0.344 HD
ATOM      5  H   UNL     1     -23.978  -5.851  12.536  1.00  0.00     0.344 HD
ENDBRANCH   1   2
BRANCH   1   6
ATOM      6  C   UNL     1     -23.636  -5.848  14.898  1.00  0.00     0.096 C 
ATOM      7  O   UNL     1     -22.538  -6.454  15.013  1.00  0.00    -0.544 OA
ATOM      8  O   UNL     1     -23.733  -4.518  15.285  1.00  0.00    -0.544 OA
ENDBRANCH   1   6
TORSDOF 2
ENDMDL
MODEL 3
REMARK VINA RESULT:    -3.061      2.473      2.950
REMARK INTER + INTRA:          -3.330
REMARK INTER:                  -3.330
REMARK INTRA:                   0.000
REMARK UNBOUND:                 0.000
REMARK SMILES [NH3+]CC(=O)[O-]
REMARK SMILES IDX 2 1 1 2 3 6 4 7 5 8
REMARK H PARENT 1 3 1 4 1 5
REMARK Flexibility Score: inf
ROOT
ATOM      1  C   UNL     1     -23.207  -4.158  16.406  1.00  0.00     0.312 C 
ENDROOT
BRANCH   1   2
ATOM      2  N   UNL     1     -24.351  -3.366  15.957  1.00  0.00    -0.353 N 
ATOM      3  H   UNL     1     -24.008  -2.455  15.576  1.00  0.00     0.344 HD
ATOM      4  H   UNL     1     -24.868  -3.876  15.205  1.00  0.00     0.344 HD
ATOM      5  H   UNL     1     -24.993  -3.177  16.762  1.00  0.00     0.344 HD
ENDBRANCH   1   2
BRANCH   1   6
ATOM      6  C   UNL     1     -22.968  -5.312  15.483  1.00  0.00     0.096 C 
ATOM      7  O   UNL     1     -21.929  -6.014  15.602  1.00  0.00    -0.544 OA
ATOM      8  O   UNL     1     -23.916  -5.642  14.523  1.00  0.00    -0.544 OA
ENDBRANCH   1   6
TORSDOF 2
ENDMDL
MODEL 4
REMARK VINA RESULT:    -2.960      2.410      2.604
REMARK INTER + INTRA:          -3.220
REMARK INTER:                  -3.220
REMARK INTRA:                   0.000
REMARK UNBOUND:                 0.000
REMARK SMILES [NH3+]CC(=O)[O-]
REMARK SMILES IDX 2 1 1 2 3 6 4 7 5 8
REMARK H PARENT 1 3 1 4 1 5
REMARK Flexibility Score: inf
ROOT
ATOM      1  C   UNL     1     -22.408  -6.635  15.138  1.00  0.00     0.312 C 
ENDROOT
BRANCH   1   2
ATOM      2  N   UNL     1     -21.467  -5.740  15.809  1.00  0.00    -0.353 N 
ATOM      3  H   UNL     1     -20.959  -5.175  15.091  1.00  0.00     0.344 HD
ATOM      4  H   UNL     1     -21.982  -5.092  16.449  1.00  0.00     0.344 HD
ATOM      5  H   UNL     1     -20.771  -6.297  16.357  1.00  0.00     0.344 HD
ENDBRANCH   1   2
BRANCH   1   6
ATOM      6  C   UNL     1     -23.650  -5.897  14.743  1.00  0.00     0.096 C 
ATOM      7  O   UNL     1     -24.005  -4.869  15.379  1.00  0.00    -0.544 OA
ATOM      8  O   UNL     1     -24.387  -6.316  13.644  1.00  0.00    -0.544 OA
ENDBRANCH   1   6
TORSDOF 2
ENDMDL
MODEL 5
REMARK VINA RESULT:    -2.948      2.399      2.797
REMARK INTER + INTRA:          -3.206
REMARK INTER:                  -3.206
REMARK INTRA:                   0.000
REMARK UNBOUND:                 0.000
REMARK SMILES [NH3+]CC(=O)[O-]
REMARK SMILES IDX 2 1 1 2 3 6 4 7 5 8
REMARK H PARENT 1 3 1 4 1 5
REMARK Flexibility Score: inf
ROOT
ATOM      1  C   UNL     1     -22.390  -6.650  15.157  1.00  0.00     0.312 C 
ENDROOT
BRANCH   1   2
ATOM      2  N   UNL     1     -21.435  -5.737  15.781  1.00  0.00    -0.353 N 
ATOM      3  H   UNL     1     -21.262  -4.930  15.139  1.00  0.00     0.344 HD
ATOM      4  H   UNL     1     -21.819  -5.377  16.684  1.00  0.00     0.344 HD
ATOM      5  H   UNL     1     -20.528  -6.231  15.955  1.00  0.00     0.344 HD
ENDBRANCH   1   2
BRANCH   1   6
ATOM      6  C   UNL     1     -23.636  -5.921  14.757  1.00  0.00     0.096 C 
ATOM      7  O   UNL     1     -24.365  -6.371  13.835  1.00  0.00    -0.544 OA
ATOM      8  O   UNL     1     -24.015  -4.771  15.437  1.00  0.00    -0.544 OA
ENDBRANCH   1   6
TORSDOF 2
ENDMDL
MODEL 6
REMARK VINA RESULT:    -2.894      4.804      5.088
REMARK INTER + INTRA:          -3.148
REMARK INTER:                  -3.148
REMARK INTRA:                   0.000
REMARK UNBOUND:                 0.000
REMARK SMILES [NH3+]CC(=O)[O-]
REMARK SMILES IDX 2 1 1 2 3 6 4 7 5 8
REMARK H PARENT 1 3 1 4 1 5
REMARK Flexibility Score: inf
ROOT
ATOM      1  C   UNL     1     -25.147  -6.505  10.609  1.00  0.00     0.312 C 
ENDROOT
BRANCH   1   2
ATOM      2  N   UNL     1     -25.154  -6.148  12.026  1.00  0.00    -0.353 N 
ATOM      3  H   UNL     1     -26.126  -6.238  12.398  1.00  0.00     0.344 HD
ATOM      4  H   UNL     1     -24.524  -6.790  12.561  1.00  0.00     0.344 HD
ATOM      5  H   UNL     1     -24.835  -5.158  12.148  1.00  0.00     0.344 HD
ENDBRANCH   1   2
BRANCH   1   6
ATOM      6  C   UNL     1     -25.776  -5.422   9.788  1.00  0.00     0.096 C 
ATOM      7  O   UNL     1     -25.882  -4.256  10.251  1.00  0.00    -0.544 OA
ATOM      8  O   UNL     1     -26.201  -5.690   8.493  1.00  0.00    -0.544 OA
ENDBRANCH   1   6
TORSDOF 2
ENDMDL
MODEL 7
REMARK VINA RESULT:    -2.868      5.237      5.411
REMARK INTER + INTRA:          -3.119
REMARK INTER:                  -3.119
REMARK INTRA:                   0.000
REMARK UNBOUND:                 0.000
REMARK SMILES [NH3+]CC(=O)[O-]
REMARK SMILES IDX 2 1 1 2 3 6 4 7 5 8
REMARK H PARENT 1 3 1 4 1 5
REMARK Flexibility Score: inf
ROOT
ATOM      1  C   UNL     1     -25.794  -5.451   8.391  1.00  0.00     0.312 C 
ENDROOT
BRANCH   1   2
ATOM      2  N   UNL     1     -24.618  -4.759   7.866  1.00  0.00    -0.353 N 
ATOM      3  H   UNL     1     -24.921  -4.077   7.133  1.00  0.00     0.344 HD
ATOM      4  H   UNL     1     -24.134  -4.240   8.634  1.00  0.00     0.344 HD
ATOM      5  H   UNL     1     -23.959  -5.449   7.435  1.00  0.00     0.344 HD
ENDBRANCH   1   2
BRANCH   1   6
ATOM      6  C   UNL     1     -25.781  -5.452   9.889  1.00  0.00     0.096 C 
ATOM      7  O   UNL     1     -26.093  -4.411  10.525  1.00  0.00    -0.544 OA
ATOM      8  O   UNL     1     -25.474  -6.616  10.580  1.00  0.00    -0.544 OA
ENDBRANCH   1   6
TORSDOF 2
ENDMDL
MODEL 8
REMARK VINA RESULT:    -2.840      2.443      2.649
REMARK INTER + INTRA:          -3.089
REMARK INTER:                  -3.089
REMARK INTRA:                   0.000
REMARK UNBOUND:                 0.000
REMARK SMILES [NH3+]CC(=O)[O-]
REMARK SMILES IDX 2 1 1 2 3 6 4 7 5 8
REMARK H PARENT 1 3 1 4 1 5
REMARK Flexibility Score: inf
ROOT
ATOM      1  C   UNL     1     -22.292  -8.435  15.224  1.00  0.00     0.312 C 
ENDROOT
BRANCH   1   2
ATOM      2  N   UNL     1     -23.276  -9.431  14.803  1.00  0.00    -0.353 N 
ATOM      3  H   UNL     1     -22.943  -9.894  13.927  1.00  0.00     0.344 HD
ATOM      4  H   UNL     1     -23.394 -10.157  15.548  1.00  0.00     0.344 HD
ATOM      5  H   UNL     1     -24.196  -8.969  14.613  1.00  0.00     0.344 HD
ENDBRANCH   1   2
BRANCH   1   6
ATOM      6  C   UNL     1     -22.832  -7.050  15.045  1.00  0.00     0.096 C 
ATOM      7  O   UNL     1     -23.959  -6.874  14.512  1.00  0.00    -0.544 OA
ATOM      8  O   UNL     1     -22.113  -5.958  15.513  1.00  0.00    -0.544 OA
ENDBRANCH   1   6
TORSDOF 2
ENDMDL
MODEL 9
REMARK VINA RESULT:    -2.682      7.059      7.416
REMARK INTER + INTRA:          -2.918
REMARK INTER:                  -2.918
REMARK INTRA:                   0.000
REMARK UNBOUND:                 0.000
REMARK SMILES [NH3+]CC(=O)[O-]
REMARK SMILES IDX 2 1 1 2 3 6 4 7 5 8
REMARK H PARENT 1 3 1 4 1 5
REMARK Flexibility Score: inf
ROOT
ATOM      1  C   UNL     1     -30.675 -10.304  14.814  1.00  0.00     0.312 C 
ENDROOT
BRANCH   1   2
ATOM      2  N   UNL     1     -30.681  -8.873  15.114  1.00  0.00    -0.353 N 
ATOM      3  H   UNL     1     -30.918  -8.341  14.246  1.00  0.00     0.344 HD
ATOM      4  H   UNL     1     -31.397  -8.663  15.848  1.00  0.00     0.344 HD
ATOM      5  H   UNL     1     -29.736  -8.573  15.448  1.00  0.00     0.344 HD
ENDBRANCH   1   2
BRANCH   1   6
ATOM      6  C   UNL     1     -29.336 -10.730  14.296  1.00  0.00     0.096 C 
ATOM      7  O   UNL     1     -29.239 -11.734  13.544  1.00  0.00    -0.544 OA
ATOM      8  O   UNL     1     -28.204  -9.987  14.605  1.00  0.00    -0.544 OA
ENDBRANCH   1   6
TORSDOF 2
ENDMDL
