MODEL 1
REMARK VINA RESULT:    -3.259      0.000      0.000
REMARK INTER + INTRA:          -4.972
REMARK INTER:                  -4.402
REMARK INTRA:                  -0.569
REMARK UNBOUND:                -0.569
REMARK SMILES [NH3+]CCCC[C@H]([NH3+])C(=O)[O-]
REMARK SMILES IDX 4 1 3 2 2 3 1 4 5 8 6 9 7 10 8 14 9 15 10 16
REMARK H PARENT 1 5 1 6 1 7 7 11 7 12 7 13
REMARK Flexibility Score: inf
ROOT
ATOM      1  C   UNL     1      29.433   6.251  27.197  1.00  0.00     0.012 C 
ENDROOT
BRANCH   1   2
ATOM      2  C   UNL     1      28.738   5.962  25.857  1.00  0.00     0.061 C 
BRANCH   2   3
ATOM      3  C   UNL     1      27.438   5.157  26.027  1.00  0.00     0.258 C 
BRANCH   3   4
ATOM      4  N   UNL     1      26.254   5.928  25.643  1.00  0.00    -0.358 N 
ATOM      5  H   UNL     1      25.509   5.294  25.273  1.00  0.00     0.344 HD
ATOM      6  H   UNL     1      26.502   6.646  24.925  1.00  0.00     0.344 HD
ATOM      7  H   UNL     1      25.884   6.422  26.485  1.00  0.00     0.344 HD
ENDBRANCH   3   4
ENDBRANCH   2   3
ENDBRANCH   1   2
BRANCH   1   8
ATOM      8  C   UNL     1      29.093   7.642  27.763  1.00  0.00     0.072 C 
BRANCH   8   9
ATOM      9  C   UNL     1      28.071   7.646  28.925  1.00  0.00     0.227 C 
BRANCH   9  10
ATOM     10  N   UNL     1      27.730   6.285  29.360  1.00  0.00    -0.350 N 
ATOM     11  H   UNL     1      28.268   5.584  28.803  1.00  0.00     0.345 HD
ATOM     12  H   UNL     1      27.993   6.154  30.365  1.00  0.00     0.345 HD
ATOM     13  H   UNL     1      26.705   6.105  29.249  1.00  0.00     0.345 HD
ENDBRANCH   9  10
BRANCH   9  14
ATOM     14  C   UNL     1      26.829   8.376  28.489  1.00  0.00     0.099 C 
ATOM     15  O   UNL     1      26.605   8.571  27.264  1.00  0.00    -0.544 OA
ATOM     16  O   UNL     1      25.904   8.810  29.431  1.00  0.00    -0.544 OA
ENDBRANCH   9  14
ENDBRANCH   8   9
ENDBRANCH   1   8
TORSDOF 7
ENDMDL
MODEL 2
REMARK VINA RESULT:    -3.120      1.652      1.841
REMARK INTER + INTRA:          -4.784
REMARK INTER:                  -4.621
REMARK INTRA:                  -0.163
REMARK UNBOUND:                -0.569
REMARK SMILES [NH3+]CCCC[C@H]([NH3+])C(=O)[O-]
REMARK SMILES IDX 4 1 3 2 2 3 1 4 5 8 6 9 7 10 8 14 9 15 10 16
REMARK H PARENT 1 5 1 6 1 7 7 11 7 12 7 13
REMARK Flexibility Score: inf
ROOT
ATOM      1  C   UNL     1      27.723   5.673  27.425  1.00  0.00     0.012 C 
ENDROOT
BRANCH   1   2
ATOM      2  C   UNL     1      28.272   5.610  25.991  1.00  0.00     0.061 C 
BRANCH   2   3
ATOM      3  C   UNL     1      27.259   6.115  24.948  1.00  0.00     0.258 C 
BRANCH   3   4
ATOM      4  N   UNL     1      25.912   5.592  25.185  1.00  0.00    -0.358 N 
ATOM      5  H   UNL     1      25.217   6.373  25.218  1.00  0.00     0.344 HD
ATOM      6  H   UNL     1      25.881   5.048  26.076  1.00  0.00     0.344 HD
ATOM      7  H   UNL     1      25.655   4.950  24.401  1.00  0.00     0.344 HD
ENDBRANCH   3   4
ENDBRANCH   2   3
ENDBRANCH   1   2
BRANCH   1   8
ATOM      8  C   UNL     1      28.206   6.914  28.199  1.00  0.00     0.072 C 
BRANCH   8   9
ATOM      9  C   UNL     1      27.225   8.111  28.198  1.00  0.00     0.227 C 
BRANCH   9  10
ATOM     10  N   UNL     1      27.914   9.384  27.949  1.00  0.00    -0.350 N 
ATOM     11  H   UNL     1      27.350   9.977  27.299  1.00  0.00     0.345 HD
ATOM     12  H   UNL     1      28.019   9.915  28.845  1.00  0.00     0.345 HD
ATOM     13  H   UNL     1      28.862   9.220  27.537  1.00  0.00     0.345 HD
ENDBRANCH   9  10
BRANCH   9  14
ATOM     14  C   UNL     1      26.505   8.162  29.520  1.00  0.00     0.099 C 
ATOM     15  O   UNL     1      26.743   7.296  30.404  1.00  0.00    -0.544 OA
ATOM     16  O   UNL     1      25.600   9.183  29.786  1.00  0.00    -0.544 OA
ENDBRANCH   9  14
ENDBRANCH   8   9
ENDBRANCH   1   8
TORSDOF 7
ENDMDL
MODEL 3
REMARK VINA RESULT:    -3.104      2.526      4.129
REMARK INTER + INTRA:          -4.763
REMARK INTER:                  -4.212
REMARK INTRA:                  -0.551
REMARK UNBOUND:                -0.569
REMARK SMILES [NH3+]CCCC[C@H]([NH3+])C(=O)[O-]
REMARK SMILES IDX 4 1 3 2 2 3 1 4 5 8 6 9 7 10 8 14 9 15 10 16
REMARK H PARENT 1 5 1 6 1 7 7 11 7 12 7 13
REMARK Flexibility Score: inf
ROOT
ATOM      1  C   UNL     1      26.492   8.155  29.781  1.00  0.00     0.012 C 
ENDROOT
BRANCH   1   2
ATOM      2  C   UNL     1      26.206   9.080  28.587  1.00  0.00     0.061 C 
BRANCH   2   3
ATOM      3  C   UNL     1      26.876  10.458  28.735  1.00  0.00     0.258 C 
BRANCH   3   4
ATOM      4  N   UNL     1      28.133  10.546  27.991  1.00  0.00    -0.358 N 
ATOM      5  H   UNL     1      28.191   9.784  27.277  1.00  0.00     0.344 HD
ATOM      6  H   UNL     1      28.948  10.489  28.642  1.00  0.00     0.344 HD
ATOM      7  H   UNL     1      28.173  11.467  27.499  1.00  0.00     0.344 HD
ENDBRANCH   3   4
ENDBRANCH   2   3
ENDBRANCH   1   2
BRANCH   1   8
ATOM      8  C   UNL     1      27.437   6.992  29.428  1.00  0.00     0.072 C 
BRANCH   8   9
ATOM      9  C   UNL     1      27.790   6.867  27.926  1.00  0.00     0.227 C 
BRANCH   9  10
ATOM     10  N   UNL     1      27.425   5.552  27.384  1.00  0.00    -0.350 N 
ATOM     11  H   UNL     1      28.107   5.265  26.647  1.00  0.00     0.345 HD
ATOM     12  H   UNL     1      27.460   4.830  28.141  1.00  0.00     0.345 HD
ATOM     13  H   UNL     1      26.461   5.572  26.977  1.00  0.00     0.345 HD
ENDBRANCH   9  10
BRANCH   9  14
ATOM     14  C   UNL     1      29.265   7.110  27.744  1.00  0.00     0.099 C 
ATOM     15  O   UNL     1      29.840   8.032  28.384  1.00  0.00    -0.544 OA
ATOM     16  O   UNL     1      30.009   6.299  26.895  1.00  0.00    -0.544 OA
ENDBRANCH   9  14
ENDBRANCH   8   9
ENDBRANCH   1   8
TORSDOF 7
ENDMDL
MODEL 4
REMARK VINA RESULT:    -3.099      2.288      4.132
REMARK INTER + INTRA:          -4.755
REMARK INTER:                  -4.173
REMARK INTRA:                  -0.582
REMARK UNBOUND:                -0.569
REMARK SMILES [NH3+]CCCC[C@H]([NH3+])C(=O)[O-]
REMARK SMILES IDX 4 1 3 2 2 3 1 4 5 8 6 9 7 10 8 14 9 15 10 16
REMARK H PARENT 1 5 1 6 1 7 7 11 7 12 7 13
REMARK Flexibility Score: inf
ROOT
ATOM      1  C   UNL     1      26.384   9.222  28.259  1.00  0.00     0.012 C 
ENDROOT
BRANCH   1   2
ATOM      2  C   UNL     1      26.342   8.994  29.779  1.00  0.00     0.061 C 
BRANCH   2   3
ATOM      3  C   UNL     1      26.329   7.501  30.152  1.00  0.00     0.258 C 
BRANCH   3   4
ATOM      4  N   UNL     1      27.617   7.051  30.684  1.00  0.00    -0.358 N 
ATOM      5  H   UNL     1      28.310   7.835  30.677  1.00  0.00     0.344 HD
ATOM      6  H   UNL     1      27.982   6.246  30.128  1.00  0.00     0.344 HD
ATOM      7  H   UNL     1      27.484   6.733  31.671  1.00  0.00     0.344 HD
ENDBRANCH   3   4
ENDBRANCH   2   3
ENDBRANCH   1   2
BRANCH   1   8
ATOM      8  C   UNL     1      27.810   9.167  27.683  1.00  0.00     0.072 C 
BRANCH   8   9
ATOM      9  C   UNL     1      28.100   7.957  26.762  1.00  0.00     0.227 C 
BRANCH   9  10
ATOM     10  N   UNL     1      26.908   7.123  26.561  1.00  0.00    -0.350 N 
ATOM     11  H   UNL     1      27.017   6.542  25.700  1.00  0.00     0.345 HD
ATOM     12  H   UNL     1      26.790   6.467  27.368  1.00  0.00     0.345 HD
ATOM     13  H   UNL     1      26.050   7.716  26.476  1.00  0.00     0.345 HD
ENDBRANCH   9  10
BRANCH   9  14
ATOM     14  C   UNL     1      29.211   7.135  27.361  1.00  0.00     0.099 C 
ATOM     15  O   UNL     1      29.575   7.333  28.551  1.00  0.00    -0.544 OA
ATOM     16  O   UNL     1      29.819   6.131  26.617  1.00  0.00    -0.544 OA
ENDBRANCH   9  14
ENDBRANCH   8   9
ENDBRANCH   1   8
TORSDOF 7
ENDMDL
MODEL 5
REMARK VINA RESULT:    -3.011      1.751      2.065
REMARK INTER + INTRA:          -4.637
REMARK INTER:                  -4.118
REMARK INTRA:                  -0.519
REMARK UNBOUND:                -0.569
REMARK SMILES [NH3+]CCCC[C@H]([NH3+])C(=O)[O-]
REMARK SMILES IDX 4 1 3 2 2 3 1 4 5 8 6 9 7 10 8 14 9 15 10 16
REMARK H PARENT 1 5 1 6 1 7 7 11 7 12 7 13
REMARK Flexibility Score: inf
ROOT
ATOM      1  C   UNL     1      28.414   5.813  26.614  1.00  0.00     0.012 C 
ENDROOT
BRANCH   1   2
ATOM      2  C   UNL     1      29.798   6.482  26.633  1.00  0.00     0.061 C 
BRANCH   2   3
ATOM      3  C   UNL     1      29.930   7.594  25.577  1.00  0.00     0.258 C 
BRANCH   3   4
ATOM      4  N   UNL     1      29.395   8.872  26.048  1.00  0.00    -0.358 N 
ATOM      5  H   UNL     1      28.479   8.729  26.532  1.00  0.00     0.344 HD
ATOM      6  H   UNL     1      29.280   9.537  25.251  1.00  0.00     0.344 HD
ATOM      7  H   UNL     1      30.069   9.291  26.728  1.00  0.00     0.344 HD
ENDBRANCH   3   4
ENDBRANCH   2   3
ENDBRANCH   1   2
BRANCH   1   8
ATOM      8  C   UNL     1      27.711   5.849  27.984  1.00  0.00     0.072 C 
BRANCH   8   9
ATOM      9  C   UNL     1      28.086   7.051  28.883  1.00  0.00     0.227 C 
BRANCH   9  10
ATOM     10  N   UNL     1      28.323   6.643  30.274  1.00  0.00    -0.350 N 
ATOM     11  H   UNL     1      27.888   5.711  30.454  1.00  0.00     0.345 HD
ATOM     12  H   UNL     1      29.350   6.548  30.449  1.00  0.00     0.345 HD
ATOM     13  H   UNL     1      27.927   7.347  30.940  1.00  0.00     0.345 HD
ENDBRANCH   9  10
BRANCH   9  14
ATOM     14  C   UNL     1      26.984   8.075  28.824  1.00  0.00     0.099 C 
ATOM     15  O   UNL     1      26.825   8.776  27.790  1.00  0.00    -0.544 OA
ATOM     16  O   UNL     1      26.114   8.230  29.897  1.00  0.00    -0.544 OA
ENDBRANCH   9  14
ENDBRANCH   8   9
ENDBRANCH   1   8
TORSDOF 7
ENDMDL
MODEL 6
REMARK VINA RESULT:    -2.990      1.498      1.773
REMARK INTER + INTRA:          -4.608
REMARK INTER:                  -4.079
REMARK INTRA:                  -0.529
REMARK UNBOUND:                -0.569
REMARK SMILES [NH3+]CCCC[C@H]([NH3+])C(=O)[O-]
REMARK SMILES IDX 4 1 3 2 2 3 1 4 5 8 6 9 7 10 8 14 9 15 10 16
REMARK H PARENT 1 5 1 6 1 7 7 11 7 12 7 13
REMARK Flexibility Score: inf
ROOT
ATOM      1  C   UNL     1      29.421   5.963  26.473  1.00  0.00     0.012 C 
ENDROOT
BRANCH   1   2
ATOM      2  C   UNL     1      28.533   5.751  25.236  1.00  0.00     0.061 C 
BRANCH   2   3
ATOM      3  C   UNL     1      27.069   5.451  25.605  1.00  0.00     0.258 C 
BRANCH   3   4
ATOM      4  N   UNL     1      26.221   6.641  25.518  1.00  0.00    -0.358 N 
ATOM      5  H   UNL     1      25.879   6.777  24.539  1.00  0.00     0.344 HD
ATOM      6  H   UNL     1      26.744   7.488  25.836  1.00  0.00     0.344 HD
ATOM      7  H   UNL     1      25.394   6.514  26.145  1.00  0.00     0.344 HD
ENDBRANCH   3   4
ENDBRANCH   2   3
ENDBRANCH   1   2
BRANCH   1   8
ATOM      8  C   UNL     1      29.723   7.447  26.748  1.00  0.00     0.072 C 
BRANCH   8   9
ATOM      9  C   UNL     1      29.494   7.904  28.209  1.00  0.00     0.227 C 
BRANCH   9  10
ATOM     10  N   UNL     1      30.484   7.326  29.127  1.00  0.00    -0.350 N 
ATOM     11  H   UNL     1      30.414   7.782  30.064  1.00  0.00     0.345 HD
ATOM     12  H   UNL     1      30.296   6.306  29.260  1.00  0.00     0.345 HD
ATOM     13  H   UNL     1      31.454   7.448  28.752  1.00  0.00     0.345 HD
ENDBRANCH   9  10
BRANCH   9  14
ATOM     14  C   UNL     1      28.103   7.514  28.636  1.00  0.00     0.099 C 
ATOM     15  O   UNL     1      27.937   6.668  29.555  1.00  0.00    -0.544 OA
ATOM     16  O   UNL     1      26.995   8.110  28.044  1.00  0.00    -0.544 OA
ENDBRANCH   9  14
ENDBRANCH   8   9
ENDBRANCH   1   8
TORSDOF 7
ENDMDL
MODEL 7
REMARK VINA RESULT:    -2.966     14.268     15.666
REMARK INTER + INTRA:          -4.576
REMARK INTER:                  -4.152
REMARK INTRA:                  -0.424
REMARK UNBOUND:                -0.569
REMARK SMILES [NH3+]CCCC[C@H]([NH3+])C(=O)[O-]
REMARK SMILES IDX 4 1 3 2 2 3 1 4 5 8 6 9 7 10 8 14 9 15 10 16
REMARK H PARENT 1 5 1 6 1 7 7 11 7 12 7 13
REMARK Flexibility Score: inf
ROOT
ATOM      1  C   UNL     1      12.606   8.623  32.659  1.00  0.00     0.012 C 
ENDROOT
BRANCH   1   2
ATOM      2  C   UNL     1      11.639   9.429  31.776  1.00  0.00     0.061 C 
BRANCH   2   3
ATOM      3  C   UNL     1      11.271  10.789  32.393  1.00  0.00     0.258 C 
BRANCH   3   4
ATOM      4  N   UNL     1      11.216  10.738  33.855  1.00  0.00    -0.358 N 
ATOM      5  H   UNL     1      10.282  10.392  34.174  1.00  0.00     0.344 HD
ATOM      6  H   UNL     1      11.406  11.682  34.261  1.00  0.00     0.344 HD
ATOM      7  H   UNL     1      11.952  10.080  34.199  1.00  0.00     0.344 HD
ENDBRANCH   3   4
ENDBRANCH   2   3
ENDBRANCH   1   2
BRANCH   1   8
ATOM      8  C   UNL     1      14.084   8.846  32.291  1.00  0.00     0.072 C 
BRANCH   8   9
ATOM      9  C   UNL     1      14.673  10.206  32.736  1.00  0.00     0.227 C 
BRANCH   9  10
ATOM     10  N   UNL     1      15.967  10.479  32.096  1.00  0.00    -0.350 N 
ATOM     11  H   UNL     1      16.272  11.456  32.307  1.00  0.00     0.345 HD
ATOM     12  H   UNL     1      16.698   9.834  32.477  1.00  0.00     0.345 HD
ATOM     13  H   UNL     1      15.904  10.349  31.060  1.00  0.00     0.345 HD
ENDBRANCH   9  10
BRANCH   9  14
ATOM     14  C   UNL     1      14.825  10.212  34.234  1.00  0.00     0.099 C 
ATOM     15  O   UNL     1      14.157  11.016  34.936  1.00  0.00    -0.544 OA
ATOM     16  O   UNL     1      15.679   9.307  34.855  1.00  0.00    -0.544 OA
ENDBRANCH   9  14
ENDBRANCH   8   9
ENDBRANCH   1   8
TORSDOF 7
ENDMDL
MODEL 8
REMARK VINA RESULT:    -2.918      1.843      3.374
REMARK INTER + INTRA:          -4.511
REMARK INTER:                  -3.997
REMARK INTRA:                  -0.514
REMARK UNBOUND:                -0.569
REMARK SMILES [NH3+]CCCC[C@H]([NH3+])C(=O)[O-]
REMARK SMILES IDX 4 1 3 2 2 3 1 4 5 8 6 9 7 10 8 14 9 15 10 16
REMARK H PARENT 1 5 1 6 1 7 7 11 7 12 7 13
REMARK Flexibility Score: inf
ROOT
ATOM      1  C   UNL     1      30.381   6.225  26.797  1.00  0.00     0.012 C 
ENDROOT
BRANCH   1   2
ATOM      2  C   UNL     1      30.925   7.663  26.770  1.00  0.00     0.061 C 
BRANCH   2   3
ATOM      3  C   UNL     1      30.901   8.329  28.157  1.00  0.00     0.258 C 
BRANCH   3   4
ATOM      4  N   UNL     1      30.755   7.353  29.239  1.00  0.00    -0.358 N 
ATOM      5  H   UNL     1      31.680   7.166  29.690  1.00  0.00     0.344 HD
ATOM      6  H   UNL     1      30.347   6.463  28.876  1.00  0.00     0.344 HD
ATOM      7  H   UNL     1      30.105   7.741  29.959  1.00  0.00     0.344 HD
ENDBRANCH   3   4
ENDBRANCH   2   3
ENDBRANCH   1   2
BRANCH   1   8
ATOM      8  C   UNL     1      29.096   6.055  25.966  1.00  0.00     0.072 C 
BRANCH   8   9
ATOM      9  C   UNL     1      27.842   5.641  26.774  1.00  0.00     0.227 C 
BRANCH   9  10
ATOM     10  N   UNL     1      26.661   5.490  25.914  1.00  0.00    -0.350 N 
ATOM     11  H   UNL     1      26.917   4.982  25.038  1.00  0.00     0.345 HD
ATOM     12  H   UNL     1      25.932   4.920  26.404  1.00  0.00     0.345 HD
ATOM     13  H   UNL     1      26.256   6.424  25.671  1.00  0.00     0.345 HD
ENDBRANCH   9  10
BRANCH   9  14
ATOM     14  C   UNL     1      27.578   6.671  27.840  1.00  0.00     0.099 C 
ATOM     15  O   UNL     1      27.188   7.826  27.521  1.00  0.00    -0.544 OA
ATOM     16  O   UNL     1      27.731   6.345  29.182  1.00  0.00    -0.544 OA
ENDBRANCH   9  14
ENDBRANCH   8   9
ENDBRANCH   1   8
TORSDOF 7
ENDMDL
MODEL 9
REMARK VINA RESULT:    -2.878      2.344      3.820
REMARK INTER + INTRA:          -4.456
REMARK INTER:                  -4.024
REMARK INTRA:                  -0.433
REMARK UNBOUND:                -0.569
REMARK SMILES [NH3+]CCCC[C@H]([NH3+])C(=O)[O-]
REMARK SMILES IDX 4 1 3 2 2 3 1 4 5 8 6 9 7 10 8 14 9 15 10 16
REMARK H PARENT 1 5 1 6 1 7 7 11 7 12 7 13
REMARK Flexibility Score: inf
ROOT
ATOM      1  C   UNL     1      28.139   9.655  27.692  1.00  0.00     0.012 C 
ENDROOT
BRANCH   1   2
ATOM      2  C   UNL     1      27.090  10.504  28.429  1.00  0.00     0.061 C 
BRANCH   2   3
ATOM      3  C   UNL     1      25.850   9.689  28.834  1.00  0.00     0.258 C 
BRANCH   3   4
ATOM      4  N   UNL     1      25.945   9.178  30.203  1.00  0.00    -0.358 N 
ATOM      5  H   UNL     1      25.294   8.370  30.338  1.00  0.00     0.344 HD
ATOM      6  H   UNL     1      25.727   9.932  30.892  1.00  0.00     0.344 HD
ATOM      7  H   UNL     1      26.923   8.850  30.375  1.00  0.00     0.344 HD
ENDBRANCH   3   4
ENDBRANCH   2   3
ENDBRANCH   1   2
BRANCH   1   8
ATOM      8  C   UNL     1      27.542   8.393  27.043  1.00  0.00     0.072 C 
BRANCH   8   9
ATOM      9  C   UNL     1      28.280   7.073  27.374  1.00  0.00     0.227 C 
BRANCH   9  10
ATOM     10  N   UNL     1      27.439   5.896  27.120  1.00  0.00    -0.350 N 
ATOM     11  H   UNL     1      27.245   5.394  28.015  1.00  0.00     0.345 HD
ATOM     12  H   UNL     1      26.518   6.194  26.723  1.00  0.00     0.345 HD
ATOM     13  H   UNL     1      27.906   5.244  26.448  1.00  0.00     0.345 HD
ENDBRANCH   9  10
BRANCH   9  14
ATOM     14  C   UNL     1      28.714   7.098  28.816  1.00  0.00     0.099 C 
ATOM     15  O   UNL     1      29.922   7.300  29.110  1.00  0.00    -0.544 OA
ATOM     16  O   UNL     1      27.780   6.933  29.832  1.00  0.00    -0.544 OA
ENDBRANCH   9  14
ENDBRANCH   8   9
ENDBRANCH   1   8
TORSDOF 7
ENDMDL
