MODEL 1
REMARK VINA RESULT:    -6.783      0.000      0.000
REMARK INTER + INTRA:          -7.378
REMARK INTER:                  -7.378
REMARK INTRA:                   0.000
REMARK UNBOUND:                 0.000
REMARK SMILES Cc1cc(O)c2c(c1)C(=O)c1cc(O)cc(O)c1C2=O
REMARK SMILES IDX 1 1 2 2 8 3 7 4 6 5 4 6 3 7 19 8 20 9 18 10 11 11 9 12 10 13
REMARK SMILES IDX 12 14 13 15 15 16 16 17 5 18 17 20 14 22
REMARK H PARENT 5 19 17 21 14 23
REMARK Flexibility Score: inf
ROOT
ATOM      1  C   UNL     1       4.444  -7.633 -32.504  1.00  0.00     0.044 C 
ATOM      2  C   UNL     1       3.096  -7.306 -31.933  1.00  0.00    -0.047 A 
ATOM      3  C   UNL     1       2.903  -7.290 -30.546  1.00  0.00     0.016 A 
ATOM      4  C   UNL     1       1.636  -7.023 -30.001  1.00  0.00     0.038 A 
ATOM      5  C   UNL     1       0.542  -6.775 -30.857  1.00  0.00     0.076 A 
ATOM      6  C   UNL     1       0.734  -6.819 -32.257  1.00  0.00     0.127 A 
ATOM      7  C   UNL     1       2.005  -7.089 -32.781  1.00  0.00     0.050 A 
ATOM      8  C   UNL     1      -0.783  -6.454 -30.264  1.00  0.00     0.201 C 
ATOM      9  O   UNL     1      -1.656  -5.885 -30.971  1.00  0.00    -0.288 OA
ATOM     10  C   UNL     1      -1.034  -6.697 -28.816  1.00  0.00     0.076 A 
ATOM     11  C   UNL     1       0.079  -6.885 -27.963  1.00  0.00     0.041 A 
ATOM     12  C   UNL     1       1.443  -7.001 -28.533  1.00  0.00     0.194 C 
ATOM     13  O   UNL     1       2.440  -7.099 -27.767  1.00  0.00    -0.289 OA
ATOM     14  C   UNL     1      -0.110  -6.971 -26.573  1.00  0.00     0.059 A 
ATOM     15  C   UNL     1      -1.392  -6.889 -26.025  1.00  0.00     0.120 A 
ATOM     16  C   UNL     1      -2.496  -6.752 -26.863  1.00  0.00     0.093 A 
ATOM     17  C   UNL     1      -2.339  -6.691 -28.252  1.00  0.00     0.131 A 
ENDROOT
BRANCH   6  18
ATOM     18  O   UNL     1      -0.334  -6.609 -33.129  1.00  0.00    -0.507 OA
ATOM     19  H   UNL     1      -0.803  -5.713 -33.194  1.00  0.00     0.293 HD
ENDBRANCH   6  18
BRANCH  17  20
ATOM     20  O   UNL     1      -3.503  -6.661 -29.023  1.00  0.00    -0.507 OA
ATOM     21  H   UNL     1      -4.166  -5.898 -29.008  1.00  0.00     0.293 HD
ENDBRANCH  17  20
BRANCH  15  22
ATOM     22  O   UNL     1      -1.581  -6.957 -24.646  1.00  0.00    -0.508 OA
ATOM     23  H   UNL     1      -1.001  -6.429 -24.004  1.00  0.00     0.293 HD
ENDBRANCH  15  22
TORSDOF 3
ENDMDL
MODEL 2
REMARK VINA RESULT:    -6.731      1.721      5.852
REMARK INTER + INTRA:          -7.321
REMARK INTER:                  -7.321
REMARK INTRA:                   0.000
REMARK UNBOUND:                 0.000
REMARK SMILES Cc1cc(O)c2c(c1)C(=O)c1cc(O)cc(O)c1C2=O
REMARK SMILES IDX 1 1 2 2 8 3 7 4 6 5 4 6 3 7 19 8 20 9 18 10 11 11 9 12 10 13
REMARK SMILES IDX 12 14 13 15 15 16 16 17 5 18 17 20 14 22
REMARK H PARENT 5 19 17 21 14 23
REMARK Flexibility Score: inf
ROOT
ATOM      1  C   UNL     1      -0.430  -6.826 -26.125  1.00  0.00     0.044 C 
ATOM      2  C   UNL     1      -0.196  -6.804 -27.607  1.00  0.00    -0.047 A 
ATOM      3  C   UNL     1       1.045  -7.188 -28.130  1.00  0.00     0.016 A 
ATOM      4  C   UNL     1       1.287  -7.134 -29.514  1.00  0.00     0.038 A 
ATOM      5  C   UNL     1       0.275  -6.683 -30.387  1.00  0.00     0.076 A 
ATOM      6  C   UNL     1      -0.967  -6.270 -29.852  1.00  0.00     0.127 A 
ATOM      7  C   UNL     1      -1.189  -6.328 -28.471  1.00  0.00     0.050 A 
ATOM      8  C   UNL     1       0.534  -6.671 -31.850  1.00  0.00     0.201 C 
ATOM      9  O   UNL     1      -0.438  -6.628 -32.651  1.00  0.00    -0.288 OA
ATOM     10  C   UNL     1       1.922  -6.827 -32.367  1.00  0.00     0.076 A 
ATOM     11  C   UNL     1       2.911  -7.337 -31.493  1.00  0.00     0.041 A 
ATOM     12  C   UNL     1       2.600  -7.550 -30.059  1.00  0.00     0.194 C 
ATOM     13  O   UNL     1       3.461  -8.069 -29.297  1.00  0.00    -0.289 OA
ATOM     14  C   UNL     1       4.194  -7.633 -31.984  1.00  0.00     0.059 A 
ATOM     15  C   UNL     1       4.509  -7.414 -33.327  1.00  0.00     0.120 A 
ATOM     16  C   UNL     1       3.554  -6.867 -34.181  1.00  0.00     0.093 A 
ATOM     17  C   UNL     1       2.277  -6.537 -33.713  1.00  0.00     0.131 A 
ENDROOT
BRANCH   6  18
ATOM     18  O   UNL     1      -1.976  -5.789 -30.687  1.00  0.00    -0.507 OA
ATOM     19  H   UNL     1      -2.489  -4.942 -30.471  1.00  0.00     0.293 HD
ENDBRANCH   6  18
BRANCH  17  20
ATOM     20  O   UNL     1       1.418  -5.896 -34.607  1.00  0.00    -0.507 OA
ATOM     21  H   UNL     1       1.041  -4.970 -34.456  1.00  0.00     0.293 HD
ENDBRANCH  17  20
BRANCH  15  22
ATOM     22  O   UNL     1       5.775  -7.723 -33.820  1.00  0.00    -0.508 OA
ATOM     23  H   UNL     1       6.561  -7.097 -33.692  1.00  0.00     0.293 HD
ENDBRANCH  15  22
TORSDOF 3
ENDMDL
MODEL 3
REMARK VINA RESULT:    -6.523      1.496      2.640
REMARK INTER + INTRA:          -7.095
REMARK INTER:                  -7.095
REMARK INTRA:                   0.000
REMARK UNBOUND:                 0.000
REMARK SMILES Cc1cc(O)c2c(c1)C(=O)c1cc(O)cc(O)c1C2=O
REMARK SMILES IDX 1 1 2 2 8 3 7 4 6 5 4 6 3 7 19 8 20 9 18 10 11 11 9 12 10 13
REMARK SMILES IDX 12 14 13 15 15 16 16 17 5 18 17 20 14 22
REMARK H PARENT 5 19 17 21 14 23
REMARK Flexibility Score: inf
ROOT
ATOM      1  C   UNL     1       6.460  -8.515 -32.762  1.00  0.00     0.044 C 
ATOM      2  C   UNL     1       5.054  -7.994 -32.701  1.00  0.00    -0.047 A 
ATOM      3  C   UNL     1       4.427  -7.800 -31.464  1.00  0.00     0.016 A 
ATOM      4  C   UNL     1       3.098  -7.349 -31.396  1.00  0.00     0.038 A 
ATOM      5  C   UNL     1       2.382  -7.094 -32.585  1.00  0.00     0.076 A 
ATOM      6  C   UNL     1       3.009  -7.318 -33.833  1.00  0.00     0.127 A 
ATOM      7  C   UNL     1       4.334  -7.769 -33.880  1.00  0.00     0.050 A 
ATOM      8  C   UNL     1       0.990  -6.579 -32.495  1.00  0.00     0.201 C 
ATOM      9  O   UNL     1       0.475  -6.012 -33.495  1.00  0.00    -0.288 OA
ATOM     10  C   UNL     1       0.255  -6.628 -31.201  1.00  0.00     0.076 A 
ATOM     11  C   UNL     1       0.999  -6.826 -30.013  1.00  0.00     0.041 A 
ATOM     12  C   UNL     1       2.446  -7.139 -30.083  1.00  0.00     0.194 C 
ATOM     13  O   UNL     1       3.120  -7.246 -29.023  1.00  0.00    -0.289 OA
ATOM     14  C   UNL     1       0.360  -6.733 -28.764  1.00  0.00     0.059 A 
ATOM     15  C   UNL     1      -1.007  -6.462 -28.684  1.00  0.00     0.120 A 
ATOM     16  C   UNL     1      -1.753  -6.315 -29.851  1.00  0.00     0.093 A 
ATOM     17  C   UNL     1      -1.150  -6.429 -31.108  1.00  0.00     0.131 A 
ENDROOT
BRANCH   6  18
ATOM     18  O   UNL     1       2.316  -7.105 -35.025  1.00  0.00    -0.507 OA
ATOM     19  H   UNL     1       2.328  -6.209 -35.497  1.00  0.00     0.293 HD
ENDBRANCH   6  18
BRANCH  17  20
ATOM     20  O   UNL     1      -1.987  -6.374 -32.224  1.00  0.00    -0.507 OA
ATOM     21  H   UNL     1      -2.821  -6.936 -32.327  1.00  0.00     0.293 HD
ENDBRANCH  17  20
BRANCH  15  22
ATOM     22  O   UNL     1      -1.639  -6.353 -27.447  1.00  0.00    -0.508 OA
ATOM     23  H   UNL     1      -1.638  -5.485 -26.926  1.00  0.00     0.293 HD
ENDBRANCH  15  22
TORSDOF 3
ENDMDL
MODEL 4
REMARK VINA RESULT:    -6.408      1.822      6.660
REMARK INTER + INTRA:          -6.970
REMARK INTER:                  -6.970
REMARK INTRA:                   0.000
REMARK UNBOUND:                 0.000
REMARK SMILES Cc1cc(O)c2c(c1)C(=O)c1cc(O)cc(O)c1C2=O
REMARK SMILES IDX 1 1 2 2 8 3 7 4 6 5 4 6 3 7 19 8 20 9 18 10 11 11 9 12 10 13
REMARK SMILES IDX 12 14 13 15 15 16 16 17 5 18 17 20 14 22
REMARK H PARENT 5 19 17 21 14 23
REMARK Flexibility Score: inf
ROOT
ATOM      1  C   UNL     1      -3.085  -6.638 -28.426  1.00  0.00     0.044 C 
ATOM      2  C   UNL     1      -1.680  -6.732 -28.944  1.00  0.00    -0.047 A 
ATOM      3  C   UNL     1      -1.414  -6.519 -30.302  1.00  0.00     0.016 A 
ATOM      4  C   UNL     1      -0.108  -6.641 -30.804  1.00  0.00     0.038 A 
ATOM      5  C   UNL     1       0.949  -6.989 -29.936  1.00  0.00     0.076 A 
ATOM      6  C   UNL     1       0.672  -7.230 -28.570  1.00  0.00     0.127 A 
ATOM      7  C   UNL     1      -0.638  -7.105 -28.089  1.00  0.00     0.050 A 
ATOM      8  C   UNL     1       2.331  -7.075 -30.475  1.00  0.00     0.201 C 
ATOM      9  O   UNL     1       3.309  -7.020 -29.684  1.00  0.00    -0.288 OA
ATOM     10  C   UNL     1       2.560  -7.107 -31.947  1.00  0.00     0.076 A 
ATOM     11  C   UNL     1       1.508  -6.698 -32.800  1.00  0.00     0.041 A 
ATOM     12  C   UNL     1       0.166  -6.407 -32.241  1.00  0.00     0.194 C 
ATOM     13  O   UNL     1      -0.751  -5.977 -32.993  1.00  0.00    -0.289 OA
ATOM     14  C   UNL     1       1.734  -6.576 -34.182  1.00  0.00     0.059 A 
ATOM     15  C   UNL     1       2.986  -6.871 -34.725  1.00  0.00     0.120 A 
ATOM     16  C   UNL     1       4.012  -7.320 -33.897  1.00  0.00     0.093 A 
ATOM     17  C   UNL     1       3.807  -7.477 -32.522  1.00  0.00     0.131 A 
ENDROOT
BRANCH   6  18
ATOM     18  O   UNL     1       1.689  -7.606 -27.693  1.00  0.00    -0.507 OA
ATOM     19  H   UNL     1       2.298  -8.393 -27.888  1.00  0.00     0.293 HD
ENDBRANCH   6  18
BRANCH  17  20
ATOM     20  O   UNL     1       4.853  -8.032 -31.781  1.00  0.00    -0.507 OA
ATOM     21  H   UNL     1       5.786  -8.168 -32.145  1.00  0.00     0.293 HD
ENDBRANCH  17  20
BRANCH  15  22
ATOM     22  O   UNL     1       3.217  -6.735 -36.092  1.00  0.00    -0.508 OA
ATOM     23  H   UNL     1       3.866  -7.339 -36.583  1.00  0.00     0.293 HD
ENDBRANCH  15  22
TORSDOF 3
ENDMDL
MODEL 5
REMARK VINA RESULT:    -6.291      1.185      6.331
REMARK INTER + INTRA:          -6.842
REMARK INTER:                  -6.842
REMARK INTRA:                   0.000
REMARK UNBOUND:                 0.000
REMARK SMILES Cc1cc(O)c2c(c1)C(=O)c1cc(O)cc(O)c1C2=O
REMARK SMILES IDX 1 1 2 2 8 3 7 4 6 5 4 6 3 7 19 8 20 9 18 10 11 11 9 12 10 13
REMARK SMILES IDX 12 14 13 15 15 16 16 17 5 18 17 20 14 22
REMARK H PARENT 5 19 17 21 14 23
REMARK Flexibility Score: inf
ROOT
ATOM      1  C   UNL     1      -4.626  -6.828 -26.445  1.00  0.00     0.044 C 
ATOM      2  C   UNL     1      -3.174  -6.792 -26.822  1.00  0.00    -0.047 A 
ATOM      3  C   UNL     1      -2.798  -6.704 -28.168  1.00  0.00     0.016 A 
ATOM      4  C   UNL     1      -1.441  -6.707 -28.535  1.00  0.00     0.038 A 
ATOM      5  C   UNL     1      -0.445  -6.808 -27.540  1.00  0.00     0.076 A 
ATOM      6  C   UNL     1      -0.830  -6.925 -26.185  1.00  0.00     0.127 A 
ATOM      7  C   UNL     1      -2.187  -6.921 -25.839  1.00  0.00     0.050 A 
ATOM      8  C   UNL     1       0.985  -6.770 -27.942  1.00  0.00     0.201 C 
ATOM      9  O   UNL     1       1.863  -6.495 -27.082  1.00  0.00    -0.288 OA
ATOM     10  C   UNL     1       1.367  -6.940 -29.372  1.00  0.00     0.076 A 
ATOM     11  C   UNL     1       0.366  -6.777 -30.359  1.00  0.00     0.041 A 
ATOM     12  C   UNL     1      -1.052  -6.606 -29.960  1.00  0.00     0.194 C 
ATOM     13  O   UNL     1      -1.932  -6.391 -30.838  1.00  0.00    -0.289 OA
ATOM     14  C   UNL     1       0.716  -6.787 -31.720  1.00  0.00     0.059 A 
ATOM     15  C   UNL     1       2.044  -6.972 -32.110  1.00  0.00     0.120 A 
ATOM     16  C   UNL     1       3.026  -7.181 -31.145  1.00  0.00     0.093 A 
ATOM     17  C   UNL     1       2.702  -7.204 -29.784  1.00  0.00     0.131 A 
ENDROOT
BRANCH   6  18
ATOM     18  O   UNL     1       0.131  -7.059 -25.182  1.00  0.00    -0.507 OA
ATOM     19  H   UNL     1      -0.114  -7.358 -24.245  1.00  0.00     0.293 HD
ENDBRANCH   6  18
BRANCH  17  20
ATOM     20  O   UNL     1       3.726  -7.526 -28.891  1.00  0.00    -0.507 OA
ATOM     21  H   UNL     1       4.650  -7.118 -28.927  1.00  0.00     0.293 HD
ENDBRANCH  17  20
BRANCH  15  22
ATOM     22  O   UNL     1       2.396  -6.965 -33.458  1.00  0.00    -0.508 OA
ATOM     23  H   UNL     1       2.285  -6.137 -34.031  1.00  0.00     0.293 HD
ENDBRANCH  15  22
TORSDOF 3
ENDMDL
MODEL 6
REMARK VINA RESULT:    -6.254      1.427      3.431
REMARK INTER + INTRA:          -6.802
REMARK INTER:                  -6.802
REMARK INTRA:                   0.000
REMARK UNBOUND:                 0.000
REMARK SMILES Cc1cc(O)c2c(c1)C(=O)c1cc(O)cc(O)c1C2=O
REMARK SMILES IDX 1 1 2 2 8 3 7 4 6 5 4 6 3 7 19 8 20 9 18 10 11 11 9 12 10 13
REMARK SMILES IDX 12 14 13 15 15 16 16 17 5 18 17 20 14 22
REMARK H PARENT 5 19 17 21 14 23
REMARK Flexibility Score: inf
ROOT
ATOM      1  C   UNL     1       3.100  -6.566 -35.320  1.00  0.00     0.044 C 
ATOM      2  C   UNL     1       2.683  -6.797 -33.898  1.00  0.00    -0.047 A 
ATOM      3  C   UNL     1       1.338  -6.671 -33.529  1.00  0.00     0.016 A 
ATOM      4  C   UNL     1       0.942  -6.848 -32.192  1.00  0.00     0.038 A 
ATOM      5  C   UNL     1       1.907  -7.149 -31.208  1.00  0.00     0.076 A 
ATOM      6  C   UNL     1       3.267  -7.248 -31.579  1.00  0.00     0.127 A 
ATOM      7  C   UNL     1       3.643  -7.067 -32.916  1.00  0.00     0.050 A 
ATOM      8  C   UNL     1       1.465  -7.373 -29.806  1.00  0.00     0.201 C 
ATOM      9  O   UNL     1       2.224  -7.984 -29.008  1.00  0.00    -0.288 OA
ATOM     10  C   UNL     1       0.092  -6.982 -29.381  1.00  0.00     0.076 A 
ATOM     11  C   UNL     1      -0.878  -6.741 -30.383  1.00  0.00     0.041 A 
ATOM     12  C   UNL     1      -0.484  -6.720 -31.812  1.00  0.00     0.194 C 
ATOM     13  O   UNL     1      -1.362  -6.574 -32.706  1.00  0.00    -0.289 OA
ATOM     14  C   UNL     1      -2.217  -6.513 -30.020  1.00  0.00     0.059 A 
ATOM     15  C   UNL     1      -2.597  -6.505 -28.677  1.00  0.00     0.120 A 
ATOM     16  C   UNL     1      -1.638  -6.693 -27.685  1.00  0.00     0.093 A 
ATOM     17  C   UNL     1      -0.293  -6.896 -28.015  1.00  0.00     0.131 A 
ENDROOT
BRANCH   6  18
ATOM     18  O   UNL     1       4.249  -7.513 -30.624  1.00  0.00    -0.507 OA
ATOM     19  H   UNL     1       4.135  -7.244 -29.653  1.00  0.00     0.293 HD
ENDBRANCH   6  18
BRANCH  17  20
ATOM     20  O   UNL     1       0.618  -6.969 -26.960  1.00  0.00    -0.507 OA
ATOM     21  H   UNL     1       0.668  -7.746 -26.316  1.00  0.00     0.293 HD
ENDBRANCH  17  20
BRANCH  15  22
ATOM     22  O   UNL     1      -3.926  -6.296 -28.316  1.00  0.00    -0.508 OA
ATOM     23  H   UNL     1      -4.505  -5.616 -28.795  1.00  0.00     0.293 HD
ENDBRANCH  15  22
TORSDOF 3
ENDMDL
MODEL 7
REMARK VINA RESULT:    -6.205      1.675      5.388
REMARK INTER + INTRA:          -6.749
REMARK INTER:                  -6.749
REMARK INTRA:                   0.000
REMARK UNBOUND:                 0.000
REMARK SMILES Cc1cc(O)c2c(c1)C(=O)c1cc(O)cc(O)c1C2=O
REMARK SMILES IDX 1 1 2 2 8 3 7 4 6 5 4 6 3 7 19 8 20 9 18 10 11 11 9 12 10 13
REMARK SMILES IDX 12 14 13 15 15 16 16 17 5 18 17 20 14 22
REMARK H PARENT 5 19 17 21 14 23
REMARK Flexibility Score: inf
ROOT
ATOM      1  C   UNL     1       2.681  -7.067 -24.896  1.00  0.00     0.044 C 
ATOM      2  C   UNL     1       1.923  -7.010 -26.189  1.00  0.00    -0.047 A 
ATOM      3  C   UNL     1       2.593  -7.179 -27.407  1.00  0.00     0.016 A 
ATOM      4  C   UNL     1       1.898  -7.090 -28.625  1.00  0.00     0.038 A 
ATOM      5  C   UNL     1       0.513  -6.821 -28.626  1.00  0.00     0.076 A 
ATOM      6  C   UNL     1      -0.154  -6.623 -27.395  1.00  0.00     0.127 A 
ATOM      7  C   UNL     1       0.555  -6.714 -26.191  1.00  0.00     0.050 A 
ATOM      8  C   UNL     1      -0.214  -6.770 -29.922  1.00  0.00     0.201 C 
ATOM      9  O   UNL     1      -1.467  -6.896 -29.934  1.00  0.00    -0.288 OA
ATOM     10  C   UNL     1       0.543  -6.689 -31.202  1.00  0.00     0.076 A 
ATOM     11  C   UNL     1       1.919  -7.020 -31.192  1.00  0.00     0.041 A 
ATOM     12  C   UNL     1       2.613  -7.278 -29.908  1.00  0.00     0.194 C 
ATOM     13  O   UNL     1       3.822  -7.640 -29.907  1.00  0.00    -0.289 OA
ATOM     14  C   UNL     1       2.629  -7.095 -32.403  1.00  0.00     0.059 A 
ATOM     15  C   UNL     1       1.993  -6.831 -33.617  1.00  0.00     0.120 A 
ATOM     16  C   UNL     1       0.651  -6.457 -33.629  1.00  0.00     0.093 A 
ATOM     17  C   UNL     1      -0.074  -6.348 -32.437  1.00  0.00     0.131 A 
ENDROOT
BRANCH   6  18
ATOM     18  O   UNL     1      -1.517  -6.324 -27.365  1.00  0.00    -0.507 OA
ATOM     19  H   UNL     1      -1.860  -5.382 -27.511  1.00  0.00     0.293 HD
ENDBRANCH   6  18
BRANCH  17  20
ATOM     20  O   UNL     1      -1.381  -5.865 -32.529  1.00  0.00    -0.507 OA
ATOM     21  H   UNL     1      -1.944  -5.617 -31.728  1.00  0.00     0.293 HD
ENDBRANCH  17  20
BRANCH  15  22
ATOM     22  O   UNL     1       2.691  -6.921 -34.819  1.00  0.00    -0.508 OA
ATOM     23  H   UNL     1       2.882  -6.102 -35.385  1.00  0.00     0.293 HD
ENDBRANCH  15  22
TORSDOF 3
ENDMDL
MODEL 8
REMARK VINA RESULT:    -6.119      1.190      5.488
REMARK INTER + INTRA:          -6.656
REMARK INTER:                  -6.656
REMARK INTRA:                   0.000
REMARK UNBOUND:                 0.000
REMARK SMILES Cc1cc(O)c2c(c1)C(=O)c1cc(O)cc(O)c1C2=O
REMARK SMILES IDX 1 1 2 2 8 3 7 4 6 5 4 6 3 7 19 8 20 9 18 10 11 11 9 12 10 13
REMARK SMILES IDX 12 14 13 15 15 16 16 17 5 18 17 20 14 22
REMARK H PARENT 5 19 17 21 14 23
REMARK Flexibility Score: inf
ROOT
ATOM      1  C   UNL     1      -1.491  -6.967 -24.486  1.00  0.00     0.044 C 
ATOM      2  C   UNL     1      -1.359  -6.990 -25.980  1.00  0.00    -0.047 A 
ATOM      3  C   UNL     1      -0.107  -7.188 -26.575  1.00  0.00     0.016 A 
ATOM      4  C   UNL     1       0.033  -7.173 -27.973  1.00  0.00     0.038 A 
ATOM      5  C   UNL     1      -1.095  -6.948 -28.789  1.00  0.00     0.076 A 
ATOM      6  C   UNL     1      -2.353  -6.720 -28.185  1.00  0.00     0.127 A 
ATOM      7  C   UNL     1      -2.473  -6.738 -26.789  1.00  0.00     0.050 A 
ATOM      8  C   UNL     1      -0.937  -6.975 -30.267  1.00  0.00     0.201 C 
ATOM      9  O   UNL     1      -1.951  -7.141 -30.996  1.00  0.00    -0.288 OA
ATOM     10  C   UNL     1       0.422  -6.924 -30.876  1.00  0.00     0.076 A 
ATOM     11  C   UNL     1       1.538  -7.210 -30.054  1.00  0.00     0.041 A 
ATOM     12  C   UNL     1       1.360  -7.391 -28.593  1.00  0.00     0.194 C 
ATOM     13  O   UNL     1       2.344  -7.715 -27.874  1.00  0.00    -0.289 OA
ATOM     14  C   UNL     1       2.819  -7.314 -30.624  1.00  0.00     0.059 A 
ATOM     15  C   UNL     1       3.004  -7.121 -31.994  1.00  0.00     0.120 A 
ATOM     16  C   UNL     1       1.917  -6.791 -32.800  1.00  0.00     0.093 A 
ATOM     17  C   UNL     1       0.635  -6.654 -32.256  1.00  0.00     0.131 A 
ENDROOT
BRANCH   6  18
ATOM     18  O   UNL     1      -3.481  -6.464 -28.964  1.00  0.00    -0.507 OA
ATOM     19  H   UNL     1      -4.415  -6.468 -28.570  1.00  0.00     0.293 HD
ENDBRANCH   6  18
BRANCH  17  20
ATOM     20  O   UNL     1      -0.378  -6.218 -33.113  1.00  0.00    -0.507 OA
ATOM     21  H   UNL     1      -1.080  -6.829 -33.507  1.00  0.00     0.293 HD
ENDBRANCH  17  20
BRANCH  15  22
ATOM     22  O   UNL     1       4.270  -7.239 -32.563  1.00  0.00    -0.508 OA
ATOM     23  H   UNL     1       4.723  -6.454 -33.016  1.00  0.00     0.293 HD
ENDBRANCH  15  22
TORSDOF 3
ENDMDL
MODEL 9
REMARK VINA RESULT:    -5.942      3.735      7.127
REMARK INTER + INTRA:          -6.463
REMARK INTER:                  -6.463
REMARK INTRA:                   0.000
REMARK UNBOUND:                 0.000
REMARK SMILES Cc1cc(O)c2c(c1)C(=O)c1cc(O)cc(O)c1C2=O
REMARK SMILES IDX 1 1 2 2 8 3 7 4 6 5 4 6 3 7 19 8 20 9 18 10 11 11 9 12 10 13
REMARK SMILES IDX 12 14 13 15 15 16 16 17 5 18 17 20 14 22
REMARK H PARENT 5 19 17 21 14 23
REMARK Flexibility Score: inf
ROOT
ATOM      1  C   UNL     1      -1.450  -8.277 -30.608  1.00  0.00     0.044 C 
ATOM      2  C   UNL     1      -0.309  -7.866 -31.491  1.00  0.00    -0.047 A 
ATOM      3  C   UNL     1       0.910  -8.552 -31.433  1.00  0.00     0.016 A 
ATOM      4  C   UNL     1       1.997  -8.151 -32.228  1.00  0.00     0.038 A 
ATOM      5  C   UNL     1       1.865  -7.042 -33.090  1.00  0.00     0.076 A 
ATOM      6  C   UNL     1       0.641  -6.334 -33.125  1.00  0.00     0.127 A 
ATOM      7  C   UNL     1      -0.430  -6.748 -32.324  1.00  0.00     0.050 A 
ATOM      8  C   UNL     1       3.011  -6.656 -33.954  1.00  0.00     0.201 C 
ATOM      9  O   UNL     1       2.809  -5.930 -34.963  1.00  0.00    -0.288 OA
ATOM     10  C   UNL     1       4.366  -7.218 -33.696  1.00  0.00     0.076 A 
ATOM     11  C   UNL     1       4.473  -8.367 -32.876  1.00  0.00     0.041 A 
ATOM     12  C   UNL     1       3.280  -8.888 -32.166  1.00  0.00     0.194 C 
ATOM     13  O   UNL     1       3.362  -9.951 -31.492  1.00  0.00    -0.289 OA
ATOM     14  C   UNL     1       5.714  -9.009 -32.728  1.00  0.00     0.059 A 
ATOM     15  C   UNL     1       6.850  -8.515 -33.372  1.00  0.00     0.120 A 
ATOM     16  C   UNL     1       6.762  -7.356 -34.141  1.00  0.00     0.093 A 
ATOM     17  C   UNL     1       5.545  -6.681 -34.283  1.00  0.00     0.131 A 
ENDROOT
BRANCH   6  18
ATOM     18  O   UNL     1       0.490  -5.214 -33.943  1.00  0.00    -0.507 OA
ATOM     19  H   UNL     1       1.279  -4.636 -34.207  1.00  0.00     0.293 HD
ENDBRANCH   6  18
BRANCH  17  20
ATOM     20  O   UNL     1       5.565  -5.472 -34.982  1.00  0.00    -0.507 OA
ATOM     21  H   UNL     1       4.875  -4.744 -34.862  1.00  0.00     0.293 HD
ENDBRANCH  17  20
BRANCH  15  22
ATOM     22  O   UNL     1       8.078  -9.159 -33.240  1.00  0.00    -0.508 OA
ATOM     23  H   UNL     1       8.808  -8.793 -32.639  1.00  0.00     0.293 HD
ENDBRANCH  15  22
TORSDOF 3
ENDMDL
