MODEL 1
REMARK VINA RESULT:    -4.957      0.000      0.000
REMARK INTER + INTRA:         -10.939
REMARK INTER:                  -9.014
REMARK INTRA:                  -1.925
REMARK UNBOUND:                -1.925
REMARK SMILES CCCCCC=CCC=CCCCCCCCC(=O)[O-]
REMARK SMILES IDX 11 1 12 2 13 3 14 4 15 5 16 6 17 7 18 8 19 9 20 10 10 11
REMARK SMILES IDX 9 12 8 13 7 14 6 15 5 16 4 17 3 18 2 19 1 20
REMARK H PARENT
REMARK Flexibility Score: inf
ROOT
ATOM      1  C   UNL     1      14.222   0.547  -2.525  1.00  0.00     0.027 C 
ENDROOT
BRANCH   1   2
ATOM      2  C   UNL     1      13.333   0.099  -1.355  1.00  0.00     0.004 C 
BRANCH   2   3
ATOM      3  C   UNL     1      11.899   0.635  -1.479  1.00  0.00     0.000 C 
BRANCH   3   4
ATOM      4  C   UNL     1      11.869   2.163  -1.329  1.00  0.00     0.000 C 
BRANCH   4   5
ATOM      5  C   UNL     1      11.637   2.619   0.123  1.00  0.00     0.000 C 
BRANCH   5   6
ATOM      6  C   UNL     1      10.607   3.754   0.295  1.00  0.00     0.006 C 
BRANCH   6   7
ATOM      7  C   UNL     1       9.622   3.904  -0.874  1.00  0.00     0.053 C 
BRANCH   7   8
ATOM      8  C   UNL     1       9.357   5.341  -1.204  1.00  0.00     0.041 C 
ATOM      9  O   UNL     1       9.050   5.675  -2.379  1.00  0.00    -0.550 OA
ATOM     10  O   UNL     1       9.414   6.306  -0.206  1.00  0.00    -0.550 OA
ENDBRANCH   7   8
ENDBRANCH   6   7
ENDBRANCH   5   6
ENDBRANCH   4   5
ENDBRANCH   3   4
ENDBRANCH   2   3
ENDBRANCH   1   2
BRANCH   1  11
ATOM     11  C   UNL     1      15.660   0.727  -2.103  1.00  0.00    -0.031 C 
ATOM     12  C   UNL     1      16.185   1.880  -1.648  1.00  0.00    -0.027 C 
BRANCH  12  13
ATOM     13  C   UNL     1      15.434   3.185  -1.559  1.00  0.00     0.054 C 
BRANCH  13  14
ATOM     14  C   UNL     1      15.211   3.586  -0.126  1.00  0.00    -0.027 C 
ATOM     15  C   UNL     1      15.298   2.696   0.873  1.00  0.00    -0.031 C 
BRANCH  15  16
ATOM     16  C   UNL     1      15.073   3.095   2.308  1.00  0.00     0.027 C 
BRANCH  16  17
ATOM     17  C   UNL     1      14.296   2.031   3.096  1.00  0.00     0.004 C 
BRANCH  17  18
ATOM     18  C   UNL     1      15.221   1.171   3.975  1.00  0.00     0.000 C 
BRANCH  18  19
ATOM     19  C   UNL     1      15.861   1.973   5.119  1.00  0.00    -0.003 C 
ATOM     20  C   UNL     1      15.057   1.899   6.416  1.00  0.00     0.004 C 
ENDBRANCH  18  19
ENDBRANCH  17  18
ENDBRANCH  16  17
ENDBRANCH  15  16
ENDBRANCH  13  14
ENDBRANCH  12  13
ENDBRANCH   1  11
TORSDOF 14
ENDMDL
MODEL 2
REMARK VINA RESULT:    -4.873      2.828      4.713
REMARK INTER + INTRA:         -10.786
REMARK INTER:                  -8.805
REMARK INTRA:                  -1.981
REMARK UNBOUND:                -1.925
REMARK SMILES CCCCCC=CCC=CCCCCCCCC(=O)[O-]
REMARK SMILES IDX 11 1 12 2 13 3 14 4 15 5 16 6 17 7 18 8 19 9 20 10 10 11
REMARK SMILES IDX 9 12 8 13 7 14 6 15 5 16 4 17 3 18 2 19 1 20
REMARK H PARENT
REMARK Flexibility Score: inf
ROOT
ATOM      1  C   UNL     1      11.588   3.292   1.133  1.00  0.00     0.027 C 
ENDROOT
BRANCH   1   2
ATOM      2  C   UNL     1      11.439   3.329  -0.396  1.00  0.00     0.004 C 
BRANCH   2   3
ATOM      3  C   UNL     1      11.919   2.027  -1.056  1.00  0.00     0.000 C 
BRANCH   3   4
ATOM      4  C   UNL     1      12.426   1.032  -0.003  1.00  0.00     0.000 C 
BRANCH   4   5
ATOM      5  C   UNL     1      13.638   0.213  -0.485  1.00  0.00     0.000 C 
BRANCH   5   6
ATOM      6  C   UNL     1      14.061   0.472  -1.945  1.00  0.00     0.006 C 
BRANCH   6   7
ATOM      7  C   UNL     1      15.571   0.670  -2.147  1.00  0.00     0.053 C 
BRANCH   7   8
ATOM      8  C   UNL     1      16.033   2.007  -1.653  1.00  0.00     0.041 C 
ATOM      9  O   UNL     1      17.102   2.102  -0.995  1.00  0.00    -0.550 OA
ATOM     10  O   UNL     1      15.302   3.150  -1.951  1.00  0.00    -0.550 OA
ENDBRANCH   7   8
ENDBRANCH   6   7
ENDBRANCH   5   6
ENDBRANCH   4   5
ENDBRANCH   3   4
ENDBRANCH   2   3
ENDBRANCH   1   2
BRANCH   1  11
ATOM     11  C   UNL     1      12.302   4.514   1.658  1.00  0.00    -0.031 C 
ATOM     12  C   UNL     1      13.640   4.637   1.748  1.00  0.00    -0.027 C 
BRANCH  12  13
ATOM     13  C   UNL     1      14.625   3.548   1.405  1.00  0.00     0.054 C 
BRANCH  13  14
ATOM     14  C   UNL     1      15.145   2.876   2.646  1.00  0.00    -0.027 C 
ATOM     15  C   UNL     1      14.779   1.628   2.974  1.00  0.00    -0.031 C 
BRANCH  15  16
ATOM     16  C   UNL     1      15.298   0.954   4.216  1.00  0.00     0.027 C 
BRANCH  16  17
ATOM     17  C   UNL     1      15.170   1.843   5.462  1.00  0.00     0.004 C 
BRANCH  17  18
ATOM     18  C   UNL     1      16.543   2.245   6.029  1.00  0.00     0.000 C 
BRANCH  18  19
ATOM     19  C   UNL     1      17.424   1.030   6.357  1.00  0.00    -0.003 C 
ATOM     20  C   UNL     1      18.182   1.186   7.674  1.00  0.00     0.004 C 
ENDBRANCH  18  19
ENDBRANCH  17  18
ENDBRANCH  16  17
ENDBRANCH  15  16
ENDBRANCH  13  14
ENDBRANCH  12  13
ENDBRANCH   1  11
TORSDOF 14
ENDMDL
MODEL 3
REMARK VINA RESULT:    -4.833      2.285      5.632
REMARK INTER + INTRA:         -10.713
REMARK INTER:                  -8.875
REMARK INTRA:                  -1.838
REMARK UNBOUND:                -1.925
REMARK SMILES CCCCCC=CCC=CCCCCCCCC(=O)[O-]
REMARK SMILES IDX 11 1 12 2 13 3 14 4 15 5 16 6 17 7 18 8 19 9 20 10 10 11
REMARK SMILES IDX 9 12 8 13 7 14 6 15 5 16 4 17 3 18 2 19 1 20
REMARK H PARENT
REMARK Flexibility Score: inf
ROOT
ATOM      1  C   UNL     1      15.655   3.738  -0.533  1.00  0.00     0.027 C 
ENDROOT
BRANCH   1   2
ATOM      2  C   UNL     1      15.363   2.857  -1.757  1.00  0.00     0.004 C 
BRANCH   2   3
ATOM      3  C   UNL     1      16.120   1.521  -1.704  1.00  0.00     0.000 C 
BRANCH   3   4
ATOM      4  C   UNL     1      15.217   0.361  -2.149  1.00  0.00     0.000 C 
BRANCH   4   5
ATOM      5  C   UNL     1      13.732   0.593  -1.811  1.00  0.00     0.000 C 
BRANCH   5   6
ATOM      6  C   UNL     1      13.353   0.353  -0.336  1.00  0.00     0.006 C 
BRANCH   6   7
ATOM      7  C   UNL     1      12.058   1.047   0.112  1.00  0.00     0.053 C 
BRANCH   7   8
ATOM      8  C   UNL     1      11.483   1.913  -0.967  1.00  0.00     0.041 C 
ATOM      9  O   UNL     1      10.512   1.503  -1.657  1.00  0.00    -0.550 OA
ATOM     10  O   UNL     1      11.997   3.184  -1.187  1.00  0.00    -0.550 OA
ENDBRANCH   7   8
ENDBRANCH   6   7
ENDBRANCH   5   6
ENDBRANCH   4   5
ENDBRANCH   3   4
ENDBRANCH   2   3
ENDBRANCH   1   2
BRANCH   1  11
ATOM     11  C   UNL     1      15.372   3.014   0.762  1.00  0.00    -0.031 C 
ATOM     12  C   UNL     1      14.493   3.429   1.692  1.00  0.00    -0.027 C 
BRANCH  12  13
ATOM     13  C   UNL     1      13.710   4.716   1.616  1.00  0.00     0.054 C 
BRANCH  13  14
ATOM     14  C   UNL     1      12.298   4.522   2.097  1.00  0.00    -0.027 C 
ATOM     15  C   UNL     1      11.256   5.064   1.452  1.00  0.00    -0.031 C 
BRANCH  15  16
ATOM     16  C   UNL     1       9.842   4.872   1.932  1.00  0.00     0.027 C 
BRANCH  16  17
ATOM     17  C   UNL     1       8.839   4.762   0.774  1.00  0.00     0.004 C 
BRANCH  17  18
ATOM     18  C   UNL     1       8.286   6.136   0.356  1.00  0.00     0.000 C 
BRANCH  18  19
ATOM     19  C   UNL     1       8.252   6.318  -1.170  1.00  0.00    -0.003 C 
ATOM     20  C   UNL     1       9.373   5.563  -1.882  1.00  0.00     0.004 C 
ENDBRANCH  18  19
ENDBRANCH  17  18
ENDBRANCH  16  17
ENDBRANCH  15  16
ENDBRANCH  13  14
ENDBRANCH  12  13
ENDBRANCH   1  11
TORSDOF 14
ENDMDL
MODEL 4
REMARK VINA RESULT:    -4.825      1.537      2.192
REMARK INTER + INTRA:         -10.698
REMARK INTER:                  -8.163
REMARK INTRA:                  -2.535
REMARK UNBOUND:                -1.925
REMARK SMILES CCCCCC=CCC=CCCCCCCCC(=O)[O-]
REMARK SMILES IDX 11 1 12 2 13 3 14 4 15 5 16 6 17 7 18 8 19 9 20 10 10 11
REMARK SMILES IDX 9 12 8 13 7 14 6 15 5 16 4 17 3 18 2 19 1 20
REMARK H PARENT
REMARK Flexibility Score: inf
ROOT
ATOM      1  C   UNL     1      16.055   1.594  -1.835  1.00  0.00     0.027 C 
ENDROOT
BRANCH   1   2
ATOM      2  C   UNL     1      15.352   0.242  -1.645  1.00  0.00     0.004 C 
BRANCH   2   3
ATOM      3  C   UNL     1      13.890   0.277  -2.114  1.00  0.00     0.000 C 
BRANCH   3   4
ATOM      4  C   UNL     1      12.928   0.199  -0.919  1.00  0.00     0.000 C 
BRANCH   4   5
ATOM      5  C   UNL     1      11.813   1.260  -0.977  1.00  0.00     0.000 C 
BRANCH   5   6
ATOM      6  C   UNL     1      11.622   2.077   0.317  1.00  0.00     0.006 C 
BRANCH   6   7
ATOM      7  C   UNL     1      11.415   3.583   0.096  1.00  0.00     0.053 C 
BRANCH   7   8
ATOM      8  C   UNL     1      11.014   4.286   1.357  1.00  0.00     0.041 C 
ATOM      9  O   UNL     1      11.888   4.823   2.087  1.00  0.00    -0.550 OA
ATOM     10  O   UNL     1       9.673   4.377   1.707  1.00  0.00    -0.550 OA
ENDBRANCH   7   8
ENDBRANCH   6   7
ENDBRANCH   5   6
ENDBRANCH   4   5
ENDBRANCH   3   4
ENDBRANCH   2   3
ENDBRANCH   1   2
BRANCH   1  11
ATOM     11  C   UNL     1      15.073   2.705  -2.118  1.00  0.00    -0.031 C 
ATOM     12  C   UNL     1      14.964   3.832  -1.390  1.00  0.00    -0.027 C 
BRANCH  12  13
ATOM     13  C   UNL     1      15.757   4.124  -0.141  1.00  0.00     0.054 C 
BRANCH  13  14
ATOM     14  C   UNL     1      14.987   3.741   1.093  1.00  0.00    -0.027 C 
ATOM     15  C   UNL     1      15.046   2.501   1.600  1.00  0.00    -0.031 C 
BRANCH  15  16
ATOM     16  C   UNL     1      14.275   2.115   2.834  1.00  0.00     0.027 C 
BRANCH  16  17
ATOM     17  C   UNL     1      14.422   0.624   3.174  1.00  0.00     0.004 C 
BRANCH  17  18
ATOM     18  C   UNL     1      15.318   0.396   4.404  1.00  0.00     0.000 C 
BRANCH  18  19
ATOM     19  C   UNL     1      15.741   1.711   5.077  1.00  0.00    -0.003 C 
ATOM     20  C   UNL     1      15.121   1.894   6.461  1.00  0.00     0.004 C 
ENDBRANCH  18  19
ENDBRANCH  17  18
ENDBRANCH  16  17
ENDBRANCH  15  16
ENDBRANCH  13  14
ENDBRANCH  12  13
ENDBRANCH   1  11
TORSDOF 14
ENDMDL
MODEL 5
REMARK VINA RESULT:    -4.807      1.505      2.519
REMARK INTER + INTRA:         -10.666
REMARK INTER:                  -8.647
REMARK INTRA:                  -2.020
REMARK UNBOUND:                -1.925
REMARK SMILES CCCCCC=CCC=CCCCCCCCC(=O)[O-]
REMARK SMILES IDX 11 1 12 2 13 3 14 4 15 5 16 6 17 7 18 8 19 9 20 10 10 11
REMARK SMILES IDX 9 12 8 13 7 14 6 15 5 16 4 17 3 18 2 19 1 20
REMARK H PARENT
REMARK Flexibility Score: inf
ROOT
ATOM      1  C   UNL     1      14.641   3.811  -1.882  1.00  0.00     0.027 C 
ENDROOT
BRANCH   1   2
ATOM      2  C   UNL     1      13.238   3.234  -2.118  1.00  0.00     0.004 C 
BRANCH   2   3
ATOM      3  C   UNL     1      13.228   1.698  -2.072  1.00  0.00     0.000 C 
BRANCH   3   4
ATOM      4  C   UNL     1      12.055   1.181  -1.226  1.00  0.00     0.000 C 
BRANCH   4   5
ATOM      5  C   UNL     1      12.205   1.509   0.271  1.00  0.00     0.000 C 
BRANCH   5   6
ATOM      6  C   UNL     1      11.113   2.431   0.850  1.00  0.00     0.006 C 
BRANCH   6   7
ATOM      7  C   UNL     1      11.401   3.933   0.702  1.00  0.00     0.053 C 
BRANCH   7   8
ATOM      8  C   UNL     1      10.371   4.772   1.397  1.00  0.00     0.041 C 
ATOM      9  O   UNL     1       9.281   5.036   0.826  1.00  0.00    -0.550 OA
ATOM     10  O   UNL     1      10.604   5.233   2.686  1.00  0.00    -0.550 OA
ENDBRANCH   7   8
ENDBRANCH   6   7
ENDBRANCH   5   6
ENDBRANCH   4   5
ENDBRANCH   3   4
ENDBRANCH   2   3
ENDBRANCH   1   2
BRANCH   1  11
ATOM     11  C   UNL     1      15.563   2.806  -1.234  1.00  0.00    -0.031 C 
ATOM     12  C   UNL     1      15.742   2.679   0.095  1.00  0.00    -0.027 C 
BRANCH  12  13
ATOM     13  C   UNL     1      15.105   3.568   1.133  1.00  0.00     0.054 C 
BRANCH  13  14
ATOM     14  C   UNL     1      15.185   2.949   2.501  1.00  0.00    -0.027 C 
ATOM     15  C   UNL     1      15.029   1.630   2.685  1.00  0.00    -0.031 C 
BRANCH  15  16
ATOM     16  C   UNL     1      15.108   1.007   4.053  1.00  0.00     0.027 C 
BRANCH  16  17
ATOM     17  C   UNL     1      15.791   1.927   5.076  1.00  0.00     0.004 C 
BRANCH  17  18
ATOM     18  C   UNL     1      15.150   1.819   6.471  1.00  0.00     0.000 C 
BRANCH  18  19
ATOM     19  C   UNL     1      13.616   1.772   6.412  1.00  0.00    -0.003 C 
ATOM     20  C   UNL     1      13.017   0.738   7.365  1.00  0.00     0.004 C 
ENDBRANCH  18  19
ENDBRANCH  17  18
ENDBRANCH  16  17
ENDBRANCH  15  16
ENDBRANCH  13  14
ENDBRANCH  12  13
ENDBRANCH   1  11
TORSDOF 14
ENDMDL
MODEL 6
REMARK VINA RESULT:    -4.760      3.992      6.503
REMARK INTER + INTRA:         -10.581
REMARK INTER:                  -8.276
REMARK INTRA:                  -2.305
REMARK UNBOUND:                -1.925
REMARK SMILES CCCCCC=CCC=CCCCCCCCC(=O)[O-]
REMARK SMILES IDX 11 1 12 2 13 3 14 4 15 5 16 6 17 7 18 8 19 9 20 10 10 11
REMARK SMILES IDX 9 12 8 13 7 14 6 15 5 16 4 17 3 18 2 19 1 20
REMARK H PARENT
REMARK Flexibility Score: inf
ROOT
ATOM      1  C   UNL     1      15.355   3.422  -1.297  1.00  0.00     0.027 C 
ENDROOT
BRANCH   1   2
ATOM      2  C   UNL     1      15.015   3.769   0.161  1.00  0.00     0.004 C 
BRANCH   2   3
ATOM      3  C   UNL     1      15.441   2.660   1.135  1.00  0.00     0.000 C 
BRANCH   3   4
ATOM      4  C   UNL     1      14.839   2.892   2.528  1.00  0.00     0.000 C 
BRANCH   4   5
ATOM      5  C   UNL     1      14.546   1.582   3.281  1.00  0.00     0.000 C 
BRANCH   5   6
ATOM      6  C   UNL     1      14.771   1.640   4.806  1.00  0.00     0.006 C 
BRANCH   6   7
ATOM      7  C   UNL     1      16.159   2.145   5.228  1.00  0.00     0.053 C 
BRANCH   7   8
ATOM      8  C   UNL     1      16.805   1.237   6.230  1.00  0.00     0.041 C 
ATOM      9  O   UNL     1      18.042   1.321   6.453  1.00  0.00    -0.550 OA
ATOM     10  O   UNL     1      16.036   0.325   6.940  1.00  0.00    -0.550 OA
ENDBRANCH   7   8
ENDBRANCH   6   7
ENDBRANCH   5   6
ENDBRANCH   4   5
ENDBRANCH   3   4
ENDBRANCH   2   3
ENDBRANCH   1   2
BRANCH   1  11
ATOM     11  C   UNL     1      16.300   2.249  -1.391  1.00  0.00    -0.031 C 
ATOM     12  C   UNL     1      15.961   1.029  -1.850  1.00  0.00    -0.027 C 
BRANCH  12  13
ATOM     13  C   UNL     1      14.569   0.630  -2.272  1.00  0.00     0.054 C 
BRANCH  13  14
ATOM     14  C   UNL     1      13.714   0.301  -1.079  1.00  0.00    -0.027 C 
ATOM     15  C   UNL     1      12.638   1.036  -0.763  1.00  0.00    -0.031 C 
BRANCH  15  16
ATOM     16  C   UNL     1      11.781   0.710   0.431  1.00  0.00     0.027 C 
BRANCH  16  17
ATOM     17  C   UNL     1      11.404   1.959   1.241  1.00  0.00     0.004 C 
BRANCH  17  18
ATOM     18  C   UNL     1      11.313   3.215   0.358  1.00  0.00     0.000 C 
BRANCH  18  19
ATOM     19  C   UNL     1      10.869   4.458   1.144  1.00  0.00    -0.003 C 
ATOM     20  C   UNL     1      11.956   4.990   2.076  1.00  0.00     0.004 C 
ENDBRANCH  18  19
ENDBRANCH  17  18
ENDBRANCH  16  17
ENDBRANCH  15  16
ENDBRANCH  13  14
ENDBRANCH  12  13
ENDBRANCH   1  11
TORSDOF 14
ENDMDL
MODEL 7
REMARK VINA RESULT:    -4.746      3.199      5.572
REMARK INTER + INTRA:         -10.555
REMARK INTER:                  -8.279
REMARK INTRA:                  -2.276
REMARK UNBOUND:                -1.925
REMARK SMILES CCCCCC=CCC=CCCCCCCCC(=O)[O-]
REMARK SMILES IDX 11 1 12 2 13 3 14 4 15 5 16 6 17 7 18 8 19 9 20 10 10 11
REMARK SMILES IDX 9 12 8 13 7 14 6 15 5 16 4 17 3 18 2 19 1 20
REMARK H PARENT
REMARK Flexibility Score: inf
ROOT
ATOM      1  C   UNL     1       8.087   3.705  -0.476  1.00  0.00     0.027 C 
ENDROOT
BRANCH   1   2
ATOM      2  C   UNL     1       9.101   2.688  -1.021  1.00  0.00     0.004 C 
BRANCH   2   3
ATOM      3  C   UNL     1       9.605   1.730   0.070  1.00  0.00     0.000 C 
BRANCH   3   4
ATOM      4  C   UNL     1      11.105   1.448  -0.098  1.00  0.00     0.000 C 
BRANCH   4   5
ATOM      5  C   UNL     1      11.529   1.312  -1.572  1.00  0.00     0.000 C 
BRANCH   5   6
ATOM      6  C   UNL     1      13.013   1.621  -1.855  1.00  0.00     0.006 C 
BRANCH   6   7
ATOM      7  C   UNL     1      13.992   0.531  -1.392  1.00  0.00     0.053 C 
BRANCH   7   8
ATOM      8  C   UNL     1      15.159   0.391  -2.322  1.00  0.00     0.041 C 
ATOM      9  O   UNL     1      15.077  -0.357  -3.331  1.00  0.00    -0.550 OA
ATOM     10  O   UNL     1      16.322   1.115  -2.092  1.00  0.00    -0.550 OA
ENDBRANCH   7   8
ENDBRANCH   6   7
ENDBRANCH   5   6
ENDBRANCH   4   5
ENDBRANCH   3   4
ENDBRANCH   2   3
ENDBRANCH   1   2
BRANCH   1  11
ATOM     11  C   UNL     1       8.630   5.113  -0.506  1.00  0.00    -0.031 C 
ATOM     12  C   UNL     1       9.402   5.656   0.453  1.00  0.00    -0.027 C 
BRANCH  12  13
ATOM     13  C   UNL     1       9.783   4.964   1.738  1.00  0.00     0.054 C 
BRANCH  13  14
ATOM     14  C   UNL     1      11.247   5.138   2.035  1.00  0.00    -0.027 C 
ATOM     15  C   UNL     1      12.187   4.480   1.341  1.00  0.00    -0.031 C 
BRANCH  15  16
ATOM     16  C   UNL     1      13.654   4.652   1.637  1.00  0.00     0.027 C 
BRANCH  16  17
ATOM     17  C   UNL     1      14.546   4.101   0.515  1.00  0.00     0.004 C 
BRANCH  17  18
ATOM     18  C   UNL     1      15.411   2.921   0.990  1.00  0.00     0.000 C 
BRANCH  18  19
ATOM     19  C   UNL     1      15.034   2.444   2.401  1.00  0.00    -0.003 C 
ATOM     20  C   UNL     1      14.217   1.153   2.392  1.00  0.00     0.004 C 
ENDBRANCH  18  19
ENDBRANCH  17  18
ENDBRANCH  16  17
ENDBRANCH  15  16
ENDBRANCH  13  14
ENDBRANCH  12  13
ENDBRANCH   1  11
TORSDOF 14
ENDMDL
MODEL 8
REMARK VINA RESULT:    -4.725      3.377      6.746
REMARK INTER + INTRA:         -10.517
REMARK INTER:                  -7.906
REMARK INTRA:                  -2.610
REMARK UNBOUND:                -1.925
REMARK SMILES CCCCCC=CCC=CCCCCCCCC(=O)[O-]
REMARK SMILES IDX 11 1 12 2 13 3 14 4 15 5 16 6 17 7 18 8 19 9 20 10 10 11
REMARK SMILES IDX 9 12 8 13 7 14 6 15 5 16 4 17 3 18 2 19 1 20
REMARK H PARENT
REMARK Flexibility Score: inf
ROOT
ATOM      1  C   UNL     1      11.217   4.946   1.608  1.00  0.00     0.027 C 
ENDROOT
BRANCH   1   2
ATOM      2  C   UNL     1      12.520   4.617   2.351  1.00  0.00     0.004 C 
BRANCH   2   3
ATOM      3  C   UNL     1      13.689   4.363   1.387  1.00  0.00     0.000 C 
BRANCH   3   4
ATOM      4  C   UNL     1      14.707   3.392   2.001  1.00  0.00     0.000 C 
BRANCH   4   5
ATOM      5  C   UNL     1      14.129   1.982   2.227  1.00  0.00     0.000 C 
BRANCH   5   6
ATOM      6  C   UNL     1      14.211   1.468   3.679  1.00  0.00     0.006 C 
BRANCH   6   7
ATOM      7  C   UNL     1      15.489   1.874   4.428  1.00  0.00     0.053 C 
BRANCH   7   8
ATOM      8  C   UNL     1      15.296   1.862   5.915  1.00  0.00     0.041 C 
ATOM      9  O   UNL     1      14.135   1.875   6.401  1.00  0.00    -0.550 OA
ATOM     10  O   UNL     1      16.397   1.802   6.759  1.00  0.00    -0.550 OA
ENDBRANCH   7   8
ENDBRANCH   6   7
ENDBRANCH   5   6
ENDBRANCH   4   5
ENDBRANCH   3   4
ENDBRANCH   2   3
ENDBRANCH   1   2
BRANCH   1  11
ATOM     11  C   UNL     1      10.299   3.751   1.522  1.00  0.00    -0.031 C 
ATOM     12  C   UNL     1      10.090   3.027   0.406  1.00  0.00    -0.027 C 
BRANCH  12  13
ATOM     13  C   UNL     1      10.684   3.343  -0.943  1.00  0.00     0.054 C 
BRANCH  13  14
ATOM     14  C   UNL     1      11.853   2.446  -1.245  1.00  0.00    -0.027 C 
ATOM     15  C   UNL     1      11.974   1.237  -0.680  1.00  0.00    -0.031 C 
BRANCH  15  16
ATOM     16  C   UNL     1      13.144   0.337  -0.980  1.00  0.00     0.027 C 
BRANCH  16  17
ATOM     17  C   UNL     1      13.905   0.768  -2.242  1.00  0.00     0.004 C 
BRANCH  17  18
ATOM     18  C   UNL     1      15.429   0.757  -2.030  1.00  0.00     0.000 C 
BRANCH  18  19
ATOM     19  C   UNL     1      15.921   1.966  -1.220  1.00  0.00    -0.003 C 
ATOM     20  C   UNL     1      15.376   3.293  -1.748  1.00  0.00     0.004 C 
ENDBRANCH  18  19
ENDBRANCH  17  18
ENDBRANCH  16  17
ENDBRANCH  15  16
ENDBRANCH  13  14
ENDBRANCH  12  13
ENDBRANCH   1  11
TORSDOF 14
ENDMDL
MODEL 9
REMARK VINA RESULT:    -4.724      1.925      3.291
REMARK INTER + INTRA:         -10.514
REMARK INTER:                  -8.622
REMARK INTRA:                  -1.892
REMARK UNBOUND:                -1.925
REMARK SMILES CCCCCC=CCC=CCCCCCCCC(=O)[O-]
REMARK SMILES IDX 11 1 12 2 13 3 14 4 15 5 16 6 17 7 18 8 19 9 20 10 10 11
REMARK SMILES IDX 9 12 8 13 7 14 6 15 5 16 4 17 3 18 2 19 1 20
REMARK H PARENT
REMARK Flexibility Score: inf
ROOT
ATOM      1  C   UNL     1      15.301   3.148  -1.593  1.00  0.00     0.027 C 
ENDROOT
BRANCH   1   2
ATOM      2  C   UNL     1      16.187   1.900  -1.459  1.00  0.00     0.004 C 
BRANCH   2   3
ATOM      3  C   UNL     1      15.417   0.607  -1.770  1.00  0.00     0.000 C 
BRANCH   3   4
ATOM      4  C   UNL     1      14.007   0.919  -2.291  1.00  0.00     0.000 C 
BRANCH   4   5
ATOM      5  C   UNL     1      12.897   0.280  -1.436  1.00  0.00     0.000 C 
BRANCH   5   6
ATOM      6  C   UNL     1      11.461   0.703  -1.807  1.00  0.00     0.006 C 
BRANCH   6   7
ATOM      7  C   UNL     1      10.955   1.955  -1.075  1.00  0.00     0.053 C 
BRANCH   7   8
ATOM      8  C   UNL     1      10.098   1.608   0.104  1.00  0.00     0.041 C 
ATOM      9  O   UNL     1       9.919   2.449   1.024  1.00  0.00    -0.550 OA
ATOM     10  O   UNL     1       9.472   0.371   0.169  1.00  0.00    -0.550 OA
ENDBRANCH   7   8
ENDBRANCH   6   7
ENDBRANCH   5   6
ENDBRANCH   4   5
ENDBRANCH   3   4
ENDBRANCH   2   3
ENDBRANCH   1   2
BRANCH   1  11
ATOM     11  C   UNL     1      15.487   4.098  -0.435  1.00  0.00    -0.031 C 
ATOM     12  C   UNL     1      14.754   4.081   0.694  1.00  0.00    -0.027 C 
BRANCH  12  13
ATOM     13  C   UNL     1      13.589   3.157   0.943  1.00  0.00     0.054 C 
BRANCH  13  14
ATOM     14  C   UNL     1      13.883   2.202   2.067  1.00  0.00    -0.027 C 
ATOM     15  C   UNL     1      15.002   2.304   2.799  1.00  0.00    -0.031 C 
BRANCH  15  16
ATOM     16  C   UNL     1      15.300   1.349   3.924  1.00  0.00     0.027 C 
BRANCH  16  17
ATOM     17  C   UNL     1      14.313   1.494   5.092  1.00  0.00     0.004 C 
BRANCH  17  18
ATOM     18  C   UNL     1      15.017   1.906   6.397  1.00  0.00     0.000 C 
BRANCH  18  19
ATOM     19  C   UNL     1      16.489   2.285   6.178  1.00  0.00    -0.003 C 
ATOM     20  C   UNL     1      17.458   1.297   6.827  1.00  0.00     0.004 C 
ENDBRANCH  18  19
ENDBRANCH  17  18
ENDBRANCH  16  17
ENDBRANCH  15  16
ENDBRANCH  13  14
ENDBRANCH  12  13
ENDBRANCH   1  11
TORSDOF 14
ENDMDL
