MODEL 1
REMARK VINA RESULT:    -4.875      0.000      0.000
REMARK INTER + INTRA:          -4.875
REMARK INTER:                  -4.875
REMARK INTRA:                   0.000
REMARK UNBOUND:                 0.000
REMARK SMILES Cc1cccc2ccccc12
REMARK SMILES IDX 1 1 2 2 3 3 4 4 5 5 6 6 7 7 8 8 9 9 10 10 11 11
REMARK H PARENT
REMARK Flexibility Score: inf
ROOT
ATOM      1  C   UNL     1      56.655 -12.815 131.348  1.00  0.00     0.045 C 
ATOM      2  C   UNL     1      56.356 -12.005 132.584  1.00  0.00    -0.043 A 
ATOM      3  C   UNL     1      55.020 -11.867 132.997  1.00  0.00     0.004 A 
ATOM      4  C   UNL     1      54.698 -11.127 134.133  1.00  0.00     0.001 A 
ATOM      5  C   UNL     1      55.700 -10.510 134.879  1.00  0.00     0.009 A 
ATOM      6  C   UNL     1      57.042 -10.629 134.494  1.00  0.00    -0.018 A 
ATOM      7  C   UNL     1      58.047 -10.005 135.250  1.00  0.00     0.009 A 
ATOM      8  C   UNL     1      59.385 -10.119 134.871  1.00  0.00     0.001 A 
ATOM      9  C   UNL     1      59.733 -10.855 133.738  1.00  0.00     0.001 A 
ATOM     10  C   UNL     1      58.745 -11.482 132.975  1.00  0.00     0.009 A 
ATOM     11  C   UNL     1      57.385 -11.381 133.337  1.00  0.00    -0.015 A 
ENDROOT
TORSDOF 0
ENDMDL
MODEL 2
REMARK VINA RESULT:    -4.827      2.186      3.031
REMARK INTER + INTRA:          -4.827
REMARK INTER:                  -4.827
REMARK INTRA:                   0.000
REMARK UNBOUND:                 0.000
REMARK SMILES Cc1cccc2ccccc12
REMARK SMILES IDX 1 1 2 2 3 3 4 4 5 5 6 6 7 7 8 8 9 9 10 10 11 11
REMARK H PARENT
REMARK Flexibility Score: inf
ROOT
ATOM      1  C   UNL     1      54.055 -15.756 133.417  1.00  0.00     0.045 C 
ATOM      2  C   UNL     1      54.302 -14.268 133.404  1.00  0.00    -0.043 A 
ATOM      3  C   UNL     1      53.200 -13.398 133.418  1.00  0.00     0.004 A 
ATOM      4  C   UNL     1      53.382 -12.015 133.406  1.00  0.00     0.001 A 
ATOM      5  C   UNL     1      54.665 -11.475 133.381  1.00  0.00     0.009 A 
ATOM      6  C   UNL     1      55.786 -12.316 133.367  1.00  0.00    -0.018 A 
ATOM      7  C   UNL     1      57.077 -11.766 133.343  1.00  0.00     0.009 A 
ATOM      8  C   UNL     1      58.197 -12.598 133.328  1.00  0.00     0.001 A 
ATOM      9  C   UNL     1      58.040 -13.984 133.340  1.00  0.00     0.001 A 
ATOM     10  C   UNL     1      56.763 -14.548 133.364  1.00  0.00     0.009 A 
ATOM     11  C   UNL     1      55.615 -13.727 133.379  1.00  0.00    -0.015 A 
ENDROOT
TORSDOF 0
ENDMDL
MODEL 3
REMARK VINA RESULT:    -4.795      0.801      2.543
REMARK INTER + INTRA:          -4.795
REMARK INTER:                  -4.795
REMARK INTRA:                   0.000
REMARK UNBOUND:                 0.000
REMARK SMILES Cc1cccc2ccccc12
REMARK SMILES IDX 1 1 2 2 3 3 4 4 5 5 6 6 7 7 8 8 9 9 10 10 11 11
REMARK H PARENT
REMARK Flexibility Score: inf
ROOT
ATOM      1  C   UNL     1      54.403 -10.802 134.564  1.00  0.00     0.045 C 
ATOM      2  C   UNL     1      55.513 -11.394 133.733  1.00  0.00    -0.043 A 
ATOM      3  C   UNL     1      55.189 -12.336 132.742  1.00  0.00     0.004 A 
ATOM      4  C   UNL     1      56.183 -12.911 131.951  1.00  0.00     0.001 A 
ATOM      5  C   UNL     1      57.519 -12.558 132.132  1.00  0.00     0.009 A 
ATOM      6  C   UNL     1      57.875 -11.621 133.112  1.00  0.00    -0.018 A 
ATOM      7  C   UNL     1      59.222 -11.269 133.290  1.00  0.00     0.009 A 
ATOM      8  C   UNL     1      59.583 -10.337 134.264  1.00  0.00     0.001 A 
ATOM      9  C   UNL     1      58.606  -9.749 135.068  1.00  0.00     0.001 A 
ATOM     10  C   UNL     1      57.262 -10.088 134.904  1.00  0.00     0.009 A 
ATOM     11  C   UNL     1      56.871 -11.028 133.926  1.00  0.00    -0.015 A 
ENDROOT
TORSDOF 0
ENDMDL
MODEL 4
REMARK VINA RESULT:    -4.783      5.479      8.193
REMARK INTER + INTRA:          -4.783
REMARK INTER:                  -4.783
REMARK INTRA:                   0.000
REMARK UNBOUND:                 0.000
REMARK SMILES Cc1cccc2ccccc12
REMARK SMILES IDX 1 1 2 2 3 3 4 4 5 5 6 6 7 7 8 8 9 9 10 10 11 11
REMARK H PARENT
REMARK Flexibility Score: inf
ROOT
ATOM      1  C   UNL     1      52.860 -12.864 133.386  1.00  0.00     0.045 C 
ATOM      2  C   UNL     1      52.650 -14.357 133.372  1.00  0.00    -0.043 A 
ATOM      3  C   UNL     1      53.774 -15.199 133.405  1.00  0.00     0.004 A 
ATOM      4  C   UNL     1      53.627 -16.586 133.393  1.00  0.00     0.001 A 
ATOM      5  C   UNL     1      52.358 -17.159 133.347  1.00  0.00     0.009 A 
ATOM      6  C   UNL     1      51.217 -16.345 133.313  1.00  0.00    -0.018 A 
ATOM      7  C   UNL     1      49.941 -16.928 133.267  1.00  0.00     0.009 A 
ATOM      8  C   UNL     1      48.801 -16.125 133.232  1.00  0.00     0.001 A 
ATOM      9  C   UNL     1      48.922 -14.735 133.244  1.00  0.00     0.001 A 
ATOM     10  C   UNL     1      50.184 -14.139 133.290  1.00  0.00     0.009 A 
ATOM     11  C   UNL     1      51.353 -14.930 133.325  1.00  0.00    -0.015 A 
ENDROOT
TORSDOF 0
ENDMDL
MODEL 5
REMARK VINA RESULT:    -4.780      5.764      7.776
REMARK INTER + INTRA:          -4.780
REMARK INTER:                  -4.780
REMARK INTRA:                   0.000
REMARK UNBOUND:                 0.000
REMARK SMILES Cc1cccc2ccccc12
REMARK SMILES IDX 1 1 2 2 3 3 4 4 5 5 6 6 7 7 8 8 9 9 10 10 11 11
REMARK H PARENT
REMARK Flexibility Score: inf
ROOT
ATOM      1  C   UNL     1      48.788 -14.123 133.365  1.00  0.00     0.045 C 
ATOM      2  C   UNL     1      49.691 -15.321 133.522  1.00  0.00    -0.043 A 
ATOM      3  C   UNL     1      49.115 -16.572 133.800  1.00  0.00     0.004 A 
ATOM      4  C   UNL     1      49.912 -17.706 133.954  1.00  0.00     0.001 A 
ATOM      5  C   UNL     1      51.297 -17.615 133.834  1.00  0.00     0.009 A 
ATOM      6  C   UNL     1      51.902 -16.381 133.557  1.00  0.00    -0.018 A 
ATOM      7  C   UNL     1      53.298 -16.295 133.437  1.00  0.00     0.009 A 
ATOM      8  C   UNL     1      53.907 -15.070 133.162  1.00  0.00     0.001 A 
ATOM      9  C   UNL     1      53.131 -13.922 133.003  1.00  0.00     0.001 A 
ATOM     10  C   UNL     1      51.741 -13.990 133.120  1.00  0.00     0.009 A 
ATOM     11  C   UNL     1      51.102 -15.217 133.398  1.00  0.00    -0.015 A 
ENDROOT
TORSDOF 0
ENDMDL
MODEL 6
REMARK VINA RESULT:    -4.780      8.290     10.306
REMARK INTER + INTRA:          -4.780
REMARK INTER:                  -4.780
REMARK INTRA:                   0.000
REMARK UNBOUND:                 0.000
REMARK SMILES Cc1cccc2ccccc12
REMARK SMILES IDX 1 1 2 2 3 3 4 4 5 5 6 6 7 7 8 8 9 9 10 10 11 11
REMARK H PARENT
REMARK Flexibility Score: inf
ROOT
ATOM      1  C   UNL     1      50.576 -19.663 135.329  1.00  0.00     0.045 C 
ATOM      2  C   UNL     1      49.559 -18.916 134.504  1.00  0.00    -0.043 A 
ATOM      3  C   UNL     1      48.217 -19.331 134.543  1.00  0.00     0.004 A 
ATOM      4  C   UNL     1      47.243 -18.669 133.796  1.00  0.00     0.001 A 
ATOM      5  C   UNL     1      47.587 -17.582 132.996  1.00  0.00     0.009 A 
ATOM      6  C   UNL     1      48.917 -17.143 132.935  1.00  0.00    -0.018 A 
ATOM      7  C   UNL     1      49.259 -16.047 132.127  1.00  0.00     0.009 A 
ATOM      8  C   UNL     1      50.580 -15.606 132.062  1.00  0.00     0.001 A 
ATOM      9  C   UNL     1      51.572 -16.252 132.800  1.00  0.00     0.001 A 
ATOM     10  C   UNL     1      51.250 -17.343 133.609  1.00  0.00     0.009 A 
ATOM     11  C   UNL     1      49.920 -17.809 133.692  1.00  0.00    -0.015 A 
ENDROOT
TORSDOF 0
ENDMDL
MODEL 7
REMARK VINA RESULT:    -4.769      0.899      4.085
REMARK INTER + INTRA:          -4.769
REMARK INTER:                  -4.769
REMARK INTRA:                   0.000
REMARK UNBOUND:                 0.000
REMARK SMILES Cc1cccc2ccccc12
REMARK SMILES IDX 1 1 2 2 3 3 4 4 5 5 6 6 7 7 8 8 9 9 10 10 11 11
REMARK H PARENT
REMARK Flexibility Score: inf
ROOT
ATOM      1  C   UNL     1      56.173  -9.270 135.646  1.00  0.00     0.045 C 
ATOM      2  C   UNL     1      57.229  -9.975 134.832  1.00  0.00    -0.043 A 
ATOM      3  C   UNL     1      58.576  -9.620 135.017  1.00  0.00     0.004 A 
ATOM      4  C   UNL     1      59.585 -10.245 134.285  1.00  0.00     0.001 A 
ATOM      5  C   UNL     1      59.272 -11.235 133.356  1.00  0.00     0.009 A 
ATOM      6  C   UNL     1      57.937 -11.612 133.149  1.00  0.00    -0.018 A 
ATOM      7  C   UNL     1      57.628 -12.610 132.213  1.00  0.00     0.009 A 
ATOM      8  C   UNL     1      56.302 -12.990 132.001  1.00  0.00     0.001 A 
ATOM      9  C   UNL     1      55.275 -12.380 132.722  1.00  0.00     0.001 A 
ATOM     10  C   UNL     1      55.566 -11.385 133.657  1.00  0.00     0.009 A 
ATOM     11  C   UNL     1      56.899 -10.983 133.889  1.00  0.00    -0.015 A 
ENDROOT
TORSDOF 0
ENDMDL
MODEL 8
REMARK VINA RESULT:    -4.747      8.027     10.448
REMARK INTER + INTRA:          -4.747
REMARK INTER:                  -4.747
REMARK INTRA:                   0.000
REMARK UNBOUND:                 0.000
REMARK SMILES Cc1cccc2ccccc12
REMARK SMILES IDX 1 1 2 2 3 3 4 4 5 5 6 6 7 7 8 8 9 9 10 10 11 11
REMARK H PARENT
REMARK Flexibility Score: inf
ROOT
ATOM      1  C   UNL     1      52.390 -17.871 134.502  1.00  0.00     0.045 C 
ATOM      2  C   UNL     1      51.268 -17.235 133.720  1.00  0.00    -0.043 A 
ATOM      3  C   UNL     1      51.545 -16.101 132.938  1.00  0.00     0.004 A 
ATOM      4  C   UNL     1      50.538 -15.480 132.199  1.00  0.00     0.001 A 
ATOM      5  C   UNL     1      49.237 -15.978 132.226  1.00  0.00     0.009 A 
ATOM      6  C   UNL     1      48.929 -17.108 132.996  1.00  0.00    -0.018 A 
ATOM      7  C   UNL     1      47.616 -17.606 133.018  1.00  0.00     0.009 A 
ATOM      8  C   UNL     1      47.303 -18.730 133.783  1.00  0.00     0.001 A 
ATOM      9  C   UNL     1      48.293 -19.368 134.530  1.00  0.00     0.001 A 
ATOM     10  C   UNL     1      49.604 -18.886 134.519  1.00  0.00     0.009 A 
ATOM     11  C   UNL     1      49.946 -17.750 133.754  1.00  0.00    -0.015 A 
ENDROOT
TORSDOF 0
ENDMDL
MODEL 9
REMARK VINA RESULT:    -4.715      0.935      3.414
REMARK INTER + INTRA:          -4.715
REMARK INTER:                  -4.715
REMARK INTRA:                   0.000
REMARK UNBOUND:                 0.000
REMARK SMILES Cc1cccc2ccccc12
REMARK SMILES IDX 1 1 2 2 3 3 4 4 5 5 6 6 7 7 8 8 9 9 10 10 11 11
REMARK H PARENT
REMARK Flexibility Score: inf
ROOT
ATOM      1  C   UNL     1      60.529 -10.249 134.509  1.00  0.00     0.045 C 
ATOM      2  C   UNL     1      59.029 -10.183 134.657  1.00  0.00    -0.043 A 
ATOM      3  C   UNL     1      58.480  -9.290 135.591  1.00  0.00     0.004 A 
ATOM      4  C   UNL     1      57.098  -9.196 135.762  1.00  0.00     0.001 A 
ATOM      5  C   UNL     1      56.240  -9.990 135.005  1.00  0.00     0.009 A 
ATOM      6  C   UNL     1      56.758 -10.892 134.065  1.00  0.00    -0.018 A 
ATOM      7  C   UNL     1      55.888 -11.690 133.305  1.00  0.00     0.009 A 
ATOM      8  C   UNL     1      56.397 -12.589 132.367  1.00  0.00     0.001 A 
ATOM      9  C   UNL     1      57.774 -12.700 132.178  1.00  0.00     0.001 A 
ATOM     10  C   UNL     1      58.653 -11.914 132.926  1.00  0.00     0.009 A 
ATOM     11  C   UNL     1      58.163 -10.997 133.881  1.00  0.00    -0.015 A 
ENDROOT
TORSDOF 0
ENDMDL
