MODEL 1
REMARK VINA RESULT:    -3.574      0.000      0.000
REMARK INTER + INTRA:          -4.565
REMARK INTER:                  -4.410
REMARK INTRA:                  -0.155
REMARK UNBOUND:                -0.155
REMARK SMILES CCCCCC(=O)[O-]
REMARK SMILES IDX 4 1 5 2 6 3 7 4 8 5 3 6 2 7 1 8
REMARK H PARENT
REMARK Flexibility Score: inf
ROOT
ATOM      1  C   UNL     1      -2.680  44.584  20.977  1.00  0.00     0.006 C 
ENDROOT
BRANCH   1   2
ATOM      2  C   UNL     1      -3.627  45.320  20.021  1.00  0.00     0.053 C 
BRANCH   2   3
ATOM      3  C   UNL     1      -4.553  44.350  19.356  1.00  0.00     0.041 C 
ATOM      4  O   UNL     1      -4.536  44.213  18.105  1.00  0.00    -0.550 OA
ATOM      5  O   UNL     1      -5.469  43.633  20.115  1.00  0.00    -0.550 OA
ENDBRANCH   2   3
ENDBRANCH   1   2
BRANCH   1   6
ATOM      6  C   UNL     1      -2.871  45.009  22.442  1.00  0.00     0.000 C 
BRANCH   6   7
ATOM      7  C   UNL     1      -4.203  45.737  22.675  1.00  0.00    -0.003 C 
ATOM      8  C   UNL     1      -3.978  47.096  23.333  1.00  0.00     0.004 C 
ENDBRANCH   6   7
ENDBRANCH   1   6
TORSDOF 4
ENDMDL
MODEL 2
REMARK VINA RESULT:    -3.539      2.832      4.093
REMARK INTER + INTRA:          -4.521
REMARK INTER:                  -4.392
REMARK INTRA:                  -0.129
REMARK UNBOUND:                -0.155
REMARK SMILES CCCCCC(=O)[O-]
REMARK SMILES IDX 4 1 5 2 6 3 7 4 8 5 3 6 2 7 1 8
REMARK H PARENT
REMARK Flexibility Score: inf
ROOT
ATOM      1  C   UNL     1      -2.799  44.736  21.794  1.00  0.00     0.006 C 
ENDROOT
BRANCH   1   2
ATOM      2  C   UNL     1      -4.219  45.164  22.185  1.00  0.00     0.053 C 
BRANCH   2   3
ATOM      3  C   UNL     1      -4.180  46.074  23.372  1.00  0.00     0.041 C 
ATOM      4  O   UNL     1      -4.329  47.316  23.224  1.00  0.00    -0.550 OA
ATOM      5  O   UNL     1      -3.931  45.558  24.637  1.00  0.00    -0.550 OA
ENDBRANCH   2   3
ENDBRANCH   1   2
BRANCH   1   6
ATOM      6  C   UNL     1      -2.642  44.524  20.279  1.00  0.00     0.000 C 
BRANCH   6   7
ATOM      7  C   UNL     1      -3.662  45.331  19.462  1.00  0.00    -0.003 C 
ATOM      8  C   UNL     1      -4.405  44.435  18.474  1.00  0.00     0.004 C 
ENDBRANCH   6   7
ENDBRANCH   1   6
TORSDOF 4
ENDMDL
MODEL 3
REMARK VINA RESULT:    -3.504      3.541      4.249
REMARK INTER + INTRA:          -4.479
REMARK INTER:                  -4.231
REMARK INTRA:                  -0.247
REMARK UNBOUND:                -0.155
REMARK SMILES CCCCCC(=O)[O-]
REMARK SMILES IDX 4 1 5 2 6 3 7 4 8 5 3 6 2 7 1 8
REMARK H PARENT
REMARK Flexibility Score: inf
ROOT
ATOM      1  C   UNL     1      -2.866  44.115  22.231  1.00  0.00     0.006 C 
ENDROOT
BRANCH   1   2
ATOM      2  C   UNL     1      -1.399  44.304  22.635  1.00  0.00     0.053 C 
BRANCH   2   3
ATOM      3  C   UNL     1      -1.206  43.950  24.076  1.00  0.00     0.041 C 
ATOM      4  O   UNL     1      -0.071  43.602  24.497  1.00  0.00    -0.550 OA
ATOM      5  O   UNL     1      -2.290  43.956  24.945  1.00  0.00    -0.550 OA
ENDBRANCH   2   3
ENDBRANCH   1   2
BRANCH   1   6
ATOM      6  C   UNL     1      -3.549  45.438  21.846  1.00  0.00     0.000 C 
BRANCH   6   7
ATOM      7  C   UNL     1      -4.458  45.978  22.960  1.00  0.00    -0.003 C 
ATOM      8  C   UNL     1      -3.750  47.063  23.768  1.00  0.00     0.004 C 
ENDBRANCH   6   7
ENDBRANCH   1   6
TORSDOF 4
ENDMDL
MODEL 4
REMARK VINA RESULT:    -3.455      2.406      3.923
REMARK INTER + INTRA:          -4.418
REMARK INTER:                  -4.184
REMARK INTRA:                  -0.233
REMARK UNBOUND:                -0.155
REMARK SMILES CCCCCC(=O)[O-]
REMARK SMILES IDX 4 1 5 2 6 3 7 4 8 5 3 6 2 7 1 8
REMARK H PARENT
REMARK Flexibility Score: inf
ROOT
ATOM      1  C   UNL     1      -2.987  44.169  22.054  1.00  0.00     0.006 C 
ENDROOT
BRANCH   1   2
ATOM      2  C   UNL     1      -2.662  45.195  23.146  1.00  0.00     0.053 C 
BRANCH   2   3
ATOM      3  C   UNL     1      -3.825  46.111  23.363  1.00  0.00     0.041 C 
ATOM      4  O   UNL     1      -3.650  47.247  23.876  1.00  0.00    -0.550 OA
ATOM      5  O   UNL     1      -5.110  45.691  23.043  1.00  0.00    -0.550 OA
ENDBRANCH   2   3
ENDBRANCH   1   2
BRANCH   1   6
ATOM      6  C   UNL     1      -2.479  44.599  20.668  1.00  0.00     0.000 C 
BRANCH   6   7
ATOM      7  C   UNL     1      -3.615  45.050  19.737  1.00  0.00    -0.003 C 
ATOM      8  C   UNL     1      -4.799  44.089  19.812  1.00  0.00     0.004 C 
ENDBRANCH   6   7
ENDBRANCH   1   6
TORSDOF 4
ENDMDL
MODEL 5
REMARK VINA RESULT:    -3.439      2.930      4.251
REMARK INTER + INTRA:          -4.398
REMARK INTER:                  -4.183
REMARK INTRA:                  -0.215
REMARK UNBOUND:                -0.155
REMARK SMILES CCCCCC(=O)[O-]
REMARK SMILES IDX 4 1 5 2 6 3 7 4 8 5 3 6 2 7 1 8
REMARK H PARENT
REMARK Flexibility Score: inf
ROOT
ATOM      1  C   UNL     1      -3.613  45.876  22.587  1.00  0.00     0.006 C 
ENDROOT
BRANCH   1   2
ATOM      2  C   UNL     1      -4.893  45.517  23.351  1.00  0.00     0.053 C 
BRANCH   2   3
ATOM      3  C   UNL     1      -4.578  44.603  24.493  1.00  0.00     0.041 C 
ATOM      4  O   UNL     1      -4.534  43.357  24.314  1.00  0.00    -0.550 OA
ATOM      5  O   UNL     1      -4.382  45.123  25.766  1.00  0.00    -0.550 OA
ENDBRANCH   2   3
ENDBRANCH   1   2
BRANCH   1   6
ATOM      6  C   UNL     1      -3.527  45.181  21.218  1.00  0.00     0.000 C 
BRANCH   6   7
ATOM      7  C   UNL     1      -2.227  44.384  21.041  1.00  0.00    -0.003 C 
ATOM      8  C   UNL     1      -1.474  44.263  22.364  1.00  0.00     0.004 C 
ENDBRANCH   6   7
ENDBRANCH   1   6
TORSDOF 4
ENDMDL
MODEL 6
REMARK VINA RESULT:    -3.432      3.086      4.332
REMARK INTER + INTRA:          -4.389
REMARK INTER:                  -4.286
REMARK INTRA:                  -0.104
REMARK UNBOUND:                -0.155
REMARK SMILES CCCCCC(=O)[O-]
REMARK SMILES IDX 4 1 5 2 6 3 7 4 8 5 3 6 2 7 1 8
REMARK H PARENT
REMARK Flexibility Score: inf
ROOT
ATOM      1  C   UNL     1      -3.452  45.057  21.323  1.00  0.00     0.006 C 
ENDROOT
BRANCH   1   2
ATOM      2  C   UNL     1      -2.098  44.601  21.880  1.00  0.00     0.053 C 
BRANCH   2   3
ATOM      3  C   UNL     1      -2.035  44.837  23.356  1.00  0.00     0.041 C 
ATOM      4  O   UNL     1      -2.937  45.502  23.931  1.00  0.00    -0.550 OA
ATOM      5  O   UNL     1      -0.956  44.363  24.091  1.00  0.00    -0.550 OA
ENDBRANCH   2   3
ENDBRANCH   1   2
BRANCH   1   6
ATOM      6  C   UNL     1      -3.481  45.083  19.786  1.00  0.00     0.000 C 
BRANCH   6   7
ATOM      7  C   UNL     1      -4.678  44.315  19.206  1.00  0.00    -0.003 C 
ATOM      8  C   UNL     1      -5.443  43.581  20.304  1.00  0.00     0.004 C 
ENDBRANCH   6   7
ENDBRANCH   1   6
TORSDOF 4
ENDMDL
MODEL 7
REMARK VINA RESULT:    -3.431      2.854      3.818
REMARK INTER + INTRA:          -4.388
REMARK INTER:                  -4.226
REMARK INTRA:                  -0.163
REMARK UNBOUND:                -0.155
REMARK SMILES CCCCCC(=O)[O-]
REMARK SMILES IDX 4 1 5 2 6 3 7 4 8 5 3 6 2 7 1 8
REMARK H PARENT
REMARK Flexibility Score: inf
ROOT
ATOM      1  C   UNL     1      -2.951  44.110  22.016  1.00  0.00     0.006 C 
ENDROOT
BRANCH   1   2
ATOM      2  C   UNL     1      -3.714  45.411  21.734  1.00  0.00     0.053 C 
BRANCH   2   3
ATOM      3  C   UNL     1      -4.304  45.953  22.997  1.00  0.00     0.041 C 
ATOM      4  O   UNL     1      -4.812  45.173  23.845  1.00  0.00    -0.550 OA
ATOM      5  O   UNL     1      -4.337  47.324  23.217  1.00  0.00    -0.550 OA
ENDBRANCH   2   3
ENDBRANCH   1   2
BRANCH   1   6
ATOM      6  C   UNL     1      -1.478  44.183  21.580  1.00  0.00     0.000 C 
BRANCH   6   7
ATOM      7  C   UNL     1      -0.510  43.807  22.712  1.00  0.00    -0.003 C 
ATOM      8  C   UNL     1      -1.048  44.258  24.067  1.00  0.00     0.004 C 
ENDBRANCH   6   7
ENDBRANCH   1   6
TORSDOF 4
ENDMDL
MODEL 8
REMARK VINA RESULT:    -3.429      2.940      4.417
REMARK INTER + INTRA:          -4.386
REMARK INTER:                  -4.219
REMARK INTRA:                  -0.166
REMARK UNBOUND:                -0.155
REMARK SMILES CCCCCC(=O)[O-]
REMARK SMILES IDX 4 1 5 2 6 3 7 4 8 5 3 6 2 7 1 8
REMARK H PARENT
REMARK Flexibility Score: inf
ROOT
ATOM      1  C   UNL     1      -2.263  45.005  23.315  1.00  0.00     0.006 C 
ENDROOT
BRANCH   1   2
ATOM      2  C   UNL     1      -3.494  45.751  23.845  1.00  0.00     0.053 C 
BRANCH   2   3
ATOM      3  C   UNL     1      -4.224  44.908  24.842  1.00  0.00     0.041 C 
ATOM      4  O   UNL     1      -4.320  45.283  26.040  1.00  0.00    -0.550 OA
ATOM      5  O   UNL     1      -4.757  43.684  24.460  1.00  0.00    -0.550 OA
ENDBRANCH   2   3
ENDBRANCH   1   2
BRANCH   1   6
ATOM      6  C   UNL     1      -2.404  44.608  21.836  1.00  0.00     0.000 C 
BRANCH   6   7
ATOM      7  C   UNL     1      -3.592  45.299  21.151  1.00  0.00    -0.003 C 
ATOM      8  C   UNL     1      -3.514  45.147  19.633  1.00  0.00     0.004 C 
ENDBRANCH   6   7
ENDBRANCH   1   6
TORSDOF 4
ENDMDL
MODEL 9
REMARK VINA RESULT:    -3.381     18.462     19.414
REMARK INTER + INTRA:          -4.326
REMARK INTER:                  -4.232
REMARK INTRA:                  -0.094
REMARK UNBOUND:                -0.155
REMARK SMILES CCCCCC(=O)[O-]
REMARK SMILES IDX 4 1 5 2 6 3 7 4 8 5 3 6 2 7 1 8
REMARK H PARENT
REMARK Flexibility Score: inf
ROOT
ATOM      1  C   UNL     1       2.446  30.876  33.519  1.00  0.00     0.006 C 
ENDROOT
BRANCH   1   2
ATOM      2  C   UNL     1       2.794  29.972  32.330  1.00  0.00     0.053 C 
BRANCH   2   3
ATOM      3  C   UNL     1       4.237  30.123  31.966  1.00  0.00     0.041 C 
ATOM      4  O   UNL     1       5.062  30.557  32.813  1.00  0.00    -0.550 OA
ATOM      5  O   UNL     1       4.663  29.831  30.677  1.00  0.00    -0.550 OA
ENDBRANCH   2   3
ENDBRANCH   1   2
BRANCH   1   6
ATOM      6  C   UNL     1       1.978  32.274  33.083  1.00  0.00     0.000 C 
BRANCH   6   7
ATOM      7  C   UNL     1       0.497  32.301  32.677  1.00  0.00    -0.003 C 
ATOM      8  C   UNL     1       0.067  33.706  32.263  1.00  0.00     0.004 C 
ENDBRANCH   6   7
ENDBRANCH   1   6
TORSDOF 4
ENDMDL
