MODEL 1
REMARK VINA RESULT:    -6.230      0.000      0.000
REMARK INTER + INTRA:          -7.636
REMARK INTER:                  -7.323
REMARK INTRA:                  -0.314
REMARK UNBOUND:                -0.314
REMARK SMILES O=c1cc(-c2ccc(O)c(O)c2)oc2cc(O)cc(O)c12
REMARK SMILES IDX 4 1 3 2 2 3 1 4 21 5 19 6 18 7 16 8 15 9 14 10 13 11 5 12
REMARK SMILES IDX 6 13 7 14 8 15 12 16 10 17 9 18 11 20 20 22 17 24
REMARK H PARENT 9 19 11 21 20 23 17 25
REMARK Flexibility Score: inf
ROOT
ATOM      1  C   UNL     1      17.508  30.576  33.871  1.00  0.00     0.138 A 
ATOM      2  C   UNL     1      17.431  30.427  32.475  1.00  0.00     0.100 A 
ATOM      3  C   UNL     1      18.068  29.346  31.865  1.00  0.00     0.197 A 
ATOM      4  O   UNL     1      17.992  29.219  30.613  1.00  0.00    -0.289 OA
ATOM      5  C   UNL     1      18.776  28.418  32.655  1.00  0.00     0.107 A 
ATOM      6  C   UNL     1      19.451  27.297  32.117  1.00  0.00     0.134 A 
ATOM      7  C   UNL     1      20.129  26.417  32.973  1.00  0.00     0.093 A 
ATOM      8  C   UNL     1      20.144  26.638  34.355  1.00  0.00     0.123 A 
ATOM      9  C   UNL     1      19.481  27.743  34.891  1.00  0.00     0.094 A 
ATOM     10  C   UNL     1      18.800  28.632  34.054  1.00  0.00     0.146 A 
ATOM     11  O   UNL     1      18.177  29.678  34.590  1.00  0.00    -0.456 OA
ENDROOT
BRANCH   1  12
ATOM     12  C   UNL     1      16.849  31.706  34.574  1.00  0.00     0.021 A 
ATOM     13  C   UNL     1      16.469  32.879  33.896  1.00  0.00     0.016 A 
ATOM     14  C   UNL     1      15.859  33.930  34.586  1.00  0.00     0.051 A 
ATOM     15  C   UNL     1      15.626  33.835  35.961  1.00  0.00     0.157 A 
ATOM     16  C   UNL     1      16.624  31.621  35.960  1.00  0.00     0.062 A 
ATOM     17  C   UNL     1      16.012  32.675  36.653  1.00  0.00     0.158 A 
BRANCH  15  18
ATOM     18  O   UNL     1      15.016  34.900  36.621  1.00  0.00    -0.504 OA
ATOM     19  H   UNL     1      14.120  35.272  36.328  1.00  0.00     0.293 HD
ENDBRANCH  15  18
BRANCH  17  20
ATOM     20  O   UNL     1      15.786  32.574  38.025  1.00  0.00    -0.504 OA
ATOM     21  H   UNL     1      16.444  32.105  38.638  1.00  0.00     0.293 HD
ENDBRANCH  17  20
ENDBRANCH   1  12
BRANCH   6  22
ATOM     22  O   UNL     1      19.451  27.052  30.743  1.00  0.00    -0.507 OA
ATOM     23  H   UNL     1      19.779  27.742  30.078  1.00  0.00     0.293 HD
ENDBRANCH   6  22
BRANCH   8  24
ATOM     24  O   UNL     1      20.818  25.763  35.206  1.00  0.00    -0.508 OA
ATOM     25  H   UNL     1      20.325  25.050  35.731  1.00  0.00     0.293 HD
ENDBRANCH   8  24
TORSDOF 5
ENDMDL
MODEL 2
REMARK VINA RESULT:    -6.176      2.724      7.327
REMARK INTER + INTRA:          -7.572
REMARK INTER:                  -7.285
REMARK INTRA:                  -0.288
REMARK UNBOUND:                -0.314
REMARK SMILES O=c1cc(-c2ccc(O)c(O)c2)oc2cc(O)cc(O)c12
REMARK SMILES IDX 4 1 3 2 2 3 1 4 21 5 19 6 18 7 16 8 15 9 14 10 13 11 5 12
REMARK SMILES IDX 6 13 7 14 8 15 12 16 10 17 9 18 11 20 20 22 17 24
REMARK H PARENT 9 19 11 21 20 23 17 25
REMARK Flexibility Score: inf
ROOT
ATOM      1  C   UNL     1      18.556  28.369  31.253  1.00  0.00     0.138 A 
ATOM      2  C   UNL     1      19.335  27.662  32.185  1.00  0.00     0.100 A 
ATOM      3  C   UNL     1      19.338  28.064  33.522  1.00  0.00     0.197 A 
ATOM      4  O   UNL     1      20.038  27.422  34.350  1.00  0.00    -0.289 OA
ATOM      5  C   UNL     1      18.559  29.169  33.918  1.00  0.00     0.107 A 
ATOM      6  C   UNL     1      18.506  29.642  35.250  1.00  0.00     0.134 A 
ATOM      7  C   UNL     1      17.701  30.747  35.564  1.00  0.00     0.093 A 
ATOM      8  C   UNL     1      16.948  31.385  34.572  1.00  0.00     0.123 A 
ATOM      9  C   UNL     1      16.996  30.922  33.256  1.00  0.00     0.094 A 
ATOM     10  C   UNL     1      17.794  29.823  32.922  1.00  0.00     0.146 A 
ATOM     11  O   UNL     1      17.824  29.403  31.661  1.00  0.00    -0.456 OA
ENDROOT
BRANCH   1  12
ATOM     12  C   UNL     1      18.513  27.986  29.819  1.00  0.00     0.021 A 
ATOM     13  C   UNL     1      18.187  28.915  28.814  1.00  0.00     0.016 A 
ATOM     14  C   UNL     1      18.145  28.523  27.473  1.00  0.00     0.051 A 
ATOM     15  C   UNL     1      18.419  27.201  27.112  1.00  0.00     0.157 A 
ATOM     16  C   UNL     1      18.775  26.654  29.450  1.00  0.00     0.062 A 
ATOM     17  C   UNL     1      18.734  26.260  28.105  1.00  0.00     0.158 A 
BRANCH  15  18
ATOM     18  O   UNL     1      18.370  26.841  25.767  1.00  0.00    -0.504 OA
ATOM     19  H   UNL     1      17.665  26.211  25.403  1.00  0.00     0.293 HD
ENDBRANCH  15  18
BRANCH  17  20
ATOM     20  O   UNL     1      19.005  24.938  27.753  1.00  0.00    -0.504 OA
ATOM     21  H   UNL     1      18.780  24.577  26.833  1.00  0.00     0.293 HD
ENDBRANCH  17  20
ENDBRANCH   1  12
BRANCH   6  22
ATOM     22  O   UNL     1      19.246  29.025  36.260  1.00  0.00    -0.507 OA
ATOM     23  H   UNL     1      19.156  29.301  37.231  1.00  0.00     0.293 HD
ENDBRANCH   6  22
BRANCH   8  24
ATOM     24  O   UNL     1      16.148  32.483  34.884  1.00  0.00    -0.508 OA
ATOM     25  H   UNL     1      16.471  33.212  35.509  1.00  0.00     0.293 HD
ENDBRANCH   8  24
TORSDOF 5
ENDMDL
MODEL 3
REMARK VINA RESULT:    -6.162      1.206      2.796
REMARK INTER + INTRA:          -7.557
REMARK INTER:                  -7.264
REMARK INTRA:                  -0.293
REMARK UNBOUND:                -0.314
REMARK SMILES O=c1cc(-c2ccc(O)c(O)c2)oc2cc(O)cc(O)c12
REMARK SMILES IDX 4 1 3 2 2 3 1 4 21 5 19 6 18 7 16 8 15 9 14 10 13 11 5 12
REMARK SMILES IDX 6 13 7 14 8 15 12 16 10 17 9 18 11 20 20 22 17 24
REMARK H PARENT 9 19 11 21 20 23 17 25
REMARK Flexibility Score: inf
ROOT
ATOM      1  C   UNL     1      17.556  30.488  34.032  1.00  0.00     0.138 A 
ATOM      2  C   UNL     1      18.215  29.483  34.760  1.00  0.00     0.100 A 
ATOM      3  C   UNL     1      18.825  28.429  34.078  1.00  0.00     0.197 A 
ATOM      4  O   UNL     1      19.415  27.534  34.739  1.00  0.00    -0.289 OA
ATOM      5  C   UNL     1      18.773  28.390  32.670  1.00  0.00     0.107 A 
ATOM      6  C   UNL     1      19.362  27.359  31.902  1.00  0.00     0.134 A 
ATOM      7  C   UNL     1      19.271  27.395  30.503  1.00  0.00     0.093 A 
ATOM      8  C   UNL     1      18.603  28.443  29.859  1.00  0.00     0.123 A 
ATOM      9  C   UNL     1      18.019  29.463  30.613  1.00  0.00     0.094 A 
ATOM     10  C   UNL     1      18.098  29.444  32.009  1.00  0.00     0.146 A 
ATOM     11  O   UNL     1      17.533  30.427  32.703  1.00  0.00    -0.456 OA
ENDROOT
BRANCH   1  12
ATOM     12  C   UNL     1      16.891  31.633  34.705  1.00  0.00     0.021 A 
ATOM     13  C   UNL     1      16.518  32.792  34.000  1.00  0.00     0.016 A 
ATOM     14  C   UNL     1      15.903  33.857  34.662  1.00  0.00     0.051 A 
ATOM     15  C   UNL     1      15.655  33.790  36.036  1.00  0.00     0.157 A 
ATOM     16  C   UNL     1      16.650  31.576  36.091  1.00  0.00     0.062 A 
ATOM     17  C   UNL     1      16.032  32.645  36.756  1.00  0.00     0.158 A 
BRANCH  15  18
ATOM     18  O   UNL     1      15.039  34.869  36.668  1.00  0.00    -0.504 OA
ATOM     19  H   UNL     1      14.079  35.130  36.474  1.00  0.00     0.293 HD
ENDBRANCH  15  18
BRANCH  17  20
ATOM     20  O   UNL     1      15.792  32.572  38.127  1.00  0.00    -0.504 OA
ATOM     21  H   UNL     1      15.231  31.830  38.529  1.00  0.00     0.293 HD
ENDBRANCH  17  20
ENDBRANCH   1  12
BRANCH   6  22
ATOM     22  O   UNL     1      20.036  26.301  32.516  1.00  0.00    -0.507 OA
ATOM     23  H   UNL     1      19.869  26.054  33.484  1.00  0.00     0.293 HD
ENDBRANCH   6  22
BRANCH   8  24
ATOM     24  O   UNL     1      18.512  28.480  28.469  1.00  0.00    -0.508 OA
ATOM     25  H   UNL     1      17.615  28.452  27.996  1.00  0.00     0.293 HD
ENDBRANCH   8  24
TORSDOF 5
ENDMDL
MODEL 4
REMARK VINA RESULT:    -6.145      3.074      4.645
REMARK INTER + INTRA:          -7.536
REMARK INTER:                  -7.249
REMARK INTRA:                  -0.287
REMARK UNBOUND:                -0.314
REMARK SMILES O=c1cc(-c2ccc(O)c(O)c2)oc2cc(O)cc(O)c12
REMARK SMILES IDX 4 1 3 2 2 3 1 4 21 5 19 6 18 7 16 8 15 9 14 10 13 11 5 12
REMARK SMILES IDX 6 13 7 14 8 15 12 16 10 17 9 18 11 20 20 22 17 24
REMARK H PARENT 9 19 11 21 20 23 17 25
REMARK Flexibility Score: inf
ROOT
ATOM      1  C   UNL     1      18.132  29.726  30.972  1.00  0.00     0.138 A 
ATOM      2  C   UNL     1      18.457  30.725  30.039  1.00  0.00     0.100 A 
ATOM      3  C   UNL     1      18.793  30.362  28.734  1.00  0.00     0.197 A 
ATOM      4  O   UNL     1      19.081  31.265  27.903  1.00  0.00    -0.289 OA
ATOM      5  C   UNL     1      18.798  29.001  28.369  1.00  0.00     0.107 A 
ATOM      6  C   UNL     1      19.127  28.547  27.071  1.00  0.00     0.134 A 
ATOM      7  C   UNL     1      19.104  27.174  26.787  1.00  0.00     0.093 A 
ATOM      8  C   UNL     1      18.757  26.247  27.777  1.00  0.00     0.123 A 
ATOM      9  C   UNL     1      18.431  26.689  29.061  1.00  0.00     0.094 A 
ATOM     10  C   UNL     1      18.450  28.055  29.364  1.00  0.00     0.146 A 
ATOM     11  O   UNL     1      18.137  28.449  30.594  1.00  0.00    -0.456 OA
ENDROOT
BRANCH   1  12
ATOM     12  C   UNL     1      17.766  30.053  32.373  1.00  0.00     0.021 A 
ATOM     13  C   UNL     1      17.972  29.142  33.425  1.00  0.00     0.016 A 
ATOM     14  C   UNL     1      17.608  29.474  34.733  1.00  0.00     0.051 A 
ATOM     15  C   UNL     1      17.028  30.714  35.013  1.00  0.00     0.157 A 
ATOM     16  C   UNL     1      17.169  31.295  32.660  1.00  0.00     0.062 A 
ATOM     17  C   UNL     1      16.805  31.630  33.972  1.00  0.00     0.158 A 
BRANCH  15  18
ATOM     18  O   UNL     1      16.677  31.017  36.328  1.00  0.00    -0.504 OA
ATOM     19  H   UNL     1      15.761  30.800  36.705  1.00  0.00     0.293 HD
ENDBRANCH  15  18
BRANCH  17  20
ATOM     20  O   UNL     1      16.222  32.867  34.244  1.00  0.00    -0.504 OA
ATOM     21  H   UNL     1      16.702  33.736  34.040  1.00  0.00     0.293 HD
ENDBRANCH  17  20
ENDBRANCH   1  12
BRANCH   6  22
ATOM     22  O   UNL     1      19.476  29.448  26.063  1.00  0.00    -0.507 OA
ATOM     23  H   UNL     1      18.778  29.990  25.568  1.00  0.00     0.293 HD
ENDBRANCH   6  22
BRANCH   8  24
ATOM     24  O   UNL     1      18.733  24.882  27.496  1.00  0.00    -0.508 OA
ATOM     25  H   UNL     1      19.489  24.433  26.992  1.00  0.00     0.293 HD
ENDBRANCH   8  24
TORSDOF 5
ENDMDL
MODEL 5
REMARK VINA RESULT:    -6.144      3.108      6.891
REMARK INTER + INTRA:          -7.535
REMARK INTER:                  -7.221
REMARK INTRA:                  -0.314
REMARK UNBOUND:                -0.314
REMARK SMILES O=c1cc(-c2ccc(O)c(O)c2)oc2cc(O)cc(O)c12
REMARK SMILES IDX 4 1 3 2 2 3 1 4 21 5 19 6 18 7 16 8 15 9 14 10 13 11 5 12
REMARK SMILES IDX 6 13 7 14 8 15 12 16 10 17 9 18 11 20 20 22 17 24
REMARK H PARENT 9 19 11 21 20 23 17 25
REMARK Flexibility Score: inf
ROOT
ATOM      1  C   UNL     1      18.720  28.123  31.222  1.00  0.00     0.138 A 
ATOM      2  C   UNL     1      18.094  29.259  31.761  1.00  0.00     0.100 A 
ATOM      3  C   UNL     1      18.266  29.561  33.113  1.00  0.00     0.197 A 
ATOM      4  O   UNL     1      17.702  30.584  33.587  1.00  0.00    -0.289 OA
ATOM      5  C   UNL     1      19.066  28.724  33.917  1.00  0.00     0.107 A 
ATOM      6  C   UNL     1      19.290  28.956  35.293  1.00  0.00     0.134 A 
ATOM      7  C   UNL     1      20.105  28.077  36.023  1.00  0.00     0.093 A 
ATOM      8  C   UNL     1      20.698  26.973  35.400  1.00  0.00     0.123 A 
ATOM      9  C   UNL     1      20.480  26.740  34.041  1.00  0.00     0.094 A 
ATOM     10  C   UNL     1      19.670  27.603  33.297  1.00  0.00     0.146 A 
ATOM     11  O   UNL     1      19.477  27.358  32.005  1.00  0.00    -0.456 OA
ENDROOT
BRANCH   1  12
ATOM     12  C   UNL     1      18.573  27.754  29.791  1.00  0.00     0.021 A 
ATOM     13  C   UNL     1      18.093  28.670  28.836  1.00  0.00     0.016 A 
ATOM     14  C   UNL     1      17.956  28.291  27.498  1.00  0.00     0.051 A 
ATOM     15  C   UNL     1      18.287  26.996  27.090  1.00  0.00     0.157 A 
ATOM     16  C   UNL     1      18.893  26.448  29.376  1.00  0.00     0.062 A 
ATOM     17  C   UNL     1      18.756  26.068  28.034  1.00  0.00     0.158 A 
BRANCH  15  18
ATOM     18  O   UNL     1      18.140  26.649  25.748  1.00  0.00    -0.504 OA
ATOM     19  H   UNL     1      17.529  25.897  25.450  1.00  0.00     0.293 HD
ENDBRANCH  15  18
BRANCH  17  20
ATOM     20  O   UNL     1      19.084  24.773  27.635  1.00  0.00    -0.504 OA
ATOM     21  H   UNL     1      20.017  24.398  27.765  1.00  0.00     0.293 HD
ENDBRANCH  17  20
ENDBRANCH   1  12
BRANCH   6  22
ATOM     22  O   UNL     1      18.712  30.050  35.941  1.00  0.00    -0.507 OA
ATOM     23  H   UNL     1      19.067  30.990  35.817  1.00  0.00     0.293 HD
ENDBRANCH   6  22
BRANCH   8  24
ATOM     24  O   UNL     1      21.508  26.100  36.124  1.00  0.00    -0.508 OA
ATOM     25  H   UNL     1      21.242  25.774  37.047  1.00  0.00     0.293 HD
ENDBRANCH   8  24
TORSDOF 5
ENDMDL
MODEL 6
REMARK VINA RESULT:    -6.104      1.758      3.515
REMARK INTER + INTRA:          -7.488
REMARK INTER:                  -7.170
REMARK INTRA:                  -0.318
REMARK UNBOUND:                -0.314
REMARK SMILES O=c1cc(-c2ccc(O)c(O)c2)oc2cc(O)cc(O)c12
REMARK SMILES IDX 4 1 3 2 2 3 1 4 21 5 19 6 18 7 16 8 15 9 14 10 13 11 5 12
REMARK SMILES IDX 6 13 7 14 8 15 12 16 10 17 9 18 11 20 20 22 17 24
REMARK H PARENT 9 19 11 21 20 23 17 25
REMARK Flexibility Score: inf
ROOT
ATOM      1  C   UNL     1      17.876  29.843  33.239  1.00  0.00     0.138 A 
ATOM      2  C   UNL     1      18.604  28.781  33.803  1.00  0.00     0.100 A 
ATOM      3  C   UNL     1      19.159  27.810  32.969  1.00  0.00     0.197 A 
ATOM      4  O   UNL     1      19.812  26.863  33.484  1.00  0.00    -0.289 OA
ATOM      5  C   UNL     1      18.984  27.908  31.574  1.00  0.00     0.107 A 
ATOM      6  C   UNL     1      19.511  26.967  30.659  1.00  0.00     0.134 A 
ATOM      7  C   UNL     1      19.297  27.139  29.284  1.00  0.00     0.093 A 
ATOM      8  C   UNL     1      18.567  28.234  28.808  1.00  0.00     0.123 A 
ATOM      9  C   UNL     1      18.044  29.166  29.707  1.00  0.00     0.094 A 
ATOM     10  C   UNL     1      18.246  29.011  31.082  1.00  0.00     0.146 A 
ATOM     11  O   UNL     1      17.736  29.912  31.917  1.00  0.00    -0.456 OA
ENDROOT
BRANCH   1  12
ATOM     12  C   UNL     1      17.264  30.905  34.077  1.00  0.00     0.021 A 
ATOM     13  C   UNL     1      17.245  30.820  35.482  1.00  0.00     0.016 A 
ATOM     14  C   UNL     1      16.654  31.830  36.245  1.00  0.00     0.051 A 
ATOM     15  C   UNL     1      16.066  32.936  35.623  1.00  0.00     0.157 A 
ATOM     16  C   UNL     1      16.660  32.014  33.457  1.00  0.00     0.062 A 
ATOM     17  C   UNL     1      16.067  33.028  34.222  1.00  0.00     0.158 A 
BRANCH  15  18
ATOM     18  O   UNL     1      15.485  33.927  36.412  1.00  0.00    -0.504 OA
ATOM     19  H   UNL     1      15.851  34.872  36.446  1.00  0.00     0.293 HD
ENDBRANCH  15  18
BRANCH  17  20
ATOM     20  O   UNL     1      15.479  34.126  33.595  1.00  0.00    -0.504 OA
ATOM     21  H   UNL     1      15.942  35.027  33.558  1.00  0.00     0.293 HD
ENDBRANCH  17  20
ENDBRANCH   1  12
BRANCH   6  22
ATOM     22  O   UNL     1      20.244  25.865  31.105  1.00  0.00    -0.507 OA
ATOM     23  H   UNL     1      20.724  25.870  31.997  1.00  0.00     0.293 HD
ENDBRANCH   6  22
BRANCH   8  24
ATOM     24  O   UNL     1      18.353  28.406  27.441  1.00  0.00    -0.508 OA
ATOM     25  H   UNL     1      18.421  27.630  26.793  1.00  0.00     0.293 HD
ENDBRANCH   8  24
TORSDOF 5
ENDMDL
MODEL 7
REMARK VINA RESULT:    -6.094      2.081      7.107
REMARK INTER + INTRA:          -7.477
REMARK INTER:                  -7.197
REMARK INTRA:                  -0.279
REMARK UNBOUND:                -0.314
REMARK SMILES O=c1cc(-c2ccc(O)c(O)c2)oc2cc(O)cc(O)c12
REMARK SMILES IDX 4 1 3 2 2 3 1 4 21 5 19 6 18 7 16 8 15 9 14 10 13 11 5 12
REMARK SMILES IDX 6 13 7 14 8 15 12 16 10 17 9 18 11 20 20 22 17 24
REMARK H PARENT 9 19 11 21 20 23 17 25
REMARK Flexibility Score: inf
ROOT
ATOM      1  C   UNL     1      17.947  30.344  32.254  1.00  0.00     0.138 A 
ATOM      2  C   UNL     1      18.479  29.662  33.362  1.00  0.00     0.100 A 
ATOM      3  C   UNL     1      18.263  30.166  34.646  1.00  0.00     0.197 A 
ATOM      4  O   UNL     1      18.742  29.547  35.634  1.00  0.00    -0.289 OA
ATOM      5  C   UNL     1      17.513  31.347  34.813  1.00  0.00     0.107 A 
ATOM      6  C   UNL     1      17.249  31.925  36.077  1.00  0.00     0.134 A 
ATOM      7  C   UNL     1      16.489  33.101  36.159  1.00  0.00     0.093 A 
ATOM      8  C   UNL     1      15.989  33.708  35.001  1.00  0.00     0.123 A 
ATOM      9  C   UNL     1      16.246  33.142  33.751  1.00  0.00     0.094 A 
ATOM     10  C   UNL     1      17.003  31.970  33.649  1.00  0.00     0.146 A 
ATOM     11  O   UNL     1      17.236  31.452  32.447  1.00  0.00    -0.456 OA
ENDROOT
BRANCH   1  12
ATOM     12  C   UNL     1      18.145  29.854  30.867  1.00  0.00     0.021 A 
ATOM     13  C   UNL     1      18.376  30.737  29.795  1.00  0.00     0.016 A 
ATOM     14  C   UNL     1      18.548  30.248  28.498  1.00  0.00     0.051 A 
ATOM     15  C   UNL     1      18.485  28.875  28.244  1.00  0.00     0.157 A 
ATOM     16  C   UNL     1      18.070  28.474  30.603  1.00  0.00     0.062 A 
ATOM     17  C   UNL     1      18.243  27.982  29.301  1.00  0.00     0.158 A 
BRANCH  15  18
ATOM     18  O   UNL     1      18.662  28.417  26.940  1.00  0.00    -0.504 OA
ATOM     19  H   UNL     1      18.229  28.875  26.145  1.00  0.00     0.293 HD
ENDBRANCH  15  18
BRANCH  17  20
ATOM     20  O   UNL     1      18.175  26.612  29.055  1.00  0.00    -0.504 OA
ATOM     21  H   UNL     1      18.651  25.941  29.648  1.00  0.00     0.293 HD
ENDBRANCH  17  20
ENDBRANCH   1  12
BRANCH   6  22
ATOM     22  O   UNL     1      17.735  31.341  37.249  1.00  0.00    -0.507 OA
ATOM     23  H   UNL     1      18.385  30.565  37.227  1.00  0.00     0.293 HD
ENDBRANCH   6  22
BRANCH   8  24
ATOM     24  O   UNL     1      15.233  34.876  35.082  1.00  0.00    -0.508 OA
ATOM     25  H   UNL     1      14.528  35.002  35.799  1.00  0.00     0.293 HD
ENDBRANCH   8  24
TORSDOF 5
ENDMDL
MODEL 8
REMARK VINA RESULT:    -5.929      2.879      7.594
REMARK INTER + INTRA:          -7.283
REMARK INTER:                  -7.012
REMARK INTRA:                  -0.271
REMARK UNBOUND:                -0.314
REMARK SMILES O=c1cc(-c2ccc(O)c(O)c2)oc2cc(O)cc(O)c12
REMARK SMILES IDX 4 1 3 2 2 3 1 4 21 5 19 6 18 7 16 8 15 9 14 10 13 11 5 12
REMARK SMILES IDX 6 13 7 14 8 15 12 16 10 17 9 18 11 20 20 22 17 24
REMARK H PARENT 9 19 11 21 20 23 17 25
REMARK Flexibility Score: inf
ROOT
ATOM      1  C   UNL     1      18.363  29.313  30.490  1.00  0.00     0.138 A 
ATOM      2  C   UNL     1      18.646  30.568  29.926  1.00  0.00     0.100 A 
ATOM      3  C   UNL     1      18.403  31.725  30.669  1.00  0.00     0.197 A 
ATOM      4  O   UNL     1      18.662  32.846  30.156  1.00  0.00    -0.289 OA
ATOM      5  C   UNL     1      17.879  31.616  31.973  1.00  0.00     0.107 A 
ATOM      6  C   UNL     1      17.602  32.736  32.792  1.00  0.00     0.134 A 
ATOM      7  C   UNL     1      17.085  32.543  34.082  1.00  0.00     0.093 A 
ATOM      8  C   UNL     1      16.843  31.252  34.567  1.00  0.00     0.123 A 
ATOM      9  C   UNL     1      17.115  30.144  33.762  1.00  0.00     0.094 A 
ATOM     10  C   UNL     1      17.629  30.316  32.473  1.00  0.00     0.146 A 
ATOM     11  O   UNL     1      17.878  29.244  31.727  1.00  0.00    -0.456 OA
ENDROOT
BRANCH   1  12
ATOM     12  C   UNL     1      18.603  28.050  29.746  1.00  0.00     0.021 A 
ATOM     13  C   UNL     1      19.366  27.002  30.293  1.00  0.00     0.016 A 
ATOM     14  C   UNL     1      19.584  25.829  29.566  1.00  0.00     0.051 A 
ATOM     15  C   UNL     1      19.053  25.683  28.281  1.00  0.00     0.157 A 
ATOM     16  C   UNL     1      18.082  27.902  28.447  1.00  0.00     0.062 A 
ATOM     17  C   UNL     1      18.300  26.725  27.717  1.00  0.00     0.158 A 
BRANCH  15  18
ATOM     18  O   UNL     1      19.287  24.500  27.581  1.00  0.00    -0.504 OA
ATOM     19  H   UNL     1      19.451  24.490  26.581  1.00  0.00     0.293 HD
ENDBRANCH  15  18
BRANCH  17  20
ATOM     20  O   UNL     1      17.771  26.588  26.434  1.00  0.00    -0.504 OA
ATOM     21  H   UNL     1      17.891  27.308  25.731  1.00  0.00     0.293 HD
ENDBRANCH  17  20
ENDBRANCH   1  12
BRANCH   6  22
ATOM     22  O   UNL     1      17.834  34.034  32.335  1.00  0.00    -0.507 OA
ATOM     23  H   UNL     1      18.761  34.443  32.341  1.00  0.00     0.293 HD
ENDBRANCH   6  22
BRANCH   8  24
ATOM     24  O   UNL     1      16.330  31.060  35.848  1.00  0.00    -0.508 OA
ATOM     25  H   UNL     1      16.862  31.310  36.674  1.00  0.00     0.293 HD
ENDBRANCH   8  24
TORSDOF 5
ENDMDL
MODEL 9
REMARK VINA RESULT:    -5.904      2.572      3.959
REMARK INTER + INTRA:          -7.254
REMARK INTER:                  -6.959
REMARK INTRA:                  -0.295
REMARK UNBOUND:                -0.314
REMARK SMILES O=c1cc(-c2ccc(O)c(O)c2)oc2cc(O)cc(O)c12
REMARK SMILES IDX 4 1 3 2 2 3 1 4 21 5 19 6 18 7 16 8 15 9 14 10 13 11 5 12
REMARK SMILES IDX 6 13 7 14 8 15 12 16 10 17 9 18 11 20 20 22 17 24
REMARK H PARENT 9 19 11 21 20 23 17 25
REMARK Flexibility Score: inf
ROOT
ATOM      1  C   UNL     1      18.395  28.742  31.489  1.00  0.00     0.138 A 
ATOM      2  C   UNL     1      18.017  29.198  30.215  1.00  0.00     0.100 A 
ATOM      3  C   UNL     1      18.454  28.511  29.081  1.00  0.00     0.197 A 
ATOM      4  O   UNL     1      18.108  28.927  27.943  1.00  0.00    -0.289 OA
ATOM      5  C   UNL     1      19.266  27.369  29.230  1.00  0.00     0.107 A 
ATOM      6  C   UNL     1      19.753  26.617  28.136  1.00  0.00     0.134 A 
ATOM      7  C   UNL     1      20.553  25.488  28.370  1.00  0.00     0.093 A 
ATOM      8  C   UNL     1      20.872  25.099  29.675  1.00  0.00     0.123 A 
ATOM      9  C   UNL     1      20.394  25.838  30.759  1.00  0.00     0.094 A 
ATOM     10  C   UNL     1      19.597  26.967  30.547  1.00  0.00     0.146 A 
ATOM     11  O   UNL     1      19.155  27.654  31.596  1.00  0.00    -0.456 OA
ENDROOT
BRANCH   1  12
ATOM     12  C   UNL     1      17.958  29.432  32.728  1.00  0.00     0.021 A 
ATOM     13  C   UNL     1      18.222  28.900  34.005  1.00  0.00     0.016 A 
ATOM     14  C   UNL     1      17.790  29.568  35.154  1.00  0.00     0.051 A 
ATOM     15  C   UNL     1      17.083  30.769  35.052  1.00  0.00     0.157 A 
ATOM     16  C   UNL     1      17.235  30.635  32.632  1.00  0.00     0.062 A 
ATOM     17  C   UNL     1      16.802  31.306  33.785  1.00  0.00     0.158 A 
BRANCH  15  18
ATOM     18  O   UNL     1      16.666  31.412  36.216  1.00  0.00    -0.504 OA
ATOM     19  H   UNL     1      15.686  31.519  36.451  1.00  0.00     0.293 HD
ENDBRANCH  15  18
BRANCH  17  20
ATOM     20  O   UNL     1      16.094  32.502  33.675  1.00  0.00    -0.504 OA
ATOM     21  H   UNL     1      15.207  32.551  33.187  1.00  0.00     0.293 HD
ENDBRANCH  17  20
ENDBRANCH   1  12
BRANCH   6  22
ATOM     22  O   UNL     1      19.450  26.981  26.823  1.00  0.00    -0.507 OA
ATOM     23  H   UNL     1      19.446  27.950  26.526  1.00  0.00     0.293 HD
ENDBRANCH   6  22
BRANCH   8  24
ATOM     24  O   UNL     1      21.667  23.977  29.908  1.00  0.00    -0.508 OA
ATOM     25  H   UNL     1      21.566  23.134  29.354  1.00  0.00     0.293 HD
ENDBRANCH   8  24
TORSDOF 5
ENDMDL
