MODEL 1
REMARK VINA RESULT:    -3.440      0.000      0.000
REMARK INTER + INTRA:          -5.799
REMARK INTER:                  -5.250
REMARK INTRA:                  -0.548
REMARK UNBOUND:                -0.548
REMARK SMILES O=C([O-])CCCCCCCCC(=O)[O-]
REMARK SMILES IDX 7 1 6 2 5 3 4 4 2 5 1 6 3 7 8 8 9 9 10 10 11 11 12 12 13 13
REMARK SMILES IDX 14 14
REMARK H PARENT
REMARK Flexibility Score: inf
ROOT
ATOM      1  C   UNL     1       6.355  43.828   9.916  1.00  0.00     0.000 C 
ENDROOT
BRANCH   1   2
ATOM      2  C   UNL     1       7.870  43.881  10.202  1.00  0.00     0.000 C 
BRANCH   2   3
ATOM      3  C   UNL     1       8.292  43.385  11.600  1.00  0.00     0.006 C 
BRANCH   3   4
ATOM      4  C   UNL     1       7.548  42.128  12.076  1.00  0.00     0.053 C 
BRANCH   4   5
ATOM      5  C   UNL     1       6.829  42.361  13.369  1.00  0.00     0.041 C 
ATOM      6  O   UNL     1       7.070  41.634  14.368  1.00  0.00    -0.550 OA
ATOM      7  O   UNL     1       5.915  43.401  13.479  1.00  0.00    -0.550 OA
ENDBRANCH   4   5
ENDBRANCH   3   4
ENDBRANCH   2   3
ENDBRANCH   1   2
BRANCH   1   8
ATOM      8  C   UNL     1       5.585  45.124  10.220  1.00  0.00     0.000 C 
BRANCH   8   9
ATOM      9  C   UNL     1       4.224  44.867  10.889  1.00  0.00     0.000 C 
BRANCH   9  10
ATOM     10  C   UNL     1       3.131  44.489   9.875  1.00  0.00     0.006 C 
BRANCH  10  11
ATOM     11  C   UNL     1       2.662  43.036  10.025  1.00  0.00     0.053 C 
BRANCH  11  12
ATOM     12  C   UNL     1       1.383  42.979  10.800  1.00  0.00     0.041 C 
ATOM     13  O   UNL     1       0.392  42.348  10.342  1.00  0.00    -0.550 OA
ATOM     14  O   UNL     1       1.299  43.577  12.050  1.00  0.00    -0.550 OA
ENDBRANCH  11  12
ENDBRANCH  10  11
ENDBRANCH   9  10
ENDBRANCH   8   9
ENDBRANCH   1   8
TORSDOF 9
ENDMDL
MODEL 2
REMARK VINA RESULT:    -3.142      1.736      2.627
REMARK INTER + INTRA:          -5.344
REMARK INTER:                  -4.963
REMARK INTRA:                  -0.381
REMARK UNBOUND:                -0.548
REMARK SMILES O=C([O-])CCCCCCCCC(=O)[O-]
REMARK SMILES IDX 7 1 6 2 5 3 4 4 2 5 1 6 3 7 8 8 9 9 10 10 11 11 12 12 13 13
REMARK SMILES IDX 14 14
REMARK H PARENT
REMARK Flexibility Score: inf
ROOT
ATOM      1  C   UNL     1       4.853  43.609  12.708  1.00  0.00     0.000 C 
ENDROOT
BRANCH   1   2
ATOM      2  C   UNL     1       6.121  43.388  13.558  1.00  0.00     0.000 C 
BRANCH   2   3
ATOM      3  C   UNL     1       7.197  42.494  12.909  1.00  0.00     0.006 C 
BRANCH   3   4
ATOM      4  C   UNL     1       8.209  43.253  12.037  1.00  0.00     0.053 C 
BRANCH   4   5
ATOM      5  C   UNL     1       7.731  43.399  10.625  1.00  0.00     0.041 C 
ATOM      6  O   UNL     1       8.128  44.362   9.918  1.00  0.00    -0.550 OA
ATOM      7  O   UNL     1       6.872  42.453  10.080  1.00  0.00    -0.550 OA
ENDBRANCH   4   5
ENDBRANCH   3   4
ENDBRANCH   2   3
ENDBRANCH   1   2
BRANCH   1   8
ATOM      8  C   UNL     1       4.729  45.002  12.066  1.00  0.00     0.000 C 
BRANCH   8   9
ATOM      9  C   UNL     1       4.721  44.952  10.529  1.00  0.00     0.000 C 
BRANCH   9  10
ATOM     10  C   UNL     1       3.310  44.752   9.952  1.00  0.00     0.006 C 
BRANCH  10  11
ATOM     11  C   UNL     1       2.863  43.285   9.978  1.00  0.00     0.053 C 
BRANCH  11  12
ATOM     12  C   UNL     1       1.615  43.135  10.791  1.00  0.00     0.041 C 
ATOM     13  O   UNL     1       1.550  43.625  11.949  1.00  0.00    -0.550 OA
ATOM     14  O   UNL     1       0.506  42.497  10.250  1.00  0.00    -0.550 OA
ENDBRANCH  11  12
ENDBRANCH  10  11
ENDBRANCH   9  10
ENDBRANCH   8   9
ENDBRANCH   1   8
TORSDOF 9
ENDMDL
MODEL 3
REMARK VINA RESULT:    -3.037      1.562      1.987
REMARK INTER + INTRA:          -5.183
REMARK INTER:                  -4.961
REMARK INTRA:                  -0.222
REMARK UNBOUND:                -0.548
REMARK SMILES O=C([O-])CCCCCCCCC(=O)[O-]
REMARK SMILES IDX 7 1 6 2 5 3 4 4 2 5 1 6 3 7 8 8 9 9 10 10 11 11 12 12 13 13
REMARK SMILES IDX 14 14
REMARK H PARENT
REMARK Flexibility Score: inf
ROOT
ATOM      1  C   UNL     1       5.458  44.201  12.719  1.00  0.00     0.000 C 
ENDROOT
BRANCH   1   2
ATOM      2  C   UNL     1       6.440  45.114  11.953  1.00  0.00     0.000 C 
BRANCH   2   3
ATOM      3  C   UNL     1       7.577  44.379  11.216  1.00  0.00     0.006 C 
BRANCH   3   4
ATOM      4  C   UNL     1       7.136  43.107  10.476  1.00  0.00     0.053 C 
BRANCH   4   5
ATOM      5  C   UNL     1       7.514  41.867  11.224  1.00  0.00     0.041 C 
ATOM      6  O   UNL     1       7.618  40.768  10.617  1.00  0.00    -0.550 OA
ATOM      7  O   UNL     1       7.782  41.929  12.585  1.00  0.00    -0.550 OA
ENDBRANCH   4   5
ENDBRANCH   3   4
ENDBRANCH   2   3
ENDBRANCH   1   2
BRANCH   1   8
ATOM      8  C   UNL     1       4.072  44.041  12.071  1.00  0.00     0.000 C 
BRANCH   8   9
ATOM      9  C   UNL     1       3.893  44.915  10.818  1.00  0.00     0.000 C 
BRANCH   9  10
ATOM     10  C   UNL     1       2.803  44.379   9.875  1.00  0.00     0.006 C 
BRANCH  10  11
ATOM     11  C   UNL     1       2.415  42.928  10.186  1.00  0.00     0.053 C 
BRANCH  11  12
ATOM     12  C   UNL     1       1.085  42.880  10.872  1.00  0.00     0.041 C 
ATOM     13  O   UNL     1       0.170  42.135  10.429  1.00  0.00    -0.550 OA
ATOM     14  O   UNL     1       0.872  43.618  12.029  1.00  0.00    -0.550 OA
ENDBRANCH  11  12
ENDBRANCH  10  11
ENDBRANCH   9  10
ENDBRANCH   8   9
ENDBRANCH   1   8
TORSDOF 9
ENDMDL
MODEL 4
REMARK VINA RESULT:    -2.965      0.580      5.308
REMARK INTER + INTRA:          -5.074
REMARK INTER:                  -4.625
REMARK INTRA:                  -0.448
REMARK UNBOUND:                -0.548
REMARK SMILES O=C([O-])CCCCCCCCC(=O)[O-]
REMARK SMILES IDX 7 1 6 2 5 3 4 4 2 5 1 6 3 7 8 8 9 9 10 10 11 11 12 12 13 13
REMARK SMILES IDX 14 14
REMARK H PARENT
REMARK Flexibility Score: inf
ROOT
ATOM      1  C   UNL     1       5.652  45.125  10.923  1.00  0.00     0.000 C 
ENDROOT
BRANCH   1   2
ATOM      2  C   UNL     1       4.244  44.852  10.353  1.00  0.00     0.000 C 
BRANCH   2   3
ATOM      3  C   UNL     1       3.585  43.543  10.832  1.00  0.00     0.006 C 
BRANCH   3   4
ATOM      4  C   UNL     1       2.397  43.081   9.974  1.00  0.00     0.053 C 
BRANCH   4   5
ATOM      5  C   UNL     1       1.143  42.949  10.781  1.00  0.00     0.041 C 
ATOM      6  O   UNL     1       0.145  42.346  10.308  1.00  0.00    -0.550 OA
ATOM      7  O   UNL     1       1.088  43.466  12.070  1.00  0.00    -0.550 OA
ENDBRANCH   4   5
ENDBRANCH   3   4
ENDBRANCH   2   3
ENDBRANCH   1   2
BRANCH   1   8
ATOM      8  C   UNL     1       6.815  44.869   9.949  1.00  0.00     0.000 C 
BRANCH   8   9
ATOM      9  C   UNL     1       7.599  43.588  10.280  1.00  0.00     0.000 C 
BRANCH   9  10
ATOM     10  C   UNL     1       8.018  43.518  11.758  1.00  0.00     0.006 C 
BRANCH  10  11
ATOM     11  C   UNL     1       7.658  42.178  12.412  1.00  0.00     0.053 C 
BRANCH  11  12
ATOM     12  C   UNL     1       6.719  42.392  13.557  1.00  0.00     0.041 C 
ATOM     13  O   UNL     1       6.763  41.636  14.563  1.00  0.00    -0.550 OA
ATOM     14  O   UNL     1       5.828  43.458  13.536  1.00  0.00    -0.550 OA
ENDBRANCH  11  12
ENDBRANCH  10  11
ENDBRANCH   9  10
ENDBRANCH   8   9
ENDBRANCH   1   8
TORSDOF 9
ENDMDL
MODEL 5
REMARK VINA RESULT:    -2.949      1.029      1.696
REMARK INTER + INTRA:          -5.050
REMARK INTER:                  -4.415
REMARK INTRA:                  -0.635
REMARK UNBOUND:                -0.548
REMARK SMILES O=C([O-])CCCCCCCCC(=O)[O-]
REMARK SMILES IDX 7 1 6 2 5 3 4 4 2 5 1 6 3 7 8 8 9 9 10 10 11 11 12 12 13 13
REMARK SMILES IDX 14 14
REMARK H PARENT
REMARK Flexibility Score: inf
ROOT
ATOM      1  C   UNL     1       6.829  42.020  10.224  1.00  0.00     0.000 C 
ENDROOT
BRANCH   1   2
ATOM      2  C   UNL     1       7.677  43.228  10.673  1.00  0.00     0.000 C 
BRANCH   2   3
ATOM      3  C   UNL     1       8.005  43.275  12.179  1.00  0.00     0.006 C 
BRANCH   3   4
ATOM      4  C   UNL     1       7.246  42.241  13.025  1.00  0.00     0.053 C 
BRANCH   4   5
ATOM      5  C   UNL     1       6.042  42.837  13.687  1.00  0.00     0.041 C 
ATOM      6  O   UNL     1       5.464  43.831  13.174  1.00  0.00    -0.550 OA
ATOM      7  O   UNL     1       5.540  42.275  14.854  1.00  0.00    -0.550 OA
ENDBRANCH   4   5
ENDBRANCH   3   4
ENDBRANCH   2   3
ENDBRANCH   1   2
BRANCH   1   8
ATOM      8  C   UNL     1       5.365  42.342   9.875  1.00  0.00     0.000 C 
BRANCH   8   9
ATOM      9  C   UNL     1       5.066  43.850   9.886  1.00  0.00     0.000 C 
BRANCH   9  10
ATOM     10  C   UNL     1       3.563  44.153  10.009  1.00  0.00     0.006 C 
BRANCH  10  11
ATOM     11  C   UNL     1       2.701  42.884   9.991  1.00  0.00     0.053 C 
BRANCH  11  12
ATOM     12  C   UNL     1       1.504  43.055  10.872  1.00  0.00     0.041 C 
ATOM     13  O   UNL     1       1.592  43.716  11.941  1.00  0.00    -0.550 OA
ATOM     14  O   UNL     1       0.277  42.528  10.489  1.00  0.00    -0.550 OA
ENDBRANCH  11  12
ENDBRANCH  10  11
ENDBRANCH   9  10
ENDBRANCH   8   9
ENDBRANCH   1   8
TORSDOF 9
ENDMDL
MODEL 6
REMARK VINA RESULT:    -2.351      0.806      5.001
REMARK INTER + INTRA:          -4.136
REMARK INTER:                  -3.592
REMARK INTRA:                  -0.544
REMARK UNBOUND:                -0.548
REMARK SMILES O=C([O-])CCCCCCCCC(=O)[O-]
REMARK SMILES IDX 7 1 6 2 5 3 4 4 2 5 1 6 3 7 8 8 9 9 10 10 11 11 12 12 13 13
REMARK SMILES IDX 14 14
REMARK H PARENT
REMARK Flexibility Score: inf
ROOT
ATOM      1  C   UNL     1       5.776  43.978   9.903  1.00  0.00     0.000 C 
ENDROOT
BRANCH   1   2
ATOM      2  C   UNL     1       4.715  45.094   9.985  1.00  0.00     0.000 C 
BRANCH   2   3
ATOM      3  C   UNL     1       3.252  44.618   9.875  1.00  0.00     0.006 C 
BRANCH   3   4
ATOM      4  C   UNL     1       2.979  43.255  10.530  1.00  0.00     0.053 C 
BRANCH   4   5
ATOM      5  C   UNL     1       1.585  43.165  11.069  1.00  0.00     0.041 C 
ATOM      6  O   UNL     1       0.724  42.455  10.485  1.00  0.00    -0.550 OA
ATOM      7  O   UNL     1       1.244  43.839  12.235  1.00  0.00    -0.550 OA
ENDBRANCH   4   5
ENDBRANCH   3   4
ENDBRANCH   2   3
ENDBRANCH   1   2
BRANCH   1   8
ATOM      8  C   UNL     1       7.204  44.402  10.287  1.00  0.00     0.000 C 
BRANCH   8   9
ATOM      9  C   UNL     1       8.075  43.220  10.747  1.00  0.00     0.000 C 
BRANCH   9  10
ATOM     10  C   UNL     1       7.294  42.212  11.606  1.00  0.00     0.006 C 
BRANCH  10  11
ATOM     11  C   UNL     1       7.392  42.514  13.107  1.00  0.00     0.053 C 
BRANCH  11  12
ATOM     12  C   UNL     1       6.064  42.957  13.637  1.00  0.00     0.041 C 
ATOM     13  O   UNL     1       5.536  44.019  13.214  1.00  0.00    -0.550 OA
ATOM     14  O   UNL     1       5.387  42.172  14.560  1.00  0.00    -0.550 OA
ENDBRANCH  11  12
ENDBRANCH  10  11
ENDBRANCH   9  10
ENDBRANCH   8   9
ENDBRANCH   1   8
TORSDOF 9
ENDMDL
MODEL 7
REMARK VINA RESULT:    -1.333      2.741      3.792
REMARK INTER + INTRA:          -2.583
REMARK INTER:                  -2.221
REMARK INTRA:                  -0.362
REMARK UNBOUND:                -0.548
REMARK SMILES O=C([O-])CCCCCCCCC(=O)[O-]
REMARK SMILES IDX 7 1 6 2 5 3 4 4 2 5 1 6 3 7 8 8 9 9 10 10 11 11 12 12 13 13
REMARK SMILES IDX 14 14
REMARK H PARENT
REMARK Flexibility Score: inf
ROOT
ATOM      1  C   UNL     1       2.701  44.133   9.949  1.00  0.00     0.000 C 
ENDROOT
BRANCH   1   2
ATOM      2  C   UNL     1       4.028  44.787  10.387  1.00  0.00     0.000 C 
BRANCH   2   3
ATOM      3  C   UNL     1       5.154  43.800  10.757  1.00  0.00     0.006 C 
BRANCH   3   4
ATOM      4  C   UNL     1       5.923  44.167  12.035  1.00  0.00     0.053 C 
BRANCH   4   5
ATOM      5  C   UNL     1       6.857  43.076  12.458  1.00  0.00     0.041 C 
ATOM      6  O   UNL     1       6.706  42.508  13.571  1.00  0.00    -0.550 OA
ATOM      7  O   UNL     1       7.875  42.663  11.607  1.00  0.00    -0.550 OA
ENDBRANCH   4   5
ENDBRANCH   3   4
ENDBRANCH   2   3
ENDBRANCH   1   2
BRANCH   1   8
ATOM      8  C   UNL     1       2.032  43.236  11.005  1.00  0.00     0.000 C 
BRANCH   8   9
ATOM      9  C   UNL     1       1.671  43.996  12.292  1.00  0.00     0.000 C 
BRANCH   9  10
ATOM     10  C   UNL     1       0.227  43.731  12.749  1.00  0.00     0.006 C 
BRANCH  10  11
ATOM     11  C   UNL     1      -0.215  44.663  13.885  1.00  0.00     0.053 C 
BRANCH  11  12
ATOM     12  C   UNL     1      -1.557  44.252  14.403  1.00  0.00     0.041 C 
ATOM     13  O   UNL     1      -2.384  45.124  14.782  1.00  0.00    -0.550 OA
ATOM     14  O   UNL     1      -1.916  42.910  14.421  1.00  0.00    -0.550 OA
ENDBRANCH  11  12
ENDBRANCH  10  11
ENDBRANCH   9  10
ENDBRANCH   8   9
ENDBRANCH   1   8
TORSDOF 9
ENDMDL
MODEL 8
REMARK VINA RESULT:    -1.312      2.835      6.621
REMARK INTER + INTRA:          -2.550
REMARK INTER:                  -2.149
REMARK INTRA:                  -0.401
REMARK UNBOUND:                -0.548
REMARK SMILES O=C([O-])CCCCCCCCC(=O)[O-]
REMARK SMILES IDX 7 1 6 2 5 3 4 4 2 5 1 6 3 7 8 8 9 9 10 10 11 11 12 12 13 13
REMARK SMILES IDX 14 14
REMARK H PARENT
REMARK Flexibility Score: inf
ROOT
ATOM      1  C   UNL     1       1.626  43.228  10.840  1.00  0.00     0.000 C 
ENDROOT
BRANCH   1   2
ATOM      2  C   UNL     1       1.382  43.942  12.186  1.00  0.00     0.000 C 
BRANCH   2   3
ATOM      3  C   UNL     1       0.058  43.579  12.889  1.00  0.00     0.006 C 
BRANCH   3   4
ATOM      4  C   UNL     1      -0.452  44.647  13.869  1.00  0.00     0.053 C 
BRANCH   4   5
ATOM      5  C   UNL     1      -1.735  44.237  14.523  1.00  0.00     0.041 C 
ATOM      6  O   UNL     1      -2.478  45.101  15.058  1.00  0.00    -0.550 OA
ATOM      7  O   UNL     1      -2.126  42.904  14.514  1.00  0.00    -0.550 OA
ENDBRANCH   4   5
ENDBRANCH   3   4
ENDBRANCH   2   3
ENDBRANCH   1   2
BRANCH   1   8
ATOM      8  C   UNL     1       3.062  43.330  10.296  1.00  0.00     0.000 C 
BRANCH   8   9
ATOM      9  C   UNL     1       3.589  44.775  10.267  1.00  0.00     0.000 C 
BRANCH   9  10
ATOM     10  C   UNL     1       5.035  44.886  10.775  1.00  0.00     0.006 C 
BRANCH  10  11
ATOM     11  C   UNL     1       5.349  43.880  11.890  1.00  0.00     0.053 C 
BRANCH  11  12
ATOM     12  C   UNL     1       6.825  43.648  11.982  1.00  0.00     0.041 C 
ATOM     13  O   UNL     1       7.626  44.412  11.381  1.00  0.00    -0.550 OA
ATOM     14  O   UNL     1       7.319  42.619  12.774  1.00  0.00    -0.550 OA
ENDBRANCH  11  12
ENDBRANCH  10  11
ENDBRANCH   9  10
ENDBRANCH   8   9
ENDBRANCH   1   8
TORSDOF 9
ENDMDL
MODEL 9
REMARK VINA RESULT:    -0.936      2.018      5.571
REMARK INTER + INTRA:          -1.976
REMARK INTER:                  -1.473
REMARK INTRA:                  -0.503
REMARK UNBOUND:                -0.548
REMARK SMILES O=C([O-])CCCCCCCCC(=O)[O-]
REMARK SMILES IDX 7 1 6 2 5 3 4 4 2 5 1 6 3 7 8 8 9 9 10 10 11 11 12 12 13 13
REMARK SMILES IDX 14 14
REMARK H PARENT
REMARK Flexibility Score: inf
ROOT
ATOM      1  C   UNL     1       4.550  42.748  13.425  1.00  0.00     0.000 C 
ENDROOT
BRANCH   1   2
ATOM      2  C   UNL     1       3.492  43.656  12.762  1.00  0.00     0.000 C 
BRANCH   2   3
ATOM      3  C   UNL     1       4.016  44.541  11.613  1.00  0.00     0.006 C 
BRANCH   3   4
ATOM      4  C   UNL     1       3.152  44.507  10.343  1.00  0.00     0.053 C 
BRANCH   4   5
ATOM      5  C   UNL     1       2.547  43.157  10.114  1.00  0.00     0.041 C 
ATOM      6  O   UNL     1       1.296  43.015  10.110  1.00  0.00    -0.550 OA
ATOM      7  O   UNL     1       3.365  42.060   9.875  1.00  0.00    -0.550 OA
ENDBRANCH   4   5
ENDBRANCH   3   4
ENDBRANCH   2   3
ENDBRANCH   1   2
BRANCH   1   8
ATOM      8  C   UNL     1       5.957  43.359  13.543  1.00  0.00     0.000 C 
BRANCH   8   9
ATOM      9  C   UNL     1       7.072  42.301  13.512  1.00  0.00     0.000 C 
BRANCH   9  10
ATOM     10  C   UNL     1       7.641  42.086  12.100  1.00  0.00     0.006 C 
BRANCH  10  11
ATOM     11  C   UNL     1       8.398  43.312  11.574  1.00  0.00     0.053 C 
BRANCH  11  12
ATOM     12  C   UNL     1       7.647  43.943  10.443  1.00  0.00     0.041 C 
ATOM     13  O   UNL     1       8.102  44.971   9.875  1.00  0.00    -0.550 OA
ATOM     14  O   UNL     1       6.470  43.366   9.983  1.00  0.00    -0.550 OA
ENDBRANCH  11  12
ENDBRANCH  10  11
ENDBRANCH   9  10
ENDBRANCH   8   9
ENDBRANCH   1   8
TORSDOF 9
ENDMDL
