MODEL 1
REMARK VINA RESULT:    -2.027      0.000      0.000
REMARK INTER + INTRA:          -2.582
REMARK INTER:                  -2.501
REMARK INTRA:                  -0.082
REMARK UNBOUND:                -0.082
REMARK SMILES CCCCCC(=O)[O-]
REMARK SMILES IDX 4 1 5 2 6 3 7 4 8 5 3 6 2 7 1 8
REMARK H PARENT
REMARK Flexibility Score: inf
ROOT
ATOM      1  C   UNL     1     -16.292 -23.382  31.867  1.00  0.00     0.006 C 
ENDROOT
BRANCH   1   2
ATOM      2  C   UNL     1     -16.324 -21.890  31.495  1.00  0.00     0.053 C 
BRANCH   2   3
ATOM      3  C   UNL     1     -17.681 -21.290  31.697  1.00  0.00     0.041 C 
ATOM      4  O   UNL     1     -17.794 -20.111  32.125  1.00  0.00    -0.550 OA
ATOM      5  O   UNL     1     -18.819 -22.021  31.381  1.00  0.00    -0.550 OA
ENDBRANCH   2   3
ENDBRANCH   1   2
BRANCH   1   6
ATOM      6  C   UNL     1     -14.876 -23.978  31.967  1.00  0.00     0.000 C 
BRANCH   6   7
ATOM      7  C   UNL     1     -14.876 -25.514  31.938  1.00  0.00    -0.003 C 
ATOM      8  C   UNL     1     -15.919 -26.044  30.956  1.00  0.00     0.004 C 
ENDBRANCH   6   7
ENDBRANCH   1   6
TORSDOF 4
ENDMDL
MODEL 2
REMARK VINA RESULT:    -1.941     26.270     27.311
REMARK INTER + INTRA:          -2.477
REMARK INTER:                  -2.360
REMARK INTRA:                  -0.116
REMARK UNBOUND:                -0.082
REMARK SMILES CCCCCC(=O)[O-]
REMARK SMILES IDX 4 1 5 2 6 3 7 4 8 5 3 6 2 7 1 8
REMARK H PARENT
REMARK Flexibility Score: inf
ROOT
ATOM      1  C   UNL     1     -31.999 -35.025  12.187  1.00  0.00     0.006 C 
ENDROOT
BRANCH   1   2
ATOM      2  C   UNL     1     -33.437 -35.561  12.273  1.00  0.00     0.053 C 
BRANCH   2   3
ATOM      3  C   UNL     1     -34.088 -35.218  13.578  1.00  0.00     0.041 C 
ATOM      4  O   UNL     1     -34.697 -34.125  13.713  1.00  0.00    -0.550 OA
ATOM      5  O   UNL     1     -34.049 -36.121  14.634  1.00  0.00    -0.550 OA
ENDBRANCH   2   3
ENDBRANCH   1   2
BRANCH   1   6
ATOM      6  C   UNL     1     -30.960 -35.876  12.941  1.00  0.00     0.000 C 
BRANCH   6   7
ATOM      7  C   UNL     1     -29.603 -35.171  13.078  1.00  0.00    -0.003 C 
ATOM      8  C   UNL     1     -29.579 -33.867  12.284  1.00  0.00     0.004 C 
ENDBRANCH   6   7
ENDBRANCH   1   6
TORSDOF 4
ENDMDL
MODEL 3
REMARK VINA RESULT:    -1.925     26.531     27.404
REMARK INTER + INTRA:          -2.456
REMARK INTER:                  -2.247
REMARK INTRA:                  -0.210
REMARK UNBOUND:                -0.082
REMARK SMILES CCCCCC(=O)[O-]
REMARK SMILES IDX 4 1 5 2 6 3 7 4 8 5 3 6 2 7 1 8
REMARK H PARENT
REMARK Flexibility Score: inf
ROOT
ATOM      1  C   UNL     1     -34.345 -34.546  13.498  1.00  0.00     0.006 C 
ENDROOT
BRANCH   1   2
ATOM      2  C   UNL     1     -34.508 -35.779  14.403  1.00  0.00     0.053 C 
BRANCH   2   3
ATOM      3  C   UNL     1     -33.683 -35.675  15.648  1.00  0.00     0.041 C 
ATOM      4  O   UNL     1     -32.503 -35.239  15.591  1.00  0.00    -0.550 OA
ATOM      5  O   UNL     1     -34.229 -36.028  16.876  1.00  0.00    -0.550 OA
ENDBRANCH   2   3
ENDBRANCH   1   2
BRANCH   1   6
ATOM      6  C   UNL     1     -33.767 -34.856  12.105  1.00  0.00     0.000 C 
BRANCH   6   7
ATOM      7  C   UNL     1     -32.393 -34.207  11.875  1.00  0.00    -0.003 C 
ATOM      8  C   UNL     1     -31.266 -35.142  12.307  1.00  0.00     0.004 C 
ENDBRANCH   6   7
ENDBRANCH   1   6
TORSDOF 4
ENDMDL
MODEL 4
REMARK VINA RESULT:    -1.921      1.094      1.974
REMARK INTER + INTRA:          -2.452
REMARK INTER:                  -2.380
REMARK INTRA:                  -0.071
REMARK UNBOUND:                -0.082
REMARK SMILES CCCCCC(=O)[O-]
REMARK SMILES IDX 4 1 5 2 6 3 7 4 8 5 3 6 2 7 1 8
REMARK H PARENT
REMARK Flexibility Score: inf
ROOT
ATOM      1  C   UNL     1     -16.998 -21.951  31.183  1.00  0.00     0.006 C 
ENDROOT
BRANCH   1   2
ATOM      2  C   UNL     1     -17.593 -20.736  31.913  1.00  0.00     0.053 C 
BRANCH   2   3
ATOM      3  C   UNL     1     -19.090 -20.757  31.913  1.00  0.00     0.041 C 
ATOM      4  O   UNL     1     -19.707 -21.842  31.751  1.00  0.00    -0.550 OA
ATOM      5  O   UNL     1     -19.803 -19.584  32.125  1.00  0.00    -0.550 OA
ENDBRANCH   2   3
ENDBRANCH   1   2
BRANCH   1   6
ATOM      6  C   UNL     1     -16.213 -22.914  32.093  1.00  0.00     0.000 C 
BRANCH   6   7
ATOM      7  C   UNL     1     -15.162 -23.730  31.326  1.00  0.00    -0.003 C 
ATOM      8  C   UNL     1     -15.189 -25.196  31.750  1.00  0.00     0.004 C 
ENDBRANCH   6   7
ENDBRANCH   1   6
TORSDOF 4
ENDMDL
MODEL 5
REMARK VINA RESULT:    -1.843      2.317      4.356
REMARK INTER + INTRA:          -2.355
REMARK INTER:                  -2.207
REMARK INTRA:                  -0.148
REMARK UNBOUND:                -0.082
REMARK SMILES CCCCCC(=O)[O-]
REMARK SMILES IDX 4 1 5 2 6 3 7 4 8 5 3 6 2 7 1 8
REMARK H PARENT
REMARK Flexibility Score: inf
ROOT
ATOM      1  C   UNL     1     -16.999 -21.741  31.223  1.00  0.00     0.006 C 
ENDROOT
BRANCH   1   2
ATOM      2  C   UNL     1     -16.082 -22.591  32.117  1.00  0.00     0.053 C 
BRANCH   2   3
ATOM      3  C   UNL     1     -16.016 -24.016  31.662  1.00  0.00     0.041 C 
ATOM      4  O   UNL     1     -16.871 -24.462  30.853  1.00  0.00    -0.550 OA
ATOM      5  O   UNL     1     -14.992 -24.842  32.107  1.00  0.00    -0.550 OA
ENDBRANCH   2   3
ENDBRANCH   1   2
BRANCH   1   6
ATOM      6  C   UNL     1     -17.682 -20.568  31.950  1.00  0.00     0.000 C 
BRANCH   6   7
ATOM      7  C   UNL     1     -19.215 -20.653  31.903  1.00  0.00    -0.003 C 
ATOM      8  C   UNL     1     -19.673 -22.005  31.360  1.00  0.00     0.004 C 
ENDBRANCH   6   7
ENDBRANCH   1   6
TORSDOF 4
ENDMDL
MODEL 6
REMARK VINA RESULT:    -1.828     26.115     27.058
REMARK INTER + INTRA:          -2.337
REMARK INTER:                  -2.070
REMARK INTRA:                  -0.266
REMARK UNBOUND:                -0.082
REMARK SMILES CCCCCC(=O)[O-]
REMARK SMILES IDX 4 1 5 2 6 3 7 4 8 5 3 6 2 7 1 8
REMARK H PARENT
REMARK Flexibility Score: inf
ROOT
ATOM      1  C   UNL     1     -31.066 -33.474  12.957  1.00  0.00     0.006 C 
ENDROOT
BRANCH   1   2
ATOM      2  C   UNL     1     -31.808 -32.162  12.657  1.00  0.00     0.053 C 
BRANCH   2   3
ATOM      3  C   UNL     1     -33.291 -32.309  12.805  1.00  0.00     0.041 C 
ATOM      4  O   UNL     1     -34.059 -31.948  11.875  1.00  0.00    -0.550 OA
ATOM      5  O   UNL     1     -33.823 -32.876  13.957  1.00  0.00    -0.550 OA
ENDBRANCH   2   3
ENDBRANCH   1   2
BRANCH   1   6
ATOM      6  C   UNL     1     -31.403 -34.627  11.995  1.00  0.00     0.000 C 
BRANCH   6   7
ATOM      7  C   UNL     1     -31.865 -35.896  12.727  1.00  0.00    -0.003 C 
ATOM      8  C   UNL     1     -33.363 -36.125  12.537  1.00  0.00     0.004 C 
ENDBRANCH   6   7
ENDBRANCH   1   6
TORSDOF 4
ENDMDL
MODEL 7
REMARK VINA RESULT:    -1.815      1.954      2.653
REMARK INTER + INTRA:          -2.321
REMARK INTER:                  -2.171
REMARK INTRA:                  -0.150
REMARK UNBOUND:                -0.082
REMARK SMILES CCCCCC(=O)[O-]
REMARK SMILES IDX 4 1 5 2 6 3 7 4 8 5 3 6 2 7 1 8
REMARK H PARENT
REMARK Flexibility Score: inf
ROOT
ATOM      1  C   UNL     1     -17.617 -21.211  31.302  1.00  0.00     0.006 C 
ENDROOT
BRANCH   1   2
ATOM      2  C   UNL     1     -18.757 -20.590  32.124  1.00  0.00     0.053 C 
BRANCH   2   3
ATOM      3  C   UNL     1     -20.104 -21.042  31.650  1.00  0.00     0.041 C 
ATOM      4  O   UNL     1     -20.852 -20.249  31.021  1.00  0.00    -0.550 OA
ATOM      5  O   UNL     1     -20.517 -22.350  31.872  1.00  0.00    -0.550 OA
ENDBRANCH   2   3
ENDBRANCH   1   2
BRANCH   1   6
ATOM      6  C   UNL     1     -16.366 -21.572  32.125  1.00  0.00     0.000 C 
BRANCH   6   7
ATOM      7  C   UNL     1     -16.008 -23.063  32.038  1.00  0.00    -0.003 C 
ATOM      8  C   UNL     1     -17.124 -23.856  31.362  1.00  0.00     0.004 C 
ENDBRANCH   6   7
ENDBRANCH   1   6
TORSDOF 4
ENDMDL
MODEL 8
REMARK VINA RESULT:    -1.751      1.626      2.000
REMARK INTER + INTRA:          -2.242
REMARK INTER:                  -2.080
REMARK INTRA:                  -0.162
REMARK UNBOUND:                -0.082
REMARK SMILES CCCCCC(=O)[O-]
REMARK SMILES IDX 4 1 5 2 6 3 7 4 8 5 3 6 2 7 1 8
REMARK H PARENT
REMARK Flexibility Score: inf
ROOT
ATOM      1  C   UNL     1     -15.978 -23.366  32.116  1.00  0.00     0.006 C 
ENDROOT
BRANCH   1   2
ATOM      2  C   UNL     1     -17.305 -23.817  31.486  1.00  0.00     0.053 C 
BRANCH   2   3
ATOM      3  C   UNL     1     -17.618 -23.059  30.233  1.00  0.00     0.041 C 
ATOM      4  O   UNL     1     -18.328 -22.021  30.282  1.00  0.00    -0.550 OA
ATOM      5  O   UNL     1     -17.098 -23.482  29.016  1.00  0.00    -0.550 OA
ENDBRANCH   2   3
ENDBRANCH   1   2
BRANCH   1   6
ATOM      6  C   UNL     1     -14.878 -24.445  32.115  1.00  0.00     0.000 C 
BRANCH   6   7
ATOM      7  C   UNL     1     -15.256 -25.676  31.279  1.00  0.00    -0.003 C 
ATOM      8  C   UNL     1     -14.876 -26.967  32.001  1.00  0.00     0.004 C 
ENDBRANCH   6   7
ENDBRANCH   1   6
TORSDOF 4
ENDMDL
