MODEL 1
REMARK VINA RESULT:    -4.944      0.000      0.000
REMARK INTER + INTRA:          -5.332
REMARK INTER:                  -5.233
REMARK INTRA:                  -0.098
REMARK UNBOUND:                -0.098
REMARK SMILES C=C(C)[C@H]1CC=C(C)C(=O)C1
REMARK SMILES IDX 8 1 7 2 6 3 5 4 4 5 11 6 9 7 10 8 2 9 1 10 3 11
REMARK H PARENT
REMARK Flexibility Score: inf
ROOT
ATOM      1  C   UNL     1     -57.452 -72.705 214.219  1.00  0.00     0.048 C 
ATOM      2  C   UNL     1     -57.872 -73.887 215.048  1.00  0.00    -0.012 C 
ATOM      3  C   UNL     1     -57.669 -75.133 214.587  1.00  0.00    -0.019 C 
ATOM      4  C   UNL     1     -58.086 -76.351 215.367  1.00  0.00     0.036 C 
ATOM      5  C   UNL     1     -57.975 -76.102 216.884  1.00  0.00     0.025 C 
ATOM      6  C   UNL     1     -58.780 -74.852 217.281  1.00  0.00     0.089 C 
ATOM      7  C   UNL     1     -58.392 -73.679 216.422  1.00  0.00     0.158 C 
ATOM      8  O   UNL     1     -58.550 -72.512 216.871  1.00  0.00    -0.295 OA
ENDROOT
BRANCH   5   9
ATOM      9  C   UNL     1     -58.413 -77.323 217.682  1.00  0.00    -0.077 C 
ATOM     10  C   UNL     1     -59.542 -77.282 218.407  1.00  0.00     0.008 C 
ATOM     11  C   UNL     1     -57.603 -78.596 217.681  1.00  0.00     0.039 C 
ENDBRANCH   5   9
TORSDOF 1
ENDMDL
MODEL 2
REMARK VINA RESULT:    -4.599     13.881     14.613
REMARK INTER + INTRA:          -4.966
REMARK INTER:                  -4.876
REMARK INTRA:                  -0.089
REMARK UNBOUND:                -0.098
REMARK SMILES C=C(C)[C@H]1CC=C(C)C(=O)C1
REMARK SMILES IDX 8 1 7 2 6 3 5 4 4 5 11 6 9 7 10 8 2 9 1 10 3 11
REMARK H PARENT
REMARK Flexibility Score: inf
ROOT
ATOM      1  C   UNL     1     -74.986 -71.902 215.741  1.00  0.00     0.048 C 
ATOM      2  C   UNL     1     -73.948 -72.963 215.504  1.00  0.00    -0.012 C 
ATOM      3  C   UNL     1     -74.327 -74.234 215.294  1.00  0.00    -0.019 C 
ATOM      4  C   UNL     1     -73.328 -75.339 215.070  1.00  0.00     0.036 C 
ATOM      5  C   UNL     1     -72.078 -74.815 214.338  1.00  0.00     0.025 C 
ATOM      6  C   UNL     1     -71.470 -73.626 215.103  1.00  0.00     0.089 C 
ATOM      7  C   UNL     1     -72.518 -72.583 215.379  1.00  0.00     0.158 C 
ATOM      8  O   UNL     1     -72.164 -71.384 215.540  1.00  0.00    -0.295 OA
ENDROOT
BRANCH   5   9
ATOM      9  C   UNL     1     -71.054 -75.921 214.123  1.00  0.00    -0.077 C 
ATOM     10  C   UNL     1     -71.202 -76.789 213.109  1.00  0.00     0.008 C 
ATOM     11  C   UNL     1     -69.857 -76.071 215.031  1.00  0.00     0.039 C 
ENDBRANCH   5   9
TORSDOF 1
ENDMDL
MODEL 3
REMARK VINA RESULT:    -4.530     13.564     14.309
REMARK INTER + INTRA:          -4.893
REMARK INTER:                  -4.795
REMARK INTRA:                  -0.098
REMARK UNBOUND:                -0.098
REMARK SMILES C=C(C)[C@H]1CC=C(C)C(=O)C1
REMARK SMILES IDX 8 1 7 2 6 3 5 4 4 5 11 6 9 7 10 8 2 9 1 10 3 11
REMARK H PARENT
REMARK Flexibility Score: inf
ROOT
ATOM      1  C   UNL     1     -74.966 -72.408 215.499  1.00  0.00     0.048 C 
ATOM      2  C   UNL     1     -73.795 -73.344 215.377  1.00  0.00    -0.012 C 
ATOM      3  C   UNL     1     -74.007 -74.666 215.259  1.00  0.00    -0.019 C 
ATOM      4  C   UNL     1     -72.871 -75.649 215.152  1.00  0.00     0.036 C 
ATOM      5  C   UNL     1     -71.669 -75.029 214.415  1.00  0.00     0.025 C 
ATOM      6  C   UNL     1     -71.241 -73.718 215.100  1.00  0.00     0.089 C 
ATOM      7  C   UNL     1     -72.420 -72.798 215.262  1.00  0.00     0.158 C 
ATOM      8  O   UNL     1     -72.223 -71.555 215.336  1.00  0.00    -0.295 OA
ENDROOT
BRANCH   5   9
ATOM      9  C   UNL     1     -70.508 -76.010 214.319  1.00  0.00    -0.077 C 
ATOM     10  C   UNL     1     -69.504 -75.954 215.208  1.00  0.00     0.008 C 
ATOM     11  C   UNL     1     -70.455 -77.060 213.237  1.00  0.00     0.039 C 
ENDBRANCH   5   9
TORSDOF 1
ENDMDL
MODEL 4
REMARK VINA RESULT:    -4.521      5.092      7.043
REMARK INTER + INTRA:          -4.883
REMARK INTER:                  -4.786
REMARK INTRA:                  -0.097
REMARK UNBOUND:                -0.098
REMARK SMILES C=C(C)[C@H]1CC=C(C)C(=O)C1
REMARK SMILES IDX 8 1 7 2 6 3 5 4 4 5 11 6 9 7 10 8 2 9 1 10 3 11
REMARK H PARENT
REMARK Flexibility Score: inf
ROOT
ATOM      1  C   UNL     1     -59.506 -78.579 218.967  1.00  0.00     0.048 C 
ATOM      2  C   UNL     1     -60.505 -77.803 219.779  1.00  0.00    -0.012 C 
ATOM      3  C   UNL     1     -61.428 -77.048 219.159  1.00  0.00    -0.019 C 
ATOM      4  C   UNL     1     -62.440 -76.236 219.923  1.00  0.00     0.036 C 
ATOM      5  C   UNL     1     -62.826 -76.931 221.243  1.00  0.00     0.025 C 
ATOM      6  C   UNL     1     -61.567 -77.229 222.078  1.00  0.00     0.089 C 
ATOM      7  C   UNL     1     -60.549 -77.968 221.253  1.00  0.00     0.158 C 
ATOM      8  O   UNL     1     -59.706 -78.703 221.834  1.00  0.00    -0.295 OA
ENDROOT
BRANCH   5   9
ATOM      9  C   UNL     1     -63.835 -76.108 222.032  1.00  0.00    -0.077 C 
ATOM     10  C   UNL     1     -63.635 -74.793 222.213  1.00  0.00     0.008 C 
ATOM     11  C   UNL     1     -65.072 -76.737 222.623  1.00  0.00     0.039 C 
ENDBRANCH   5   9
TORSDOF 1
ENDMDL
MODEL 5
REMARK VINA RESULT:    -4.490      6.640      9.008
REMARK INTER + INTRA:          -4.851
REMARK INTER:                  -4.762
REMARK INTRA:                  -0.090
REMARK UNBOUND:                -0.098
REMARK SMILES C=C(C)[C@H]1CC=C(C)C(=O)C1
REMARK SMILES IDX 8 1 7 2 6 3 5 4 4 5 11 6 9 7 10 8 2 9 1 10 3 11
REMARK H PARENT
REMARK Flexibility Score: inf
ROOT
ATOM      1  C   UNL     1     -61.292 -80.063 225.165  1.00  0.00     0.048 C 
ATOM      2  C   UNL     1     -61.788 -79.135 224.091  1.00  0.00    -0.012 C 
ATOM      3  C   UNL     1     -62.993 -78.554 224.214  1.00  0.00    -0.019 C 
ATOM      4  C   UNL     1     -63.546 -77.631 223.160  1.00  0.00     0.036 C 
ATOM      5  C   UNL     1     -62.418 -76.844 222.466  1.00  0.00     0.025 C 
ATOM      6  C   UNL     1     -61.362 -77.810 221.899  1.00  0.00     0.089 C 
ATOM      7  C   UNL     1     -60.897 -78.768 222.962  1.00  0.00     0.158 C 
ATOM      8  O   UNL     1     -59.752 -79.285 222.864  1.00  0.00    -0.295 OA
ENDROOT
BRANCH   5   9
ATOM      9  C   UNL     1     -62.966 -75.922 221.385  1.00  0.00    -0.077 C 
ATOM     10  C   UNL     1     -63.537 -74.754 221.723  1.00  0.00     0.008 C 
ATOM     11  C   UNL     1     -62.883 -76.288 219.924  1.00  0.00     0.039 C 
ENDBRANCH   5   9
TORSDOF 1
ENDMDL
MODEL 6
REMARK VINA RESULT:    -4.463      6.324      8.631
REMARK INTER + INTRA:          -4.823
REMARK INTER:                  -4.725
REMARK INTRA:                  -0.098
REMARK UNBOUND:                -0.098
REMARK SMILES C=C(C)[C@H]1CC=C(C)C(=O)C1
REMARK SMILES IDX 8 1 7 2 6 3 5 4 4 5 11 6 9 7 10 8 2 9 1 10 3 11
REMARK H PARENT
REMARK Flexibility Score: inf
ROOT
ATOM      1  C   UNL     1     -62.021 -76.638 219.785  1.00  0.00     0.048 C 
ATOM      2  C   UNL     1     -62.245 -77.008 221.226  1.00  0.00    -0.012 C 
ATOM      3  C   UNL     1     -63.411 -76.705 221.820  1.00  0.00    -0.019 C 
ATOM      4  C   UNL     1     -63.680 -77.035 223.264  1.00  0.00     0.036 C 
ATOM      5  C   UNL     1     -62.959 -78.333 223.679  1.00  0.00     0.025 C 
ATOM      6  C   UNL     1     -61.454 -78.227 223.377  1.00  0.00     0.089 C 
ATOM      7  C   UNL     1     -61.230 -77.814 221.948  1.00  0.00     0.158 C 
ATOM      8  O   UNL     1     -60.149 -78.131 221.380  1.00  0.00    -0.295 OA
ENDROOT
BRANCH   5   9
ATOM      9  C   UNL     1     -63.211 -78.665 225.144  1.00  0.00    -0.077 C 
ATOM     10  C   UNL     1     -62.223 -79.177 225.897  1.00  0.00     0.008 C 
ATOM     11  C   UNL     1     -64.557 -78.431 225.783  1.00  0.00     0.039 C 
ENDBRANCH   5   9
TORSDOF 1
ENDMDL
MODEL 7
REMARK VINA RESULT:    -4.361      6.941      9.862
REMARK INTER + INTRA:          -4.714
REMARK INTER:                  -4.615
REMARK INTRA:                  -0.099
REMARK UNBOUND:                -0.098
REMARK SMILES C=C(C)[C@H]1CC=C(C)C(=O)C1
REMARK SMILES IDX 8 1 7 2 6 3 5 4 4 5 11 6 9 7 10 8 2 9 1 10 3 11
REMARK H PARENT
REMARK Flexibility Score: inf
ROOT
ATOM      1  C   UNL     1     -63.689 -79.198 226.606  1.00  0.00     0.048 C 
ATOM      2  C   UNL     1     -63.320 -78.758 225.216  1.00  0.00    -0.012 C 
ATOM      3  C   UNL     1     -64.236 -78.154 224.440  1.00  0.00    -0.019 C 
ATOM      4  C   UNL     1     -63.925 -77.711 223.035  1.00  0.00     0.036 C 
ATOM      5  C   UNL     1     -62.451 -77.280 222.903  1.00  0.00     0.025 C 
ATOM      6  C   UNL     1     -61.520 -78.410 223.378  1.00  0.00     0.089 C 
ATOM      7  C   UNL     1     -61.916 -78.880 224.751  1.00  0.00     0.158 C 
ATOM      8  O   UNL     1     -61.046 -79.414 225.491  1.00  0.00    -0.295 OA
ENDROOT
BRANCH   5   9
ATOM      9  C   UNL     1     -62.123 -76.848 221.481  1.00  0.00    -0.077 C 
ATOM     10  C   UNL     1     -61.036 -77.339 220.863  1.00  0.00     0.008 C 
ATOM     11  C   UNL     1     -62.996 -75.870 220.734  1.00  0.00     0.039 C 
ENDBRANCH   5   9
TORSDOF 1
ENDMDL
MODEL 8
REMARK VINA RESULT:    -4.347     13.170     13.947
REMARK INTER + INTRA:          -4.699
REMARK INTER:                  -4.601
REMARK INTRA:                  -0.098
REMARK UNBOUND:                -0.098
REMARK SMILES C=C(C)[C@H]1CC=C(C)C(=O)C1
REMARK SMILES IDX 8 1 7 2 6 3 5 4 4 5 11 6 9 7 10 8 2 9 1 10 3 11
REMARK H PARENT
REMARK Flexibility Score: inf
ROOT
ATOM      1  C   UNL     1     -74.757 -72.873 215.329  1.00  0.00     0.048 C 
ATOM      2  C   UNL     1     -73.390 -73.472 215.144  1.00  0.00    -0.012 C 
ATOM      3  C   UNL     1     -72.300 -72.691 215.229  1.00  0.00    -0.019 C 
ATOM      4  C   UNL     1     -70.910 -73.236 215.032  1.00  0.00     0.036 C 
ATOM      5  C   UNL     1     -70.811 -74.692 215.527  1.00  0.00     0.025 C 
ATOM      6  C   UNL     1     -71.880 -75.563 214.843  1.00  0.00     0.089 C 
ATOM      7  C   UNL     1     -73.242 -74.941 214.991  1.00  0.00     0.158 C 
ATOM      8  O   UNL     1     -74.262 -75.680 214.947  1.00  0.00    -0.295 OA
ENDROOT
BRANCH   5   9
ATOM      9  C   UNL     1     -69.414 -75.258 215.315  1.00  0.00    -0.077 C 
ATOM     10  C   UNL     1     -69.208 -76.219 214.400  1.00  0.00     0.008 C 
ATOM     11  C   UNL     1     -68.235 -74.762 216.116  1.00  0.00     0.039 C 
ENDBRANCH   5   9
TORSDOF 1
ENDMDL
MODEL 9
REMARK VINA RESULT:    -4.343      7.386      8.628
REMARK INTER + INTRA:          -4.696
REMARK INTER:                  -4.606
REMARK INTRA:                  -0.090
REMARK UNBOUND:                -0.098
REMARK SMILES C=C(C)[C@H]1CC=C(C)C(=O)C1
REMARK SMILES IDX 8 1 7 2 6 3 5 4 4 5 11 6 9 7 10 8 2 9 1 10 3 11
REMARK H PARENT
REMARK Flexibility Score: inf
ROOT
ATOM      1  C   UNL     1     -63.501 -75.250 221.722  1.00  0.00     0.048 C 
ATOM      2  C   UNL     1     -62.902 -76.524 222.251  1.00  0.00    -0.012 C 
ATOM      3  C   UNL     1     -61.647 -76.864 221.908  1.00  0.00    -0.019 C 
ATOM      4  C   UNL     1     -61.005 -78.137 222.393  1.00  0.00     0.036 C 
ATOM      5  C   UNL     1     -61.510 -78.512 223.800  1.00  0.00     0.025 C 
ATOM      6  C   UNL     1     -63.047 -78.594 223.812  1.00  0.00     0.089 C 
ATOM      7  C   UNL     1     -63.648 -77.337 223.243  1.00  0.00     0.158 C 
ATOM      8  O   UNL     1     -64.811 -77.000 223.593  1.00  0.00    -0.295 OA
ENDROOT
BRANCH   5   9
ATOM      9  C   UNL     1     -60.880 -79.808 224.291  1.00  0.00    -0.077 C 
ATOM     10  C   UNL     1     -59.615 -79.813 224.740  1.00  0.00     0.008 C 
ATOM     11  C   UNL     1     -61.650 -81.106 224.290  1.00  0.00     0.039 C 
ENDBRANCH   5   9
TORSDOF 1
ENDMDL
