MODEL 1
REMARK VINA RESULT:    -3.682      0.000      0.000
REMARK INTER + INTRA:          -4.930
REMARK INTER:                  -5.188
REMARK INTRA:                   0.258
REMARK UNBOUND:                 0.258
REMARK SMILES CC1=CCC(=C(C)C)C(=O)CC(C)=CCC1
REMARK SMILES IDX 12 1 14 2 13 3 15 4 16 5 2 6 1 7 3 8 11 10 9 11 10 12 5 13
REMARK SMILES IDX 6 14 7 15 8 16 4 17
REMARK H PARENT
REMARK Flexibility Score: 60.00
ROOT
ATOM      1  C   UNL     1      -1.295  29.643  51.485  1.00  0.00    -0.070 C 
ATOM      2  C   UNL     1      -1.910  30.802  51.841  1.00  0.00    -0.027 C 
ATOM      3  C   UNL     1      -1.486  29.127  50.079  1.00  0.00     0.039 C 
ENDROOT
BRANCH   2   4
ATOM      4  C   UNL     1      -1.910  31.416  53.219  1.00  0.00     0.032 C 
BRANCH   4   5
ATOM      5  C   UNL     1      -3.057  30.914  54.108  1.00  0.00     0.034 C 
BRANCH   5   6
ATOM      6  C   UNL     1      -2.527  30.509  55.469  1.00  0.00    -0.077 C 
ATOM      7  C   UNL     1      -2.298  31.587  56.497  1.00  0.00     0.039 C 
ATOM      8  C   UNL     1      -2.322  29.221  55.839  1.00  0.00    -0.023 CG0
ATOM      9  G   UNL     1      -2.482  28.013  54.947  1.00  0.00     0.000 G0
ENDBRANCH   5   6
ENDBRANCH   4   5
ENDBRANCH   2   4
BRANCH   1  10
ATOM     10  C   UNL     1      -0.301  28.894  52.362  1.00  0.00     0.111 C 
BRANCH  10  11
ATOM     11  C   UNL     1      -0.848  27.620  52.956  1.00  0.00     0.163 C 
ATOM     12  O   UNL     1      -1.008  26.636  52.182  1.00  0.00    -0.294 OA
BRANCH  11  13
ATOM     13  C   UNL     1      -1.147  27.469  54.418  1.00  0.00    -0.002 C 
ATOM     14  C   UNL     1      -0.271  26.824  55.249  1.00  0.00    -0.069 C 
ATOM     15  C   UNL     1       1.091  26.368  54.771  1.00  0.00     0.039 C 
ATOM     16  C   UNL     1      -0.595  26.572  56.706  1.00  0.00     0.039 C 
BRANCH  13  17
ATOM     17  C   UNL     1      -2.477  27.999  54.953  1.00  0.00     0.066 CG0
ATOM     18  G   UNL     1      -2.294  29.216  55.829  1.00  0.00     0.000 G0
ENDBRANCH  13  17
ENDBRANCH  11  13
ENDBRANCH  10  11
ENDBRANCH   1  10
TORSDOF 0
ENDMDL
MODEL 2
REMARK VINA RESULT:    -3.534      1.848      2.292
REMARK INTER + INTRA:          -4.721
REMARK INTER:                  -5.006
REMARK INTRA:                   0.285
REMARK UNBOUND:                 0.258
REMARK SMILES CC1=CCC(=C(C)C)C(=O)CC(C)=CCC1
REMARK SMILES IDX 12 1 14 2 13 3 15 4 16 5 2 6 1 7 3 8 11 10 9 11 10 12 5 13
REMARK SMILES IDX 6 14 7 15 8 16 4 17
REMARK H PARENT
REMARK Flexibility Score: 60.00
ROOT
ATOM      1  C   UNL     1      -2.270  27.143  51.838  1.00  0.00    -0.070 C 
ATOM      2  C   UNL     1      -3.612  27.346  51.912  1.00  0.00    -0.027 C 
ATOM      3  C   UNL     1      -1.760  25.729  51.703  1.00  0.00     0.039 C 
ENDROOT
BRANCH   2   4
ATOM      4  C   UNL     1      -4.295  28.672  52.143  1.00  0.00     0.032 C 
BRANCH   4   5
ATOM      5  C   UNL     1      -4.788  28.859  53.584  1.00  0.00     0.034 C 
BRANCH   5   6
ATOM      6  C   UNL     1      -3.984  29.942  54.277  1.00  0.00    -0.077 C 
ATOM      7  C   UNL     1      -4.481  31.362  54.199  1.00  0.00     0.039 C 
ATOM      8  C   UNL     1      -2.886  29.690  55.030  1.00  0.00    -0.023 CG0
ATOM      9  G   UNL     1      -2.234  28.340  55.215  1.00  0.00     0.000 G0
ENDBRANCH   5   6
ENDBRANCH   4   5
ENDBRANCH   2   4
BRANCH   1  10
ATOM     10  C   UNL     1      -1.238  28.257  51.735  1.00  0.00     0.111 C 
BRANCH  10  11
ATOM     11  C   UNL     1      -0.888  28.894  53.057  1.00  0.00     0.163 C 
ATOM     12  O   UNL     1      -0.552  30.110  53.049  1.00  0.00    -0.294 OA
BRANCH  11  13
ATOM     13  C   UNL     1      -0.981  28.158  54.361  1.00  0.00    -0.002 C 
ATOM     14  C   UNL     1       0.016  27.308  54.757  1.00  0.00    -0.069 C 
ATOM     15  C   UNL     1       1.310  27.182  53.982  1.00  0.00     0.039 C 
ATOM     16  C   UNL     1      -0.099  26.480  56.019  1.00  0.00     0.039 C 
BRANCH  13  17
ATOM     17  C   UNL     1      -2.237  28.333  55.214  1.00  0.00     0.066 CG0
ATOM     18  G   UNL     1      -2.867  29.693  55.028  1.00  0.00     0.000 G0
ENDBRANCH  13  17
ENDBRANCH  11  13
ENDBRANCH  10  11
ENDBRANCH   1  10
TORSDOF 0
ENDMDL
MODEL 3
REMARK VINA RESULT:    -3.486      2.024      4.353
REMARK INTER + INTRA:          -4.653
REMARK INTER:                  -4.838
REMARK INTRA:                   0.185
REMARK UNBOUND:                 0.258
REMARK SMILES CC1=CCC(=C(C)C)C(=O)CC(C)=CCC1
REMARK SMILES IDX 12 1 14 2 13 3 15 4 16 5 2 6 1 7 3 8 11 10 9 11 10 12 5 13
REMARK SMILES IDX 6 14 7 15 8 16 4 17
REMARK H PARENT
REMARK Flexibility Score: 60.00
ROOT
ATOM      1  C   UNL     1      -2.776  27.481  51.579  1.00  0.00    -0.070 C 
ATOM      2  C   UNL     1      -1.660  26.717  51.448  1.00  0.00    -0.027 C 
ATOM      3  C   UNL     1      -3.200  28.345  50.416  1.00  0.00     0.039 C 
ENDROOT
BRANCH   2   4
ATOM      4  C   UNL     1      -1.036  25.870  52.530  1.00  0.00     0.032 C 
BRANCH   4   5
ATOM      5  C   UNL     1       0.130  26.563  53.249  1.00  0.00     0.034 C 
BRANCH   5   6
ATOM      6  C   UNL     1      -0.306  27.038  54.621  1.00  0.00    -0.077 C 
ATOM      7  C   UNL     1      -0.124  26.105  55.790  1.00  0.00     0.039 C 
ATOM      8  C   UNL     1      -0.778  28.284  54.865  1.00  0.00    -0.023 CG0
ATOM      9  G   UNL     1      -1.041  29.347  53.824  1.00  0.00     0.000 G0
ENDBRANCH   5   6
ENDBRANCH   4   5
ENDBRANCH   2   4
BRANCH   1  10
ATOM     10  C   UNL     1      -3.723  27.422  52.770  1.00  0.00     0.111 C 
BRANCH  10  11
ATOM     11  C   UNL     1      -3.482  28.498  53.799  1.00  0.00     0.163 C 
ATOM     12  O   UNL     1      -4.093  28.402  54.899  1.00  0.00    -0.294 OA
BRANCH  11  13
ATOM     13  C   UNL     1      -2.515  29.625  53.583  1.00  0.00    -0.002 C 
ATOM     14  C   UNL     1      -2.949  30.840  53.125  1.00  0.00    -0.069 C 
ATOM     15  C   UNL     1      -4.421  31.150  52.960  1.00  0.00     0.039 C 
ATOM     16  C   UNL     1      -1.983  31.961  52.806  1.00  0.00     0.039 C 
BRANCH  13  17
ATOM     17  C   UNL     1      -1.028  29.373  53.828  1.00  0.00     0.066 CG0
ATOM     18  G   UNL     1      -0.796  28.277  54.840  1.00  0.00     0.000 G0
ENDBRANCH  13  17
ENDBRANCH  11  13
ENDBRANCH  10  11
ENDBRANCH   1  10
TORSDOF 0
ENDMDL
MODEL 4
REMARK VINA RESULT:    -3.459      2.186      3.060
REMARK INTER + INTRA:          -4.616
REMARK INTER:                  -5.066
REMARK INTRA:                   0.450
REMARK UNBOUND:                 0.258
REMARK SMILES CC1=CCC(=C(C)C)C(=O)CC(C)=CCC1
REMARK SMILES IDX 12 1 14 2 13 3 15 4 16 5 2 6 1 7 3 8 11 10 9 11 10 12 5 13
REMARK SMILES IDX 6 14 7 15 8 16 4 17
REMARK H PARENT
REMARK Flexibility Score: 60.00
ROOT
ATOM      1  C   UNL     1      -4.345  28.434  52.098  1.00  0.00    -0.070 C 
ATOM      2  C   UNL     1      -4.672  29.596  52.723  1.00  0.00    -0.027 C 
ATOM      3  C   UNL     1      -4.761  27.130  52.734  1.00  0.00     0.039 C 
ENDROOT
BRANCH   2   4
ATOM      4  C   UNL     1      -4.261  30.981  52.286  1.00  0.00     0.032 C 
BRANCH   4   5
ATOM      5  C   UNL     1      -2.821  31.340  52.681  1.00  0.00     0.034 C 
BRANCH   5   6
ATOM      6  C   UNL     1      -2.413  30.575  53.925  1.00  0.00    -0.077 C 
ATOM      7  C   UNL     1      -3.123  30.882  55.218  1.00  0.00     0.039 C 
ATOM      8  C   UNL     1      -1.499  29.575  53.921  1.00  0.00    -0.023 CG0
ATOM      9  G   UNL     1      -0.678  29.136  52.731  1.00  0.00     0.000 G0
ENDBRANCH   5   6
ENDBRANCH   4   5
ENDBRANCH   2   4
BRANCH   1  10
ATOM     10  C   UNL     1      -3.710  28.351  50.717  1.00  0.00     0.111 C 
BRANCH  10  11
ATOM     11  C   UNL     1      -2.209  28.504  50.723  1.00  0.00     0.163 C 
ATOM     12  O   UNL     1      -1.676  29.070  49.729  1.00  0.00    -0.294 OA
BRANCH  11  13
ATOM     13  C   UNL     1      -1.353  28.065  51.874  1.00  0.00    -0.002 C 
ATOM     14  C   UNL     1      -1.231  26.739  52.189  1.00  0.00    -0.069 C 
ATOM     15  C   UNL     1      -1.824  25.654  51.315  1.00  0.00     0.039 C 
ATOM     16  C   UNL     1      -0.454  26.278  53.404  1.00  0.00     0.039 C 
BRANCH  13  17
ATOM     17  C   UNL     1      -0.665  29.132  52.724  1.00  0.00     0.066 CG0
ATOM     18  G   UNL     1      -1.517  29.564  53.894  1.00  0.00     0.000 G0
ENDBRANCH  13  17
ENDBRANCH  11  13
ENDBRANCH  10  11
ENDBRANCH   1  10
TORSDOF 0
ENDMDL
MODEL 5
REMARK VINA RESULT:    -3.417      2.410      3.624
REMARK INTER + INTRA:          -4.557
REMARK INTER:                  -4.994
REMARK INTRA:                   0.437
REMARK UNBOUND:                 0.258
REMARK SMILES CC1=CCC(=C(C)C)C(=O)CC(C)=CCC1
REMARK SMILES IDX 12 1 14 2 13 3 15 4 16 5 2 6 1 7 3 8 11 10 9 11 10 12 5 13
REMARK SMILES IDX 6 14 7 15 8 16 4 17
REMARK H PARENT
REMARK Flexibility Score: 60.00
ROOT
ATOM      1  C   UNL     1      -1.182  30.093  52.851  1.00  0.00    -0.070 C 
ATOM      2  C   UNL     1      -1.993  31.081  52.389  1.00  0.00    -0.027 C 
ATOM      3  C   UNL     1       0.106  29.813  52.117  1.00  0.00     0.039 C 
ENDROOT
BRANCH   2   4
ATOM      4  C   UNL     1      -3.355  31.435  52.934  1.00  0.00     0.032 C 
BRANCH   4   5
ATOM      5  C   UNL     1      -4.486  30.580  52.347  1.00  0.00     0.034 C 
BRANCH   5   6
ATOM      6  C   UNL     1      -4.040  29.940  51.047  1.00  0.00    -0.077 C 
ATOM      7  C   UNL     1      -3.822  30.830  49.851  1.00  0.00     0.039 C 
ATOM      8  C   UNL     1      -3.748  28.622  50.924  1.00  0.00    -0.023 CG0
ATOM      9  G   UNL     1      -3.916  27.578  52.003  1.00  0.00     0.000 G0
ENDBRANCH   5   6
ENDBRANCH   4   5
ENDBRANCH   2   4
BRANCH   1  10
ATOM     10  C   UNL     1      -1.409  29.335  54.153  1.00  0.00     0.111 C 
BRANCH  10  11
ATOM     11  C   UNL     1      -2.472  28.269  54.064  1.00  0.00     0.163 C 
ATOM     12  O   UNL     1      -3.269  28.157  55.036  1.00  0.00    -0.294 OA
BRANCH  11  13
ATOM     13  C   UNL     1      -2.646  27.394  52.858  1.00  0.00    -0.002 C 
ATOM     14  C   UNL     1      -1.674  26.501  52.496  1.00  0.00    -0.069 C 
ATOM     15  C   UNL     1      -0.461  26.247  53.365  1.00  0.00     0.039 C 
ATOM     16  C   UNL     1      -1.781  25.678  51.230  1.00  0.00     0.039 C 
BRANCH  13  17
ATOM     17  C   UNL     1      -3.904  27.560  52.007  1.00  0.00     0.066 CG0
ATOM     18  G   UNL     1      -3.736  28.620  50.943  1.00  0.00     0.000 G0
ENDBRANCH  13  17
ENDBRANCH  11  13
ENDBRANCH  10  11
ENDBRANCH   1  10
TORSDOF 0
ENDMDL
MODEL 6
REMARK VINA RESULT:    -3.376      1.572      4.042
REMARK INTER + INTRA:          -4.499
REMARK INTER:                  -4.696
REMARK INTRA:                   0.196
REMARK UNBOUND:                 0.258
REMARK SMILES CC1=CCC(=C(C)C)C(=O)CC(C)=CCC1
REMARK SMILES IDX 12 1 14 2 13 3 15 4 16 5 2 6 1 7 3 8 11 10 9 11 10 12 5 13
REMARK SMILES IDX 6 14 7 15 8 16 4 17
REMARK H PARENT
REMARK Flexibility Score: 60.00
ROOT
ATOM      1  C   UNL     1      -0.021  27.337  54.162  1.00  0.00    -0.070 C 
ATOM      2  C   UNL     1      -0.714  27.351  55.331  1.00  0.00    -0.027 C 
ATOM      3  C   UNL     1       0.982  26.233  53.931  1.00  0.00     0.039 C 
ENDROOT
BRANCH   2   4
ATOM      4  C   UNL     1      -1.682  28.422  55.772  1.00  0.00     0.032 C 
BRANCH   4   5
ATOM      5  C   UNL     1      -3.060  28.308  55.106  1.00  0.00     0.034 C 
BRANCH   5   6
ATOM      6  C   UNL     1      -3.473  29.644  54.522  1.00  0.00    -0.077 C 
ATOM      7  C   UNL     1      -3.528  30.838  55.440  1.00  0.00     0.039 C 
ATOM      8  C   UNL     1      -3.719  29.840  53.204  1.00  0.00    -0.023 CG0
ATOM      9  G   UNL     1      -3.725  28.768  52.140  1.00  0.00     0.000 G0
ENDBRANCH   5   6
ENDBRANCH   4   5
ENDBRANCH   2   4
BRANCH   1  10
ATOM     10  C   UNL     1      -0.286  28.278  52.994  1.00  0.00     0.111 C 
BRANCH  10  11
ATOM     11  C   UNL     1      -1.330  27.777  52.028  1.00  0.00     0.163 C 
ATOM     12  O   UNL     1      -1.338  26.542  51.765  1.00  0.00    -0.294 OA
BRANCH  11  13
ATOM     13  C   UNL     1      -2.375  28.670  51.426  1.00  0.00    -0.002 C 
ATOM     14  C   UNL     1      -2.105  29.404  50.303  1.00  0.00    -0.069 C 
ATOM     15  C   UNL     1      -0.809  29.240  49.537  1.00  0.00     0.039 C 
ATOM     16  C   UNL     1      -3.106  30.386  49.734  1.00  0.00     0.039 C 
BRANCH  13  17
ATOM     17  C   UNL     1      -3.728  28.789  52.125  1.00  0.00     0.066 CG0
ATOM     18  G   UNL     1      -3.723  29.849  53.201  1.00  0.00     0.000 G0
ENDBRANCH  13  17
ENDBRANCH  11  13
ENDBRANCH  10  11
ENDBRANCH   1  10
TORSDOF 0
ENDMDL
MODEL 7
REMARK VINA RESULT:    -3.284      1.611      3.523
REMARK INTER + INTRA:          -4.370
REMARK INTER:                  -4.879
REMARK INTRA:                   0.509
REMARK UNBOUND:                 0.258
REMARK SMILES CC1=CCC(=C(C)C)C(=O)CC(C)=CCC1
REMARK SMILES IDX 12 1 14 2 13 3 15 4 16 5 2 6 1 7 3 8 11 10 9 11 10 12 5 13
REMARK SMILES IDX 6 14 7 15 8 16 4 17
REMARK H PARENT
REMARK Flexibility Score: 60.00
ROOT
ATOM      1  C   UNL     1      -3.008  30.720  54.484  1.00  0.00    -0.070 C 
ATOM      2  C   UNL     1      -2.615  31.129  53.250  1.00  0.00    -0.027 C 
ATOM      3  C   UNL     1      -4.437  30.964  54.906  1.00  0.00     0.039 C 
ENDROOT
BRANCH   2   4
ATOM      4  C   UNL     1      -1.212  31.055  52.698  1.00  0.00     0.032 C 
BRANCH   4   5
ATOM      5  C   UNL     1      -1.132  30.355  51.334  1.00  0.00     0.034 C 
BRANCH   5   6
ATOM      6  C   UNL     1      -1.849  29.021  51.386  1.00  0.00    -0.077 C 
ATOM      7  C   UNL     1      -3.003  28.792  50.446  1.00  0.00     0.039 C 
ATOM      8  C   UNL     1      -1.457  27.993  52.178  1.00  0.00    -0.023 CG0
ATOM      9  G   UNL     1      -0.337  28.038  53.190  1.00  0.00     0.000 G0
ENDBRANCH   5   6
ENDBRANCH   4   5
ENDBRANCH   2   4
BRANCH   1  10
ATOM     10  C   UNL     1      -2.145  29.895  55.431  1.00  0.00     0.111 C 
BRANCH  10  11
ATOM     11  C   UNL     1      -2.086  28.429  55.085  1.00  0.00     0.163 C 
ATOM     12  O   UNL     1      -3.159  27.768  55.156  1.00  0.00    -0.294 OA
BRANCH  11  13
ATOM     13  C   UNL     1      -0.830  27.756  54.614  1.00  0.00    -0.002 C 
ATOM     14  C   UNL     1      -0.110  26.951  55.454  1.00  0.00    -0.069 C 
ATOM     15  C   UNL     1      -0.616  26.584  56.833  1.00  0.00     0.039 C 
ATOM     16  C   UNL     1       1.210  26.341  55.035  1.00  0.00     0.039 C 
BRANCH  13  17
ATOM     17  C   UNL     1      -0.338  28.033  53.194  1.00  0.00     0.066 CG0
ATOM     18  G   UNL     1      -1.456  27.966  52.180  1.00  0.00     0.000 G0
ENDBRANCH  13  17
ENDBRANCH  11  13
ENDBRANCH  10  11
ENDBRANCH   1  10
TORSDOF 0
ENDMDL
MODEL 8
REMARK VINA RESULT:    -3.240      1.793      3.703
REMARK INTER + INTRA:          -4.308
REMARK INTER:                  -4.548
REMARK INTRA:                   0.240
REMARK UNBOUND:                 0.258
REMARK SMILES CC1=CCC(=C(C)C)C(=O)CC(C)=CCC1
REMARK SMILES IDX 12 1 14 2 13 3 15 4 16 5 2 6 1 7 3 8 11 10 9 11 10 12 5 13
REMARK SMILES IDX 6 14 7 15 8 16 4 17
REMARK H PARENT
REMARK Flexibility Score: 60.00
ROOT
ATOM      1  C   UNL     1      -2.835  28.974  54.589  1.00  0.00    -0.070 C 
ATOM      2  C   UNL     1      -3.143  30.241  54.206  1.00  0.00    -0.027 C 
ATOM      3  C   UNL     1      -2.222  28.760  55.952  1.00  0.00     0.039 C 
ENDROOT
BRANCH   2   4
ATOM      4  C   UNL     1      -3.671  30.652  52.853  1.00  0.00     0.032 C 
BRANCH   4   5
ATOM      5  C   UNL     1      -2.567  31.069  51.872  1.00  0.00     0.034 C 
BRANCH   5   6
ATOM      6  C   UNL     1      -2.315  29.964  50.865  1.00  0.00    -0.077 C 
ATOM      7  C   UNL     1      -3.165  29.923  49.622  1.00  0.00     0.039 C 
ATOM      8  C   UNL     1      -1.315  29.058  50.984  1.00  0.00    -0.023 CG0
ATOM      9  G   UNL     1      -0.374  28.934  52.159  1.00  0.00     0.000 G0
ENDBRANCH   5   6
ENDBRANCH   4   5
ENDBRANCH   2   4
BRANCH   1  10
ATOM     10  C   UNL     1      -3.197  27.725  53.797  1.00  0.00     0.111 C 
BRANCH  10  11
ATOM     11  C   UNL     1      -2.047  27.138  53.017  1.00  0.00     0.163 C 
ATOM     12  O   UNL     1      -2.287  26.143  52.280  1.00  0.00    -0.294 OA
BRANCH  11  13
ATOM     13  C   UNL     1      -0.665  27.723  53.046  1.00  0.00    -0.002 C 
ATOM     14  C   UNL     1       0.295  27.209  53.875  1.00  0.00    -0.069 C 
ATOM     15  C   UNL     1       0.060  25.951  54.682  1.00  0.00     0.039 C 
ATOM     16  C   UNL     1       1.665  27.843  53.994  1.00  0.00     0.039 C 
BRANCH  13  17
ATOM     17  C   UNL     1      -0.367  28.941  52.173  1.00  0.00     0.066 CG0
ATOM     18  G   UNL     1      -1.311  29.045  50.998  1.00  0.00     0.000 G0
ENDBRANCH  13  17
ENDBRANCH  11  13
ENDBRANCH  10  11
ENDBRANCH   1  10
TORSDOF 0
ENDMDL
MODEL 9
REMARK VINA RESULT:    -3.215      1.903      4.625
REMARK INTER + INTRA:          -4.273
REMARK INTER:                  -5.508
REMARK INTRA:                   1.235
REMARK UNBOUND:                 0.258
REMARK SMILES CC1=CCC(=C(C)C)C(=O)CC(C)=CCC1
REMARK SMILES IDX 12 1 14 2 13 3 15 4 16 5 2 6 1 7 3 8 11 10 9 11 10 12 5 13
REMARK SMILES IDX 6 14 7 15 8 16 4 17
REMARK H PARENT
REMARK Flexibility Score: 60.00
ROOT
ATOM      1  C   UNL     1       0.179  27.034  53.608  1.00  0.00    -0.070 C 
ATOM      2  C   UNL     1      -0.566  26.274  52.763  1.00  0.00    -0.027 C 
ATOM      3  C   UNL     1       1.488  26.480  54.114  1.00  0.00     0.039 C 
ENDROOT
BRANCH   2   4
ATOM      4  C   UNL     1      -1.936  26.622  52.235  1.00  0.00     0.032 C 
BRANCH   4   5
ATOM      5  C   UNL     1      -1.927  27.063  50.764  1.00  0.00     0.034 C 
BRANCH   5   6
ATOM      6  C   UNL     1      -1.758  28.567  50.670  1.00  0.00    -0.077 C 
ATOM      7  C   UNL     1      -0.935  29.124  49.537  1.00  0.00     0.039 C 
ATOM      8  C   UNL     1      -2.372  29.441  51.503  1.00  0.00    -0.023 CG0
ATOM      9  G   UNL     1      -3.221  29.073  52.697  1.00  0.00     0.000 G0
ENDBRANCH   5   6
ENDBRANCH   4   5
ENDBRANCH   2   4
BRANCH   1  10
ATOM     10  C   UNL     1      -0.142  28.477  53.974  1.00  0.00     0.111 C 
BRANCH  10  11
ATOM     11  C   UNL     1      -1.496  28.660  54.613  1.00  0.00     0.163 C 
ATOM     12  O   UNL     1      -1.702  28.088  55.719  1.00  0.00    -0.294 OA
BRANCH  11  13
ATOM     13  C   UNL     1      -2.564  29.529  54.018  1.00  0.00    -0.002 C 
ATOM     14  C   UNL     1      -2.985  30.661  54.662  1.00  0.00    -0.069 C 
ATOM     15  C   UNL     1      -2.300  31.167  55.913  1.00  0.00     0.039 C 
ATOM     16  C   UNL     1      -4.128  31.500  54.132  1.00  0.00     0.039 C 
BRANCH  13  17
ATOM     17  C   UNL     1      -3.216  29.095  52.706  1.00  0.00     0.066 CG0
ATOM     18  G   UNL     1      -2.361  29.433  51.506  1.00  0.00     0.000 G0
ENDBRANCH  13  17
ENDBRANCH  11  13
ENDBRANCH  10  11
ENDBRANCH   1  10
TORSDOF 0
ENDMDL
