MODEL 1
REMARK VINA RESULT:    -3.631      0.000      0.000
REMARK INTER + INTRA:          -5.457
REMARK INTER:                  -4.905
REMARK INTRA:                  -0.552
REMARK UNBOUND:                -0.552
REMARK SMILES CCCCCCC=CC(=O)[O-]
REMARK SMILES IDX 5 1 6 2 7 3 8 4 9 5 10 6 11 7 4 8 3 9 2 10 1 11
REMARK H PARENT
REMARK Flexibility Score: inf
ROOT
ATOM      1  C   UNL     1     218.831 207.460 221.616  1.00  0.00     0.004 C 
ENDROOT
BRANCH   1   2
ATOM      2  C   UNL     1     218.259 207.744 223.014  1.00  0.00     0.027 C 
BRANCH   2   3
ATOM      3  C   UNL     1     216.765 207.563 223.039  1.00  0.00    -0.025 C 
ATOM      4  C   UNL     1     216.115 206.390 223.119  1.00  0.00     0.020 C 
BRANCH   4   5
ATOM      5  C   UNL     1     216.723 205.044 223.168  1.00  0.00     0.064 C 
ATOM      6  O   UNL     1     216.716 204.269 222.176  1.00  0.00    -0.545 OA
ATOM      7  O   UNL     1     217.309 204.616 224.352  1.00  0.00    -0.545 OA
ENDBRANCH   4   5
ENDBRANCH   2   3
ENDBRANCH   1   2
BRANCH   1   8
ATOM      8  C   UNL     1     217.872 207.878 220.490  1.00  0.00     0.000 C 
BRANCH   8   9
ATOM      9  C   UNL     1     217.491 206.708 219.572  1.00  0.00    -0.000 C 
BRANCH   9  10
ATOM     10  C   UNL     1     218.712 205.833 219.263  1.00  0.00    -0.003 C 
ATOM     11  C   UNL     1     218.311 204.375 219.069  1.00  0.00     0.004 C 
ENDBRANCH   9  10
ENDBRANCH   8   9
ENDBRANCH   1   8
TORSDOF 6
ENDMDL
MODEL 2
REMARK VINA RESULT:    -3.538     16.115     17.860
REMARK INTER + INTRA:          -5.331
REMARK INTER:                  -4.707
REMARK INTRA:                  -0.624
REMARK UNBOUND:                -0.552
REMARK SMILES CCCCCCC=CC(=O)[O-]
REMARK SMILES IDX 5 1 6 2 7 3 8 4 9 5 10 6 11 7 4 8 3 9 2 10 1 11
REMARK H PARENT
REMARK Flexibility Score: inf
ROOT
ATOM      1  C   UNL     1     204.386 196.182 223.973  1.00  0.00     0.004 C 
ENDROOT
BRANCH   1   2
ATOM      2  C   UNL     1     204.367 196.213 225.510  1.00  0.00     0.027 C 
BRANCH   2   3
ATOM      3  C   UNL     1     205.716 196.587 226.063  1.00  0.00    -0.025 C 
ATOM      4  C   UNL     1     206.742 195.746 226.275  1.00  0.00     0.020 C 
BRANCH   4   5
ATOM      5  C   UNL     1     206.751 194.286 226.040  1.00  0.00     0.064 C 
ATOM      6  O   UNL     1     206.623 193.456 226.978  1.00  0.00    -0.545 OA
ATOM      7  O   UNL     1     206.921 193.817 224.745  1.00  0.00    -0.545 OA
ENDBRANCH   4   5
ENDBRANCH   2   3
ENDBRANCH   1   2
BRANCH   1   8
ATOM      8  C   UNL     1     203.580 195.008 223.397  1.00  0.00     0.000 C 
BRANCH   8   9
ATOM      9  C   UNL     1     203.188 193.978 224.466  1.00  0.00    -0.000 C 
BRANCH   9  10
ATOM     10  C   UNL     1     201.741 193.508 224.272  1.00  0.00    -0.003 C 
ATOM     11  C   UNL     1     200.800 194.202 225.251  1.00  0.00     0.004 C 
ENDBRANCH   9  10
ENDBRANCH   8   9
ENDBRANCH   1   8
TORSDOF 6
ENDMDL
MODEL 3
REMARK VINA RESULT:    -3.527     15.565     16.807
REMARK INTER + INTRA:          -5.316
REMARK INTER:                  -4.349
REMARK INTRA:                  -0.967
REMARK UNBOUND:                -0.552
REMARK SMILES CCCCCCC=CC(=O)[O-]
REMARK SMILES IDX 5 1 6 2 7 3 8 4 9 5 10 6 11 7 4 8 3 9 2 10 1 11
REMARK H PARENT
REMARK Flexibility Score: inf
ROOT
ATOM      1  C   UNL     1     204.852 196.560 225.628  1.00  0.00     0.004 C 
ENDROOT
BRANCH   1   2
ATOM      2  C   UNL     1     206.291 196.276 226.086  1.00  0.00     0.027 C 
BRANCH   2   3
ATOM      3  C   UNL     1     206.501 194.808 226.344  1.00  0.00    -0.025 C 
ATOM      4  C   UNL     1     207.039 193.926 225.485  1.00  0.00     0.020 C 
BRANCH   4   5
ATOM      5  C   UNL     1     207.504 194.203 224.110  1.00  0.00     0.064 C 
ATOM      6  O   UNL     1     206.888 193.780 223.097  1.00  0.00    -0.545 OA
ATOM      7  O   UNL     1     208.665 194.942 223.931  1.00  0.00    -0.545 OA
ENDBRANCH   4   5
ENDBRANCH   2   3
ENDBRANCH   1   2
BRANCH   1   8
ATOM      8  C   UNL     1     204.741 196.732 224.105  1.00  0.00     0.000 C 
BRANCH   8   9
ATOM      9  C   UNL     1     203.969 195.587 223.435  1.00  0.00    -0.000 C 
BRANCH   9  10
ATOM     10  C   UNL     1     203.233 194.737 224.478  1.00  0.00    -0.003 C 
ATOM     11  C   UNL     1     203.514 193.251 224.277  1.00  0.00     0.004 C 
ENDBRANCH   9  10
ENDBRANCH   8   9
ENDBRANCH   1   8
TORSDOF 6
ENDMDL
MODEL 4
REMARK VINA RESULT:    -3.499     16.601     18.195
REMARK INTER + INTRA:          -5.278
REMARK INTER:                  -4.628
REMARK INTRA:                  -0.651
REMARK UNBOUND:                -0.552
REMARK SMILES CCCCCCC=CC(=O)[O-]
REMARK SMILES IDX 5 1 6 2 7 3 8 4 9 5 10 6 11 7 4 8 3 9 2 10 1 11
REMARK H PARENT
REMARK Flexibility Score: inf
ROOT
ATOM      1  C   UNL     1     204.793 196.856 224.333  1.00  0.00     0.004 C 
ENDROOT
BRANCH   1   2
ATOM      2  C   UNL     1     204.078 195.639 223.724  1.00  0.00     0.027 C 
BRANCH   2   3
ATOM      3  C   UNL     1     203.243 194.926 224.754  1.00  0.00    -0.025 C 
ATOM      4  C   UNL     1     202.250 194.058 224.499  1.00  0.00     0.020 C 
BRANCH   4   5
ATOM      5  C   UNL     1     201.755 193.648 223.167  1.00  0.00     0.064 C 
ATOM      6  O   UNL     1     200.905 194.324 222.531  1.00  0.00    -0.545 OA
ATOM      7  O   UNL     1     202.233 192.470 222.608  1.00  0.00    -0.545 OA
ENDBRANCH   4   5
ENDBRANCH   2   3
ENDBRANCH   1   2
BRANCH   1   8
ATOM      8  C   UNL     1     205.197 196.631 225.798  1.00  0.00     0.000 C 
BRANCH   8   9
ATOM      9  C   UNL     1     206.645 196.143 225.945  1.00  0.00    -0.000 C 
BRANCH   9  10
ATOM     10  C   UNL     1     206.702 194.815 226.710  1.00  0.00    -0.003 C 
ATOM     11  C   UNL     1     206.585 193.626 225.762  1.00  0.00     0.004 C 
ENDBRANCH   9  10
ENDBRANCH   8   9
ENDBRANCH   1   8
TORSDOF 6
ENDMDL
MODEL 5
REMARK VINA RESULT:    -3.474     14.413     16.212
REMARK INTER + INTRA:          -5.245
REMARK INTER:                  -4.360
REMARK INTRA:                  -0.885
REMARK UNBOUND:                -0.552
REMARK SMILES CCCCCCC=CC(=O)[O-]
REMARK SMILES IDX 5 1 6 2 7 3 8 4 9 5 10 6 11 7 4 8 3 9 2 10 1 11
REMARK H PARENT
REMARK Flexibility Score: inf
ROOT
ATOM      1  C   UNL     1     204.353 196.102 225.283  1.00  0.00     0.004 C 
ENDROOT
BRANCH   1   2
ATOM      2  C   UNL     1     205.468 196.814 226.066  1.00  0.00     0.027 C 
BRANCH   2   3
ATOM      3  C   UNL     1     206.320 195.827 226.819  1.00  0.00    -0.025 C 
ATOM      4  C   UNL     1     207.614 195.557 226.576  1.00  0.00     0.020 C 
BRANCH   4   5
ATOM      5  C   UNL     1     208.454 196.144 225.510  1.00  0.00     0.064 C 
ATOM      6  O   UNL     1     209.306 197.040 225.746  1.00  0.00    -0.545 OA
ATOM      7  O   UNL     1     208.285 195.704 224.204  1.00  0.00    -0.545 OA
ENDBRANCH   4   5
ENDBRANCH   2   3
ENDBRANCH   1   2
BRANCH   1   8
ATOM      8  C   UNL     1     204.670 195.982 223.785  1.00  0.00     0.000 C 
BRANCH   8   9
ATOM      9  C   UNL     1     205.067 194.556 223.376  1.00  0.00    -0.000 C 
BRANCH   9  10
ATOM     10  C   UNL     1     204.580 193.534 224.410  1.00  0.00    -0.003 C 
ATOM     11  C   UNL     1     205.731 192.669 224.914  1.00  0.00     0.004 C 
ENDBRANCH   9  10
ENDBRANCH   8   9
ENDBRANCH   1   8
TORSDOF 6
ENDMDL
MODEL 6
REMARK VINA RESULT:    -3.415      2.376      2.931
REMARK INTER + INTRA:          -5.165
REMARK INTER:                  -4.836
REMARK INTRA:                  -0.329
REMARK UNBOUND:                -0.552
REMARK SMILES CCCCCCC=CC(=O)[O-]
REMARK SMILES IDX 5 1 6 2 7 3 8 4 9 5 10 6 11 7 4 8 3 9 2 10 1 11
REMARK H PARENT
REMARK Flexibility Score: inf
ROOT
ATOM      1  C   UNL     1     217.360 204.723 222.808  1.00  0.00     0.004 C 
ENDROOT
BRANCH   1   2
ATOM      2  C   UNL     1     216.964 205.920 223.686  1.00  0.00     0.027 C 
BRANCH   2   3
ATOM      3  C   UNL     1     215.549 206.353 223.411  1.00  0.00    -0.025 C 
ATOM      4  C   UNL     1     214.639 206.707 224.334  1.00  0.00     0.020 C 
BRANCH   4   5
ATOM      5  C   UNL     1     214.825 206.715 225.800  1.00  0.00     0.064 C 
ATOM      6  O   UNL     1     215.537 207.576 226.380  1.00  0.00    -0.545 OA
ATOM      7  O   UNL     1     214.207 205.731 226.560  1.00  0.00    -0.545 OA
ENDBRANCH   4   5
ENDBRANCH   2   3
ENDBRANCH   1   2
BRANCH   1   8
ATOM      8  C   UNL     1     217.040 204.949 221.322  1.00  0.00     0.000 C 
BRANCH   8   9
ATOM      9  C   UNL     1     217.906 206.049 220.691  1.00  0.00    -0.000 C 
BRANCH   9  10
ATOM     10  C   UNL     1     218.302 205.680 219.257  1.00  0.00    -0.003 C 
ATOM     11  C   UNL     1     218.254 204.171 219.042  1.00  0.00     0.004 C 
ENDBRANCH   9  10
ENDBRANCH   8   9
ENDBRANCH   1   8
TORSDOF 6
ENDMDL
MODEL 7
REMARK VINA RESULT:    -3.415     13.014     14.957
REMARK INTER + INTRA:          -5.164
REMARK INTER:                  -4.571
REMARK INTRA:                  -0.594
REMARK UNBOUND:                -0.552
REMARK SMILES CCCCCCC=CC(=O)[O-]
REMARK SMILES IDX 5 1 6 2 7 3 8 4 9 5 10 6 11 7 4 8 3 9 2 10 1 11
REMARK H PARENT
REMARK Flexibility Score: inf
ROOT
ATOM      1  C   UNL     1     206.578 195.751 226.539  1.00  0.00     0.004 C 
ENDROOT
BRANCH   1   2
ATOM      2  C   UNL     1     207.939 196.144 225.942  1.00  0.00     0.027 C 
BRANCH   2   3
ATOM      3  C   UNL     1     208.205 195.405 224.658  1.00  0.00    -0.025 C 
ATOM      4  C   UNL     1     209.164 195.698 223.764  1.00  0.00     0.020 C 
BRANCH   4   5
ATOM      5  C   UNL     1     210.130 196.815 223.838  1.00  0.00     0.064 C 
ATOM      6  O   UNL     1     211.062 196.839 224.684  1.00  0.00    -0.545 OA
ATOM      7  O   UNL     1     209.994 197.878 222.956  1.00  0.00    -0.545 OA
ENDBRANCH   4   5
ENDBRANCH   2   3
ENDBRANCH   1   2
BRANCH   1   8
ATOM      8  C   UNL     1     205.461 196.735 226.159  1.00  0.00     0.000 C 
BRANCH   8   9
ATOM      9  C   UNL     1     204.417 196.111 225.223  1.00  0.00    -0.000 C 
BRANCH   9  10
ATOM     10  C   UNL     1     204.674 196.515 223.766  1.00  0.00    -0.003 C 
ATOM     11  C   UNL     1     204.880 195.290 222.882  1.00  0.00     0.004 C 
ENDBRANCH   9  10
ENDBRANCH   8   9
ENDBRANCH   1   8
TORSDOF 6
ENDMDL
MODEL 8
REMARK VINA RESULT:    -3.401     12.813     14.467
REMARK INTER + INTRA:          -5.147
REMARK INTER:                  -4.718
REMARK INTRA:                  -0.429
REMARK UNBOUND:                -0.552
REMARK SMILES CCCCCCC=CC(=O)[O-]
REMARK SMILES IDX 5 1 6 2 7 3 8 4 9 5 10 6 11 7 4 8 3 9 2 10 1 11
REMARK H PARENT
REMARK Flexibility Score: inf
ROOT
ATOM      1  C   UNL     1     208.824 195.787 224.338  1.00  0.00     0.004 C 
ENDROOT
BRANCH   1   2
ATOM      2  C   UNL     1     207.505 195.243 224.908  1.00  0.00     0.027 C 
BRANCH   2   3
ATOM      3  C   UNL     1     206.929 196.178 225.938  1.00  0.00    -0.025 C 
ATOM      4  C   UNL     1     205.665 196.631 225.971  1.00  0.00     0.020 C 
BRANCH   4   5
ATOM      5  C   UNL     1     204.594 196.333 224.997  1.00  0.00     0.064 C 
ATOM      6  O   UNL     1     203.693 195.486 225.231  1.00  0.00    -0.545 OA
ATOM      7  O   UNL     1     204.591 196.999 223.779  1.00  0.00    -0.545 OA
ENDBRANCH   4   5
ENDBRANCH   2   3
ENDBRANCH   1   2
BRANCH   1   8
ATOM      8  C   UNL     1     209.549 196.723 225.317  1.00  0.00     0.000 C 
BRANCH   8   9
ATOM      9  C   UNL     1     210.324 197.841 224.605  1.00  0.00    -0.000 C 
BRANCH   9  10
ATOM     10  C   UNL     1     210.212 197.701 223.082  1.00  0.00    -0.003 C 
ATOM     11  C   UNL     1     211.540 197.273 222.467  1.00  0.00     0.004 C 
ENDBRANCH   9  10
ENDBRANCH   8   9
ENDBRANCH   1   8
TORSDOF 6
ENDMDL
MODEL 9
REMARK VINA RESULT:    -3.395     17.552     19.251
REMARK INTER + INTRA:          -5.138
REMARK INTER:                  -4.702
REMARK INTRA:                  -0.436
REMARK UNBOUND:                -0.552
REMARK SMILES CCCCCCC=CC(=O)[O-]
REMARK SMILES IDX 5 1 6 2 7 3 8 4 9 5 10 6 11 7 4 8 3 9 2 10 1 11
REMARK H PARENT
REMARK Flexibility Score: inf
ROOT
ATOM      1  C   UNL     1     203.193 194.970 224.827  1.00  0.00     0.004 C 
ENDROOT
BRANCH   1   2
ATOM      2  C   UNL     1     202.584 193.588 224.541  1.00  0.00     0.027 C 
BRANCH   2   3
ATOM      3  C   UNL     1     201.080 193.641 224.554  1.00  0.00    -0.025 C 
ATOM      4  C   UNL     1     200.282 193.645 223.474  1.00  0.00     0.020 C 
BRANCH   4   5
ATOM      5  C   UNL     1     200.711 193.629 222.059  1.00  0.00     0.064 C 
ATOM      6  O   UNL     1     201.128 194.662 221.474  1.00  0.00    -0.545 OA
ATOM      7  O   UNL     1     200.635 192.438 221.349  1.00  0.00    -0.545 OA
ENDBRANCH   4   5
ENDBRANCH   2   3
ENDBRANCH   1   2
BRANCH   1   8
ATOM      8  C   UNL     1     203.974 195.529 223.628  1.00  0.00     0.000 C 
BRANCH   8   9
ATOM      9  C   UNL     1     205.010 196.586 224.038  1.00  0.00    -0.000 C 
BRANCH   9  10
ATOM     10  C   UNL     1     205.027 196.777 225.560  1.00  0.00    -0.003 C 
ATOM     11  C   UNL     1     206.319 196.243 226.168  1.00  0.00     0.004 C 
ENDBRANCH   9  10
ENDBRANCH   8   9
ENDBRANCH   1   8
TORSDOF 6
ENDMDL
