MODEL 1
REMARK VINA RESULT:    -2.952      0.000      0.000
REMARK INTER + INTRA:          -3.137
REMARK INTER:                  -3.125
REMARK INTRA:                  -0.012
REMARK UNBOUND:                -0.012
REMARK SMILES O=Cc1ccco1
REMARK SMILES IDX 5 1 6 2 7 3 3 4 4 5 2 6 1 7
REMARK H PARENT
REMARK Flexibility Score: inf
ROOT
ATOM      1  C   UNL     1     143.757 130.482 135.835  1.00  0.00     0.043 A 
ATOM      2  C   UNL     1     143.070 130.522 134.638  1.00  0.00     0.196 A 
ATOM      3  O   UNL     1     143.864 130.154 133.659  1.00  0.00    -0.462 OA
ATOM      4  C   UNL     1     145.043 129.875 134.163  1.00  0.00     0.166 A 
ATOM      5  C   UNL     1     145.035 130.064 135.529  1.00  0.00     0.054 A 
ENDROOT
BRANCH   4   6
ATOM      6  C   UNL     1     146.192 129.429 133.373  1.00  0.00     0.298 C 
ATOM      7  O   UNL     1     146.220 128.265 132.894  1.00  0.00    -0.294 OA
ENDBRANCH   4   6
TORSDOF 1
ENDMDL
MODEL 2
REMARK VINA RESULT:    -2.940     12.935     13.953
REMARK INTER + INTRA:          -3.124
REMARK INTER:                  -3.112
REMARK INTRA:                  -0.012
REMARK UNBOUND:                -0.012
REMARK SMILES O=Cc1ccco1
REMARK SMILES IDX 5 1 6 2 7 3 3 4 4 5 2 6 1 7
REMARK H PARENT
REMARK Flexibility Score: inf
ROOT
ATOM      1  C   UNL     1     144.002 130.664 118.837  1.00  0.00     0.043 A 
ATOM      2  C   UNL     1     143.525 129.708 119.711  1.00  0.00     0.196 A 
ATOM      3  O   UNL     1     144.094 129.859 120.885  1.00  0.00    -0.462 OA
ATOM      4  C   UNL     1     144.924 130.874 120.818  1.00  0.00     0.166 A 
ATOM      5  C   UNL     1     144.908 131.419 119.551  1.00  0.00     0.054 A 
ENDROOT
BRANCH   4   6
ATOM      6  C   UNL     1     145.742 131.344 121.936  1.00  0.00     0.298 C 
ATOM      7  O   UNL     1     146.657 130.617 122.404  1.00  0.00    -0.294 OA
ENDBRANCH   4   6
TORSDOF 1
ENDMDL
MODEL 3
REMARK VINA RESULT:    -2.931     18.335     18.966
REMARK INTER + INTRA:          -3.114
REMARK INTER:                  -3.101
REMARK INTRA:                  -0.013
REMARK UNBOUND:                -0.012
REMARK SMILES O=Cc1ccco1
REMARK SMILES IDX 5 1 6 2 7 3 3 4 4 5 2 6 1 7
REMARK H PARENT
REMARK Flexibility Score: inf
ROOT
ATOM      1  C   UNL     1     145.189 141.568 118.817  1.00  0.00     0.043 A 
ATOM      2  C   UNL     1     145.928 140.894 119.768  1.00  0.00     0.196 A 
ATOM      3  O   UNL     1     145.915 141.566 120.896  1.00  0.00    -0.462 OA
ATOM      4  C   UNL     1     145.199 142.653 120.725  1.00  0.00     0.166 A 
ATOM      5  C   UNL     1     144.717 142.707 119.434  1.00  0.00     0.054 A 
ENDROOT
BRANCH   4   6
ATOM      6  C   UNL     1     144.959 143.654 121.765  1.00  0.00     0.298 C 
ATOM      7  O   UNL     1     145.925 144.253 122.305  1.00  0.00    -0.294 OA
ENDBRANCH   4   6
TORSDOF 1
ENDMDL
MODEL 4
REMARK VINA RESULT:    -2.889     20.255     20.680
REMARK INTER + INTRA:          -3.070
REMARK INTER:                  -3.055
REMARK INTRA:                  -0.015
REMARK UNBOUND:                -0.012
REMARK SMILES O=Cc1ccco1
REMARK SMILES IDX 5 1 6 2 7 3 3 4 4 5 2 6 1 7
REMARK H PARENT
REMARK Flexibility Score: inf
ROOT
ATOM      1  C   UNL     1     143.075 146.669 119.913  1.00  0.00     0.043 A 
ATOM      2  C   UNL     1     143.228 147.101 121.215  1.00  0.00     0.196 A 
ATOM      3  O   UNL     1     143.991 146.261 121.874  1.00  0.00    -0.462 OA
ATOM      4  C   UNL     1     144.346 145.294 121.059  1.00  0.00     0.166 A 
ATOM      5  C   UNL     1     143.798 145.500 119.810  1.00  0.00     0.054 A 
ENDROOT
BRANCH   4   6
ATOM      6  C   UNL     1     145.200 144.168 121.438  1.00  0.00     0.298 C 
ATOM      7  O   UNL     1     146.014 144.281 122.392  1.00  0.00    -0.294 OA
ENDBRANCH   4   6
TORSDOF 1
ENDMDL
MODEL 5
REMARK VINA RESULT:    -2.861      1.014      1.388
REMARK INTER + INTRA:          -3.040
REMARK INTER:                  -3.029
REMARK INTRA:                  -0.011
REMARK UNBOUND:                -0.012
REMARK SMILES O=Cc1ccco1
REMARK SMILES IDX 5 1 6 2 7 3 3 4 4 5 2 6 1 7
REMARK H PARENT
REMARK Flexibility Score: inf
ROOT
ATOM      1  C   UNL     1     143.286 130.864 134.896  1.00  0.00     0.043 A 
ATOM      2  C   UNL     1     144.004 130.364 135.963  1.00  0.00     0.196 A 
ATOM      3  O   UNL     1     145.114 129.811 135.530  1.00  0.00    -0.462 OA
ATOM      4  C   UNL     1     145.153 129.926 134.223  1.00  0.00     0.166 A 
ATOM      5  C   UNL     1     144.027 130.581 133.769  1.00  0.00     0.054 A 
ENDROOT
BRANCH   4   6
ATOM      6  C   UNL     1     146.242 129.425 133.384  1.00  0.00     0.298 C 
ATOM      7  O   UNL     1     146.190 128.264 132.902  1.00  0.00    -0.294 OA
ENDBRANCH   4   6
TORSDOF 1
ENDMDL
MODEL 6
REMARK VINA RESULT:    -2.745      1.301      1.523
REMARK INTER + INTRA:          -2.917
REMARK INTER:                  -2.907
REMARK INTRA:                  -0.011
REMARK UNBOUND:                -0.012
REMARK SMILES O=Cc1ccco1
REMARK SMILES IDX 5 1 6 2 7 3 3 4 4 5 2 6 1 7
REMARK H PARENT
REMARK Flexibility Score: inf
ROOT
ATOM      1  C   UNL     1     143.602 131.020 133.842  1.00  0.00     0.043 A 
ATOM      2  C   UNL     1     143.684 130.897 132.470  1.00  0.00     0.196 A 
ATOM      3  O   UNL     1     144.766 130.224 132.150  1.00  0.00    -0.462 OA
ATOM      4  C   UNL     1     145.398 129.902 133.255  1.00  0.00     0.166 A 
ATOM      5  C   UNL     1     144.711 130.378 134.352  1.00  0.00     0.054 A 
ENDROOT
BRANCH   4   6
ATOM      6  C   UNL     1     146.650 129.147 133.297  1.00  0.00     0.298 C 
ATOM      7  O   UNL     1     146.647 127.928 133.609  1.00  0.00    -0.294 OA
ENDBRANCH   4   6
TORSDOF 1
ENDMDL
MODEL 7
REMARK VINA RESULT:    -2.744     26.457     27.008
REMARK INTER + INTRA:          -2.916
REMARK INTER:                  -2.900
REMARK INTRA:                  -0.016
REMARK UNBOUND:                -0.012
REMARK SMILES O=Cc1ccco1
REMARK SMILES IDX 5 1 6 2 7 3 3 4 4 5 2 6 1 7
REMARK H PARENT
REMARK Flexibility Score: inf
ROOT
ATOM      1  C   UNL     1     127.739 144.866 118.907  1.00  0.00     0.043 A 
ATOM      2  C   UNL     1     127.614 143.749 119.708  1.00  0.00     0.196 A 
ATOM      3  O   UNL     1     127.304 144.113 120.931  1.00  0.00    -0.462 OA
ATOM      4  C   UNL     1     127.222 145.423 120.967  1.00  0.00     0.166 A 
ATOM      5  C   UNL     1     127.487 145.950 119.720  1.00  0.00     0.054 A 
ENDROOT
BRANCH   4   6
ATOM      6  C   UNL     1     126.897 146.196 122.166  1.00  0.00     0.298 C 
ATOM      7  O   UNL     1     126.961 145.660 123.303  1.00  0.00    -0.294 OA
ENDBRANCH   4   6
TORSDOF 1
ENDMDL
MODEL 8
REMARK VINA RESULT:    -2.738      1.655      2.744
REMARK INTER + INTRA:          -2.910
REMARK INTER:                  -2.895
REMARK INTRA:                  -0.015
REMARK UNBOUND:                -0.012
REMARK SMILES O=Cc1ccco1
REMARK SMILES IDX 5 1 6 2 7 3 3 4 4 5 2 6 1 7
REMARK H PARENT
REMARK Flexibility Score: inf
ROOT
ATOM      1  C   UNL     1     146.395 129.168 135.073  1.00  0.00     0.043 A 
ATOM      2  C   UNL     1     146.682 128.403 133.961  1.00  0.00     0.196 A 
ATOM      3  O   UNL     1     146.063 128.897 132.913  1.00  0.00    -0.462 OA
ATOM      4  C   UNL     1     145.382 129.953 133.292  1.00  0.00     0.166 A 
ATOM      5  C   UNL     1     145.553 130.171 134.643  1.00  0.00     0.054 A 
ENDROOT
BRANCH   4   6
ATOM      6  C   UNL     1     144.562 130.770 132.396  1.00  0.00     0.298 C 
ATOM      7  O   UNL     1     143.999 130.248 131.398  1.00  0.00    -0.294 OA
ENDBRANCH   4   6
TORSDOF 1
ENDMDL
MODEL 9
REMARK VINA RESULT:    -2.724     25.290     26.550
REMARK INTER + INTRA:          -2.896
REMARK INTER:                  -2.880
REMARK INTRA:                  -0.016
REMARK UNBOUND:                -0.012
REMARK SMILES O=Cc1ccco1
REMARK SMILES IDX 5 1 6 2 7 3 3 4 4 5 2 6 1 7
REMARK H PARENT
REMARK Flexibility Score: inf
ROOT
ATOM      1  C   UNL     1     127.185 145.569 119.126  1.00  0.00     0.043 A 
ATOM      2  C   UNL     1     126.875 146.147 120.340  1.00  0.00     0.196 A 
ATOM      3  O   UNL     1     127.090 145.286 121.308  1.00  0.00    -0.462 OA
ATOM      4  C   UNL     1     127.527 144.166 120.779  1.00  0.00     0.166 A 
ATOM      5  C   UNL     1     127.606 144.287 119.407  1.00  0.00     0.054 A 
ENDROOT
BRANCH   4   6
ATOM      6  C   UNL     1     127.875 142.971 121.549  1.00  0.00     0.298 C 
ATOM      7  O   UNL     1     127.572 142.892 122.768  1.00  0.00    -0.294 OA
ENDBRANCH   4   6
TORSDOF 1
ENDMDL
