MODEL 1
REMARK VINA RESULT:    -3.811      0.000      0.000
REMARK INTER + INTRA:          -9.480
REMARK INTER:                  -6.930
REMARK INTRA:                  -2.549
REMARK UNBOUND:                -2.549
REMARK SMILES CCCCCCCCCCCCCCCC(=O)[O-]
REMARK SMILES IDX 9 1 10 2 11 3 12 4 13 5 14 6 15 7 16 8 17 9 18 10 8 11 7 12
REMARK SMILES IDX 6 13 5 14 4 15 3 16 2 17 1 18
REMARK H PARENT
REMARK Flexibility Score: inf
ROOT
ATOM      1  C   UNL     1     134.962 -43.919 -25.163  1.00  0.00     0.000 C 
ENDROOT
BRANCH   1   2
ATOM      2  C   UNL     1     135.265 -45.329 -25.693  1.00  0.00     0.000 C 
BRANCH   2   3
ATOM      3  C   UNL     1     134.467 -46.422 -24.959  1.00  0.00     0.000 C 
BRANCH   3   4
ATOM      4  C   UNL     1     135.375 -47.499 -24.343  1.00  0.00     0.000 C 
BRANCH   4   5
ATOM      5  C   UNL     1     134.873 -47.979 -22.970  1.00  0.00     0.000 C 
BRANCH   5   6
ATOM      6  C   UNL     1     133.845 -47.019 -22.349  1.00  0.00     0.006 C 
BRANCH   6   7
ATOM      7  C   UNL     1     134.364 -46.348 -21.071  1.00  0.00     0.053 C 
BRANCH   7   8
ATOM      8  C   UNL     1     134.959 -45.012 -21.388  1.00  0.00     0.041 C 
ATOM      9  O   UNL     1     136.095 -44.936 -21.927  1.00  0.00    -0.550 OA
ATOM     10  O   UNL     1     134.237 -43.852 -21.136  1.00  0.00    -0.550 OA
ENDBRANCH   7   8
ENDBRANCH   6   7
ENDBRANCH   5   6
ENDBRANCH   4   5
ENDBRANCH   3   4
ENDBRANCH   2   3
ENDBRANCH   1   2
BRANCH   1  11
ATOM     11  C   UNL     1     133.530 -43.788 -24.617  1.00  0.00     0.000 C 
BRANCH  11  12
ATOM     12  C   UNL     1     132.695 -42.759 -25.399  1.00  0.00    -0.000 C 
BRANCH  12  13
ATOM     13  C   UNL     1     132.790 -42.954 -26.921  1.00  0.00    -0.000 C 
BRANCH  13  14
ATOM     14  C   UNL     1     131.709 -43.905 -27.467  1.00  0.00    -0.000 C 
BRANCH  14  15
ATOM     15  C   UNL     1     132.151 -45.376 -27.610  1.00  0.00    -0.000 C 
BRANCH  15  16
ATOM     16  C   UNL     1     131.277 -46.399 -26.858  1.00  0.00    -0.000 C 
BRANCH  16  17
ATOM     17  C   UNL     1     130.313 -45.790 -25.825  1.00  0.00    -0.003 C 
ATOM     18  C   UNL     1     130.744 -46.053 -24.383  1.00  0.00     0.004 C 
ENDBRANCH  16  17
ENDBRANCH  15  16
ENDBRANCH  14  15
ENDBRANCH  13  14
ENDBRANCH  12  13
ENDBRANCH  11  12
ENDBRANCH   1  11
TORSDOF 14
ENDMDL
MODEL 2
REMARK VINA RESULT:    -3.801      1.631      3.442
REMARK INTER + INTRA:          -9.462
REMARK INTER:                  -7.054
REMARK INTRA:                  -2.407
REMARK UNBOUND:                -2.549
REMARK SMILES CCCCCCCCCCCCCCCC(=O)[O-]
REMARK SMILES IDX 9 1 10 2 11 3 12 4 13 5 14 6 15 7 16 8 17 9 18 10 8 11 7 12
REMARK SMILES IDX 6 13 5 14 4 15 3 16 2 17 1 18
REMARK H PARENT
REMARK Flexibility Score: inf
ROOT
ATOM      1  C   UNL     1     132.843 -46.088 -21.803  1.00  0.00     0.000 C 
ENDROOT
BRANCH   1   2
ATOM      2  C   UNL     1     134.216 -45.931 -21.130  1.00  0.00     0.000 C 
BRANCH   2   3
ATOM      3  C   UNL     1     135.307 -46.782 -21.804  1.00  0.00     0.000 C 
BRANCH   3   4
ATOM      4  C   UNL     1     134.722 -47.879 -22.708  1.00  0.00     0.000 C 
BRANCH   4   5
ATOM      5  C   UNL     1     135.154 -47.725 -24.177  1.00  0.00     0.000 C 
BRANCH   5   6
ATOM      6  C   UNL     1     136.041 -46.490 -24.405  1.00  0.00     0.006 C 
BRANCH   6   7
ATOM      7  C   UNL     1     135.551 -45.621 -25.570  1.00  0.00     0.053 C 
BRANCH   7   8
ATOM      8  C   UNL     1     135.168 -44.260 -25.079  1.00  0.00     0.041 C 
ATOM      9  O   UNL     1     135.362 -43.942 -23.876  1.00  0.00    -0.550 OA
ATOM     10  O   UNL     1     134.644 -43.325 -25.963  1.00  0.00    -0.550 OA
ENDBRANCH   7   8
ENDBRANCH   6   7
ENDBRANCH   5   6
ENDBRANCH   4   5
ENDBRANCH   3   4
ENDBRANCH   2   3
ENDBRANCH   1   2
BRANCH   1  11
ATOM     11  C   UNL     1     132.324 -44.769 -22.399  1.00  0.00     0.000 C 
BRANCH  11  12
ATOM     12  C   UNL     1     131.816 -44.936 -23.841  1.00  0.00    -0.000 C 
BRANCH  12  13
ATOM     13  C   UNL     1     131.549 -46.405 -24.208  1.00  0.00    -0.000 C 
BRANCH  13  14
ATOM     14  C   UNL     1     132.047 -46.764 -25.620  1.00  0.00    -0.000 C 
BRANCH  14  15
ATOM     15  C   UNL     1     131.347 -46.008 -26.768  1.00  0.00    -0.000 C 
BRANCH  15  16
ATOM     16  C   UNL     1     132.248 -45.041 -27.561  1.00  0.00    -0.000 C 
BRANCH  16  17
ATOM     17  C   UNL     1     131.563 -43.737 -28.006  1.00  0.00    -0.003 C 
ATOM     18  C   UNL     1     131.226 -42.814 -26.836  1.00  0.00     0.004 C 
ENDBRANCH  16  17
ENDBRANCH  15  16
ENDBRANCH  14  15
ENDBRANCH  13  14
ENDBRANCH  12  13
ENDBRANCH  11  12
ENDBRANCH   1  11
TORSDOF 14
ENDMDL
MODEL 3
REMARK VINA RESULT:    -3.630      9.942     12.431
REMARK INTER + INTRA:          -9.150
REMARK INTER:                  -7.147
REMARK INTRA:                  -2.003
REMARK UNBOUND:                -2.549
REMARK SMILES CCCCCCCCCCCCCCCC(=O)[O-]
REMARK SMILES IDX 9 1 10 2 11 3 12 4 13 5 14 6 15 7 16 8 17 9 18 10 8 11 7 12
REMARK SMILES IDX 6 13 5 14 4 15 3 16 2 17 1 18
REMARK H PARENT
REMARK Flexibility Score: inf
ROOT
ATOM      1  C   UNL     1     136.108 -33.460 -20.513  1.00  0.00     0.000 C 
ENDROOT
BRANCH   1   2
ATOM      2  C   UNL     1     135.443 -32.138 -20.931  1.00  0.00     0.000 C 
BRANCH   2   3
ATOM      3  C   UNL     1     134.618 -32.273 -22.223  1.00  0.00     0.000 C 
BRANCH   3   4
ATOM      4  C   UNL     1     135.265 -33.230 -23.236  1.00  0.00     0.000 C 
BRANCH   4   5
ATOM      5  C   UNL     1     134.322 -34.373 -23.653  1.00  0.00     0.000 C 
BRANCH   5   6
ATOM      6  C   UNL     1     132.838 -33.995 -23.512  1.00  0.00     0.006 C 
BRANCH   6   7
ATOM      7  C   UNL     1     132.000 -34.443 -24.715  1.00  0.00     0.053 C 
BRANCH   7   8
ATOM      8  C   UNL     1     132.148 -35.916 -24.935  1.00  0.00     0.041 C 
ATOM      9  O   UNL     1     131.697 -36.731 -24.088  1.00  0.00    -0.550 OA
ATOM     10  O   UNL     1     132.740 -36.388 -26.100  1.00  0.00    -0.550 OA
ENDBRANCH   7   8
ENDBRANCH   6   7
ENDBRANCH   5   6
ENDBRANCH   4   5
ENDBRANCH   3   4
ENDBRANCH   2   3
ENDBRANCH   1   2
BRANCH   1  11
ATOM     11  C   UNL     1     135.309 -34.207 -19.432  1.00  0.00     0.000 C 
BRANCH  11  12
ATOM     12  C   UNL     1     134.368 -35.268 -20.025  1.00  0.00    -0.000 C 
BRANCH  12  13
ATOM     13  C   UNL     1     132.892 -34.834 -19.994  1.00  0.00    -0.000 C 
BRANCH  13  14
ATOM     14  C   UNL     1     132.658 -33.587 -19.121  1.00  0.00    -0.000 C 
BRANCH  14  15
ATOM     15  C   UNL     1     131.933 -33.856 -17.787  1.00  0.00    -0.000 C 
BRANCH  15  16
ATOM     16  C   UNL     1     132.385 -35.126 -17.039  1.00  0.00    -0.000 C 
BRANCH  16  17
ATOM     17  C   UNL     1     131.340 -36.254 -16.992  1.00  0.00    -0.003 C 
ATOM     18  C   UNL     1     131.868 -37.575 -17.550  1.00  0.00     0.004 C 
ENDBRANCH  16  17
ENDBRANCH  15  16
ENDBRANCH  14  15
ENDBRANCH  13  14
ENDBRANCH  12  13
ENDBRANCH  11  12
ENDBRANCH   1  11
TORSDOF 14
ENDMDL
MODEL 4
REMARK VINA RESULT:    -3.624      1.366      2.071
REMARK INTER + INTRA:          -9.139
REMARK INTER:                  -6.984
REMARK INTRA:                  -2.155
REMARK UNBOUND:                -2.549
REMARK SMILES CCCCCCCCCCCCCCCC(=O)[O-]
REMARK SMILES IDX 9 1 10 2 11 3 12 4 13 5 14 6 15 7 16 8 17 9 18 10 8 11 7 12
REMARK SMILES IDX 6 13 5 14 4 15 3 16 2 17 1 18
REMARK H PARENT
REMARK Flexibility Score: inf
ROOT
ATOM      1  C   UNL     1     134.951 -44.504 -25.038  1.00  0.00     0.000 C 
ENDROOT
BRANCH   1   2
ATOM      2  C   UNL     1     135.167 -46.016 -25.211  1.00  0.00     0.000 C 
BRANCH   2   3
ATOM      3  C   UNL     1     136.125 -46.602 -24.158  1.00  0.00     0.000 C 
BRANCH   3   4
ATOM      4  C   UNL     1     135.562 -47.869 -23.493  1.00  0.00     0.000 C 
BRANCH   4   5
ATOM      5  C   UNL     1     134.355 -47.572 -22.586  1.00  0.00     0.000 C 
BRANCH   5   6
ATOM      6  C   UNL     1     134.740 -46.760 -21.339  1.00  0.00     0.006 C 
BRANCH   6   7
ATOM      7  C   UNL     1     134.188 -45.329 -21.375  1.00  0.00     0.053 C 
BRANCH   7   8
ATOM      8  C   UNL     1     133.460 -45.019 -20.105  1.00  0.00     0.041 C 
ATOM      9  O   UNL     1     132.770 -45.906 -19.537  1.00  0.00    -0.550 OA
ATOM     10  O   UNL     1     133.585 -43.764 -19.521  1.00  0.00    -0.550 OA
ENDBRANCH   7   8
ENDBRANCH   6   7
ENDBRANCH   5   6
ENDBRANCH   4   5
ENDBRANCH   3   4
ENDBRANCH   2   3
ENDBRANCH   1   2
BRANCH   1  11
ATOM     11  C   UNL     1     133.965 -43.926 -26.068  1.00  0.00     0.000 C 
BRANCH  11  12
ATOM     12  C   UNL     1     133.719 -44.883 -27.246  1.00  0.00    -0.000 C 
BRANCH  12  13
ATOM     13  C   UNL     1     132.226 -45.033 -27.585  1.00  0.00    -0.000 C 
BRANCH  13  14
ATOM     14  C   UNL     1     131.677 -46.430 -27.243  1.00  0.00    -0.000 C 
BRANCH  14  15
ATOM     15  C   UNL     1     131.654 -46.768 -25.738  1.00  0.00    -0.000 C 
BRANCH  15  16
ATOM     16  C   UNL     1     130.726 -45.884 -24.882  1.00  0.00    -0.000 C 
BRANCH  16  17
ATOM     17  C   UNL     1     131.330 -45.413 -23.548  1.00  0.00    -0.003 C 
ATOM     18  C   UNL     1     130.609 -45.995 -22.332  1.00  0.00     0.004 C 
ENDBRANCH  16  17
ENDBRANCH  15  16
ENDBRANCH  14  15
ENDBRANCH  13  14
ENDBRANCH  12  13
ENDBRANCH  11  12
ENDBRANCH   1  11
TORSDOF 14
ENDMDL
MODEL 5
REMARK VINA RESULT:    -3.612      2.790      4.996
REMARK INTER + INTRA:          -9.118
REMARK INTER:                  -6.605
REMARK INTRA:                  -2.513
REMARK UNBOUND:                -2.549
REMARK SMILES CCCCCCCCCCCCCCCC(=O)[O-]
REMARK SMILES IDX 9 1 10 2 11 3 12 4 13 5 14 6 15 7 16 8 17 9 18 10 8 11 7 12
REMARK SMILES IDX 6 13 5 14 4 15 3 16 2 17 1 18
REMARK H PARENT
REMARK Flexibility Score: inf
ROOT
ATOM      1  C   UNL     1     135.477 -46.697 -21.978  1.00  0.00     0.000 C 
ENDROOT
BRANCH   1   2
ATOM      2  C   UNL     1     134.520 -45.575 -21.543  1.00  0.00     0.000 C 
BRANCH   2   3
ATOM      3  C   UNL     1     133.075 -46.070 -21.350  1.00  0.00     0.000 C 
BRANCH   3   4
ATOM      4  C   UNL     1     132.080 -45.348 -22.272  1.00  0.00     0.000 C 
BRANCH   4   5
ATOM      5  C   UNL     1     131.440 -46.293 -23.305  1.00  0.00     0.000 C 
BRANCH   5   6
ATOM      6  C   UNL     1     129.986 -45.912 -23.631  1.00  0.00     0.006 C 
BRANCH   6   7
ATOM      7  C   UNL     1     129.868 -44.511 -24.245  1.00  0.00     0.053 C 
BRANCH   7   8
ATOM      8  C   UNL     1     129.301 -44.593 -25.627  1.00  0.00     0.041 C 
ATOM      9  O   UNL     1     128.537 -45.544 -25.943  1.00  0.00    -0.550 OA
ATOM     10  O   UNL     1     129.574 -43.593 -26.551  1.00  0.00    -0.550 OA
ENDBRANCH   7   8
ENDBRANCH   6   7
ENDBRANCH   5   6
ENDBRANCH   4   5
ENDBRANCH   3   4
ENDBRANCH   2   3
ENDBRANCH   1   2
BRANCH   1  11
ATOM     11  C   UNL     1     134.762 -47.813 -22.758  1.00  0.00     0.000 C 
BRANCH  11  12
ATOM     12  C   UNL     1     134.732 -47.546 -24.272  1.00  0.00    -0.000 C 
BRANCH  12  13
ATOM     13  C   UNL     1     135.920 -46.691 -24.746  1.00  0.00    -0.000 C 
BRANCH  13  14
ATOM     14  C   UNL     1     135.489 -45.534 -25.666  1.00  0.00    -0.000 C 
BRANCH  14  15
ATOM     15  C   UNL     1     134.438 -44.581 -25.063  1.00  0.00    -0.000 C 
BRANCH  15  16
ATOM     16  C   UNL     1     133.169 -44.381 -25.915  1.00  0.00    -0.000 C 
BRANCH  16  17
ATOM     17  C   UNL     1     133.072 -45.289 -27.153  1.00  0.00    -0.003 C 
ATOM     18  C   UNL     1     131.996 -46.365 -27.017  1.00  0.00     0.004 C 
ENDBRANCH  16  17
ENDBRANCH  15  16
ENDBRANCH  14  15
ENDBRANCH  13  14
ENDBRANCH  12  13
ENDBRANCH  11  12
ENDBRANCH   1  11
TORSDOF 14
ENDMDL
MODEL 6
REMARK VINA RESULT:    -3.603     10.053     12.541
REMARK INTER + INTRA:          -9.101
REMARK INTER:                  -7.203
REMARK INTRA:                  -1.899
REMARK UNBOUND:                -2.549
REMARK SMILES CCCCCCCCCCCCCCCC(=O)[O-]
REMARK SMILES IDX 9 1 10 2 11 3 12 4 13 5 14 6 15 7 16 8 17 9 18 10 8 11 7 12
REMARK SMILES IDX 6 13 5 14 4 15 3 16 2 17 1 18
REMARK H PARENT
REMARK Flexibility Score: inf
ROOT
ATOM      1  C   UNL     1     135.517 -32.108 -20.911  1.00  0.00     0.000 C 
ENDROOT
BRANCH   1   2
ATOM      2  C   UNL     1     134.583 -32.012 -22.128  1.00  0.00     0.000 C 
BRANCH   2   3
ATOM      3  C   UNL     1     134.736 -33.207 -23.087  1.00  0.00     0.000 C 
BRANCH   3   4
ATOM      4  C   UNL     1     133.388 -33.863 -23.426  1.00  0.00     0.000 C 
BRANCH   4   5
ATOM      5  C   UNL     1     133.524 -35.364 -23.735  1.00  0.00     0.000 C 
BRANCH   5   6
ATOM      6  C   UNL     1     132.319 -35.918 -24.514  1.00  0.00     0.006 C 
BRANCH   6   7
ATOM      7  C   UNL     1     132.621 -36.110 -26.006  1.00  0.00     0.053 C 
BRANCH   7   8
ATOM      8  C   UNL     1     131.910 -35.074 -26.819  1.00  0.00     0.041 C 
ATOM      9  O   UNL     1     131.915 -35.143 -28.077  1.00  0.00    -0.550 OA
ATOM     10  O   UNL     1     131.198 -34.062 -26.188  1.00  0.00    -0.550 OA
ENDBRANCH   7   8
ENDBRANCH   6   7
ENDBRANCH   5   6
ENDBRANCH   4   5
ENDBRANCH   3   4
ENDBRANCH   2   3
ENDBRANCH   1   2
BRANCH   1  11
ATOM     11  C   UNL     1     136.093 -33.521 -20.717  1.00  0.00     0.000 C 
BRANCH  11  12
ATOM     12  C   UNL     1     135.366 -34.305 -19.612  1.00  0.00    -0.000 C 
BRANCH  12  13
ATOM     13  C   UNL     1     134.515 -35.459 -20.167  1.00  0.00    -0.000 C 
BRANCH  13  14
ATOM     14  C   UNL     1     133.004 -35.220 -19.992  1.00  0.00    -0.000 C 
BRANCH  14  15
ATOM     15  C   UNL     1     132.626 -33.828 -19.445  1.00  0.00    -0.000 C 
BRANCH  15  16
ATOM     16  C   UNL     1     131.985 -33.827 -18.043  1.00  0.00    -0.000 C 
BRANCH  16  17
ATOM     17  C   UNL     1     132.460 -34.957 -17.114  1.00  0.00    -0.003 C 
ATOM     18  C   UNL     1     131.371 -35.990 -16.829  1.00  0.00     0.004 C 
ENDBRANCH  16  17
ENDBRANCH  15  16
ENDBRANCH  14  15
ENDBRANCH  13  14
ENDBRANCH  12  13
ENDBRANCH  11  12
ENDBRANCH   1  11
TORSDOF 14
ENDMDL
MODEL 7
REMARK VINA RESULT:    -3.589      2.888      5.852
REMARK INTER + INTRA:          -9.076
REMARK INTER:                  -6.758
REMARK INTRA:                  -2.318
REMARK UNBOUND:                -2.549
REMARK SMILES CCCCCCCCCCCCCCCC(=O)[O-]
REMARK SMILES IDX 9 1 10 2 11 3 12 4 13 5 14 6 15 7 16 8 17 9 18 10 8 11 7 12
REMARK SMILES IDX 6 13 5 14 4 15 3 16 2 17 1 18
REMARK H PARENT
REMARK Flexibility Score: inf
ROOT
ATOM      1  C   UNL     1     131.760 -44.817 -22.735  1.00  0.00     0.000 C 
ENDROOT
BRANCH   1   2
ATOM      2  C   UNL     1     131.589 -46.243 -23.284  1.00  0.00     0.000 C 
BRANCH   2   3
ATOM      3  C   UNL     1     131.028 -46.262 -24.717  1.00  0.00     0.000 C 
BRANCH   3   4
ATOM      4  C   UNL     1     132.054 -46.771 -25.743  1.00  0.00     0.000 C 
BRANCH   4   5
ATOM      5  C   UNL     1     131.733 -46.312 -27.176  1.00  0.00     0.000 C 
BRANCH   5   6
ATOM      6  C   UNL     1     132.625 -45.148 -27.637  1.00  0.00     0.006 C 
BRANCH   6   7
ATOM      7  C   UNL     1     132.144 -43.792 -27.104  1.00  0.00     0.053 C 
BRANCH   7   8
ATOM      8  C   UNL     1     130.798 -43.458 -27.668  1.00  0.00     0.041 C 
ATOM      9  O   UNL     1     129.774 -43.513 -26.937  1.00  0.00    -0.550 OA
ATOM     10  O   UNL     1     130.682 -43.037 -28.986  1.00  0.00    -0.550 OA
ENDBRANCH   7   8
ENDBRANCH   6   7
ENDBRANCH   5   6
ENDBRANCH   4   5
ENDBRANCH   3   4
ENDBRANCH   2   3
ENDBRANCH   1   2
BRANCH   1  11
ATOM     11  C   UNL     1     132.857 -44.726 -21.661  1.00  0.00     0.000 C 
BRANCH  11  12
ATOM     12  C   UNL     1     133.451 -46.100 -21.309  1.00  0.00    -0.000 C 
BRANCH  12  13
ATOM     13  C   UNL     1     134.988 -46.109 -21.348  1.00  0.00    -0.000 C 
BRANCH  13  14
ATOM     14  C   UNL     1     135.554 -47.257 -22.204  1.00  0.00    -0.000 C 
BRANCH  14  15
ATOM     15  C   UNL     1     135.021 -47.312 -23.650  1.00  0.00    -0.000 C 
BRANCH  15  16
ATOM     16  C   UNL     1     136.031 -46.893 -24.737  1.00  0.00    -0.000 C 
BRANCH  16  17
ATOM     17  C   UNL     1     135.608 -45.676 -25.578  1.00  0.00    -0.003 C 
ATOM     18  C   UNL     1     134.986 -44.561 -24.738  1.00  0.00     0.004 C 
ENDBRANCH  16  17
ENDBRANCH  15  16
ENDBRANCH  14  15
ENDBRANCH  13  14
ENDBRANCH  12  13
ENDBRANCH  11  12
ENDBRANCH   1  11
TORSDOF 14
ENDMDL
MODEL 8
REMARK VINA RESULT:    -3.577      1.689      3.068
REMARK INTER + INTRA:          -9.054
REMARK INTER:                  -7.134
REMARK INTRA:                  -1.920
REMARK UNBOUND:                -2.549
REMARK SMILES CCCCCCCCCCCCCCCC(=O)[O-]
REMARK SMILES IDX 9 1 10 2 11 3 12 4 13 5 14 6 15 7 16 8 17 9 18 10 8 11 7 12
REMARK SMILES IDX 6 13 5 14 4 15 3 16 2 17 1 18
REMARK H PARENT
REMARK Flexibility Score: inf
ROOT
ATOM      1  C   UNL     1     135.981 -46.302 -23.871  1.00  0.00     0.000 C 
ENDROOT
BRANCH   1   2
ATOM      2  C   UNL     1     135.651 -47.756 -23.496  1.00  0.00     0.000 C 
BRANCH   2   3
ATOM      3  C   UNL     1     134.483 -47.861 -22.499  1.00  0.00     0.000 C 
BRANCH   3   4
ATOM      4  C   UNL     1     134.573 -46.814 -21.377  1.00  0.00     0.000 C 
BRANCH   4   5
ATOM      5  C   UNL     1     133.247 -46.063 -21.164  1.00  0.00     0.000 C 
BRANCH   5   6
ATOM      6  C   UNL     1     133.373 -44.922 -20.140  1.00  0.00     0.006 C 
BRANCH   6   7
ATOM      7  C   UNL     1     134.102 -43.698 -20.710  1.00  0.00     0.053 C 
BRANCH   7   8
ATOM      8  C   UNL     1     134.502 -42.770 -19.607  1.00  0.00     0.041 C 
ATOM      9  O   UNL     1     133.973 -42.873 -18.469  1.00  0.00    -0.550 OA
ATOM     10  O   UNL     1     135.497 -41.825 -19.821  1.00  0.00    -0.550 OA
ENDBRANCH   7   8
ENDBRANCH   6   7
ENDBRANCH   5   6
ENDBRANCH   4   5
ENDBRANCH   3   4
ENDBRANCH   2   3
ENDBRANCH   1   2
BRANCH   1  11
ATOM     11  C   UNL     1     135.964 -46.066 -25.390  1.00  0.00     0.000 C 
BRANCH  11  12
ATOM     12  C   UNL     1     134.786 -45.184 -25.835  1.00  0.00    -0.000 C 
BRANCH  12  13
ATOM     13  C   UNL     1     133.835 -44.838 -24.676  1.00  0.00    -0.000 C 
BRANCH  13  14
ATOM     14  C   UNL     1     132.517 -45.632 -24.732  1.00  0.00    -0.000 C 
BRANCH  14  15
ATOM     15  C   UNL     1     132.431 -46.668 -25.872  1.00  0.00    -0.000 C 
BRANCH  15  16
ATOM     16  C   UNL     1     131.353 -46.382 -26.937  1.00  0.00    -0.000 C 
BRANCH  16  17
ATOM     17  C   UNL     1     131.018 -44.894 -27.134  1.00  0.00    -0.003 C 
ATOM     18  C   UNL     1     132.002 -44.180 -28.059  1.00  0.00     0.004 C 
ENDBRANCH  16  17
ENDBRANCH  15  16
ENDBRANCH  14  15
ENDBRANCH  13  14
ENDBRANCH  12  13
ENDBRANCH  11  12
ENDBRANCH   1  11
TORSDOF 14
ENDMDL
MODEL 9
REMARK VINA RESULT:    -3.551      3.078      5.781
REMARK INTER + INTRA:          -9.007
REMARK INTER:                  -6.763
REMARK INTRA:                  -2.245
REMARK UNBOUND:                -2.549
REMARK SMILES CCCCCCCCCCCCCCCC(=O)[O-]
REMARK SMILES IDX 9 1 10 2 11 3 12 4 13 5 14 6 15 7 16 8 17 9 18 10 8 11 7 12
REMARK SMILES IDX 6 13 5 14 4 15 3 16 2 17 1 18
REMARK H PARENT
REMARK Flexibility Score: inf
ROOT
ATOM      1  C   UNL     1     135.346 -45.270 -25.040  1.00  0.00     0.000 C 
ENDROOT
BRANCH   1   2
ATOM      2  C   UNL     1     134.689 -45.249 -26.429  1.00  0.00     0.000 C 
BRANCH   2   3
ATOM      3  C   UNL     1     133.179 -44.955 -26.366  1.00  0.00     0.000 C 
BRANCH   3   4
ATOM      4  C   UNL     1     132.329 -46.137 -26.858  1.00  0.00     0.000 C 
BRANCH   4   5
ATOM      5  C   UNL     1     130.822 -45.905 -26.656  1.00  0.00     0.000 C 
BRANCH   5   6
ATOM      6  C   UNL     1     130.511 -44.512 -26.082  1.00  0.00     0.006 C 
BRANCH   6   7
ATOM      7  C   UNL     1     129.530 -43.721 -26.957  1.00  0.00     0.053 C 
BRANCH   7   8
ATOM      8  C   UNL     1     130.270 -42.746 -27.819  1.00  0.00     0.041 C 
ATOM      9  O   UNL     1     130.783 -43.124 -28.905  1.00  0.00    -0.550 OA
ATOM     10  O   UNL     1     130.348 -41.410 -27.448  1.00  0.00    -0.550 OA
ENDBRANCH   7   8
ENDBRANCH   6   7
ENDBRANCH   5   6
ENDBRANCH   4   5
ENDBRANCH   3   4
ENDBRANCH   2   3
ENDBRANCH   1   2
BRANCH   1  11
ATOM     11  C   UNL     1     135.753 -46.687 -24.601  1.00  0.00     0.000 C 
BRANCH  11  12
ATOM     12  C   UNL     1     134.545 -47.542 -24.183  1.00  0.00    -0.000 C 
BRANCH  12  13
ATOM     13  C   UNL     1     134.672 -48.087 -22.750  1.00  0.00    -0.000 C 
BRANCH  13  14
ATOM     14  C   UNL     1     134.967 -46.982 -21.719  1.00  0.00    -0.000 C 
BRANCH  14  15
ATOM     15  C   UNL     1     133.724 -46.229 -21.202  1.00  0.00    -0.000 C 
BRANCH  15  16
ATOM     16  C   UNL     1     133.485 -44.845 -21.837  1.00  0.00    -0.000 C 
BRANCH  16  17
ATOM     17  C   UNL     1     132.285 -44.772 -22.796  1.00  0.00    -0.003 C 
ATOM     18  C   UNL     1     131.482 -46.071 -22.842  1.00  0.00     0.004 C 
ENDBRANCH  16  17
ENDBRANCH  15  16
ENDBRANCH  14  15
ENDBRANCH  13  14
ENDBRANCH  12  13
ENDBRANCH  11  12
ENDBRANCH   1  11
TORSDOF 14
ENDMDL
