MODEL 1
REMARK VINA RESULT:    -4.217      0.000      0.000
REMARK INTER + INTRA:          -3.901
REMARK INTER:                  -5.943
REMARK INTRA:                   2.042
REMARK UNBOUND:                 2.042
REMARK SMILES CC1=CCC(=C(C)C)C(=O)CC(C)=CCC1
REMARK SMILES IDX 12 1 14 2 13 3 15 4 16 5 2 6 1 7 3 8 11 10 9 11 10 12 5 13
REMARK SMILES IDX 6 14 7 15 8 16 4 17
REMARK H PARENT
REMARK Flexibility Score: 60.00
ROOT
ATOM      1  C   UNL     1      17.900  -8.223  14.393  1.00  0.00    -0.070 C 
ATOM      2  C   UNL     1      17.714  -7.190  15.248  1.00  0.00    -0.027 C 
ATOM      3  C   UNL     1      18.371  -9.537  14.961  1.00  0.00     0.039 C 
ENDROOT
BRANCH   2   4
ATOM      4  C   UNL     1      17.302  -5.792  14.848  1.00  0.00     0.032 C 
BRANCH   4   5
ATOM      5  C   UNL     1      16.429  -5.797  13.585  1.00  0.00     0.034 C 
BRANCH   5   6
ATOM      6  C   UNL     1      14.971  -6.144  13.850  1.00  0.00    -0.077 C 
ATOM      7  C   UNL     1      14.253  -5.454  14.983  1.00  0.00     0.039 C 
ATOM      8  C   UNL     1      14.283  -7.061  13.133  1.00  0.00    -0.023 CG0
ATOM      9  G   UNL     1      14.804  -7.797  11.920  1.00  0.00     0.000 G0
ENDBRANCH   5   6
ENDBRANCH   4   5
ENDBRANCH   2   4
BRANCH   1  10
ATOM     10  C   UNL     1      17.665  -8.112  12.899  1.00  0.00     0.111 C 
BRANCH  10  11
ATOM     11  C   UNL     1      16.851  -9.271  12.397  1.00  0.00     0.163 C 
ATOM     12  O   UNL     1      17.429 -10.355  12.115  1.00  0.00    -0.294 OA
BRANCH  11  13
ATOM     13  C   UNL     1      15.384  -9.156  12.192  1.00  0.00    -0.002 C 
ATOM     14  C   UNL     1      14.591 -10.260  12.262  1.00  0.00    -0.069 C 
ATOM     15  C   UNL     1      15.184 -11.636  12.469  1.00  0.00     0.039 C 
ATOM     16  C   UNL     1      13.092 -10.158  12.092  1.00  0.00     0.039 C 
BRANCH  13  17
ATOM     17  C   UNL     1      14.780  -7.785  11.906  1.00  0.00     0.066 CG0
ATOM     18  G   UNL     1      14.289  -7.068  13.143  1.00  0.00     0.000 G0
ENDBRANCH  13  17
ENDBRANCH  11  13
ENDBRANCH  10  11
ENDBRANCH   1  10
TORSDOF 0
ENDMDL
MODEL 2
REMARK VINA RESULT:    -4.059      1.517      3.703
REMARK INTER + INTRA:          -3.678
REMARK INTER:                  -4.989
REMARK INTRA:                   1.312
REMARK UNBOUND:                 2.042
REMARK SMILES CC1=CCC(=C(C)C)C(=O)CC(C)=CCC1
REMARK SMILES IDX 12 1 14 2 13 3 15 4 16 5 2 6 1 7 3 8 11 10 9 11 10 12 5 13
REMARK SMILES IDX 6 14 7 15 8 16 4 17
REMARK H PARENT
REMARK Flexibility Score: 60.00
ROOT
ATOM      1  C   UNL     1      18.127  -9.215  13.909  1.00  0.00    -0.070 C 
ATOM      2  C   UNL     1      17.439 -10.380  13.856  1.00  0.00    -0.027 C 
ATOM      3  C   UNL     1      18.872  -8.888  15.178  1.00  0.00     0.039 C 
ENDROOT
BRANCH   2   4
ATOM      4  C   UNL     1      16.594 -10.839  12.691  1.00  0.00     0.032 C 
BRANCH   4   5
ATOM      5  C   UNL     1      16.039  -9.653  11.889  1.00  0.00     0.034 C 
BRANCH   5   6
ATOM      6  C   UNL     1      14.664  -9.192  12.351  1.00  0.00    -0.077 C 
ATOM      7  C   UNL     1      13.601 -10.228  12.619  1.00  0.00     0.039 C 
ATOM      8  C   UNL     1      14.333  -7.891  12.516  1.00  0.00    -0.023 CG0
ATOM      9  G   UNL     1      15.277  -6.720  12.370  1.00  0.00     0.000 G0
ENDBRANCH   5   6
ENDBRANCH   4   5
ENDBRANCH   2   4
BRANCH   1  10
ATOM     10  C   UNL     1      18.172  -8.228  12.759  1.00  0.00     0.111 C 
BRANCH  10  11
ATOM     11  C   UNL     1      17.731  -6.862  13.206  1.00  0.00     0.163 C 
ATOM     12  O   UNL     1      18.597  -5.964  13.386  1.00  0.00    -0.294 OA
BRANCH  11  13
ATOM     13  C   UNL     1      16.302  -6.558  13.473  1.00  0.00    -0.002 C 
ATOM     14  C   UNL     1      15.906  -6.148  14.708  1.00  0.00    -0.069 C 
ATOM     15  C   UNL     1      16.886  -6.066  15.857  1.00  0.00     0.039 C 
ATOM     16  C   UNL     1      14.461  -5.800  14.990  1.00  0.00     0.039 C 
BRANCH  13  17
ATOM     17  C   UNL     1      15.288  -6.709  12.343  1.00  0.00     0.066 CG0
ATOM     18  G   UNL     1      14.361  -7.891  12.514  1.00  0.00     0.000 G0
ENDBRANCH  13  17
ENDBRANCH  11  13
ENDBRANCH  10  11
ENDBRANCH   1  10
TORSDOF 0
ENDMDL
MODEL 3
REMARK VINA RESULT:    -3.676      1.603      3.172
REMARK INTER + INTRA:          -3.139
REMARK INTER:                  -3.953
REMARK INTRA:                   0.814
REMARK UNBOUND:                 2.042
REMARK SMILES CC1=CCC(=C(C)C)C(=O)CC(C)=CCC1
REMARK SMILES IDX 12 1 14 2 13 3 15 4 16 5 2 6 1 7 3 8 11 10 9 11 10 12 5 13
REMARK SMILES IDX 6 14 7 15 8 16 4 17
REMARK H PARENT
REMARK Flexibility Score: 60.00
ROOT
ATOM      1  C   UNL     1      16.354  -6.132  14.843  1.00  0.00    -0.070 C 
ATOM      2  C   UNL     1      15.003  -6.106  14.920  1.00  0.00    -0.027 C 
ATOM      3  C   UNL     1      17.129  -6.492  16.085  1.00  0.00     0.039 C 
ENDROOT
BRANCH   2   4
ATOM      4  C   UNL     1      14.074  -5.713  13.796  1.00  0.00     0.032 C 
BRANCH   4   5
ATOM      5  C   UNL     1      14.399  -6.469  12.500  1.00  0.00     0.034 C 
BRANCH   5   6
ATOM      6  C   UNL     1      14.162  -7.970  12.592  1.00  0.00    -0.077 C 
ATOM      7  C   UNL     1      12.799  -8.468  13.001  1.00  0.00     0.039 C 
ATOM      8  C   UNL     1      15.122  -8.891  12.346  1.00  0.00    -0.023 CG0
ATOM      9  G   UNL     1      16.519  -8.591  11.853  1.00  0.00     0.000 G0
ENDBRANCH   5   6
ENDBRANCH   4   5
ENDBRANCH   2   4
BRANCH   1  10
ATOM     10  C   UNL     1      17.116  -5.808  13.572  1.00  0.00     0.111 C 
BRANCH  10  11
ATOM     11  C   UNL     1      18.028  -6.940  13.189  1.00  0.00     0.163 C 
ATOM     12  O   UNL     1      19.251  -6.708  12.998  1.00  0.00    -0.294 OA
BRANCH  11  13
ATOM     13  C   UNL     1      17.511  -8.320  12.999  1.00  0.00    -0.002 C 
ATOM     14  C   UNL     1      17.920  -9.326  13.819  1.00  0.00    -0.069 C 
ATOM     15  C   UNL     1      18.963  -9.088  14.888  1.00  0.00     0.039 C 
ATOM     16  C   UNL     1      17.379 -10.730  13.663  1.00  0.00     0.039 C 
BRANCH  13  17
ATOM     17  C   UNL     1      16.516  -8.591  11.875  1.00  0.00     0.066 CG0
ATOM     18  G   UNL     1      15.114  -8.876  12.362  1.00  0.00     0.000 G0
ENDBRANCH  13  17
ENDBRANCH  11  13
ENDBRANCH  10  11
ENDBRANCH   1  10
TORSDOF 0
ENDMDL
MODEL 4
REMARK VINA RESULT:    -3.407      2.749      5.496
REMARK INTER + INTRA:          -2.760
REMARK INTER:                  -3.528
REMARK INTRA:                   0.768
REMARK UNBOUND:                 2.042
REMARK SMILES CC1=CCC(=C(C)C)C(=O)CC(C)=CCC1
REMARK SMILES IDX 12 1 14 2 13 3 15 4 16 5 2 6 1 7 3 8 11 10 9 11 10 12 5 13
REMARK SMILES IDX 6 14 7 15 8 16 4 17
REMARK H PARENT
REMARK Flexibility Score: 60.00
ROOT
ATOM      1  C   UNL     1      14.038  -5.511  12.935  1.00  0.00    -0.070 C 
ATOM      2  C   UNL     1      14.648  -6.109  11.884  1.00  0.00    -0.027 C 
ATOM      3  C   UNL     1      13.495  -4.119  12.741  1.00  0.00     0.039 C 
ENDROOT
BRANCH   2   4
ATOM      4  C   UNL     1      15.299  -7.472  11.915  1.00  0.00     0.032 C 
BRANCH   4   5
ATOM      5  C   UNL     1      16.819  -7.372  12.100  1.00  0.00     0.034 C 
BRANCH   5   6
ATOM      6  C   UNL     1      17.324  -8.015  13.384  1.00  0.00    -0.077 C 
ATOM      7  C   UNL     1      17.769  -9.455  13.351  1.00  0.00     0.039 C 
ATOM      8  C   UNL     1      17.375  -7.366  14.570  1.00  0.00    -0.023 CG0
ATOM      9  G   UNL     1      17.045  -5.907  14.786  1.00  0.00     0.000 G0
ENDBRANCH   5   6
ENDBRANCH   4   5
ENDBRANCH   2   4
BRANCH   1  10
ATOM     10  C   UNL     1      13.889  -6.174  14.290  1.00  0.00     0.111 C 
BRANCH  10  11
ATOM     11  C   UNL     1      14.558  -5.360  15.363  1.00  0.00     0.163 C 
ATOM     12  O   UNL     1      13.952  -4.368  15.850  1.00  0.00    -0.294 OA
BRANCH  11  13
ATOM     13  C   UNL     1      15.930  -5.678  15.835  1.00  0.00    -0.002 C 
ATOM     14  C   UNL     1      16.193  -5.776  17.167  1.00  0.00    -0.069 C 
ATOM     15  C   UNL     1      15.124  -5.487  18.198  1.00  0.00     0.039 C 
ATOM     16  C   UNL     1      17.575  -6.134  17.666  1.00  0.00     0.039 C 
BRANCH  13  17
ATOM     17  C   UNL     1      17.036  -5.897  14.808  1.00  0.00     0.066 CG0
ATOM     18  G   UNL     1      17.378  -7.352  14.585  1.00  0.00     0.000 G0
ENDBRANCH  13  17
ENDBRANCH  11  13
ENDBRANCH  10  11
ENDBRANCH   1  10
TORSDOF 0
ENDMDL
MODEL 5
REMARK VINA RESULT:    -2.281      2.290      4.441
REMARK INTER + INTRA:          -1.173
REMARK INTER:                  -2.755
REMARK INTRA:                   1.582
REMARK UNBOUND:                 2.042
REMARK SMILES CC1=CCC(=C(C)C)C(=O)CC(C)=CCC1
REMARK SMILES IDX 12 1 14 2 13 3 15 4 16 5 2 6 1 7 3 8 11 10 9 11 10 12 5 13
REMARK SMILES IDX 6 14 7 15 8 16 4 17
REMARK H PARENT
REMARK Flexibility Score: 60.00
ROOT
ATOM      1  C   UNL     1      16.470  -5.883  16.895  1.00  0.00    -0.070 C 
ATOM      2  C   UNL     1      17.405  -6.559  16.187  1.00  0.00    -0.027 C 
ATOM      3  C   UNL     1      16.405  -6.113  18.384  1.00  0.00     0.039 C 
ENDROOT
BRANCH   2   4
ATOM      4  C   UNL     1      17.576  -6.495  14.687  1.00  0.00     0.032 C 
BRANCH   4   5
ATOM      5  C   UNL     1      17.543  -7.892  14.052  1.00  0.00     0.034 C 
BRANCH   5   6
ATOM      6  C   UNL     1      16.507  -8.038  12.946  1.00  0.00    -0.077 C 
ATOM      7  C   UNL     1      16.241  -9.408  12.374  1.00  0.00     0.039 C 
ATOM      8  C   UNL     1      15.821  -6.994  12.428  1.00  0.00    -0.023 CG0
ATOM      9  G   UNL     1      15.894  -5.566  12.919  1.00  0.00     0.000 G0
ENDBRANCH   5   6
ENDBRANCH   4   5
ENDBRANCH   2   4
BRANCH   1  10
ATOM     10  C   UNL     1      15.487  -4.920  16.259  1.00  0.00     0.111 C 
BRANCH  10  11
ATOM     11  C   UNL     1      14.670  -5.607  15.201  1.00  0.00     0.163 C 
ATOM     12  O   UNL     1      13.977  -6.612  15.515  1.00  0.00    -0.294 OA
BRANCH  11  13
ATOM     13  C   UNL     1      14.688  -5.148  13.788  1.00  0.00    -0.002 C 
ATOM     14  C   UNL     1      13.673  -4.385  13.301  1.00  0.00    -0.069 C 
ATOM     15  C   UNL     1      12.468  -4.050  14.151  1.00  0.00     0.039 C 
ATOM     16  C   UNL     1      13.691  -3.879  11.875  1.00  0.00     0.039 C 
BRANCH  13  17
ATOM     17  C   UNL     1      15.861  -5.543  12.895  1.00  0.00     0.066 CG0
ATOM     18  G   UNL     1      15.816  -6.982  12.437  1.00  0.00     0.000 G0
ENDBRANCH  13  17
ENDBRANCH  11  13
ENDBRANCH  10  11
ENDBRANCH   1  10
TORSDOF 0
ENDMDL
MODEL 6
REMARK VINA RESULT:    -2.100      1.984      3.853
REMARK INTER + INTRA:          -0.917
REMARK INTER:                  -2.018
REMARK INTRA:                   1.101
REMARK UNBOUND:                 2.042
REMARK SMILES CC1=CCC(=C(C)C)C(=O)CC(C)=CCC1
REMARK SMILES IDX 12 1 14 2 13 3 15 4 16 5 2 6 1 7 3 8 11 10 9 11 10 12 5 13
REMARK SMILES IDX 6 14 7 15 8 16 4 17
REMARK H PARENT
REMARK Flexibility Score: 60.00
ROOT
ATOM      1  C   UNL     1      17.269  -6.552  14.506  1.00  0.00    -0.070 C 
ATOM      2  C   UNL     1      17.743  -7.818  14.452  1.00  0.00    -0.027 C 
ATOM      3  C   UNL     1      16.547  -6.117  15.756  1.00  0.00     0.039 C 
ENDROOT
BRANCH   2   4
ATOM      4  C   UNL     1      18.437  -8.438  13.261  1.00  0.00     0.032 C 
BRANCH   4   5
ATOM      5  C   UNL     1      17.450  -8.747  12.127  1.00  0.00     0.034 C 
BRANCH   5   6
ATOM      6  C   UNL     1      16.089  -9.224  12.613  1.00  0.00    -0.077 C 
ATOM      7  C   UNL     1      15.988 -10.566  13.292  1.00  0.00     0.039 C 
ATOM      8  C   UNL     1      14.950  -8.512  12.449  1.00  0.00    -0.023 CG0
ATOM      9  G   UNL     1      14.861  -7.122  11.863  1.00  0.00     0.000 G0
ENDBRANCH   5   6
ENDBRANCH   4   5
ENDBRANCH   2   4
BRANCH   1  10
ATOM     10  C   UNL     1      17.422  -5.562  13.368  1.00  0.00     0.111 C 
BRANCH  10  11
ATOM     11  C   UNL     1      16.081  -5.082  12.889  1.00  0.00     0.163 C 
ATOM     12  O   UNL     1      15.954  -3.888  12.507  1.00  0.00    -0.294 OA
BRANCH  11  13
ATOM     13  C   UNL     1      14.893  -5.975  12.889  1.00  0.00    -0.002 C 
ATOM     14  C   UNL     1      13.884  -5.777  13.779  1.00  0.00    -0.069 C 
ATOM     15  C   UNL     1      13.976  -4.702  14.838  1.00  0.00     0.039 C 
ATOM     16  C   UNL     1      12.652  -6.654  13.771  1.00  0.00     0.039 C 
BRANCH  13  17
ATOM     17  C   UNL     1      14.822  -7.113  11.875  1.00  0.00     0.066 CG0
ATOM     18  G   UNL     1      14.960  -8.485  12.493  1.00  0.00     0.000 G0
ENDBRANCH  13  17
ENDBRANCH  11  13
ENDBRANCH  10  11
ENDBRANCH   1  10
TORSDOF 0
ENDMDL
