MODEL 1
REMARK VINA RESULT:    -2.996      0.000      0.000
REMARK INTER + INTRA:          -3.784
REMARK INTER:                  -4.572
REMARK INTRA:                   0.788
REMARK UNBOUND:                 0.788
REMARK SMILES CC1=CCC[C@H](C)C(=O)C[C@H](C(C)C)C(=O)C1
REMARK SMILES IDX 8 1 9 2 6 3 7 4 5 5 4 6 3 7 2 8 1 9 10 11 11 12 15 13 16 14
REMARK SMILES IDX 17 15 12 17 13 18 14 19
REMARK H PARENT
REMARK Flexibility Score: 70.00
ROOT
ATOM      1  C   UNL     1      -1.669 -14.256  -6.520  1.00  0.00     0.136 C 
ATOM      2  O   UNL     1      -0.661 -14.234  -7.212  1.00  0.00    -0.299 OA
ENDROOT
BRANCH   1   3
ATOM      3  C   UNL     1      -1.937 -15.509  -5.693  1.00  0.00     0.053 C 
ATOM      4  C   UNL     1      -0.711 -16.085  -4.968  1.00  0.00     0.016 C 
BRANCH   3   5
ATOM      5  C   UNL     1      -3.144 -15.320  -4.735  1.00  0.00     0.015 C 
BRANCH   5   6
ATOM      6  C   UNL     1      -4.496 -15.836  -5.262  1.00  0.00     0.028 C 
BRANCH   6   7
ATOM      7  C   UNL     1      -4.406 -16.319  -6.689  1.00  0.00    -0.028 C 
ATOM      8  C   UNL     1      -4.936 -15.692  -7.766  1.00  0.00    -0.070 CG0
ATOM      9  C   UNL     1      -4.719 -16.314  -9.122  1.00  0.00     0.039 C 
ATOM     10  G   UNL     1      -5.779 -14.436  -7.667  1.00  0.00     0.000 G0
ENDBRANCH   6   7
ENDBRANCH   5   6
ENDBRANCH   3   5
ENDBRANCH   1   3
BRANCH   1  11
ATOM     11  C   UNL     1      -2.551 -13.024  -6.527  1.00  0.00     0.087 C 
BRANCH  11  12
ATOM     12  C   UNL     1      -3.550 -13.028  -7.714  1.00  0.00     0.066 C 
BRANCH  12  13
ATOM     13  C   UNL     1      -4.974 -13.254  -7.227  1.00  0.00     0.140 C 
ATOM     14  O   UNL     1      -5.487 -12.451  -6.460  1.00  0.00    -0.299 OA
BRANCH  13  15
ATOM     15  C   UNL     1      -5.789 -14.435  -7.689  1.00  0.00     0.106 CG0
ATOM     16  G   UNL     1      -4.926 -15.680  -7.767  1.00  0.00     0.000 G0
ENDBRANCH  13  15
ENDBRANCH  12  13
BRANCH  12  17
ATOM     17  C   UNL     1      -3.423 -11.745  -8.593  1.00  0.00    -0.006 C 
ATOM     18  C   UNL     1      -4.801 -11.221  -9.023  1.00  0.00     0.008 C 
ATOM     19  C   UNL     1      -2.607 -10.616  -7.940  1.00  0.00     0.008 C 
ENDBRANCH  12  17
ENDBRANCH  11  12
ENDBRANCH   1  11
TORSDOF 1
ENDMDL
MODEL 2
REMARK VINA RESULT:    -2.362      1.804      3.798
REMARK INTER + INTRA:          -2.816
REMARK INTER:                  -2.521
REMARK INTRA:                  -0.296
REMARK UNBOUND:                 0.788
REMARK SMILES CC1=CCC[C@H](C)C(=O)C[C@H](C(C)C)C(=O)C1
REMARK SMILES IDX 8 1 9 2 6 3 7 4 5 5 4 6 3 7 2 8 1 9 10 11 11 12 15 13 16 14
REMARK SMILES IDX 17 15 12 17 13 18 14 19
REMARK H PARENT
REMARK Flexibility Score: 70.00
ROOT
ATOM      1  C   UNL     1      -4.027 -16.012  -5.105  1.00  0.00     0.136 C 
ATOM      2  O   UNL     1      -4.858 -16.232  -4.235  1.00  0.00    -0.299 OA
ENDROOT
BRANCH   1   3
ATOM      3  C   UNL     1      -3.882 -17.035  -6.225  1.00  0.00     0.053 C 
ATOM      4  C   UNL     1      -3.819 -18.500  -5.765  1.00  0.00     0.016 C 
BRANCH   3   5
ATOM      5  C   UNL     1      -4.938 -16.821  -7.342  1.00  0.00     0.015 C 
BRANCH   5   6
ATOM      6  C   UNL     1      -4.466 -15.993  -8.552  1.00  0.00     0.028 C 
BRANCH   6   7
ATOM      7  C   UNL     1      -5.114 -14.631  -8.599  1.00  0.00    -0.028 C 
ATOM      8  C   UNL     1      -4.458 -13.447  -8.588  1.00  0.00    -0.070 CG0
ATOM      9  C   UNL     1      -5.279 -12.184  -8.669  1.00  0.00     0.039 C 
ATOM     10  G   UNL     1      -2.954 -13.330  -8.442  1.00  0.00     0.000 G0
ENDBRANCH   6   7
ENDBRANCH   5   6
ENDBRANCH   3   5
ENDBRANCH   1   3
BRANCH   1  11
ATOM     11  C   UNL     1      -3.232 -14.726  -5.004  1.00  0.00     0.087 C 
BRANCH  11  12
ATOM     12  C   UNL     1      -2.251 -14.552  -6.193  1.00  0.00     0.066 C 
BRANCH  12  13
ATOM     13  C   UNL     1      -2.558 -13.282  -6.972  1.00  0.00     0.140 C 
ATOM     14  O   UNL     1      -2.471 -12.195  -6.418  1.00  0.00    -0.299 OA
BRANCH  13  15
ATOM     15  C   UNL     1      -2.945 -13.322  -8.428  1.00  0.00     0.106 CG0
ATOM     16  G   UNL     1      -4.449 -13.443  -8.577  1.00  0.00     0.000 G0
ENDBRANCH  13  15
ENDBRANCH  12  13
BRANCH  12  17
ATOM     17  C   UNL     1      -0.760 -14.619  -5.739  1.00  0.00    -0.006 C 
ATOM     18  C   UNL     1      -0.447 -15.948  -5.036  1.00  0.00     0.008 C 
ATOM     19  C   UNL     1       0.253 -14.366  -6.870  1.00  0.00     0.008 C 
ENDBRANCH  12  17
ENDBRANCH  11  12
ENDBRANCH   1  11
TORSDOF 1
ENDMDL
MODEL 3
REMARK VINA RESULT:    -2.328      1.913      4.670
REMARK INTER + INTRA:          -2.765
REMARK INTER:                  -3.929
REMARK INTRA:                   1.164
REMARK UNBOUND:                 0.788
REMARK SMILES CC1=CCC[C@H](C)C(=O)C[C@H](C(C)C)C(=O)C1
REMARK SMILES IDX 8 1 9 2 6 3 7 4 5 5 4 6 3 7 2 8 1 9 10 11 11 12 15 13 16 14
REMARK SMILES IDX 17 15 12 17 13 18 14 19
REMARK H PARENT
REMARK Flexibility Score: 70.00
ROOT
ATOM      1  C   UNL     1      -4.666 -15.415  -7.936  1.00  0.00     0.136 C 
ATOM      2  O   UNL     1      -4.505 -16.038  -8.977  1.00  0.00    -0.299 OA
ENDROOT
BRANCH   1   3
ATOM      3  C   UNL     1      -5.854 -14.463  -7.854  1.00  0.00     0.053 C 
ATOM      4  C   UNL     1      -6.091 -13.836  -6.471  1.00  0.00     0.016 C 
BRANCH   3   5
ATOM      5  C   UNL     1      -5.815 -13.394  -8.979  1.00  0.00     0.015 C 
BRANCH   5   6
ATOM      6  C   UNL     1      -5.838 -11.930  -8.503  1.00  0.00     0.028 C 
BRANCH   6   7
ATOM      7  C   UNL     1      -4.606 -11.171  -8.933  1.00  0.00    -0.028 C 
ATOM      8  C   UNL     1      -3.352 -11.379  -8.466  1.00  0.00    -0.070 CG0
ATOM      9  C   UNL     1      -2.238 -10.538  -9.036  1.00  0.00     0.039 C 
ATOM     10  G   UNL     1      -3.027 -12.369  -7.365  1.00  0.00     0.000 G0
ENDBRANCH   6   7
ENDBRANCH   5   6
ENDBRANCH   3   5
ENDBRANCH   1   3
BRANCH   1  11
ATOM     11  C   UNL     1      -3.683 -15.665  -6.811  1.00  0.00     0.087 C 
BRANCH  11  12
ATOM     12  C   UNL     1      -2.347 -14.905  -7.024  1.00  0.00     0.066 C 
BRANCH  12  13
ATOM     13  C   UNL     1      -2.548 -13.688  -7.913  1.00  0.00     0.140 C 
ATOM     14  O   UNL     1      -2.359 -13.778  -9.118  1.00  0.00    -0.299 OA
BRANCH  13  15
ATOM     15  C   UNL     1      -3.006 -12.365  -7.351  1.00  0.00     0.106 CG0
ATOM     16  G   UNL     1      -3.367 -11.407  -8.470  1.00  0.00     0.000 G0
ENDBRANCH  13  15
ENDBRANCH  12  13
BRANCH  12  17
ATOM     17  C   UNL     1      -1.658 -14.541  -5.672  1.00  0.00    -0.006 C 
ATOM     18  C   UNL     1      -2.648 -14.610  -4.500  1.00  0.00     0.008 C 
ATOM     19  C   UNL     1      -0.406 -15.380  -5.361  1.00  0.00     0.008 C 
ENDBRANCH  12  17
ENDBRANCH  11  12
ENDBRANCH   1  11
TORSDOF 1
ENDMDL
MODEL 4
REMARK VINA RESULT:    -2.220      2.108      3.596
REMARK INTER + INTRA:          -2.600
REMARK INTER:                  -3.652
REMARK INTRA:                   1.052
REMARK UNBOUND:                 0.788
REMARK SMILES CC1=CCC[C@H](C)C(=O)C[C@H](C(C)C)C(=O)C1
REMARK SMILES IDX 8 1 9 2 6 3 7 4 5 5 4 6 3 7 2 8 1 9 10 11 11 12 15 13 16 14
REMARK SMILES IDX 17 15 12 17 13 18 14 19
REMARK H PARENT
REMARK Flexibility Score: 70.00
ROOT
ATOM      1  C   UNL     1      -4.555 -15.919  -5.634  1.00  0.00     0.136 C 
ATOM      2  O   UNL     1      -4.645 -17.131  -5.489  1.00  0.00    -0.299 OA
ENDROOT
BRANCH   1   3
ATOM      3  C   UNL     1      -3.397 -15.204  -4.947  1.00  0.00     0.053 C 
ATOM      4  C   UNL     1      -3.588 -14.954  -3.443  1.00  0.00     0.016 C 
BRANCH   3   5
ATOM      5  C   UNL     1      -2.036 -15.883  -5.256  1.00  0.00     0.015 C 
BRANCH   5   6
ATOM      6  C   UNL     1      -1.053 -15.045  -6.094  1.00  0.00     0.028 C 
BRANCH   6   7
ATOM      7  C   UNL     1      -1.522 -13.622  -6.271  1.00  0.00    -0.028 C 
ATOM      8  C   UNL     1      -2.233 -13.154  -7.323  1.00  0.00    -0.070 CG0
ATOM      9  C   UNL     1      -2.638 -11.701  -7.313  1.00  0.00     0.039 C 
ATOM     10  G   UNL     1      -2.589 -14.000  -8.530  1.00  0.00     0.000 G0
ENDBRANCH   6   7
ENDBRANCH   5   6
ENDBRANCH   3   5
ENDBRANCH   1   3
BRANCH   1  11
ATOM     11  C   UNL     1      -5.591 -15.240  -6.507  1.00  0.00     0.087 C 
BRANCH  11  12
ATOM     12  C   UNL     1      -4.974 -14.110  -7.373  1.00  0.00     0.066 C 
BRANCH  12  13
ATOM     13  C   UNL     1      -3.945 -14.667  -8.344  1.00  0.00     0.140 C 
ATOM     14  O   UNL     1      -4.207 -15.668  -8.997  1.00  0.00    -0.299 OA
BRANCH  13  15
ATOM     15  C   UNL     1      -2.609 -14.000  -8.549  1.00  0.00     0.106 CG0
ATOM     16  G   UNL     1      -2.247 -13.152  -7.345  1.00  0.00     0.000 G0
ENDBRANCH  13  15
ENDBRANCH  12  13
BRANCH  12  17
ATOM     17  C   UNL     1      -6.067 -13.260  -8.093  1.00  0.00    -0.006 C 
ATOM     18  C   UNL     1      -5.464 -12.006  -8.745  1.00  0.00     0.008 C 
ATOM     19  C   UNL     1      -6.894 -14.048  -9.124  1.00  0.00     0.008 C 
ENDBRANCH  12  17
ENDBRANCH  11  12
ENDBRANCH   1  11
TORSDOF 1
ENDMDL
MODEL 5
REMARK VINA RESULT:    -2.215      1.803      4.319
REMARK INTER + INTRA:          -2.593
REMARK INTER:                  -3.646
REMARK INTRA:                   1.053
REMARK UNBOUND:                 0.788
REMARK SMILES CC1=CCC[C@H](C)C(=O)C[C@H](C(C)C)C(=O)C1
REMARK SMILES IDX 8 1 9 2 6 3 7 4 5 5 4 6 3 7 2 8 1 9 10 11 11 12 15 13 16 14
REMARK SMILES IDX 17 15 12 17 13 18 14 19
REMARK H PARENT
REMARK Flexibility Score: 70.00
ROOT
ATOM      1  C   UNL     1      -4.764 -12.002  -7.418  1.00  0.00     0.136 C 
ATOM      2  O   UNL     1      -5.517 -11.039  -7.469  1.00  0.00    -0.299 OA
ENDROOT
BRANCH   1   3
ATOM      3  C   UNL     1      -3.414 -11.887  -8.119  1.00  0.00     0.053 C 
ATOM      4  C   UNL     1      -3.108 -10.507  -8.720  1.00  0.00     0.016 C 
BRANCH   3   5
ATOM      5  C   UNL     1      -2.255 -12.403  -7.225  1.00  0.00     0.015 C 
BRANCH   5   6
ATOM      6  C   UNL     1      -1.752 -13.823  -7.544  1.00  0.00     0.028 C 
BRANCH   6   7
ATOM      7  C   UNL     1      -1.208 -14.523  -6.323  1.00  0.00    -0.028 C 
ATOM      8  C   UNL     1      -1.720 -15.647  -5.768  1.00  0.00    -0.070 CG0
ATOM      9  C   UNL     1      -1.022 -16.219  -4.560  1.00  0.00     0.039 C 
ATOM     10  G   UNL     1      -2.986 -16.318  -6.263  1.00  0.00     0.000 G0
ENDBRANCH   6   7
ENDBRANCH   5   6
ENDBRANCH   3   5
ENDBRANCH   1   3
BRANCH   1  11
ATOM     11  C   UNL     1      -5.230 -13.216  -6.642  1.00  0.00     0.087 C 
BRANCH  11  12
ATOM     12  C   UNL     1      -4.669 -14.537  -7.231  1.00  0.00     0.066 C 
BRANCH  12  13
ATOM     13  C   UNL     1      -4.229 -15.483  -6.124  1.00  0.00     0.140 C 
ATOM     14  O   UNL     1      -4.887 -15.564  -5.097  1.00  0.00    -0.299 OA
BRANCH  13  15
ATOM     15  C   UNL     1      -3.007 -16.354  -6.269  1.00  0.00     0.106 CG0
ATOM     16  G   UNL     1      -1.778 -15.641  -5.737  1.00  0.00     0.000 G0
ENDBRANCH  13  15
ENDBRANCH  12  13
BRANCH  12  17
ATOM     17  C   UNL     1      -5.670 -15.211  -8.220  1.00  0.00    -0.006 C 
ATOM     18  C   UNL     1      -6.407 -14.166  -9.071  1.00  0.00     0.008 C 
ATOM     19  C   UNL     1      -5.033 -16.280  -9.125  1.00  0.00     0.008 C 
ENDBRANCH  12  17
ENDBRANCH  11  12
ENDBRANCH   1  11
TORSDOF 1
ENDMDL
MODEL 6
REMARK VINA RESULT:    -2.046      2.003      4.893
REMARK INTER + INTRA:          -2.335
REMARK INTER:                  -3.189
REMARK INTRA:                   0.854
REMARK UNBOUND:                 0.788
REMARK SMILES CC1=CCC[C@H](C)C(=O)C[C@H](C(C)C)C(=O)C1
REMARK SMILES IDX 8 1 9 2 6 3 7 4 5 5 4 6 3 7 2 8 1 9 10 11 11 12 15 13 16 14
REMARK SMILES IDX 17 15 12 17 13 18 14 19
REMARK H PARENT
REMARK Flexibility Score: 70.00
ROOT
ATOM      1  C   UNL     1      -5.800 -13.902  -6.845  1.00  0.00     0.136 C 
ATOM      2  O   UNL     1      -6.269 -13.099  -6.050  1.00  0.00    -0.299 OA
ENDROOT
BRANCH   1   3
ATOM      3  C   UNL     1      -5.824 -13.535  -8.325  1.00  0.00     0.053 C 
ATOM      4  C   UNL     1      -6.992 -14.131  -9.125  1.00  0.00     0.016 C 
BRANCH   3   5
ATOM      5  C   UNL     1      -5.692 -12.004  -8.541  1.00  0.00     0.015 C 
BRANCH   5   6
ATOM      6  C   UNL     1      -4.294 -11.415  -8.276  1.00  0.00     0.028 C 
BRANCH   6   7
ATOM      7  C   UNL     1      -3.193 -12.401  -8.576  1.00  0.00    -0.028 C 
ATOM      8  C   UNL     1      -2.415 -13.016  -7.654  1.00  0.00    -0.070 CG0
ATOM      9  C   UNL     1      -1.379 -13.996  -8.144  1.00  0.00     0.039 C 
ATOM     10  G   UNL     1      -2.497 -12.726  -6.168  1.00  0.00     0.000 G0
ENDBRANCH   6   7
ENDBRANCH   5   6
ENDBRANCH   3   5
ENDBRANCH   1   3
BRANCH   1  11
ATOM     11  C   UNL     1      -5.214 -15.182  -6.284  1.00  0.00     0.087 C 
BRANCH  11  12
ATOM     12  C   UNL     1      -3.678 -15.083  -6.086  1.00  0.00     0.066 C 
BRANCH  12  13
ATOM     13  C   UNL     1      -3.297 -13.763  -5.432  1.00  0.00     0.140 C 
ATOM     14  O   UNL     1      -3.623 -13.543  -4.274  1.00  0.00    -0.299 OA
BRANCH  13  15
ATOM     15  C   UNL     1      -2.498 -12.718  -6.169  1.00  0.00     0.106 CG0
ATOM     16  G   UNL     1      -2.439 -13.039  -7.650  1.00  0.00     0.000 G0
ENDBRANCH  13  15
ENDBRANCH  12  13
BRANCH  12  17
ATOM     17  C   UNL     1      -3.106 -16.311  -5.313  1.00  0.00    -0.006 C 
ATOM     18  C   UNL     1      -3.683 -17.630  -5.849  1.00  0.00     0.008 C 
ATOM     19  C   UNL     1      -1.569 -16.376  -5.288  1.00  0.00     0.008 C 
ENDBRANCH  12  17
ENDBRANCH  11  12
ENDBRANCH   1  11
TORSDOF 1
ENDMDL
MODEL 7
REMARK VINA RESULT:    -1.964      1.555      4.270
REMARK INTER + INTRA:          -2.209
REMARK INTER:                  -3.359
REMARK INTRA:                   1.150
REMARK UNBOUND:                 0.788
REMARK SMILES CC1=CCC[C@H](C)C(=O)C[C@H](C(C)C)C(=O)C1
REMARK SMILES IDX 8 1 9 2 6 3 7 4 5 5 4 6 3 7 2 8 1 9 10 11 11 12 15 13 16 14
REMARK SMILES IDX 17 15 12 17 13 18 14 19
REMARK H PARENT
REMARK Flexibility Score: 70.00
ROOT
ATOM      1  C   UNL     1      -2.447 -12.824  -8.028  1.00  0.00     0.136 C 
ATOM      2  O   UNL     1      -2.164 -13.306  -9.116  1.00  0.00    -0.299 OA
ENDROOT
BRANCH   1   3
ATOM      3  C   UNL     1      -3.159 -11.476  -8.010  1.00  0.00     0.053 C 
ATOM      4  C   UNL     1      -2.232 -10.250  -7.993  1.00  0.00     0.016 C 
BRANCH   3   5
ATOM      5  C   UNL     1      -4.234 -11.378  -9.125  1.00  0.00     0.015 C 
BRANCH   5   6
ATOM      6  C   UNL     1      -5.543 -12.142  -8.853  1.00  0.00     0.028 C 
BRANCH   6   7
ATOM      7  C   UNL     1      -6.004 -11.993  -7.424  1.00  0.00    -0.028 C 
ATOM      8  C   UNL     1      -6.112 -12.999  -6.525  1.00  0.00    -0.070 CG0
ATOM      9  C   UNL     1      -6.566 -12.653  -5.129  1.00  0.00     0.039 C 
ATOM     10  G   UNL     1      -5.855 -14.454  -6.867  1.00  0.00     0.000 G0
ENDBRANCH   6   7
ENDBRANCH   5   6
ENDBRANCH   3   5
ENDBRANCH   1   3
BRANCH   1  11
ATOM     11  C   UNL     1      -2.083 -13.623  -6.793  1.00  0.00     0.087 C 
BRANCH  11  12
ATOM     12  C   UNL     1      -3.336 -14.203  -6.083  1.00  0.00     0.066 C 
BRANCH  12  13
ATOM     13  C   UNL     1      -4.364 -14.681  -7.097  1.00  0.00     0.140 C 
ATOM     14  O   UNL     1      -3.997 -15.287  -8.094  1.00  0.00    -0.299 OA
BRANCH  13  15
ATOM     15  C   UNL     1      -5.840 -14.450  -6.895  1.00  0.00     0.106 CG0
ATOM     16  G   UNL     1      -6.106 -13.005  -6.518  1.00  0.00     0.000 G0
ENDBRANCH  13  15
ENDBRANCH  12  13
BRANCH  12  17
ATOM     17  C   UNL     1      -2.965 -15.313  -5.052  1.00  0.00    -0.006 C 
ATOM     18  C   UNL     1      -4.110 -16.321  -4.875  1.00  0.00     0.008 C 
ATOM     19  C   UNL     1      -1.652 -16.051  -5.370  1.00  0.00     0.008 C 
ENDBRANCH  12  17
ENDBRANCH  11  12
ENDBRANCH   1  11
TORSDOF 1
ENDMDL
MODEL 8
REMARK VINA RESULT:    -1.356      2.005      4.989
REMARK INTER + INTRA:          -1.281
REMARK INTER:                  -3.959
REMARK INTRA:                   2.678
REMARK UNBOUND:                 0.788
REMARK SMILES CC1=CCC[C@H](C)C(=O)C[C@H](C(C)C)C(=O)C1
REMARK SMILES IDX 8 1 9 2 6 3 7 4 5 5 4 6 3 7 2 8 1 9 10 11 11 12 15 13 16 14
REMARK SMILES IDX 17 15 12 17 13 18 14 19
REMARK H PARENT
REMARK Flexibility Score: 70.00
ROOT
ATOM      1  C   UNL     1      -5.818 -14.007  -7.996  1.00  0.00     0.136 C 
ATOM      2  O   UNL     1      -6.135 -14.578  -9.031  1.00  0.00    -0.299 OA
ENDROOT
BRANCH   1   3
ATOM      3  C   UNL     1      -5.784 -12.483  -8.005  1.00  0.00     0.053 C 
ATOM      4  C   UNL     1      -5.596 -11.828  -6.628  1.00  0.00     0.016 C 
BRANCH   3   5
ATOM      5  C   UNL     1      -4.778 -11.936  -9.053  1.00  0.00     0.015 C 
BRANCH   5   6
ATOM      6  C   UNL     1      -3.293 -12.028  -8.657  1.00  0.00     0.028 C 
BRANCH   6   7
ATOM      7  C   UNL     1      -3.107 -12.170  -7.166  1.00  0.00    -0.028 C 
ATOM      8  C   UNL     1      -2.538 -13.228  -6.542  1.00  0.00    -0.070 CG0
ATOM      9  C   UNL     1      -2.414 -13.178  -5.040  1.00  0.00     0.039 C 
ATOM     10  G   UNL     1      -2.075 -14.474  -7.270  1.00  0.00     0.000 G0
ENDBRANCH   6   7
ENDBRANCH   5   6
ENDBRANCH   3   5
ENDBRANCH   1   3
BRANCH   1  11
ATOM     11  C   UNL     1      -5.511 -14.868  -6.788  1.00  0.00     0.087 C 
BRANCH  11  12
ATOM     12  C   UNL     1      -4.329 -15.839  -7.048  1.00  0.00     0.066 C 
BRANCH  12  13
ATOM     13  C   UNL     1      -3.254 -15.174  -7.894  1.00  0.00     0.140 C 
ATOM     14  O   UNL     1      -3.350 -15.182  -9.113  1.00  0.00    -0.299 OA
BRANCH  13  15
ATOM     15  C   UNL     1      -2.076 -14.473  -7.267  1.00  0.00     0.106 CG0
ATOM     16  G   UNL     1      -2.530 -13.237  -6.514  1.00  0.00     0.000 G0
ENDBRANCH  13  15
ENDBRANCH  12  13
BRANCH  12  17
ATOM     17  C   UNL     1      -3.754 -16.432  -5.724  1.00  0.00    -0.006 C 
ATOM     18  C   UNL     1      -4.519 -15.912  -4.498  1.00  0.00     0.008 C 
ATOM     19  C   UNL     1      -3.695 -17.969  -5.700  1.00  0.00     0.008 C 
ENDBRANCH  12  17
ENDBRANCH  11  12
ENDBRANCH   1  11
TORSDOF 1
ENDMDL
MODEL 9
REMARK VINA RESULT:    -1.059      1.655      3.694
REMARK INTER + INTRA:          -0.828
REMARK INTER:                  -1.732
REMARK INTRA:                   0.904
REMARK UNBOUND:                 0.788
REMARK SMILES CC1=CCC[C@H](C)C(=O)C[C@H](C(C)C)C(=O)C1
REMARK SMILES IDX 8 1 9 2 6 3 7 4 5 5 4 6 3 7 2 8 1 9 10 11 11 12 15 13 16 14
REMARK SMILES IDX 17 15 12 17 13 18 14 19
REMARK H PARENT
REMARK Flexibility Score: 70.00
ROOT
ATOM      1  C   UNL     1      -1.829 -15.166  -5.377  1.00  0.00     0.136 C 
ATOM      2  O   UNL     1      -1.307 -16.244  -5.125  1.00  0.00    -0.299 OA
ENDROOT
BRANCH   1   3
ATOM      3  C   UNL     1      -1.124 -14.249  -6.370  1.00  0.00     0.053 C 
ATOM      4  C   UNL     1       0.409 -14.353  -6.378  1.00  0.00     0.016 C 
BRANCH   3   5
ATOM      5  C   UNL     1      -1.722 -14.376  -7.796  1.00  0.00     0.015 C 
BRANCH   5   6
ATOM      6  C   UNL     1      -2.153 -13.052  -8.455  1.00  0.00     0.028 C 
BRANCH   6   7
ATOM      7  C   UNL     1      -3.580 -13.096  -8.945  1.00  0.00    -0.028 C 
ATOM      8  C   UNL     1      -4.681 -13.125  -8.158  1.00  0.00    -0.070 CG0
ATOM      9  C   UNL     1      -6.030 -13.140  -8.831  1.00  0.00     0.039 C 
ATOM     10  G   UNL     1      -4.621 -13.202  -6.645  1.00  0.00     0.000 G0
ENDBRANCH   6   7
ENDBRANCH   5   6
ENDBRANCH   3   5
ENDBRANCH   1   3
BRANCH   1  11
ATOM     11  C   UNL     1      -3.144 -14.848  -4.695  1.00  0.00     0.087 C 
BRANCH  11  12
ATOM     12  C   UNL     1      -4.348 -15.514  -5.412  1.00  0.00     0.066 C 
BRANCH  12  13
ATOM     13  C   UNL     1      -5.210 -14.474  -6.110  1.00  0.00     0.140 C 
ATOM     14  O   UNL     1      -6.410 -14.669  -6.243  1.00  0.00    -0.299 OA
BRANCH  13  15
ATOM     15  C   UNL     1      -4.627 -13.182  -6.625  1.00  0.00     0.106 CG0
ATOM     16  G   UNL     1      -4.699 -13.130  -8.138  1.00  0.00     0.000 G0
ENDBRANCH  13  15
ENDBRANCH  12  13
BRANCH  12  17
ATOM     17  C   UNL     1      -3.900 -16.654  -6.378  1.00  0.00    -0.006 C 
ATOM     18  C   UNL     1      -4.126 -18.040  -5.755  1.00  0.00     0.008 C 
ATOM     19  C   UNL     1      -4.549 -16.586  -7.772  1.00  0.00     0.008 C 
ENDBRANCH  12  17
ENDBRANCH  11  12
ENDBRANCH   1  11
TORSDOF 1
ENDMDL
