MODEL 1
REMARK VINA RESULT:    -7.606      0.000      0.000
REMARK INTER + INTRA:         -11.070
REMARK INTER:                 -10.274
REMARK INTRA:                  -0.797
REMARK UNBOUND:                -0.797
REMARK SMILES O=c1c(-c2ccc(O)cc2)coc2c([C@@H]3O[C@@H](CO)[C@@H](O)[C@H](O)[C@H]3O)c(O)ccc12
REMARK SMILES IDX 3 1 11 2 12 3 13 4 30 5 2 6 1 7 29 8 28 9 26 10 14 11 4 12
REMARK SMILES IDX 5 13 6 14 7 15 10 16 9 17 8 18 15 20 24 21 16 22 22 23 17 24
REMARK SMILES IDX 20 25 25 26 23 28 18 30 19 31 21 33 27 35
REMARK H PARENT 8 19 25 27 23 29 19 32 21 34 27 36
REMARK Flexibility Score: inf
ROOT
ATOM      1  C   UNL     1      29.300  11.337  66.194  1.00  0.00     0.065 A 
ATOM      2  C   UNL     1      30.631  11.484  66.621  1.00  0.00     0.208 A 
ATOM      3  O   UNL     1      31.657  11.150  65.838  1.00  0.00    -0.463 OA
ATOM      4  C   UNL     1      31.458  10.861  64.585  1.00  0.00     0.147 A 
ATOM      5  C   UNL     1      30.226  10.253  64.246  1.00  0.00     0.066 A 
ATOM      6  C   UNL     1      29.115  10.418  65.115  1.00  0.00     0.200 A 
ATOM      7  O   UNL     1      27.982   9.936  64.826  1.00  0.00    -0.288 OA
ATOM      8  C   UNL     1      30.036   9.662  62.974  1.00  0.00     0.020 A 
ATOM      9  C   UNL     1      30.823  10.174  61.907  1.00  0.00     0.047 A 
ATOM     10  C   UNL     1      31.851  11.057  62.210  1.00  0.00     0.125 A 
ATOM     11  C   UNL     1      32.348  11.222  63.544  1.00  0.00     0.069 A 
ENDROOT
BRANCH   1  12
ATOM     12  C   UNL     1      28.387  12.549  66.318  1.00  0.00    -0.011 A 
ATOM     13  C   UNL     1      27.883  13.167  65.160  1.00  0.00     0.013 A 
ATOM     14  C   UNL     1      26.826  14.105  65.267  1.00  0.00     0.047 A 
ATOM     15  C   UNL     1      26.047  14.109  66.403  1.00  0.00     0.115 A 
ATOM     16  C   UNL     1      27.828  12.931  67.583  1.00  0.00     0.013 A 
ATOM     17  C   UNL     1      26.617  13.661  67.619  1.00  0.00     0.047 A 
BRANCH  15  18
ATOM     18  O   UNL     1      24.805  14.738  66.407  1.00  0.00    -0.508 OA
ATOM     19  H   UNL     1      23.954  14.229  66.144  1.00  0.00     0.293 HD
ENDBRANCH  15  18
ENDBRANCH   1  12
BRANCH  11  20
ATOM     20  C   UNL     1      33.635  12.076  63.723  1.00  0.00     0.188 C 
ATOM     21  C   UNL     1      34.606  11.563  64.825  1.00  0.00     0.179 C 
ATOM     22  O   UNL     1      34.403  12.561  62.601  1.00  0.00    -0.362 OA
ATOM     23  C   UNL     1      34.870  12.751  65.780  1.00  0.00     0.177 C 
ATOM     24  C   UNL     1      35.453  13.433  63.168  1.00  0.00     0.176 C 
ATOM     25  C   UNL     1      35.079  13.975  64.688  1.00  0.00     0.177 C 
BRANCH  21  26
ATOM     26  O   UNL     1      34.374  10.214  65.174  1.00  0.00    -0.387 OA
ATOM     27  H   UNL     1      35.087  10.123  65.912  1.00  0.00     0.211 HD
ENDBRANCH  21  26
BRANCH  23  28
ATOM     28  O   UNL     1      36.052  12.619  66.561  1.00  0.00    -0.387 OA
ATOM     29  H   UNL     1      36.806  12.686  65.897  1.00  0.00     0.211 HD
ENDBRANCH  23  28
BRANCH  24  30
ATOM     30  C   UNL     1      35.980  14.414  62.014  1.00  0.00     0.191 C 
BRANCH  30  31
ATOM     31  O   UNL     1      36.639  15.542  62.508  1.00  0.00    -0.394 OA
ATOM     32  H   UNL     1      35.934  16.255  62.673  1.00  0.00     0.210 HD
ENDBRANCH  30  31
ENDBRANCH  24  30
BRANCH  25  33
ATOM     33  O   UNL     1      33.902  14.797  64.601  1.00  0.00    -0.388 OA
ATOM     34  H   UNL     1      33.152  14.223  64.844  1.00  0.00     0.211 HD
ENDBRANCH  25  33
ENDBRANCH  11  20
BRANCH  10  35
ATOM     35  O   UNL     1      32.315  11.906  61.189  1.00  0.00    -0.507 OA
ATOM     36  H   UNL     1      33.315  12.061  61.041  1.00  0.00     0.293 HD
ENDBRANCH  10  35
TORSDOF 9
ENDMDL
MODEL 2
REMARK VINA RESULT:    -7.411      1.161      2.161
REMARK INTER + INTRA:         -10.807
REMARK INTER:                  -9.594
REMARK INTRA:                  -1.213
REMARK UNBOUND:                -0.797
REMARK SMILES O=c1c(-c2ccc(O)cc2)coc2c([C@@H]3O[C@@H](CO)[C@@H](O)[C@H](O)[C@H]3O)c(O)ccc12
REMARK SMILES IDX 3 1 11 2 12 3 13 4 30 5 2 6 1 7 29 8 28 9 26 10 14 11 4 12
REMARK SMILES IDX 5 13 6 14 7 15 10 16 9 17 8 18 15 20 24 21 16 22 22 23 17 24
REMARK SMILES IDX 20 25 25 26 23 28 18 30 19 31 21 33 27 35
REMARK H PARENT 8 19 25 27 23 29 19 32 21 34 27 36
REMARK Flexibility Score: inf
ROOT
ATOM      1  C   UNL     1      29.208  11.306  66.399  1.00  0.00     0.065 A 
ATOM      2  C   UNL     1      30.442  11.282  67.072  1.00  0.00     0.208 A 
ATOM      3  O   UNL     1      31.570  10.946  66.448  1.00  0.00    -0.463 OA
ATOM      4  C   UNL     1      31.592  10.821  65.153  1.00  0.00     0.147 A 
ATOM      5  C   UNL     1      30.406  10.371  64.525  1.00  0.00     0.066 A 
ATOM      6  C   UNL     1      29.166  10.537  65.195  1.00  0.00     0.200 A 
ATOM      7  O   UNL     1      28.077  10.197  64.650  1.00  0.00    -0.288 OA
ATOM      8  C   UNL     1      30.419   9.947  63.174  1.00  0.00     0.020 A 
ATOM      9  C   UNL     1      31.425  10.503  62.339  1.00  0.00     0.047 A 
ATOM     10  C   UNL     1      32.437  11.249  62.931  1.00  0.00     0.125 A 
ATOM     11  C   UNL     1      32.684  11.214  64.343  1.00  0.00     0.069 A 
ENDROOT
BRANCH   1  12
ATOM     12  C   UNL     1      28.373  12.575  66.513  1.00  0.00    -0.011 A 
ATOM     13  C   UNL     1      28.123  13.353  65.369  1.00  0.00     0.013 A 
ATOM     14  C   UNL     1      27.132  14.365  65.410  1.00  0.00     0.047 A 
ATOM     15  C   UNL     1      26.168  14.319  66.394  1.00  0.00     0.115 A 
ATOM     16  C   UNL     1      27.631  12.871  67.704  1.00  0.00     0.013 A 
ATOM     17  C   UNL     1      26.486  13.698  67.626  1.00  0.00     0.047 A 
BRANCH  15  18
ATOM     18  O   UNL     1      24.992  15.052  66.267  1.00  0.00    -0.508 OA
ATOM     19  H   UNL     1      24.745  15.505  65.381  1.00  0.00     0.293 HD
ENDBRANCH  15  18
ENDBRANCH   1  12
BRANCH  11  20
ATOM     20  C   UNL     1      33.971  11.921  64.856  1.00  0.00     0.188 C 
ATOM     21  C   UNL     1      33.773  13.408  65.268  1.00  0.00     0.179 C 
ATOM     22  O   UNL     1      34.886  11.290  65.776  1.00  0.00    -0.362 OA
ATOM     23  C   UNL     1      34.818  14.236  64.481  1.00  0.00     0.177 C 
ATOM     24  C   UNL     1      36.034  12.210  65.912  1.00  0.00     0.176 C 
ATOM     25  C   UNL     1      36.151  13.272  64.646  1.00  0.00     0.177 C 
BRANCH  21  26
ATOM     26  O   UNL     1      32.420  13.734  65.506  1.00  0.00    -0.387 OA
ATOM     27  H   UNL     1      31.983  13.004  64.926  1.00  0.00     0.211 HD
ENDBRANCH  21  26
BRANCH  23  28
ATOM     28  O   UNL     1      35.094  15.512  65.046  1.00  0.00    -0.387 OA
ATOM     29  H   UNL     1      35.874  15.355  65.665  1.00  0.00     0.211 HD
ENDBRANCH  23  28
BRANCH  24  30
ATOM     30  C   UNL     1      37.294  11.378  66.451  1.00  0.00     0.191 C 
BRANCH  30  31
ATOM     31  O   UNL     1      38.340  11.299  65.527  1.00  0.00    -0.394 OA
ATOM     32  H   UNL     1      37.924  11.134  64.615  1.00  0.00     0.210 HD
ENDBRANCH  30  31
ENDBRANCH  24  30
BRANCH  25  33
ATOM     33  O   UNL     1      36.399  12.522  63.443  1.00  0.00    -0.388 OA
ATOM     34  H   UNL     1      36.425  13.174  62.718  1.00  0.00     0.211 HD
ENDBRANCH  25  33
ENDBRANCH  11  20
BRANCH  10  35
ATOM     35  O   UNL     1      33.142  12.162  62.126  1.00  0.00    -0.507 OA
ATOM     36  H   UNL     1      33.771  11.841  61.385  1.00  0.00     0.293 HD
ENDBRANCH  10  35
TORSDOF 9
ENDMDL
MODEL 3
REMARK VINA RESULT:    -7.398      4.349      7.360
REMARK INTER + INTRA:         -10.789
REMARK INTER:                  -9.626
REMARK INTRA:                  -1.163
REMARK UNBOUND:                -0.797
REMARK SMILES O=c1c(-c2ccc(O)cc2)coc2c([C@@H]3O[C@@H](CO)[C@@H](O)[C@H](O)[C@H]3O)c(O)ccc12
REMARK SMILES IDX 3 1 11 2 12 3 13 4 30 5 2 6 1 7 29 8 28 9 26 10 14 11 4 12
REMARK SMILES IDX 5 13 6 14 7 15 10 16 9 17 8 18 15 20 24 21 16 22 22 23 17 24
REMARK SMILES IDX 20 25 25 26 23 28 18 30 19 31 21 33 27 35
REMARK H PARENT 8 19 25 27 23 29 19 32 21 34 27 36
REMARK Flexibility Score: inf
ROOT
ATOM      1  C   UNL     1      35.283  10.780  61.276  1.00  0.00     0.065 A 
ATOM      2  C   UNL     1      36.147  11.844  61.586  1.00  0.00     0.208 A 
ATOM      3  O   UNL     1      36.941  12.390  60.665  1.00  0.00    -0.463 OA
ATOM      4  C   UNL     1      36.797  12.081  59.409  1.00  0.00     0.147 A 
ATOM      5  C   UNL     1      36.346  10.774  59.110  1.00  0.00     0.066 A 
ATOM      6  C   UNL     1      35.631  10.049  60.098  1.00  0.00     0.200 A 
ATOM      7  O   UNL     1      35.166   8.898  59.857  1.00  0.00    -0.288 OA
ATOM      8  C   UNL     1      36.423  10.266  57.790  1.00  0.00     0.020 A 
ATOM      9  C   UNL     1      36.398  11.220  56.736  1.00  0.00     0.047 A 
ATOM     10  C   UNL     1      36.507  12.566  57.061  1.00  0.00     0.125 A 
ATOM     11  C   UNL     1      36.955  13.006  58.349  1.00  0.00     0.069 A 
ENDROOT
BRANCH   1  12
ATOM     12  C   UNL     1      33.818  10.930  61.665  1.00  0.00    -0.011 A 
ATOM     13  C   UNL     1      32.832  10.997  60.665  1.00  0.00     0.013 A 
ATOM     14  C   UNL     1      31.466  10.856  61.015  1.00  0.00     0.047 A 
ATOM     15  C   UNL     1      31.140  10.270  62.219  1.00  0.00     0.115 A 
ATOM     16  C   UNL     1      33.390  10.762  63.024  1.00  0.00     0.013 A 
ATOM     17  C   UNL     1      32.058  10.368  63.292  1.00  0.00     0.047 A 
BRANCH  15  18
ATOM     18  O   UNL     1      29.855   9.786  62.445  1.00  0.00    -0.508 OA
ATOM     19  H   UNL     1      29.378   9.950  63.338  1.00  0.00     0.293 HD
ENDBRANCH  15  18
ENDBRANCH   1  12
BRANCH  11  20
ATOM     20  C   UNL     1      37.238  14.526  58.521  1.00  0.00     0.188 C 
ATOM     21  C   UNL     1      38.736  14.886  58.738  1.00  0.00     0.179 C 
ATOM     22  O   UNL     1      36.625  15.527  57.681  1.00  0.00    -0.362 OA
ATOM     23  C   UNL     1      38.812  15.729  60.034  1.00  0.00     0.177 C 
ATOM     24  C   UNL     1      37.029  16.834  58.237  1.00  0.00     0.176 C 
ATOM     25  C   UNL     1      37.515  16.731  59.818  1.00  0.00     0.177 C 
BRANCH  21  26
ATOM     26  O   UNL     1      39.611  13.856  58.330  1.00  0.00    -0.387 OA
ATOM     27  H   UNL     1      39.752  14.154  57.354  1.00  0.00     0.211 HD
ENDBRANCH  21  26
BRANCH  23  28
ATOM     28  O   UNL     1      39.993  16.514  60.148  1.00  0.00    -0.387 OA
ATOM     29  H   UNL     1      40.547  16.262  59.345  1.00  0.00     0.211 HD
ENDBRANCH  23  28
BRANCH  24  30
ATOM     30  C   UNL     1      35.991  17.947  57.731  1.00  0.00     0.191 C 
BRANCH  30  31
ATOM     31  O   UNL     1      35.637  18.864  58.725  1.00  0.00    -0.394 OA
ATOM     32  H   UNL     1      35.795  19.794  58.347  1.00  0.00     0.210 HD
ENDBRANCH  30  31
ENDBRANCH  24  30
BRANCH  25  33
ATOM     33  O   UNL     1      36.394  16.305  60.612  1.00  0.00    -0.388 OA
ATOM     34  H   UNL     1      35.995  17.117  60.976  1.00  0.00     0.211 HD
ENDBRANCH  25  33
ENDBRANCH  11  20
BRANCH  10  35
ATOM     35  O   UNL     1      36.030  13.509  56.133  1.00  0.00    -0.507 OA
ATOM     36  H   UNL     1      35.488  13.222  55.313  1.00  0.00     0.293 HD
ENDBRANCH  10  35
TORSDOF 9
ENDMDL
MODEL 4
REMARK VINA RESULT:    -7.366      3.642      6.162
REMARK INTER + INTRA:         -10.746
REMARK INTER:                  -9.528
REMARK INTRA:                  -1.218
REMARK UNBOUND:                -0.797
REMARK SMILES O=c1c(-c2ccc(O)cc2)coc2c([C@@H]3O[C@@H](CO)[C@@H](O)[C@H](O)[C@H]3O)c(O)ccc12
REMARK SMILES IDX 3 1 11 2 12 3 13 4 30 5 2 6 1 7 29 8 28 9 26 10 14 11 4 12
REMARK SMILES IDX 5 13 6 14 7 15 10 16 9 17 8 18 15 20 24 21 16 22 22 23 17 24
REMARK SMILES IDX 20 25 25 26 23 28 18 30 19 31 21 33 27 35
REMARK H PARENT 8 19 25 27 23 29 19 32 21 34 27 36
REMARK Flexibility Score: inf
ROOT
ATOM      1  C   UNL     1      34.757   9.625  62.060  1.00  0.00     0.065 A 
ATOM      2  C   UNL     1      35.430   9.913  63.260  1.00  0.00     0.208 A 
ATOM      3  O   UNL     1      36.499  10.707  63.287  1.00  0.00    -0.463 OA
ATOM      4  C   UNL     1      36.834  11.393  62.233  1.00  0.00     0.147 A 
ATOM      5  C   UNL     1      36.544  10.825  60.970  1.00  0.00     0.066 A 
ATOM      6  C   UNL     1      35.526   9.842  60.874  1.00  0.00     0.200 A 
ATOM      7  O   UNL     1      35.199   9.345  59.758  1.00  0.00    -0.288 OA
ATOM      8  C   UNL     1      37.110  11.362  59.788  1.00  0.00     0.020 A 
ATOM      9  C   UNL     1      37.463  12.738  59.816  1.00  0.00     0.047 A 
ATOM     10  C   UNL     1      37.425  13.405  61.034  1.00  0.00     0.125 A 
ATOM     11  C   UNL     1      37.359  12.707  62.284  1.00  0.00     0.069 A 
ENDROOT
BRANCH   1  12
ATOM     12  C   UNL     1      33.249   9.844  62.032  1.00  0.00    -0.011 A 
ATOM     13  C   UNL     1      32.410   8.862  61.478  1.00  0.00     0.013 A 
ATOM     14  C   UNL     1      31.012   8.928  61.696  1.00  0.00     0.047 A 
ATOM     15  C   UNL     1      30.533   9.684  62.744  1.00  0.00     0.115 A 
ATOM     16  C   UNL     1      32.641  10.912  62.771  1.00  0.00     0.013 A 
ATOM     17  C   UNL     1      31.292  10.796  63.181  1.00  0.00     0.047 A 
BRANCH  15  18
ATOM     18  O   UNL     1      29.237   9.497  63.218  1.00  0.00    -0.508 OA
ATOM     19  H   UNL     1      28.953   8.605  63.638  1.00  0.00     0.293 HD
ENDBRANCH  15  18
ENDBRANCH   1  12
BRANCH  11  20
ATOM     20  C   UNL     1      37.537  13.551  63.579  1.00  0.00     0.188 C 
ATOM     21  C   UNL     1      36.219  14.158  64.142  1.00  0.00     0.179 C 
ATOM     22  O   UNL     1      38.370  13.119  64.675  1.00  0.00    -0.362 OA
ATOM     23  C   UNL     1      36.455  15.680  64.297  1.00  0.00     0.177 C 
ATOM     24  C   UNL     1      38.389  14.237  65.641  1.00  0.00     0.176 C 
ATOM     25  C   UNL     1      37.974  15.684  64.950  1.00  0.00     0.177 C 
BRANCH  21  26
ATOM     26  O   UNL     1      35.065  13.512  63.649  1.00  0.00    -0.387 OA
ATOM     27  H   UNL     1      35.486  13.051  62.829  1.00  0.00     0.211 HD
ENDBRANCH  21  26
BRANCH  23  28
ATOM     28  O   UNL     1      35.559  16.318  65.199  1.00  0.00    -0.387 OA
ATOM     29  H   UNL     1      36.145  16.648  65.950  1.00  0.00     0.211 HD
ENDBRANCH  23  28
BRANCH  24  30
ATOM     30  C   UNL     1      39.678  14.076  66.582  1.00  0.00     0.191 C 
BRANCH  30  31
ATOM     31  O   UNL     1      40.399  15.262  66.739  1.00  0.00    -0.394 OA
ATOM     32  H   UNL     1      39.780  15.934  67.184  1.00  0.00     0.210 HD
ENDBRANCH  30  31
ENDBRANCH  24  30
BRANCH  25  33
ATOM     33  O   UNL     1      38.963  16.016  63.959  1.00  0.00    -0.388 OA
ATOM     34  H   UNL     1      38.702  16.883  63.597  1.00  0.00     0.211 HD
ENDBRANCH  25  33
ENDBRANCH  11  20
BRANCH  10  35
ATOM     35  O   UNL     1      37.311  14.807  61.016  1.00  0.00    -0.507 OA
ATOM     36  H   UNL     1      36.571  15.287  61.535  1.00  0.00     0.293 HD
ENDBRANCH  10  35
TORSDOF 9
ENDMDL
MODEL 5
REMARK VINA RESULT:    -7.322      8.212     11.266
REMARK INTER + INTRA:         -10.687
REMARK INTER:                  -9.589
REMARK INTRA:                  -1.098
REMARK UNBOUND:                -0.797
REMARK SMILES O=c1c(-c2ccc(O)cc2)coc2c([C@@H]3O[C@@H](CO)[C@@H](O)[C@H](O)[C@H]3O)c(O)ccc12
REMARK SMILES IDX 3 1 11 2 12 3 13 4 30 5 2 6 1 7 29 8 28 9 26 10 14 11 4 12
REMARK SMILES IDX 5 13 6 14 7 15 10 16 9 17 8 18 15 20 24 21 16 22 22 23 17 24
REMARK SMILES IDX 20 25 25 26 23 28 18 30 19 31 21 33 27 35
REMARK H PARENT 8 19 25 27 23 29 19 32 21 34 27 36
REMARK Flexibility Score: inf
ROOT
ATOM      1  C   UNL     1      36.633  11.061  56.929  1.00  0.00     0.065 A 
ATOM      2  C   UNL     1      36.271  12.392  56.658  1.00  0.00     0.208 A 
ATOM      3  O   UNL     1      36.325  13.335  57.598  1.00  0.00    -0.463 OA
ATOM      4  C   UNL     1      36.898  13.091  58.741  1.00  0.00     0.147 A 
ATOM      5  C   UNL     1      36.834  11.764  59.229  1.00  0.00     0.066 A 
ATOM      6  C   UNL     1      36.611  10.703  58.312  1.00  0.00     0.200 A 
ATOM      7  O   UNL     1      36.597   9.498  58.697  1.00  0.00    -0.288 OA
ATOM      8  C   UNL     1      37.183  11.468  60.568  1.00  0.00     0.020 A 
ATOM      9  C   UNL     1      38.105  12.347  61.198  1.00  0.00     0.047 A 
ATOM     10  C   UNL     1      38.438  13.529  60.549  1.00  0.00     0.125 A 
ATOM     11  C   UNL     1      37.670  14.041  59.452  1.00  0.00     0.069 A 
ENDROOT
BRANCH   1  12
ATOM     12  C   UNL     1      37.645  10.407  55.996  1.00  0.00    -0.011 A 
ATOM     13  C   UNL     1      37.449   9.081  55.572  1.00  0.00     0.013 A 
ATOM     14  C   UNL     1      38.221   8.565  54.501  1.00  0.00     0.047 A 
ATOM     15  C   UNL     1      38.844   9.443  53.641  1.00  0.00     0.115 A 
ATOM     16  C   UNL     1      38.661  11.180  55.344  1.00  0.00     0.013 A 
ATOM     17  C   UNL     1      39.215  10.720  54.126  1.00  0.00     0.047 A 
BRANCH  15  18
ATOM     18  O   UNL     1      39.295   9.013  52.396  1.00  0.00    -0.508 OA
ATOM     19  H   UNL     1      38.756   9.205  51.545  1.00  0.00     0.293 HD
ENDBRANCH  15  18
ENDBRANCH   1  12
BRANCH  11  20
ATOM     20  C   UNL     1      38.015  15.472  58.950  1.00  0.00     0.188 C 
ATOM     21  C   UNL     1      37.115  16.598  59.535  1.00  0.00     0.179 C 
ATOM     22  O   UNL     1      39.373  15.951  58.851  1.00  0.00    -0.362 OA
ATOM     23  C   UNL     1      36.537  17.381  58.331  1.00  0.00     0.177 C 
ATOM     24  C   UNL     1      39.294  17.281  58.214  1.00  0.00     0.176 C 
ATOM     25  C   UNL     1      37.881  17.504  57.377  1.00  0.00     0.177 C 
BRANCH  21  26
ATOM     26  O   UNL     1      36.438  16.203  60.709  1.00  0.00    -0.387 OA
ATOM     27  H   UNL     1      36.446  15.185  60.555  1.00  0.00     0.211 HD
ENDBRANCH  21  26
BRANCH  23  28
ATOM     28  O   UNL     1      36.075  18.687  58.655  1.00  0.00    -0.387 OA
ATOM     29  H   UNL     1      36.218  19.225  57.815  1.00  0.00     0.211 HD
ENDBRANCH  23  28
BRANCH  24  30
ATOM     30  C   UNL     1      40.727  17.630  57.583  1.00  0.00     0.191 C 
BRANCH  30  31
ATOM     31  O   UNL     1      41.138  18.941  57.840  1.00  0.00    -0.394 OA
ATOM     32  H   UNL     1      40.811  19.516  57.069  1.00  0.00     0.210 HD
ENDBRANCH  30  31
ENDBRANCH  24  30
BRANCH  25  33
ATOM     33  O   UNL     1      37.837  16.556  56.296  1.00  0.00    -0.388 OA
ATOM     34  H   UNL     1      37.037  16.017  56.442  1.00  0.00     0.211 HD
ENDBRANCH  25  33
ENDBRANCH  11  20
BRANCH  10  35
ATOM     35  O   UNL     1      39.645  14.159  60.903  1.00  0.00    -0.507 OA
ATOM     36  H   UNL     1      40.207  13.826  61.691  1.00  0.00     0.293 HD
ENDBRANCH  10  35
TORSDOF 9
ENDMDL
MODEL 6
REMARK VINA RESULT:    -7.277      3.545      7.424
REMARK INTER + INTRA:         -10.626
REMARK INTER:                  -9.120
REMARK INTRA:                  -1.507
REMARK UNBOUND:                -0.797
REMARK SMILES O=c1c(-c2ccc(O)cc2)coc2c([C@@H]3O[C@@H](CO)[C@@H](O)[C@H](O)[C@H]3O)c(O)ccc12
REMARK SMILES IDX 3 1 11 2 12 3 13 4 30 5 2 6 1 7 29 8 28 9 26 10 14 11 4 12
REMARK SMILES IDX 5 13 6 14 7 15 10 16 9 17 8 18 15 20 24 21 16 22 22 23 17 24
REMARK SMILES IDX 20 25 25 26 23 28 18 30 19 31 21 33 27 35
REMARK H PARENT 8 19 25 27 23 29 19 32 21 34 27 36
REMARK Flexibility Score: inf
ROOT
ATOM      1  C   UNL     1      34.381  10.037  60.498  1.00  0.00     0.065 A 
ATOM      2  C   UNL     1      35.194  11.160  60.728  1.00  0.00     0.208 A 
ATOM      3  O   UNL     1      34.898  12.056  61.668  1.00  0.00    -0.463 OA
ATOM      4  C   UNL     1      33.953  11.815  62.530  1.00  0.00     0.147 A 
ATOM      5  C   UNL     1      32.863  11.024  62.093  1.00  0.00     0.066 A 
ATOM      6  C   UNL     1      33.042  10.157  60.984  1.00  0.00     0.200 A 
ATOM      7  O   UNL     1      32.112   9.395  60.592  1.00  0.00    -0.288 OA
ATOM      8  C   UNL     1      31.677  10.941  62.861  1.00  0.00     0.020 A 
ATOM      9  C   UNL     1      31.804  11.156  64.260  1.00  0.00     0.047 A 
ATOM     10  C   UNL     1      33.016  11.628  64.748  1.00  0.00     0.125 A 
ATOM     11  C   UNL     1      34.013  12.199  63.891  1.00  0.00     0.069 A 
ENDROOT
BRANCH   1  12
ATOM     12  C   UNL     1      35.058   8.673  60.482  1.00  0.00    -0.011 A 
ATOM     13  C   UNL     1      35.505   8.128  59.265  1.00  0.00     0.013 A 
ATOM     14  C   UNL     1      36.373   7.008  59.273  1.00  0.00     0.047 A 
ATOM     15  C   UNL     1      37.078   6.715  60.420  1.00  0.00     0.115 A 
ATOM     16  C   UNL     1      35.472   8.035  61.698  1.00  0.00     0.013 A 
ATOM     17  C   UNL     1      36.532   7.098  61.669  1.00  0.00     0.047 A 
BRANCH  15  18
ATOM     18  O   UNL     1      38.187   5.875  60.374  1.00  0.00    -0.508 OA
ATOM     19  H   UNL     1      38.089   4.864  60.514  1.00  0.00     0.293 HD
ENDBRANCH  15  18
ENDBRANCH   1  12
BRANCH  11  20
ATOM     20  C   UNL     1      35.231  12.882  64.576  1.00  0.00     0.188 C 
ATOM     21  C   UNL     1      35.103  14.425  64.734  1.00  0.00     0.179 C 
ATOM     22  O   UNL     1      35.867  12.334  65.750  1.00  0.00    -0.362 OA
ATOM     23  C   UNL     1      36.366  15.049  64.094  1.00  0.00     0.177 C 
ATOM     24  C   UNL     1      37.049  13.181  66.011  1.00  0.00     0.176 C 
ATOM     25  C   UNL     1      37.533  14.029  64.672  1.00  0.00     0.177 C 
BRANCH  21  26
ATOM     26  O   UNL     1      33.770  14.878  64.625  1.00  0.00    -0.387 OA
ATOM     27  H   UNL     1      33.308  14.117  65.145  1.00  0.00     0.211 HD
ENDBRANCH  21  26
BRANCH  23  28
ATOM     28  O   UNL     1      36.647  16.373  64.532  1.00  0.00    -0.387 OA
ATOM     29  H   UNL     1      36.466  16.358  65.523  1.00  0.00     0.211 HD
ENDBRANCH  23  28
BRANCH  24  30
ATOM     30  C   UNL     1      38.079  12.353  66.918  1.00  0.00     0.191 C 
BRANCH  30  31
ATOM     31  O   UNL     1      39.077  11.713  66.177  1.00  0.00    -0.394 OA
ATOM     32  H   UNL     1      39.130  10.754  66.508  1.00  0.00     0.210 HD
ENDBRANCH  30  31
ENDBRANCH  24  30
BRANCH  25  33
ATOM     33  O   UNL     1      37.946  13.091  63.663  1.00  0.00    -0.388 OA
ATOM     34  H   UNL     1      37.131  12.660  63.344  1.00  0.00     0.211 HD
ENDBRANCH  25  33
ENDBRANCH  11  20
BRANCH  10  35
ATOM     35  O   UNL     1      33.312  11.408  66.105  1.00  0.00    -0.507 OA
ATOM     36  H   UNL     1      33.207  12.153  66.799  1.00  0.00     0.293 HD
ENDBRANCH  10  35
TORSDOF 9
ENDMDL
MODEL 7
REMARK VINA RESULT:    -7.169      8.843     12.189
REMARK INTER + INTRA:         -10.480
REMARK INTER:                  -9.437
REMARK INTRA:                  -1.043
REMARK UNBOUND:                -0.797
REMARK SMILES O=c1c(-c2ccc(O)cc2)coc2c([C@@H]3O[C@@H](CO)[C@@H](O)[C@H](O)[C@H]3O)c(O)ccc12
REMARK SMILES IDX 3 1 11 2 12 3 13 4 30 5 2 6 1 7 29 8 28 9 26 10 14 11 4 12
REMARK SMILES IDX 5 13 6 14 7 15 10 16 9 17 8 18 15 20 24 21 16 22 22 23 17 24
REMARK SMILES IDX 20 25 25 26 23 28 18 30 19 31 21 33 27 35
REMARK H PARENT 8 19 25 27 23 29 19 32 21 34 27 36
REMARK Flexibility Score: inf
ROOT
ATOM      1  C   UNL     1      39.570  12.091  55.187  1.00  0.00     0.065 A 
ATOM      2  C   UNL     1      40.272  12.893  56.102  1.00  0.00     0.208 A 
ATOM      3  O   UNL     1      40.042  14.201  56.204  1.00  0.00    -0.463 OA
ATOM      4  C   UNL     1      39.024  14.738  55.596  1.00  0.00     0.147 A 
ATOM      5  C   UNL     1      38.617  14.153  54.373  1.00  0.00     0.066 A 
ATOM      6  C   UNL     1      38.965  12.803  54.105  1.00  0.00     0.200 A 
ATOM      7  O   UNL     1      38.579  12.225  53.049  1.00  0.00    -0.288 OA
ATOM      8  C   UNL     1      37.711  14.823  53.516  1.00  0.00     0.020 A 
ATOM      9  C   UNL     1      36.815  15.742  54.127  1.00  0.00     0.047 A 
ATOM     10  C   UNL     1      37.016  16.073  55.461  1.00  0.00     0.125 A 
ATOM     11  C   UNL     1      38.244  15.786  56.142  1.00  0.00     0.069 A 
ENDROOT
BRANCH   1  12
ATOM     12  C   UNL     1      38.903  10.832  55.726  1.00  0.00    -0.011 A 
ATOM     13  C   UNL     1      38.302  10.848  56.997  1.00  0.00     0.013 A 
ATOM     14  C   UNL     1      37.449   9.785  57.385  1.00  0.00     0.047 A 
ATOM     15  C   UNL     1      36.904   8.975  56.412  1.00  0.00     0.115 A 
ATOM     16  C   UNL     1      38.657   9.701  54.879  1.00  0.00     0.013 A 
ATOM     17  C   UNL     1      37.608   8.806  55.196  1.00  0.00     0.047 A 
BRANCH  15  18
ATOM     18  O   UNL     1      35.802   8.172  56.696  1.00  0.00    -0.508 OA
ATOM     19  H   UNL     1      35.424   8.112  57.647  1.00  0.00     0.293 HD
ENDBRANCH  15  18
ENDBRANCH   1  12
BRANCH  11  20
ATOM     20  C   UNL     1      38.427  16.392  57.562  1.00  0.00     0.188 C 
ATOM     21  C   UNL     1      39.142  17.773  57.590  1.00  0.00     0.179 C 
ATOM     22  O   UNL     1      37.374  16.380  58.550  1.00  0.00    -0.362 OA
ATOM     23  C   UNL     1      40.336  17.642  58.566  1.00  0.00     0.177 C 
ATOM     24  C   UNL     1      37.971  16.913  59.792  1.00  0.00     0.176 C 
ATOM     25  C   UNL     1      39.624  16.806  59.803  1.00  0.00     0.177 C 
BRANCH  21  26
ATOM     26  O   UNL     1      39.122  18.424  56.338  1.00  0.00    -0.387 OA
ATOM     27  H   UNL     1      38.180  18.838  56.396  1.00  0.00     0.211 HD
ENDBRANCH  21  26
BRANCH  23  28
ATOM     28  O   UNL     1      40.820  18.884  59.063  1.00  0.00    -0.387 OA
ATOM     29  H   UNL     1      41.447  18.633  59.811  1.00  0.00     0.211 HD
ENDBRANCH  23  28
BRANCH  24  30
ATOM     30  C   UNL     1      37.074  16.437  61.034  1.00  0.00     0.191 C 
BRANCH  30  31
ATOM     31  O   UNL     1      37.373  17.111  62.221  1.00  0.00    -0.394 OA
ATOM     32  H   UNL     1      38.334  16.885  62.462  1.00  0.00     0.210 HD
ENDBRANCH  30  31
ENDBRANCH  24  30
BRANCH  25  33
ATOM     33  O   UNL     1      39.991  15.415  59.765  1.00  0.00    -0.388 OA
ATOM     34  H   UNL     1      39.506  15.028  59.013  1.00  0.00     0.211 HD
ENDBRANCH  25  33
ENDBRANCH  11  20
BRANCH  10  35
ATOM     35  O   UNL     1      35.924  16.582  56.187  1.00  0.00    -0.507 OA
ATOM     36  H   UNL     1      35.393  17.390  55.851  1.00  0.00     0.293 HD
ENDBRANCH  10  35
TORSDOF 9
ENDMDL
MODEL 8
REMARK VINA RESULT:    -7.100      2.876      7.834
REMARK INTER + INTRA:         -10.387
REMARK INTER:                  -8.910
REMARK INTRA:                  -1.477
REMARK UNBOUND:                -0.797
REMARK SMILES O=c1c(-c2ccc(O)cc2)coc2c([C@@H]3O[C@@H](CO)[C@@H](O)[C@H](O)[C@H]3O)c(O)ccc12
REMARK SMILES IDX 3 1 11 2 12 3 13 4 30 5 2 6 1 7 29 8 28 9 26 10 14 11 4 12
REMARK SMILES IDX 5 13 6 14 7 15 10 16 9 17 8 18 15 20 24 21 16 22 22 23 17 24
REMARK SMILES IDX 20 25 25 26 23 28 18 30 19 31 21 33 27 35
REMARK H PARENT 8 19 25 27 23 29 19 32 21 34 27 36
REMARK Flexibility Score: inf
ROOT
ATOM      1  C   UNL     1      36.413  13.664  62.951  1.00  0.00     0.065 A 
ATOM      2  C   UNL     1      35.009  13.708  62.905  1.00  0.00     0.208 A 
ATOM      3  O   UNL     1      34.277  12.596  62.866  1.00  0.00    -0.463 OA
ATOM      4  C   UNL     1      34.834  11.436  63.065  1.00  0.00     0.147 A 
ATOM      5  C   UNL     1      36.178  11.282  62.650  1.00  0.00     0.066 A 
ATOM      6  C   UNL     1      36.990  12.436  62.502  1.00  0.00     0.200 A 
ATOM      7  O   UNL     1      38.210  12.341  62.182  1.00  0.00    -0.288 OA
ATOM      8  C   UNL     1      36.769   9.997  62.575  1.00  0.00     0.020 A 
ATOM      9  C   UNL     1      36.235   8.997  63.432  1.00  0.00     0.047 A 
ATOM     10  C   UNL     1      35.062   9.276  64.121  1.00  0.00     0.125 A 
ATOM     11  C   UNL     1      34.213  10.376  63.770  1.00  0.00     0.069 A 
ENDROOT
BRANCH   1  12
ATOM     12  C   UNL     1      37.104  14.465  64.048  1.00  0.00    -0.011 A 
ATOM     13  C   UNL     1      36.905  14.120  65.396  1.00  0.00     0.013 A 
ATOM     14  C   UNL     1      37.748  14.670  66.394  1.00  0.00     0.047 A 
ATOM     15  C   UNL     1      38.967  15.197  66.025  1.00  0.00     0.115 A 
ATOM     16  C   UNL     1      38.140  15.407  63.739  1.00  0.00     0.013 A 
ATOM     17  C   UNL     1      39.112  15.722  64.718  1.00  0.00     0.047 A 
BRANCH  15  18
ATOM     18  O   UNL     1      39.963  15.409  66.974  1.00  0.00    -0.508 OA
ATOM     19  H   UNL     1      39.990  16.273  67.526  1.00  0.00     0.293 HD
ENDBRANCH  15  18
ENDBRANCH   1  12
BRANCH  11  20
ATOM     20  C   UNL     1      32.828  10.458  64.473  1.00  0.00     0.188 C 
ATOM     21  C   UNL     1      31.650   9.853  63.656  1.00  0.00     0.179 C 
ATOM     22  O   UNL     1      32.650  10.144  65.870  1.00  0.00    -0.362 OA
ATOM     23  C   UNL     1      30.563  10.950  63.556  1.00  0.00     0.177 C 
ATOM     24  C   UNL     1      31.245  10.471  66.189  1.00  0.00     0.176 C 
ATOM     25  C   UNL     1      30.575  11.529  65.105  1.00  0.00     0.177 C 
BRANCH  21  26
ATOM     26  O   UNL     1      32.084   8.976  62.638  1.00  0.00    -0.387 OA
ATOM     27  H   UNL     1      32.527   8.261  63.232  1.00  0.00     0.211 HD
ENDBRANCH  21  26
BRANCH  23  28
ATOM     28  O   UNL     1      29.263  10.455  63.255  1.00  0.00    -0.387 OA
ATOM     29  H   UNL     1      29.422   9.534  62.875  1.00  0.00     0.211 HD
ENDBRANCH  23  28
BRANCH  24  30
ATOM     30  C   UNL     1      31.116  10.673  67.775  1.00  0.00     0.191 C 
BRANCH  30  31
ATOM     31  O   UNL     1      30.986  12.012  68.151  1.00  0.00    -0.394 OA
ATOM     32  H   UNL     1      31.924  12.392  68.242  1.00  0.00     0.210 HD
ENDBRANCH  30  31
ENDBRANCH  24  30
BRANCH  25  33
ATOM     33  O   UNL     1      31.288  12.776  65.185  1.00  0.00    -0.388 OA
ATOM     34  H   UNL     1      31.340  12.997  66.134  1.00  0.00     0.211 HD
ENDBRANCH  25  33
ENDBRANCH  11  20
BRANCH  10  35
ATOM     35  O   UNL     1      34.782   8.528  65.279  1.00  0.00    -0.507 OA
ATOM     36  H   UNL     1      34.064   7.798  65.280  1.00  0.00     0.293 HD
ENDBRANCH  10  35
TORSDOF 9
ENDMDL
MODEL 9
REMARK VINA RESULT:    -7.032      4.308      7.060
REMARK INTER + INTRA:         -10.295
REMARK INTER:                  -9.461
REMARK INTRA:                  -0.834
REMARK UNBOUND:                -0.797
REMARK SMILES O=c1c(-c2ccc(O)cc2)coc2c([C@@H]3O[C@@H](CO)[C@@H](O)[C@H](O)[C@H]3O)c(O)ccc12
REMARK SMILES IDX 3 1 11 2 12 3 13 4 30 5 2 6 1 7 29 8 28 9 26 10 14 11 4 12
REMARK SMILES IDX 5 13 6 14 7 15 10 16 9 17 8 18 15 20 24 21 16 22 22 23 17 24
REMARK SMILES IDX 20 25 25 26 23 28 18 30 19 31 21 33 27 35
REMARK H PARENT 8 19 25 27 23 29 19 32 21 34 27 36
REMARK Flexibility Score: inf
ROOT
ATOM      1  C   UNL     1      35.726  10.764  61.136  1.00  0.00     0.065 A 
ATOM      2  C   UNL     1      36.431  10.704  62.351  1.00  0.00     0.208 A 
ATOM      3  O   UNL     1      37.262  11.676  62.724  1.00  0.00    -0.463 OA
ATOM      4  C   UNL     1      37.297  12.798  62.066  1.00  0.00     0.147 A 
ATOM      5  C   UNL     1      37.024  12.746  60.678  1.00  0.00     0.066 A 
ATOM      6  C   UNL     1      36.281  11.651  60.163  1.00  0.00     0.200 A 
ATOM      7  O   UNL     1      35.971  11.589  58.939  1.00  0.00    -0.288 OA
ATOM      8  C   UNL     1      37.304  13.854  59.843  1.00  0.00     0.020 A 
ATOM      9  C   UNL     1      37.298  15.136  60.458  1.00  0.00     0.047 A 
ATOM     10  C   UNL     1      37.226  15.202  61.843  1.00  0.00     0.125 A 
ATOM     11  C   UNL     1      37.475  14.063  62.677  1.00  0.00     0.069 A 
ENDROOT
BRANCH   1  12
ATOM     12  C   UNL     1      34.218  10.552  61.190  1.00  0.00    -0.011 A 
ATOM     13  C   UNL     1      33.645   9.442  60.546  1.00  0.00     0.013 A 
ATOM     14  C   UNL     1      32.300   9.087  60.821  1.00  0.00     0.047 A 
ATOM     15  C   UNL     1      31.707   9.555  61.973  1.00  0.00     0.115 A 
ATOM     16  C   UNL     1      33.393  11.315  62.081  1.00  0.00     0.013 A 
ATOM     17  C   UNL     1      32.160  10.779  62.521  1.00  0.00     0.047 A 
BRANCH  15  18
ATOM     18  O   UNL     1      30.549   8.959  62.465  1.00  0.00    -0.508 OA
ATOM     19  H   UNL     1      29.623   9.254  62.138  1.00  0.00     0.293 HD
ENDBRANCH  15  18
ENDBRANCH   1  12
BRANCH  11  20
ATOM     20  C   UNL     1      37.574  14.312  64.209  1.00  0.00     0.188 C 
ATOM     21  C   UNL     1      38.767  15.211  64.644  1.00  0.00     0.179 C 
ATOM     22  O   UNL     1      36.421  14.626  65.018  1.00  0.00    -0.362 OA
ATOM     23  C   UNL     1      39.557  14.423  65.717  1.00  0.00     0.177 C 
ATOM     24  C   UNL     1      36.894  14.652  66.417  1.00  0.00     0.176 C 
ATOM     25  C   UNL     1      38.313  13.821  66.625  1.00  0.00     0.177 C 
BRANCH  21  26
ATOM     26  O   UNL     1      39.291  15.977  63.580  1.00  0.00    -0.387 OA
ATOM     27  H   UNL     1      38.415  16.418  63.264  1.00  0.00     0.211 HD
ENDBRANCH  21  26
BRANCH  23  28
ATOM     28  O   UNL     1      40.385  15.233  66.542  1.00  0.00    -0.387 OA
ATOM     29  H   UNL     1      39.741  15.762  67.110  1.00  0.00     0.211 HD
ENDBRANCH  23  28
BRANCH  24  30
ATOM     30  C   UNL     1      35.633  14.450  67.386  1.00  0.00     0.191 C 
BRANCH  30  31
ATOM     31  O   UNL     1      34.475  14.057  66.710  1.00  0.00    -0.394 OA
ATOM     32  H   UNL     1      34.516  14.466  65.781  1.00  0.00     0.210 HD
ENDBRANCH  30  31
ENDBRANCH  24  30
BRANCH  25  33
ATOM     33  O   UNL     1      38.076  12.434  66.324  1.00  0.00    -0.388 OA
ATOM     34  H   UNL     1      38.942  12.060  66.075  1.00  0.00     0.211 HD
ENDBRANCH  25  33
ENDBRANCH  11  20
BRANCH  10  35
ATOM     35  O   UNL     1      36.762  16.397  62.424  1.00  0.00    -0.507 OA
ATOM     36  H   UNL     1      37.404  17.048  62.884  1.00  0.00     0.293 HD
ENDBRANCH  10  35
TORSDOF 9
ENDMDL
