MODEL 1
REMARK VINA RESULT:    -5.927      0.000      0.000
REMARK INTER + INTRA:          -5.927
REMARK INTER:                  -5.927
REMARK INTRA:                   0.000
REMARK UNBOUND:                 0.000
REMARK SMILES C=C1CCC[C@@]2(C)C=C3OC(=O)C(C)=C3C[C@@H]12
REMARK SMILES IDX 14 1 13 2 15 3 16 4 17 5 2 6 1 7 3 8 4 9 5 10 6 11 8 12 9 13
REMARK SMILES IDX 10 14 11 15 12 16 7 17
REMARK H PARENT
REMARK Flexibility Score: inf
ROOT
ATOM      1  C   UNL     1      86.117   1.647   3.566  1.00  0.00     0.053 C 
ATOM      2  C   UNL     1      86.114   1.012   4.920  1.00  0.00     0.041 C 
ATOM      3  C   UNL     1      85.575   1.513   6.028  1.00  0.00     0.005 C 
ATOM      4  C   UNL     1      84.826   2.790   6.217  1.00  0.00     0.049 C 
ATOM      5  C   UNL     1      84.803   3.159   7.724  1.00  0.00     0.029 C 
ATOM      6  C   UNL     1      83.862   4.331   7.938  1.00  0.00    -0.073 C 
ATOM      7  C   UNL     1      84.334   5.588   7.965  1.00  0.00     0.008 C 
ATOM      8  C   UNL     1      82.373   4.075   7.959  1.00  0.00     0.031 C 
ATOM      9  C   UNL     1      82.028   2.896   8.873  1.00  0.00     0.005 C 
ATOM     10  C   UNL     1      82.894   1.661   8.576  1.00  0.00     0.012 C 
ATOM     11  C   UNL     1      84.417   1.953   8.667  1.00  0.00    -0.004 C 
ATOM     12  C   UNL     1      85.165   0.676   8.290  1.00  0.00     0.027 C 
ATOM     13  C   UNL     1      85.653   0.506   7.066  1.00  0.00     0.131 C 
ATOM     14  O   UNL     1      86.281  -0.634   6.584  1.00  0.00    -0.423 OA
ATOM     15  C   UNL     1      86.566  -0.341   5.256  1.00  0.00     0.339 C 
ATOM     16  O   UNL     1      87.123  -1.145   4.464  1.00  0.00    -0.246 OA
ATOM     17  C   UNL     1      84.815   2.293  10.122  1.00  0.00     0.016 C 
ENDROOT
TORSDOF 0
ENDMDL
MODEL 2
REMARK VINA RESULT:    -5.789     15.237     16.685
REMARK INTER + INTRA:          -5.789
REMARK INTER:                  -5.789
REMARK INTRA:                   0.000
REMARK UNBOUND:                 0.000
REMARK SMILES C=C1CCC[C@@]2(C)C=C3OC(=O)C(C)=C3C[C@@H]12
REMARK SMILES IDX 14 1 13 2 15 3 16 4 17 5 2 6 1 7 3 8 4 9 5 10 6 11 8 12 9 13
REMARK SMILES IDX 10 14 11 15 12 16 7 17
REMARK H PARENT
REMARK Flexibility Score: inf
ROOT
ATOM      1  C   UNL     1      70.388  -0.600   2.296  1.00  0.00     0.053 C 
ATOM      2  C   UNL     1      71.086   0.518   1.590  1.00  0.00     0.041 C 
ATOM      3  C   UNL     1      71.243   0.649   0.275  1.00  0.00     0.005 C 
ATOM      4  C   UNL     1      70.758  -0.237  -0.824  1.00  0.00     0.049 C 
ATOM      5  C   UNL     1      71.558   0.060  -2.120  1.00  0.00     0.029 C 
ATOM      6  C   UNL     1      70.920  -0.680  -3.282  1.00  0.00    -0.073 C 
ATOM      7  C   UNL     1      71.378  -1.886  -3.656  1.00  0.00     0.008 C 
ATOM      8  C   UNL     1      69.665  -0.114  -3.905  1.00  0.00     0.031 C 
ATOM      9  C   UNL     1      69.821   1.381  -4.200  1.00  0.00     0.005 C 
ATOM     10  C   UNL     1      70.349   2.158  -2.984  1.00  0.00     0.012 C 
ATOM     11  C   UNL     1      71.693   1.599  -2.443  1.00  0.00    -0.004 C 
ATOM     12  C   UNL     1      72.077   2.407  -1.207  1.00  0.00     0.027 C 
ATOM     13  C   UNL     1      71.829   1.948   0.015  1.00  0.00     0.131 C 
ATOM     14  O   UNL     1      72.059   2.618   1.207  1.00  0.00    -0.423 OA
ATOM     15  C   UNL     1      71.600   1.752   2.191  1.00  0.00     0.339 C 
ATOM     16  O   UNL     1      71.618   2.015   3.422  1.00  0.00    -0.246 OA
ATOM     17  C   UNL     1      72.820   1.806  -3.483  1.00  0.00     0.016 C 
ENDROOT
TORSDOF 0
ENDMDL
MODEL 3
REMARK VINA RESULT:    -5.777     12.704     15.427
REMARK INTER + INTRA:          -5.777
REMARK INTER:                  -5.777
REMARK INTRA:                   0.000
REMARK UNBOUND:                 0.000
REMARK SMILES C=C1CCC[C@@]2(C)C=C3OC(=O)C(C)=C3C[C@@H]12
REMARK SMILES IDX 14 1 13 2 15 3 16 4 17 5 2 6 1 7 3 8 4 9 5 10 6 11 8 12 9 13
REMARK SMILES IDX 10 14 11 15 12 16 7 17
REMARK H PARENT
REMARK Flexibility Score: inf
ROOT
ATOM      1  C   UNL     1      86.538   2.363  -4.872  1.00  0.00     0.053 C 
ATOM      2  C   UNL     1      85.986   2.463  -6.258  1.00  0.00     0.041 C 
ATOM      3  C   UNL     1      85.349   1.508  -6.928  1.00  0.00     0.005 C 
ATOM      4  C   UNL     1      84.994   0.126  -6.490  1.00  0.00     0.049 C 
ATOM      5  C   UNL     1      84.684  -0.749  -7.734  1.00  0.00     0.029 C 
ATOM      6  C   UNL     1      84.115  -2.081  -7.279  1.00  0.00    -0.073 C 
ATOM      7  C   UNL     1      84.916  -3.148  -7.124  1.00  0.00     0.008 C 
ATOM      8  C   UNL     1      82.667  -2.146  -6.849  1.00  0.00     0.031 C 
ATOM      9  C   UNL     1      81.757  -1.458  -7.871  1.00  0.00     0.005 C 
ATOM     10  C   UNL     1      82.261  -0.055  -8.243  1.00  0.00     0.012 C 
ATOM     11  C   UNL     1      83.721  -0.055  -8.774  1.00  0.00    -0.004 C 
ATOM     12  C   UNL     1      84.125   1.392  -9.044  1.00  0.00     0.027 C 
ATOM     13  C   UNL     1      84.846   2.077  -8.162  1.00  0.00     0.131 C 
ATOM     14  O   UNL     1      85.208   3.412  -8.258  1.00  0.00    -0.423 OA
ATOM     15  C   UNL     1      85.909   3.670  -7.086  1.00  0.00     0.339 C 
ATOM     16  O   UNL     1      86.389   4.795  -6.788  1.00  0.00    -0.246 OA
ATOM     17  C   UNL     1      83.802  -0.804 -10.125  1.00  0.00     0.016 C 
ENDROOT
TORSDOF 0
ENDMDL
MODEL 4
REMARK VINA RESULT:    -5.740     11.519     15.025
REMARK INTER + INTRA:          -5.740
REMARK INTER:                  -5.740
REMARK INTRA:                   0.000
REMARK UNBOUND:                 0.000
REMARK SMILES C=C1CCC[C@@]2(C)C=C3OC(=O)C(C)=C3C[C@@H]12
REMARK SMILES IDX 14 1 13 2 15 3 16 4 17 5 2 6 1 7 3 8 4 9 5 10 6 11 8 12 9 13
REMARK SMILES IDX 10 14 11 15 12 16 7 17
REMARK H PARENT
REMARK Flexibility Score: inf
ROOT
ATOM      1  C   UNL     1      86.360   1.888  -3.751  1.00  0.00     0.053 C 
ATOM      2  C   UNL     1      86.156   2.467  -5.114  1.00  0.00     0.041 C 
ATOM      3  C   UNL     1      85.571   1.871  -6.149  1.00  0.00     0.005 C 
ATOM      4  C   UNL     1      84.952   0.515  -6.229  1.00  0.00     0.049 C 
ATOM      5  C   UNL     1      84.824   0.090  -7.716  1.00  0.00     0.029 C 
ATOM      6  C   UNL     1      84.000  -1.182  -7.803  1.00  0.00    -0.073 C 
ATOM      7  C   UNL     1      84.601  -2.382  -7.843  1.00  0.00     0.008 C 
ATOM      8  C   UNL     1      82.496  -1.086  -7.682  1.00  0.00     0.031 C 
ATOM      9  C   UNL     1      81.938   0.015  -8.588  1.00  0.00     0.005 C 
ATOM     10  C   UNL     1      82.690   1.345  -8.413  1.00  0.00     0.012 C 
ATOM     11  C   UNL     1      84.219   1.213  -8.647  1.00  0.00    -0.004 C 
ATOM     12  C   UNL     1      84.857   2.574  -8.381  1.00  0.00     0.027 C 
ATOM     13  C   UNL     1      85.439   2.841  -7.217  1.00  0.00     0.131 C 
ATOM     14  O   UNL     1      85.982   4.058  -6.830  1.00  0.00    -0.423 OA
ATOM     15  C   UNL     1      86.425   3.847  -5.530  1.00  0.00     0.339 C 
ATOM     16  O   UNL     1      86.964   4.735  -4.820  1.00  0.00    -0.246 OA
ATOM     17  C   UNL     1      84.510   0.862 -10.125  1.00  0.00     0.016 C 
ENDROOT
TORSDOF 0
ENDMDL
MODEL 5
REMARK VINA RESULT:    -5.286     14.060     15.481
REMARK INTER + INTRA:          -5.286
REMARK INTER:                  -5.286
REMARK INTRA:                   0.000
REMARK UNBOUND:                 0.000
REMARK SMILES C=C1CCC[C@@]2(C)C=C3OC(=O)C(C)=C3C[C@@H]12
REMARK SMILES IDX 14 1 13 2 15 3 16 4 17 5 2 6 1 7 3 8 4 9 5 10 6 11 8 12 9 13
REMARK SMILES IDX 10 14 11 15 12 16 7 17
REMARK H PARENT
REMARK Flexibility Score: inf
ROOT
ATOM      1  C   UNL     1      86.778  -3.602  -5.843  1.00  0.00     0.053 C 
ATOM      2  C   UNL     1      85.407  -3.536  -6.436  1.00  0.00     0.041 C 
ATOM      3  C   UNL     1      84.818  -2.461  -6.952  1.00  0.00     0.005 C 
ATOM      4  C   UNL     1      85.351  -1.075  -7.103  1.00  0.00     0.049 C 
ATOM      5  C   UNL     1      84.174  -0.088  -7.320  1.00  0.00     0.029 C 
ATOM      6  C   UNL     1      84.729   1.277  -7.689  1.00  0.00    -0.073 C 
ATOM      7  C   UNL     1      84.922   2.213  -6.745  1.00  0.00     0.008 C 
ATOM      8  C   UNL     1      85.208   1.509  -9.104  1.00  0.00     0.031 C 
ATOM      9  C   UNL     1      84.177   1.020 -10.124  1.00  0.00     0.005 C 
ATOM     10  C   UNL     1      83.704  -0.412  -9.827  1.00  0.00     0.012 C 
ATOM     11  C   UNL     1      83.126  -0.575  -8.394  1.00  0.00    -0.004 C 
ATOM     12  C   UNL     1      82.755  -2.043  -8.200  1.00  0.00     0.027 C 
ATOM     13  C   UNL     1      83.569  -2.875  -7.559  1.00  0.00     0.131 C 
ATOM     14  O   UNL     1      83.379  -4.239  -7.386  1.00  0.00    -0.423 OA
ATOM     15  C   UNL     1      84.509  -4.665  -6.699  1.00  0.00     0.339 C 
ATOM     16  O   UNL     1      84.722  -5.862  -6.371  1.00  0.00    -0.246 OA
ATOM     17  C   UNL     1      81.821   0.242  -8.243  1.00  0.00     0.016 C 
ENDROOT
TORSDOF 0
ENDMDL
MODEL 6
REMARK VINA RESULT:    -5.170     14.158     15.545
REMARK INTER + INTRA:          -5.170
REMARK INTER:                  -5.170
REMARK INTRA:                   0.000
REMARK UNBOUND:                 0.000
REMARK SMILES C=C1CCC[C@@]2(C)C=C3OC(=O)C(C)=C3C[C@@H]12
REMARK SMILES IDX 14 1 13 2 15 3 16 4 17 5 2 6 1 7 3 8 4 9 5 10 6 11 8 12 9 13
REMARK SMILES IDX 10 14 11 15 12 16 7 17
REMARK H PARENT
REMARK Flexibility Score: inf
ROOT
ATOM      1  C   UNL     1      84.507   3.534  -8.249  1.00  0.00     0.053 C 
ATOM      2  C   UNL     1      85.126   2.373  -7.538  1.00  0.00     0.041 C 
ATOM      3  C   UNL     1      84.698   1.114  -7.554  1.00  0.00     0.005 C 
ATOM      4  C   UNL     1      83.536   0.523  -8.282  1.00  0.00     0.049 C 
ATOM      5  C   UNL     1      83.164  -0.841  -7.643  1.00  0.00     0.029 C 
ATOM      6  C   UNL     1      82.133  -1.536  -8.515  1.00  0.00    -0.073 C 
ATOM      7  C   UNL     1      80.822  -1.415  -8.249  1.00  0.00     0.008 C 
ATOM      8  C   UNL     1      82.594  -2.231  -9.776  1.00  0.00     0.031 C 
ATOM      9  C   UNL     1      83.804  -3.129  -9.501  1.00  0.00     0.005 C 
ATOM     10  C   UNL     1      84.907  -2.391  -8.725  1.00  0.00     0.012 C 
ATOM     11  C   UNL     1      84.405  -1.782  -7.388  1.00  0.00    -0.004 C 
ATOM     12  C   UNL     1      85.567  -1.026  -6.748  1.00  0.00     0.027 C 
ATOM     13  C   UNL     1      85.677   0.292  -6.872  1.00  0.00     0.131 C 
ATOM     14  O   UNL     1      86.721   1.077  -6.405  1.00  0.00    -0.423 OA
ATOM     15  C   UNL     1      86.400   2.366  -6.813  1.00  0.00     0.339 C 
ATOM     16  O   UNL     1      87.125   3.372  -6.595  1.00  0.00    -0.246 OA
ATOM     17  C   UNL     1      84.002  -2.904  -6.402  1.00  0.00     0.016 C 
ENDROOT
TORSDOF 0
ENDMDL
MODEL 7
REMARK VINA RESULT:    -5.107     12.731     15.476
REMARK INTER + INTRA:          -5.107
REMARK INTER:                  -5.107
REMARK INTRA:                   0.000
REMARK UNBOUND:                 0.000
REMARK SMILES C=C1CCC[C@@]2(C)C=C3OC(=O)C(C)=C3C[C@@H]12
REMARK SMILES IDX 14 1 13 2 15 3 16 4 17 5 2 6 1 7 3 8 4 9 5 10 6 11 8 12 9 13
REMARK SMILES IDX 10 14 11 15 12 16 7 17
REMARK H PARENT
REMARK Flexibility Score: inf
ROOT
ATOM      1  C   UNL     1      85.197  -4.023  -7.106  1.00  0.00     0.053 C 
ATOM      2  C   UNL     1      84.429  -3.025  -7.913  1.00  0.00     0.041 C 
ATOM      3  C   UNL     1      84.476  -1.702  -7.789  1.00  0.00     0.005 C 
ATOM      4  C   UNL     1      85.299  -0.871  -6.860  1.00  0.00     0.049 C 
ATOM      5  C   UNL     1      84.687   0.551  -6.759  1.00  0.00     0.029 C 
ATOM      6  C   UNL     1      85.641   1.452  -5.994  1.00  0.00    -0.073 C 
ATOM      7  C   UNL     1      85.490   1.639  -4.672  1.00  0.00     0.008 C 
ATOM      8  C   UNL     1      86.854   2.003  -6.709  1.00  0.00     0.031 C 
ATOM      9  C   UNL     1      86.470   2.604  -8.065  1.00  0.00     0.005 C 
ATOM     10  C   UNL     1      85.605   1.644  -8.898  1.00  0.00     0.012 C 
ATOM     11  C   UNL     1      84.320   1.185  -8.157  1.00  0.00    -0.004 C 
ATOM     12  C   UNL     1      83.586   0.193  -9.055  1.00  0.00     0.027 C 
ATOM     13  C   UNL     1      83.707  -1.117  -8.868  1.00  0.00     0.131 C 
ATOM     14  O   UNL     1      83.155  -2.114  -9.660  1.00  0.00    -0.423 OA
ATOM     15  C   UNL     1      83.597  -3.301  -9.088  1.00  0.00     0.339 C 
ATOM     16  O   UNL     1      83.322  -4.443  -9.540  1.00  0.00    -0.246 OA
ATOM     17  C   UNL     1      83.367   2.384  -7.940  1.00  0.00     0.016 C 
ENDROOT
TORSDOF 0
ENDMDL
MODEL 8
REMARK VINA RESULT:    -4.912     16.710     17.748
REMARK INTER + INTRA:          -4.912
REMARK INTER:                  -4.912
REMARK INTRA:                   0.000
REMARK UNBOUND:                 0.000
REMARK SMILES C=C1CCC[C@@]2(C)C=C3OC(=O)C(C)=C3C[C@@H]12
REMARK SMILES IDX 14 1 13 2 15 3 16 4 17 5 2 6 1 7 3 8 4 9 5 10 6 11 8 12 9 13
REMARK SMILES IDX 10 14 11 15 12 16 7 17
REMARK H PARENT
REMARK Flexibility Score: inf
ROOT
ATOM      1  C   UNL     1      71.508  -3.177  -3.678  1.00  0.00     0.053 C 
ATOM      2  C   UNL     1      70.517  -2.072  -3.862  1.00  0.00     0.041 C 
ATOM      3  C   UNL     1      70.553  -0.872  -3.289  1.00  0.00     0.005 C 
ATOM      4  C   UNL     1      71.571  -0.304  -2.356  1.00  0.00     0.049 C 
ATOM      5  C   UNL     1      70.965   0.913  -1.608  1.00  0.00     0.029 C 
ATOM      6  C   UNL     1      72.062   1.618  -0.830  1.00  0.00    -0.073 C 
ATOM      7  C   UNL     1      72.271   1.331   0.465  1.00  0.00     0.008 C 
ATOM      8  C   UNL     1      73.015   2.526  -1.574  1.00  0.00     0.031 C 
ATOM      9  C   UNL     1      72.256   3.492  -2.488  1.00  0.00     0.005 C 
ATOM     10  C   UNL     1      71.229   2.766  -3.372  1.00  0.00     0.012 C 
ATOM     11  C   UNL     1      70.210   1.927  -2.553  1.00  0.00    -0.004 C 
ATOM     12  C   UNL     1      69.291   1.209  -3.538  1.00  0.00     0.027 C 
ATOM     13  C   UNL     1      69.501  -0.062  -3.867  1.00  0.00     0.131 C 
ATOM     14  O   UNL     1      68.786  -0.797  -4.802  1.00  0.00    -0.423 OA
ATOM     15  C   UNL     1      69.405  -2.041  -4.817  1.00  0.00     0.339 C 
ATOM     16  O   UNL     1      69.055  -2.990  -5.565  1.00  0.00    -0.246 OA
ATOM     17  C   UNL     1      69.314   2.853  -1.698  1.00  0.00     0.016 C 
ENDROOT
TORSDOF 0
ENDMDL
MODEL 9
REMARK VINA RESULT:    -4.658      6.179      8.193
REMARK INTER + INTRA:          -4.658
REMARK INTER:                  -4.658
REMARK INTRA:                   0.000
REMARK UNBOUND:                 0.000
REMARK SMILES C=C1CCC[C@@]2(C)C=C3OC(=O)C(C)=C3C[C@@H]12
REMARK SMILES IDX 14 1 13 2 15 3 16 4 17 5 2 6 1 7 3 8 4 9 5 10 6 11 8 12 9 13
REMARK SMILES IDX 10 14 11 15 12 16 7 17
REMARK H PARENT
REMARK Flexibility Score: inf
ROOT
ATOM      1  C   UNL     1      81.082   3.849  -1.130  1.00  0.00     0.053 C 
ATOM      2  C   UNL     1      81.544   2.617  -0.420  1.00  0.00     0.041 C 
ATOM      3  C   UNL     1      82.804   2.253  -0.202  1.00  0.00     0.005 C 
ATOM      4  C   UNL     1      84.066   2.962  -0.568  1.00  0.00     0.049 C 
ATOM      5  C   UNL     1      85.252   1.962  -0.530  1.00  0.00     0.029 C 
ATOM      6  C   UNL     1      86.555   2.726  -0.687  1.00  0.00    -0.073 C 
ATOM      7  C   UNL     1      87.124   2.862  -1.895  1.00  0.00     0.008 C 
ATOM      8  C   UNL     1      87.114   3.464   0.508  1.00  0.00     0.031 C 
ATOM      9  C   UNL     1      87.125   2.573   1.753  1.00  0.00     0.005 C 
ATOM     10  C   UNL     1      85.766   1.893   1.988  1.00  0.00     0.012 C 
ATOM     11  C   UNL     1      85.283   1.064   0.768  1.00  0.00    -0.004 C 
ATOM     12  C   UNL     1      83.904   0.497   1.098  1.00  0.00     0.027 C 
ATOM     13  C   UNL     1      82.799   1.087   0.657  1.00  0.00     0.131 C 
ATOM     14  O   UNL     1      81.495   0.714   0.952  1.00  0.00    -0.423 OA
ATOM     15  C   UNL     1      80.706   1.653   0.300  1.00  0.00     0.339 C 
ATOM     16  O   UNL     1      79.448   1.666   0.345  1.00  0.00    -0.246 OA
ATOM     17  C   UNL     1      86.220  -0.144   0.531  1.00  0.00     0.016 C 
ENDROOT
TORSDOF 0
ENDMDL
