MODEL 1
REMARK VINA RESULT:    -3.327      0.000      0.000
REMARK INTER + INTRA:          -4.747
REMARK INTER:                  -4.493
REMARK INTRA:                  -0.253
REMARK UNBOUND:                -0.253
REMARK SMILES CCCCCCCC(=O)[O-]
REMARK SMILES IDX 5 1 6 2 7 3 8 4 9 5 10 6 4 7 3 8 2 9 1 10
REMARK H PARENT
REMARK Flexibility Score: inf
ROOT
ATOM      1  C   UNL     1      -4.241 -10.192  -6.506  1.00  0.00     0.000 C 
ENDROOT
BRANCH   1   2
ATOM      2  C   UNL     1      -3.725  -8.763  -6.248  1.00  0.00     0.006 C 
BRANCH   2   3
ATOM      3  C   UNL     1      -2.922  -8.615  -4.942  1.00  0.00     0.053 C 
BRANCH   3   4
ATOM      4  C   UNL     1      -2.052  -7.396  -4.940  1.00  0.00     0.041 C 
ATOM      5  O   UNL     1      -0.800  -7.509  -5.027  1.00  0.00    -0.550 OA
ATOM      6  O   UNL     1      -2.623  -6.131  -4.877  1.00  0.00    -0.550 OA
ENDBRANCH   3   4
ENDBRANCH   2   3
ENDBRANCH   1   2
BRANCH   1   7
ATOM      7  C   UNL     1      -4.040 -11.184  -5.345  1.00  0.00     0.000 C 
BRANCH   7   8
ATOM      8  C   UNL     1      -5.003 -12.389  -5.335  1.00  0.00    -0.000 C 
BRANCH   8   9
ATOM      9  C   UNL     1      -6.398 -12.110  -5.922  1.00  0.00    -0.003 C 
ATOM     10  C   UNL     1      -7.308 -11.349  -4.960  1.00  0.00     0.004 C 
ENDBRANCH   8   9
ENDBRANCH   7   8
ENDBRANCH   1   7
TORSDOF 6
ENDMDL
MODEL 2
REMARK VINA RESULT:    -3.211      3.382      6.189
REMARK INTER + INTRA:          -4.591
REMARK INTER:                  -4.506
REMARK INTRA:                  -0.085
REMARK UNBOUND:                -0.253
REMARK SMILES CCCCCCCC(=O)[O-]
REMARK SMILES IDX 5 1 6 2 7 3 8 4 9 5 10 6 4 7 3 8 2 9 1 10
REMARK H PARENT
REMARK Flexibility Score: inf
ROOT
ATOM      1  C   UNL     1      -2.699  -8.324  -5.840  1.00  0.00     0.000 C 
ENDROOT
BRANCH   1   2
ATOM      2  C   UNL     1      -3.682  -9.349  -5.240  1.00  0.00     0.006 C 
BRANCH   2   3
ATOM      3  C   UNL     1      -4.373 -10.240  -6.289  1.00  0.00     0.053 C 
BRANCH   3   4
ATOM      4  C   UNL     1      -5.433 -11.112  -5.690  1.00  0.00     0.041 C 
ATOM      5  O   UNL     1      -6.508 -10.608  -5.271  1.00  0.00    -0.550 OA
ATOM      6  O   UNL     1      -5.251 -12.489  -5.628  1.00  0.00    -0.550 OA
ENDBRANCH   3   4
ENDBRANCH   2   3
ENDBRANCH   1   2
BRANCH   1   7
ATOM      7  C   UNL     1      -1.613  -7.811  -4.875  1.00  0.00     0.000 C 
BRANCH   7   8
ATOM      8  C   UNL     1      -0.381  -7.174  -5.550  1.00  0.00    -0.000 C 
BRANCH   8   9
ATOM      9  C   UNL     1       0.971  -7.551  -4.920  1.00  0.00    -0.003 C 
ATOM     10  C   UNL     1       1.976  -6.400  -4.935  1.00  0.00     0.004 C 
ENDBRANCH   8   9
ENDBRANCH   7   8
ENDBRANCH   1   7
TORSDOF 6
ENDMDL
MODEL 3
REMARK VINA RESULT:    -2.872      1.937      3.070
REMARK INTER + INTRA:          -4.133
REMARK INTER:                  -4.029
REMARK INTRA:                  -0.104
REMARK UNBOUND:                -0.253
REMARK SMILES CCCCCCCC(=O)[O-]
REMARK SMILES IDX 5 1 6 2 7 3 8 4 9 5 10 6 4 7 3 8 2 9 1 10
REMARK H PARENT
REMARK Flexibility Score: inf
ROOT
ATOM      1  C   UNL     1      -2.422  -7.894  -5.831  1.00  0.00     0.000 C 
ENDROOT
BRANCH   1   2
ATOM      2  C   UNL     1      -1.264  -7.362  -4.964  1.00  0.00     0.006 C 
BRANCH   2   3
ATOM      3  C   UNL     1      -0.040  -6.897  -5.775  1.00  0.00     0.053 C 
BRANCH   3   4
ATOM      4  C   UNL     1       1.254  -7.331  -5.158  1.00  0.00     0.041 C 
ATOM      5  O   UNL     1       1.447  -8.543  -4.875  1.00  0.00    -0.550 OA
ATOM      6  O   UNL     1       2.263  -6.404  -4.927  1.00  0.00    -0.550 OA
ENDBRANCH   3   4
ENDBRANCH   2   3
ENDBRANCH   1   2
BRANCH   1   7
ATOM      7  C   UNL     1      -3.390  -8.857  -5.117  1.00  0.00     0.000 C 
BRANCH   7   8
ATOM      8  C   UNL     1      -3.956  -9.991  -5.995  1.00  0.00    -0.000 C 
BRANCH   8   9
ATOM      9  C   UNL     1      -4.497 -11.205  -5.218  1.00  0.00    -0.003 C 
ATOM     10  C   UNL     1      -5.578 -11.967  -5.984  1.00  0.00     0.004 C 
ENDBRANCH   8   9
ENDBRANCH   7   8
ENDBRANCH   1   7
TORSDOF 6
ENDMDL
MODEL 4
REMARK VINA RESULT:    -2.819      3.430      5.803
REMARK INTER + INTRA:          -4.061
REMARK INTER:                  -3.916
REMARK INTRA:                  -0.144
REMARK UNBOUND:                -0.253
REMARK SMILES CCCCCCCC(=O)[O-]
REMARK SMILES IDX 5 1 6 2 7 3 8 4 9 5 10 6 4 7 3 8 2 9 1 10
REMARK H PARENT
REMARK Flexibility Score: inf
ROOT
ATOM      1  C   UNL     1      -3.634  -9.611  -5.977  1.00  0.00     0.000 C 
ENDROOT
BRANCH   1   2
ATOM      2  C   UNL     1      -4.204 -10.526  -4.875  1.00  0.00     0.006 C 
BRANCH   2   3
ATOM      3  C   UNL     1      -4.635 -11.916  -5.379  1.00  0.00     0.053 C 
BRANCH   3   4
ATOM      4  C   UNL     1      -6.062 -11.944  -5.834  1.00  0.00     0.041 C 
ATOM      5  O   UNL     1      -6.423 -12.735  -6.745  1.00  0.00    -0.550 OA
ATOM      6  O   UNL     1      -7.003 -11.121  -5.227  1.00  0.00    -0.550 OA
ENDBRANCH   3   4
ENDBRANCH   2   3
ENDBRANCH   1   2
BRANCH   1   7
ATOM      7  C   UNL     1      -3.234  -8.197  -5.515  1.00  0.00     0.000 C 
BRANCH   7   8
ATOM      8  C   UNL     1      -1.835  -8.085  -4.875  1.00  0.00    -0.000 C 
BRANCH   8   9
ATOM      9  C   UNL     1      -0.903  -7.049  -5.528  1.00  0.00    -0.003 C 
ATOM     10  C   UNL     1       0.573  -7.300  -5.223  1.00  0.00     0.004 C 
ENDBRANCH   8   9
ENDBRANCH   7   8
ENDBRANCH   1   7
TORSDOF 6
ENDMDL
MODEL 5
REMARK VINA RESULT:    -1.452     19.886     21.035
REMARK INTER + INTRA:          -2.215
REMARK INTER:                  -2.075
REMARK INTRA:                  -0.141
REMARK UNBOUND:                -0.253
REMARK SMILES CCCCCCCC(=O)[O-]
REMARK SMILES IDX 5 1 6 2 7 3 8 4 9 5 10 6 4 7 3 8 2 9 1 10
REMARK H PARENT
REMARK Flexibility Score: inf
ROOT
ATOM      1  C   UNL     1      -8.481 -16.648 -24.292  1.00  0.00     0.000 C 
ENDROOT
BRANCH   1   2
ATOM      2  C   UNL     1      -7.837 -17.958 -23.797  1.00  0.00     0.006 C 
BRANCH   2   3
ATOM      3  C   UNL     1      -7.950 -19.126 -24.795  1.00  0.00     0.053 C 
BRANCH   3   4
ATOM      4  C   UNL     1      -6.645 -19.832 -25.000  1.00  0.00     0.041 C 
ATOM      5  O   UNL     1      -6.612 -21.087 -25.101  1.00  0.00    -0.550 OA
ATOM      6  O   UNL     1      -5.468 -19.103 -25.116  1.00  0.00    -0.550 OA
ENDBRANCH   3   4
ENDBRANCH   2   3
ENDBRANCH   1   2
BRANCH   1   7
ATOM      7  C   UNL     1      -8.655 -15.555 -23.222  1.00  0.00     0.000 C 
BRANCH   7   8
ATOM      8  C   UNL     1      -8.346 -14.119 -23.692  1.00  0.00    -0.000 C 
BRANCH   8   9
ATOM      9  C   UNL     1      -9.006 -13.006 -22.858  1.00  0.00    -0.003 C 
ATOM     10  C   UNL     1     -10.427 -13.355 -22.419  1.00  0.00     0.004 C 
ENDBRANCH   8   9
ENDBRANCH   7   8
ENDBRANCH   1   7
TORSDOF 6
ENDMDL
MODEL 6
REMARK VINA RESULT:    -1.070     18.550     19.662
REMARK INTER + INTRA:          -1.699
REMARK INTER:                  -1.556
REMARK INTRA:                  -0.143
REMARK UNBOUND:                -0.253
REMARK SMILES CCCCCCCC(=O)[O-]
REMARK SMILES IDX 5 1 6 2 7 3 8 4 9 5 10 6 4 7 3 8 2 9 1 10
REMARK H PARENT
REMARK Flexibility Score: inf
ROOT
ATOM      1  C   UNL     1      -8.390 -16.531 -24.378  1.00  0.00     0.000 C 
ENDROOT
BRANCH   1   2
ATOM      2  C   UNL     1      -8.266 -17.995 -23.913  1.00  0.00     0.006 C 
BRANCH   2   3
ATOM      3  C   UNL     1      -7.526 -18.165 -22.573  1.00  0.00     0.053 C 
BRANCH   3   4
ATOM      4  C   UNL     1      -8.459 -18.436 -21.434  1.00  0.00     0.041 C 
ATOM      5  O   UNL     1      -8.022 -18.488 -20.254  1.00  0.00    -0.550 OA
ATOM      6  O   UNL     1      -9.819 -18.597 -21.669  1.00  0.00    -0.550 OA
ENDBRANCH   3   4
ENDBRANCH   2   3
ENDBRANCH   1   2
BRANCH   1   7
ATOM      7  C   UNL     1      -8.656 -15.506 -23.259  1.00  0.00     0.000 C 
BRANCH   7   8
ATOM      8  C   UNL     1      -8.415 -14.032 -23.645  1.00  0.00    -0.000 C 
BRANCH   8   9
ATOM      9  C   UNL     1      -9.041 -13.000 -22.692  1.00  0.00    -0.003 C 
ATOM     10  C   UNL     1     -10.531 -13.240 -22.450  1.00  0.00     0.004 C 
ENDBRANCH   8   9
ENDBRANCH   7   8
ENDBRANCH   1   7
TORSDOF 6
ENDMDL
MODEL 7
REMARK VINA RESULT:    -0.952     20.087     21.056
REMARK INTER + INTRA:          -1.539
REMARK INTER:                  -1.346
REMARK INTRA:                  -0.193
REMARK UNBOUND:                -0.253
REMARK SMILES CCCCCCCC(=O)[O-]
REMARK SMILES IDX 5 1 6 2 7 3 8 4 9 5 10 6 4 7 3 8 2 9 1 10
REMARK H PARENT
REMARK Flexibility Score: inf
ROOT
ATOM      1  C   UNL     1       0.529 -16.571 -25.104  1.00  0.00     0.000 C 
ENDROOT
BRANCH   1   2
ATOM      2  C   UNL     1       0.479 -18.111 -25.119  1.00  0.00     0.006 C 
BRANCH   2   3
ATOM      3  C   UNL     1       1.865 -18.782 -25.105  1.00  0.00     0.053 C 
BRANCH   3   4
ATOM      4  C   UNL     1       2.826 -18.091 -24.187  1.00  0.00     0.041 C 
ATOM      5  O   UNL     1       3.851 -17.525 -24.650  1.00  0.00    -0.550 OA
ATOM      6  O   UNL     1       2.572 -18.040 -22.821  1.00  0.00    -0.550 OA
ENDBRANCH   3   4
ENDBRANCH   2   3
ENDBRANCH   1   2
BRANCH   1   7
ATOM      7  C   UNL     1      -0.584 -15.884 -24.290  1.00  0.00     0.000 C 
BRANCH   7   8
ATOM      8  C   UNL     1      -1.633 -15.121 -25.123  1.00  0.00    -0.000 C 
BRANCH   8   9
ATOM      9  C   UNL     1      -2.384 -14.013 -24.365  1.00  0.00    -0.003 C 
ATOM     10  C   UNL     1      -1.805 -13.745 -22.976  1.00  0.00     0.004 C 
ENDBRANCH   8   9
ENDBRANCH   7   8
ENDBRANCH   1   7
TORSDOF 6
ENDMDL
