MODEL 1
REMARK VINA RESULT:    -2.063      0.000      0.000
REMARK INTER + INTRA:          -3.679
REMARK INTER:                  -2.907
REMARK INTRA:                  -0.772
REMARK UNBOUND:                -0.772
REMARK SMILES C=CCCCCCCC(=O)[O-]
REMARK SMILES IDX 6 1 7 2 8 3 9 4 10 5 11 6 5 7 4 8 3 9 2 10 1 11
REMARK H PARENT
REMARK Flexibility Score: inf
ROOT
ATOM      1  C   UNL     1       0.216   8.156  16.608  1.00  0.00     0.000 C 
ENDROOT
BRANCH   1   2
ATOM      2  C   UNL     1       1.583   8.848  16.540  1.00  0.00     0.006 C 
BRANCH   2   3
ATOM      3  C   UNL     1       1.845   9.412  15.141  1.00  0.00     0.053 C 
BRANCH   3   4
ATOM      4  C   UNL     1       2.153  10.874  15.214  1.00  0.00     0.041 C 
ATOM      5  O   UNL     1       2.336  11.537  14.160  1.00  0.00    -0.550 OA
ATOM      6  O   UNL     1       2.189  11.515  16.446  1.00  0.00    -0.550 OA
ENDBRANCH   3   4
ENDBRANCH   2   3
ENDBRANCH   1   2
BRANCH   1   7
ATOM      7  C   UNL     1      -0.293   7.806  15.202  1.00  0.00     0.000 C 
BRANCH   7   8
ATOM      8  C   UNL     1      -0.619   6.309  15.041  1.00  0.00     0.004 C 
BRANCH   8   9
ATOM      9  C   UNL     1       0.620   5.399  14.957  1.00  0.00     0.027 C 
BRANCH   9  10
ATOM     10  C   UNL     1       1.616   5.867  13.931  1.00  0.00    -0.035 C 
ATOM     11  C   UNL     1       2.930   5.874  14.175  1.00  0.00     0.004 C 
ENDBRANCH   9  10
ENDBRANCH   8   9
ENDBRANCH   7   8
ENDBRANCH   1   7
TORSDOF 7
ENDMDL
MODEL 2
REMARK VINA RESULT:    -2.063      1.209      2.710
REMARK INTER + INTRA:          -3.679
REMARK INTER:                  -3.096
REMARK INTRA:                  -0.583
REMARK UNBOUND:                -0.772
REMARK SMILES C=CCCCCCCC(=O)[O-]
REMARK SMILES IDX 6 1 7 2 8 3 9 4 10 5 11 6 5 7 4 8 3 9 2 10 1 11
REMARK H PARENT
REMARK Flexibility Score: inf
ROOT
ATOM      1  C   UNL     1       1.426   7.137  14.242  1.00  0.00     0.000 C 
ENDROOT
BRANCH   1   2
ATOM      2  C   UNL     1       2.364   8.258  14.701  1.00  0.00     0.006 C 
BRANCH   2   3
ATOM      3  C   UNL     1       1.572   9.440  15.268  1.00  0.00     0.053 C 
BRANCH   3   4
ATOM      4  C   UNL     1       2.366  10.704  15.158  1.00  0.00     0.041 C 
ATOM      5  O   UNL     1       2.101  11.542  14.257  1.00  0.00    -0.550 OA
ATOM      6  O   UNL     1       3.365  10.978  16.083  1.00  0.00    -0.550 OA
ENDBRANCH   3   4
ENDBRANCH   2   3
ENDBRANCH   1   2
BRANCH   1   7
ATOM      7  C   UNL     1      -0.037   7.477  14.562  1.00  0.00     0.000 C 
BRANCH   7   8
ATOM      8  C   UNL     1      -0.842   6.258  15.049  1.00  0.00     0.004 C 
BRANCH   8   9
ATOM      9  C   UNL     1      -1.403   6.400  16.475  1.00  0.00     0.027 C 
BRANCH   9  10
ATOM     10  C   UNL     1      -1.431   7.829  16.948  1.00  0.00    -0.035 C 
ATOM     11  C   UNL     1      -0.941   8.187  18.139  1.00  0.00     0.004 C 
ENDBRANCH   9  10
ENDBRANCH   8   9
ENDBRANCH   7   8
ENDBRANCH   1   7
TORSDOF 7
ENDMDL
MODEL 3
REMARK VINA RESULT:    -2.037     18.688     19.846
REMARK INTER + INTRA:          -3.642
REMARK INTER:                  -3.201
REMARK INTRA:                  -0.441
REMARK UNBOUND:                -0.772
REMARK SMILES C=CCCCCCCC(=O)[O-]
REMARK SMILES IDX 6 1 7 2 8 3 9 4 10 5 11 6 5 7 4 8 3 9 2 10 1 11
REMARK H PARENT
REMARK Flexibility Score: inf
ROOT
ATOM      1  C   UNL     1      -1.102  -2.720  32.057  1.00  0.00     0.000 C 
ENDROOT
BRANCH   1   2
ATOM      2  C   UNL     1      -0.454  -2.429  30.698  1.00  0.00     0.006 C 
BRANCH   2   3
ATOM      3  C   UNL     1      -1.490  -2.486  29.572  1.00  0.00     0.053 C 
BRANCH   3   4
ATOM      4  C   UNL     1      -1.102  -3.512  28.554  1.00  0.00     0.041 C 
ATOM      5  O   UNL     1      -1.121  -4.736  28.849  1.00  0.00    -0.550 OA
ATOM      6  O   UNL     1      -0.768  -3.119  27.264  1.00  0.00    -0.550 OA
ENDBRANCH   3   4
ENDBRANCH   2   3
ENDBRANCH   1   2
BRANCH   1   7
ATOM      7  C   UNL     1      -0.045  -2.770  33.171  1.00  0.00     0.000 C 
BRANCH   7   8
ATOM      8  C   UNL     1       1.369  -2.425  32.668  1.00  0.00     0.004 C 
BRANCH   8   9
ATOM      9  C   UNL     1       2.163  -1.496  33.606  1.00  0.00     0.027 C 
BRANCH   9  10
ATOM     10  C   UNL     1       1.420  -0.228  33.930  1.00  0.00    -0.035 C 
ATOM     11  C   UNL     1       1.699   0.928  33.320  1.00  0.00     0.004 C 
ENDBRANCH   9  10
ENDBRANCH   8   9
ENDBRANCH   7   8
ENDBRANCH   1   7
TORSDOF 7
ENDMDL
MODEL 4
REMARK VINA RESULT:    -2.011      1.944      3.450
REMARK INTER + INTRA:          -3.605
REMARK INTER:                  -2.871
REMARK INTRA:                  -0.735
REMARK UNBOUND:                -0.772
REMARK SMILES C=CCCCCCCC(=O)[O-]
REMARK SMILES IDX 6 1 7 2 8 3 9 4 10 5 11 6 5 7 4 8 3 9 2 10 1 11
REMARK H PARENT
REMARK Flexibility Score: inf
ROOT
ATOM      1  C   UNL     1      -0.037   6.272  14.902  1.00  0.00     0.000 C 
ENDROOT
BRANCH   1   2
ATOM      2  C   UNL     1      -0.011   7.791  14.698  1.00  0.00     0.006 C 
BRANCH   2   3
ATOM      3  C   UNL     1       0.945   8.462  15.689  1.00  0.00     0.053 C 
BRANCH   3   4
ATOM      4  C   UNL     1       1.980   9.260  14.960  1.00  0.00     0.041 C 
ATOM      5  O   UNL     1       2.909   8.679  14.342  1.00  0.00    -0.550 OA
ATOM      6  O   UNL     1       1.889  10.646  14.924  1.00  0.00    -0.550 OA
ENDBRANCH   3   4
ENDBRANCH   2   3
ENDBRANCH   1   2
BRANCH   1   7
ATOM      7  C   UNL     1      -1.445   5.793  15.286  1.00  0.00     0.000 C 
BRANCH   7   8
ATOM      8  C   UNL     1      -1.492   5.130  16.676  1.00  0.00     0.004 C 
BRANCH   8   9
ATOM      9  C   UNL     1      -1.213   6.093  17.844  1.00  0.00     0.027 C 
BRANCH   9  10
ATOM     10  C   UNL     1      -2.250   7.177  17.963  1.00  0.00    -0.035 C 
ATOM     11  C   UNL     1      -1.913   8.462  18.112  1.00  0.00     0.004 C 
ENDBRANCH   9  10
ENDBRANCH   8   9
ENDBRANCH   7   8
ENDBRANCH   1   7
TORSDOF 7
ENDMDL
MODEL 5
REMARK VINA RESULT:    -1.963      3.055      5.021
REMARK INTER + INTRA:          -3.538
REMARK INTER:                  -3.171
REMARK INTRA:                  -0.366
REMARK UNBOUND:                -0.772
REMARK SMILES C=CCCCCCCC(=O)[O-]
REMARK SMILES IDX 6 1 7 2 8 3 9 4 10 5 11 6 5 7 4 8 3 9 2 10 1 11
REMARK H PARENT
REMARK Flexibility Score: inf
ROOT
ATOM      1  C   UNL     1       0.978   6.325  14.423  1.00  0.00     0.000 C 
ENDROOT
BRANCH   1   2
ATOM      2  C   UNL     1      -0.464   6.770  14.689  1.00  0.00     0.006 C 
BRANCH   2   3
ATOM      3  C   UNL     1      -1.219   5.722  15.513  1.00  0.00     0.053 C 
BRANCH   3   4
ATOM      4  C   UNL     1      -1.680   6.308  16.810  1.00  0.00     0.041 C 
ATOM      5  O   UNL     1      -1.469   7.522  17.068  1.00  0.00    -0.550 OA
ATOM      6  O   UNL     1      -2.387   5.524  17.713  1.00  0.00    -0.550 OA
ENDBRANCH   3   4
ENDBRANCH   2   3
ENDBRANCH   1   2
BRANCH   1   7
ATOM      7  C   UNL     1       1.948   7.512  14.529  1.00  0.00     0.000 C 
BRANCH   7   8
ATOM      8  C   UNL     1       1.284   8.776  15.105  1.00  0.00     0.004 C 
BRANCH   8   9
ATOM      9  C   UNL     1       2.277   9.874  15.529  1.00  0.00     0.027 C 
BRANCH   9  10
ATOM     10  C   UNL     1       2.205  11.093  14.650  1.00  0.00    -0.035 C 
ATOM     11  C   UNL     1       3.229  11.464  13.875  1.00  0.00     0.004 C 
ENDBRANCH   9  10
ENDBRANCH   8   9
ENDBRANCH   7   8
ENDBRANCH   1   7
TORSDOF 7
ENDMDL
MODEL 6
REMARK VINA RESULT:    -1.903      1.255      2.232
REMARK INTER + INTRA:          -3.453
REMARK INTER:                  -2.928
REMARK INTRA:                  -0.525
REMARK UNBOUND:                -0.772
REMARK SMILES C=CCCCCCCC(=O)[O-]
REMARK SMILES IDX 6 1 7 2 8 3 9 4 10 5 11 6 5 7 4 8 3 9 2 10 1 11
REMARK H PARENT
REMARK Flexibility Score: inf
ROOT
ATOM      1  C   UNL     1       0.468   8.211  16.382  1.00  0.00     0.000 C 
ENDROOT
BRANCH   1   2
ATOM      2  C   UNL     1       1.881   8.805  16.335  1.00  0.00     0.006 C 
BRANCH   2   3
ATOM      3  C   UNL     1       2.173   9.422  14.965  1.00  0.00     0.053 C 
BRANCH   3   4
ATOM      4  C   UNL     1       2.219  10.915  15.060  1.00  0.00     0.041 C 
ATOM      5  O   UNL     1       2.379  11.611  14.024  1.00  0.00    -0.550 OA
ATOM      6  O   UNL     1       2.036  11.537  16.288  1.00  0.00    -0.550 OA
ENDBRANCH   3   4
ENDBRANCH   2   3
ENDBRANCH   1   2
BRANCH   1   7
ATOM      7  C   UNL     1      -0.067   7.954  14.965  1.00  0.00     0.000 C 
BRANCH   7   8
ATOM      8  C   UNL     1      -0.235   6.456  14.653  1.00  0.00     0.004 C 
BRANCH   8   9
ATOM      9  C   UNL     1      -0.161   5.541  15.889  1.00  0.00     0.027 C 
BRANCH   9  10
ATOM     10  C   UNL     1      -1.515   5.058  16.335  1.00  0.00    -0.035 C 
ATOM     11  C   UNL     1      -2.147   5.600  17.381  1.00  0.00     0.004 C 
ENDBRANCH   9  10
ENDBRANCH   8   9
ENDBRANCH   7   8
ENDBRANCH   1   7
TORSDOF 7
ENDMDL
MODEL 7
REMARK VINA RESULT:    -1.896      1.716      2.178
REMARK INTER + INTRA:          -3.444
REMARK INTER:                  -2.631
REMARK INTRA:                  -0.813
REMARK UNBOUND:                -0.772
REMARK SMILES C=CCCCCCCC(=O)[O-]
REMARK SMILES IDX 6 1 7 2 8 3 9 4 10 5 11 6 5 7 4 8 3 9 2 10 1 11
REMARK H PARENT
REMARK Flexibility Score: inf
ROOT
ATOM      1  C   UNL     1      -1.346   6.886  16.444  1.00  0.00     0.000 C 
ENDROOT
BRANCH   1   2
ATOM      2  C   UNL     1      -0.235   7.936  16.346  1.00  0.00     0.006 C 
BRANCH   2   3
ATOM      3  C   UNL     1       0.294   8.046  14.913  1.00  0.00     0.053 C 
BRANCH   3   4
ATOM      4  C   UNL     1       1.637   8.705  14.898  1.00  0.00     0.041 C 
ATOM      5  O   UNL     1       2.587   8.192  14.250  1.00  0.00    -0.550 OA
ATOM      6  O   UNL     1       1.826   9.911  15.560  1.00  0.00    -0.550 OA
ENDBRANCH   3   4
ENDBRANCH   2   3
ENDBRANCH   1   2
BRANCH   1   7
ATOM      7  C   UNL     1      -1.303   5.926  15.246  1.00  0.00     0.000 C 
BRANCH   7   8
ATOM      8  C   UNL     1      -1.258   4.445  15.668  1.00  0.00     0.004 C 
BRANCH   8   9
ATOM      9  C   UNL     1       0.130   3.962  16.128  1.00  0.00     0.027 C 
BRANCH   9  10
ATOM     10  C   UNL     1       1.234   4.405  15.206  1.00  0.00    -0.035 C 
ATOM     11  C   UNL     1       2.353   4.971  15.668  1.00  0.00     0.004 C 
ENDBRANCH   9  10
ENDBRANCH   8   9
ENDBRANCH   7   8
ENDBRANCH   1   7
TORSDOF 7
ENDMDL
MODEL 8
REMARK VINA RESULT:    -1.889      2.459      4.036
REMARK INTER + INTRA:          -3.434
REMARK INTER:                  -2.771
REMARK INTRA:                  -0.663
REMARK UNBOUND:                -0.772
REMARK SMILES C=CCCCCCCC(=O)[O-]
REMARK SMILES IDX 6 1 7 2 8 3 9 4 10 5 11 6 5 7 4 8 3 9 2 10 1 11
REMARK H PARENT
REMARK Flexibility Score: inf
ROOT
ATOM      1  C   UNL     1      -1.279   5.979  15.391  1.00  0.00     0.000 C 
ENDROOT
BRANCH   1   2
ATOM      2  C   UNL     1      -1.641   6.055  16.879  1.00  0.00     0.006 C 
BRANCH   2   3
ATOM      3  C   UNL     1      -1.808   7.508  17.331  1.00  0.00     0.053 C 
BRANCH   3   4
ATOM      4  C   UNL     1      -0.655   7.926  18.189  1.00  0.00     0.041 C 
ATOM      5  O   UNL     1       0.307   7.138  18.386  1.00  0.00    -0.550 OA
ATOM      6  O   UNL     1      -0.622   9.205  18.731  1.00  0.00    -0.550 OA
ENDBRANCH   3   4
ENDBRANCH   2   3
ENDBRANCH   1   2
BRANCH   1   7
ATOM      7  C   UNL     1       0.171   5.510  15.201  1.00  0.00     0.000 C 
BRANCH   7   8
ATOM      8  C   UNL     1       1.035   6.534  14.443  1.00  0.00     0.004 C 
BRANCH   8   9
ATOM      9  C   UNL     1       0.584   7.995  14.620  1.00  0.00     0.027 C 
BRANCH   9  10
ATOM     10  C   UNL     1       1.562   8.811  15.421  1.00  0.00    -0.035 C 
ATOM     11  C   UNL     1       1.938  10.035  15.039  1.00  0.00     0.004 C 
ENDBRANCH   9  10
ENDBRANCH   8   9
ENDBRANCH   7   8
ENDBRANCH   1   7
TORSDOF 7
ENDMDL
MODEL 9
REMARK VINA RESULT:    -1.874      3.880      5.536
REMARK INTER + INTRA:          -3.412
REMARK INTER:                  -2.597
REMARK INTRA:                  -0.815
REMARK UNBOUND:                -0.772
REMARK SMILES C=CCCCCCCC(=O)[O-]
REMARK SMILES IDX 6 1 7 2 8 3 9 4 10 5 11 6 5 7 4 8 3 9 2 10 1 11
REMARK H PARENT
REMARK Flexibility Score: inf
ROOT
ATOM      1  C   UNL     1      -0.047   7.721  14.627  1.00  0.00     0.000 C 
ENDROOT
BRANCH   1   2
ATOM      2  C   UNL     1      -0.018   6.208  14.872  1.00  0.00     0.006 C 
BRANCH   2   3
ATOM      3  C   UNL     1      -1.409   5.683  15.239  1.00  0.00     0.053 C 
BRANCH   3   4
ATOM      4  C   UNL     1      -1.307   4.607  16.274  1.00  0.00     0.041 C 
ATOM      5  O   UNL     1      -0.475   3.673  16.137  1.00  0.00    -0.550 OA
ATOM      6  O   UNL     1      -2.099   4.665  17.414  1.00  0.00    -0.550 OA
ENDBRANCH   3   4
ENDBRANCH   2   3
ENDBRANCH   1   2
BRANCH   1   7
ATOM      7  C   UNL     1       1.082   8.425  15.394  1.00  0.00     0.000 C 
BRANCH   7   8
ATOM      8  C   UNL     1       1.199   7.949  16.854  1.00  0.00     0.004 C 
BRANCH   8   9
ATOM      9  C   UNL     1       0.276   8.694  17.836  1.00  0.00     0.027 C 
BRANCH   9  10
ATOM     10  C   UNL     1      -0.957   7.905  18.186  1.00  0.00    -0.035 C 
ATOM     11  C   UNL     1      -2.163   8.237  17.717  1.00  0.00     0.004 C 
ENDBRANCH   9  10
ENDBRANCH   8   9
ENDBRANCH   7   8
ENDBRANCH   1   7
TORSDOF 7
ENDMDL
