MODEL 1
REMARK VINA RESULT:    -4.582      0.000      0.000
REMARK INTER + INTRA:          -5.100
REMARK INTER:                  -4.984
REMARK INTRA:                  -0.117
REMARK UNBOUND:                -0.117
REMARK SMILES Cc1ccc(C(C)C)cc1O
REMARK SMILES IDX 1 1 2 2 10 3 9 4 5 5 4 6 3 7 11 8 6 10 7 11 8 12
REMARK H PARENT 11 9
REMARK Flexibility Score: inf
ROOT
ATOM      1  C   UNL     1       7.639  -7.270  -0.878  1.00  0.00     0.048 C 
ATOM      2  C   UNL     1       7.672  -5.963  -0.133  1.00  0.00    -0.009 A 
ATOM      3  C   UNL     1       6.709  -5.660   0.854  1.00  0.00     0.118 A 
ATOM      4  C   UNL     1       6.766  -4.434   1.528  1.00  0.00     0.050 A 
ATOM      5  C   UNL     1       7.773  -3.496   1.238  1.00  0.00    -0.042 A 
ATOM      6  C   UNL     1       8.726  -3.806   0.256  1.00  0.00     0.004 A 
ATOM      7  C   UNL     1       8.676  -5.026  -0.422  1.00  0.00     0.007 A 
ENDROOT
BRANCH   3   8
ATOM      8  O   UNL     1       5.685  -6.550   1.187  1.00  0.00    -0.508 OA
ATOM      9  H   UNL     1       4.865  -6.689   0.610  1.00  0.00     0.293 HD
ENDBRANCH   3   8
BRANCH   5  10
ATOM     10  C   UNL     1       7.840  -2.167   1.968  1.00  0.00     0.013 C 
ATOM     11  C   UNL     1       9.178  -2.002   2.696  1.00  0.00     0.012 C 
ATOM     12  C   UNL     1       6.660  -2.009   2.935  1.00  0.00     0.012 C 
ENDBRANCH   5  10
TORSDOF 2
ENDMDL
MODEL 2
REMARK VINA RESULT:    -4.445     13.169     14.682
REMARK INTER + INTRA:          -4.952
REMARK INTER:                  -4.825
REMARK INTRA:                  -0.127
REMARK UNBOUND:                -0.117
REMARK SMILES Cc1ccc(C(C)C)cc1O
REMARK SMILES IDX 1 1 2 2 10 3 9 4 5 5 4 6 3 7 11 8 6 10 7 11 8 12
REMARK H PARENT 11 9
REMARK Flexibility Score: inf
ROOT
ATOM      1  C   UNL     1      -5.420  -2.392   5.910  1.00  0.00     0.048 C 
ATOM      2  C   UNL     1      -5.519  -3.880   5.716  1.00  0.00    -0.009 A 
ATOM      3  C   UNL     1      -4.442  -4.734   6.045  1.00  0.00     0.118 A 
ATOM      4  C   UNL     1      -4.566  -6.114   5.852  1.00  0.00     0.050 A 
ATOM      5  C   UNL     1      -5.750  -6.669   5.335  1.00  0.00    -0.042 A 
ATOM      6  C   UNL     1      -6.815  -5.814   5.011  1.00  0.00     0.004 A 
ATOM      7  C   UNL     1      -6.700  -4.435   5.200  1.00  0.00     0.007 A 
ENDROOT
BRANCH   3   8
ATOM      8  O   UNL     1      -3.241  -4.243   6.563  1.00  0.00    -0.508 OA
ATOM      9  H   UNL     1      -3.014  -4.268   7.549  1.00  0.00     0.293 HD
ENDBRANCH   3   8
BRANCH   5  10
ATOM     10  C   UNL     1      -5.888  -8.166   5.125  1.00  0.00     0.013 C 
ATOM     11  C   UNL     1      -7.360  -8.574   5.000  1.00  0.00     0.012 C 
ATOM     12  C   UNL     1      -5.191  -8.947   6.246  1.00  0.00     0.012 C 
ENDBRANCH   5  10
TORSDOF 2
ENDMDL
MODEL 3
REMARK VINA RESULT:    -4.267      9.860     11.083
REMARK INTER + INTRA:          -4.758
REMARK INTER:                  -4.630
REMARK INTRA:                  -0.128
REMARK UNBOUND:                -0.117
REMARK SMILES Cc1ccc(C(C)C)cc1O
REMARK SMILES IDX 1 1 2 2 10 3 9 4 5 5 4 6 3 7 11 8 6 10 7 11 8 12
REMARK H PARENT 11 9
REMARK Flexibility Score: inf
ROOT
ATOM      1  C   UNL     1      11.877   3.879  -7.546  1.00  0.00     0.048 C 
ATOM      2  C   UNL     1      10.781   2.855  -7.439  1.00  0.00    -0.009 A 
ATOM      3  C   UNL     1      10.435   2.281  -6.196  1.00  0.00     0.118 A 
ATOM      4  C   UNL     1       9.411   1.329  -6.130  1.00  0.00     0.050 A 
ATOM      5  C   UNL     1       8.716   0.934  -7.287  1.00  0.00    -0.042 A 
ATOM      6  C   UNL     1       9.066   1.510  -8.518  1.00  0.00     0.004 A 
ATOM      7  C   UNL     1      10.086   2.459  -8.593  1.00  0.00     0.007 A 
ENDROOT
BRANCH   3   8
ATOM      8  O   UNL     1      11.088   2.632  -5.012  1.00  0.00    -0.508 OA
ATOM      9  H   UNL     1      11.531   1.955  -4.403  1.00  0.00     0.293 HD
ENDBRANCH   3   8
BRANCH   5  10
ATOM     10  C   UNL     1       7.604  -0.096  -7.220  1.00  0.00     0.013 C 
ATOM     11  C   UNL     1       8.137  -1.506  -7.500  1.00  0.00     0.012 C 
ATOM     12  C   UNL     1       6.461   0.262  -8.178  1.00  0.00     0.012 C 
ENDBRANCH   5  10
TORSDOF 2
ENDMDL
MODEL 4
REMARK VINA RESULT:    -4.231      8.783      9.526
REMARK INTER + INTRA:          -4.719
REMARK INTER:                  -4.607
REMARK INTRA:                  -0.112
REMARK UNBOUND:                -0.117
REMARK SMILES Cc1ccc(C(C)C)cc1O
REMARK SMILES IDX 1 1 2 2 10 3 9 4 5 5 4 6 3 7 11 8 6 10 7 11 8 12
REMARK H PARENT 11 9
REMARK Flexibility Score: inf
ROOT
ATOM      1  C   UNL     1       4.929  -3.018  -8.619  1.00  0.00     0.048 C 
ATOM      2  C   UNL     1       5.928  -1.993  -8.156  1.00  0.00    -0.009 A 
ATOM      3  C   UNL     1       7.146  -2.378  -7.555  1.00  0.00     0.118 A 
ATOM      4  C   UNL     1       8.054  -1.399  -7.134  1.00  0.00     0.050 A 
ATOM      5  C   UNL     1       7.773  -0.032  -7.303  1.00  0.00    -0.042 A 
ATOM      6  C   UNL     1       6.560   0.342  -7.902  1.00  0.00     0.004 A 
ATOM      7  C   UNL     1       5.648  -0.627  -8.324  1.00  0.00     0.007 A 
ENDROOT
BRANCH   3   8
ATOM      8  O   UNL     1       7.483  -3.720  -7.361  1.00  0.00    -0.508 OA
ATOM      9  H   UNL     1       7.634  -4.367  -8.124  1.00  0.00     0.293 HD
ENDBRANCH   3   8
BRANCH   5  10
ATOM     10  C   UNL     1       8.755   1.032  -6.849  1.00  0.00     0.013 C 
ATOM     11  C   UNL     1       9.377   1.759  -8.048  1.00  0.00     0.012 C 
ATOM     12  C   UNL     1       9.838   0.434  -5.944  1.00  0.00     0.012 C 
ENDBRANCH   5  10
TORSDOF 2
ENDMDL
MODEL 5
REMARK VINA RESULT:    -4.230     10.388     11.565
REMARK INTER + INTRA:          -4.717
REMARK INTER:                  -4.617
REMARK INTRA:                  -0.101
REMARK UNBOUND:                -0.117
REMARK SMILES Cc1ccc(C(C)C)cc1O
REMARK SMILES IDX 1 1 2 2 10 3 9 4 5 5 4 6 3 7 11 8 6 10 7 11 8 12
REMARK H PARENT 11 9
REMARK Flexibility Score: inf
ROOT
ATOM      1  C   UNL     1      11.806   3.493  -8.061  1.00  0.00     0.048 C 
ATOM      2  C   UNL     1      10.630   2.567  -7.918  1.00  0.00    -0.009 A 
ATOM      3  C   UNL     1       9.956   2.060  -9.052  1.00  0.00     0.118 A 
ATOM      4  C   UNL     1       8.864   1.201  -8.885  1.00  0.00     0.050 A 
ATOM      5  C   UNL     1       8.424   0.831  -7.602  1.00  0.00    -0.042 A 
ATOM      6  C   UNL     1       9.099   1.339  -6.481  1.00  0.00     0.004 A 
ATOM      7  C   UNL     1      10.190   2.197  -6.638  1.00  0.00     0.007 A 
ENDROOT
BRANCH   3   8
ATOM      8  O   UNL     1      10.345   2.390 -10.352  1.00  0.00    -0.508 OA
ATOM      9  H   UNL     1      11.049   1.874 -10.866  1.00  0.00     0.293 HD
ENDBRANCH   3   8
BRANCH   5  10
ATOM     10  C   UNL     1       7.241  -0.101  -7.417  1.00  0.00     0.013 C 
ATOM     11  C   UNL     1       7.658  -1.566  -7.586  1.00  0.00     0.012 C 
ATOM     12  C   UNL     1       6.097   0.262  -8.372  1.00  0.00     0.012 C 
ENDBRANCH   5  10
TORSDOF 2
ENDMDL
MODEL 6
REMARK VINA RESULT:    -4.200     10.559     11.361
REMARK INTER + INTRA:          -4.685
REMARK INTER:                  -4.557
REMARK INTRA:                  -0.128
REMARK UNBOUND:                -0.117
REMARK SMILES Cc1ccc(C(C)C)cc1O
REMARK SMILES IDX 1 1 2 2 10 3 9 4 5 5 4 6 3 7 11 8 6 10 7 11 8 12
REMARK H PARENT 11 9
REMARK Flexibility Score: inf
ROOT
ATOM      1  C   UNL     1       5.486  -0.530  -8.309  1.00  0.00     0.048 C 
ATOM      2  C   UNL     1       6.762   0.266  -8.331  1.00  0.00    -0.009 A 
ATOM      3  C   UNL     1       7.107   1.065  -9.444  1.00  0.00     0.118 A 
ATOM      4  C   UNL     1       8.302   1.794  -9.434  1.00  0.00     0.050 A 
ATOM      5  C   UNL     1       9.169   1.744  -8.328  1.00  0.00    -0.042 A 
ATOM      6  C   UNL     1       8.819   0.948  -7.226  1.00  0.00     0.004 A 
ATOM      7  C   UNL     1       7.629   0.218  -7.228  1.00  0.00     0.007 A 
ENDROOT
BRANCH   3   8
ATOM      8  O   UNL     1       6.286   1.156 -10.571  1.00  0.00    -0.508 OA
ATOM      9  H   UNL     1       5.619   0.439 -10.827  1.00  0.00     0.293 HD
ENDBRANCH   3   8
BRANCH   5  10
ATOM     10  C   UNL     1      10.465   2.533  -8.313  1.00  0.00     0.013 C 
ATOM     11  C   UNL     1      11.679   1.607  -8.451  1.00  0.00     0.012 C 
ATOM     12  C   UNL     1      10.571   3.397  -7.050  1.00  0.00     0.012 C 
ENDBRANCH   5  10
TORSDOF 2
ENDMDL
MODEL 7
REMARK VINA RESULT:    -4.195      9.104      9.808
REMARK INTER + INTRA:          -4.679
REMARK INTER:                  -4.552
REMARK INTRA:                  -0.127
REMARK UNBOUND:                -0.117
REMARK SMILES Cc1ccc(C(C)C)cc1O
REMARK SMILES IDX 1 1 2 2 10 3 9 4 5 5 4 6 3 7 11 8 6 10 7 11 8 12
REMARK H PARENT 11 9
REMARK Flexibility Score: inf
ROOT
ATOM      1  C   UNL     1       5.004  -3.178  -8.549  1.00  0.00     0.048 C 
ATOM      2  C   UNL     1       5.940  -2.071  -8.147  1.00  0.00    -0.009 A 
ATOM      3  C   UNL     1       5.596  -0.715  -8.342  1.00  0.00     0.118 A 
ATOM      4  C   UNL     1       6.490   0.291  -7.958  1.00  0.00     0.050 A 
ATOM      5  C   UNL     1       7.730  -0.027  -7.378  1.00  0.00    -0.042 A 
ATOM      6  C   UNL     1       8.064  -1.376  -7.187  1.00  0.00     0.004 A 
ATOM      7  C   UNL     1       7.179  -2.387  -7.567  1.00  0.00     0.007 A 
ENDROOT
BRANCH   3   8
ATOM      8  O   UNL     1       4.378  -0.336  -8.913  1.00  0.00    -0.508 OA
ATOM      9  H   UNL     1       3.736  -0.997  -9.333  1.00  0.00     0.293 HD
ENDBRANCH   3   8
BRANCH   5  10
ATOM     10  C   UNL     1       8.702   1.061  -6.959  1.00  0.00     0.013 C 
ATOM     11  C   UNL     1       9.312   1.759  -8.180  1.00  0.00     0.012 C 
ATOM     12  C   UNL     1       9.794   0.502  -6.039  1.00  0.00     0.012 C 
ENDBRANCH   5  10
TORSDOF 2
ENDMDL
MODEL 8
REMARK VINA RESULT:    -4.137      8.451      9.830
REMARK INTER + INTRA:          -4.617
REMARK INTER:                  -4.492
REMARK INTRA:                  -0.125
REMARK UNBOUND:                -0.117
REMARK SMILES Cc1ccc(C(C)C)cc1O
REMARK SMILES IDX 1 1 2 2 10 3 9 4 5 5 4 6 3 7 11 8 6 10 7 11 8 12
REMARK H PARENT 11 9
REMARK Flexibility Score: inf
ROOT
ATOM      1  C   UNL     1       9.493   1.484  -6.448  1.00  0.00     0.048 C 
ATOM      2  C   UNL     1       8.606   0.348  -6.879  1.00  0.00    -0.009 A 
ATOM      3  C   UNL     1       8.910  -0.988  -6.536  1.00  0.00     0.118 A 
ATOM      4  C   UNL     1       8.065  -2.023  -6.953  1.00  0.00     0.050 A 
ATOM      5  C   UNL     1       6.912  -1.753  -7.712  1.00  0.00    -0.042 A 
ATOM      6  C   UNL     1       6.617  -0.423  -8.048  1.00  0.00     0.004 A 
ATOM      7  C   UNL     1       7.455   0.615  -7.636  1.00  0.00     0.007 A 
ENDROOT
BRANCH   3   8
ATOM      8  O   UNL     1      10.040  -1.320  -5.784  1.00  0.00    -0.508 OA
ATOM      9  H   UNL     1       9.998  -1.563  -4.802  1.00  0.00     0.293 HD
ENDBRANCH   3   8
BRANCH   5  10
ATOM     10  C   UNL     1       5.993  -2.872  -8.165  1.00  0.00     0.013 C 
ATOM     11  C   UNL     1       4.529  -2.417  -8.174  1.00  0.00     0.012 C 
ATOM     12  C   UNL     1       6.177  -4.124  -7.298  1.00  0.00     0.012 C 
ENDBRANCH   5  10
TORSDOF 2
ENDMDL
MODEL 9
REMARK VINA RESULT:    -4.091     10.204     11.267
REMARK INTER + INTRA:          -4.566
REMARK INTER:                  -4.439
REMARK INTRA:                  -0.127
REMARK UNBOUND:                -0.117
REMARK SMILES Cc1ccc(C(C)C)cc1O
REMARK SMILES IDX 1 1 2 2 10 3 9 4 5 5 4 6 3 7 11 8 6 10 7 11 8 12
REMARK H PARENT 11 9
REMARK Flexibility Score: inf
ROOT
ATOM      1  C   UNL     1      10.545   2.479  -8.369  1.00  0.00     0.048 C 
ATOM      2  C   UNL     1       9.240   1.734  -8.333  1.00  0.00    -0.009 A 
ATOM      3  C   UNL     1       8.880   0.942  -7.219  1.00  0.00     0.118 A 
ATOM      4  C   UNL     1       7.658   0.260  -7.216  1.00  0.00     0.050 A 
ATOM      5  C   UNL     1       6.777   0.350  -8.309  1.00  0.00    -0.042 A 
ATOM      6  C   UNL     1       7.142   1.139  -9.411  1.00  0.00     0.004 A 
ATOM      7  C   UNL     1       8.359   1.823  -9.422  1.00  0.00     0.007 A 
ENDROOT
BRANCH   3   8
ATOM      8  O   UNL     1       9.713   0.813  -6.104  1.00  0.00    -0.508 OA
ATOM      9  H   UNL     1       9.364   0.608  -5.176  1.00  0.00     0.293 HD
ENDBRANCH   3   8
BRANCH   5  10
ATOM     10  C   UNL     1       5.451  -0.387  -8.309  1.00  0.00     0.013 C 
ATOM     11  C   UNL     1       5.614  -1.821  -8.825  1.00  0.00     0.012 C 
ATOM     12  C   UNL     1       4.396   0.375  -9.120  1.00  0.00     0.012 C 
ENDBRANCH   5  10
TORSDOF 2
ENDMDL
