MODEL 1
REMARK VINA RESULT:    -4.985      0.000      0.000
REMARK INTER + INTRA:          -4.985
REMARK INTER:                  -4.985
REMARK INTRA:                   0.000
REMARK UNBOUND:                 0.000
REMARK SMILES CC1=CC=CC(C)(C)[C@@H]1C
REMARK SMILES IDX 10 1 9 2 2 3 3 4 4 5 5 6 6 7 7 8 8 9 1 10
REMARK H PARENT
REMARK Flexibility Score: inf
ROOT
ATOM      1  C   UNL     1       4.302   5.999  12.349  1.00  0.00     0.013 C 
ATOM      2  C   UNL     1       5.332   6.456  13.408  1.00  0.00     0.021 C 
ATOM      3  C   UNL     1       5.022   7.856  13.960  1.00  0.00    -0.070 C 
ATOM      4  C   UNL     1       5.998   8.561  14.555  1.00  0.00    -0.001 C 
ATOM      5  C   UNL     1       7.377   8.060  14.618  1.00  0.00    -0.004 C 
ATOM      6  C   UNL     1       7.756   7.005  13.899  1.00  0.00    -0.020 C 
ATOM      7  C   UNL     1       6.821   6.352  12.896  1.00  0.00    -0.011 C 
ATOM      8  C   UNL     1       7.255   4.875  12.750  1.00  0.00     0.016 C 
ATOM      9  C   UNL     1       7.009   7.071  11.542  1.00  0.00     0.016 C 
ATOM     10  C   UNL     1       3.627   8.433  14.002  1.00  0.00     0.040 C 
ENDROOT
TORSDOF 0
ENDMDL
MODEL 2
REMARK VINA RESULT:    -4.897      1.060      2.788
REMARK INTER + INTRA:          -4.897
REMARK INTER:                  -4.897
REMARK INTRA:                   0.000
REMARK UNBOUND:                 0.000
REMARK SMILES CC1=CC=CC(C)(C)[C@@H]1C
REMARK SMILES IDX 10 1 9 2 2 3 3 4 4 5 5 6 6 7 7 8 8 9 1 10
REMARK H PARENT
REMARK Flexibility Score: inf
ROOT
ATOM      1  C   UNL     1       7.392   7.779  14.234  1.00  0.00     0.013 C 
ATOM      2  C   UNL     1       6.386   7.129  13.256  1.00  0.00     0.021 C 
ATOM      3  C   UNL     1       4.929   7.481  13.596  1.00  0.00    -0.070 C 
ATOM      4  C   UNL     1       3.937   6.704  13.132  1.00  0.00    -0.001 C 
ATOM      5  C   UNL     1       4.214   5.476  12.376  1.00  0.00    -0.004 C 
ATOM      6  C   UNL     1       5.446   4.972  12.315  1.00  0.00    -0.020 C 
ATOM      7  C   UNL     1       6.587   5.570  13.121  1.00  0.00    -0.011 C 
ATOM      8  C   UNL     1       7.902   5.244  12.375  1.00  0.00     0.016 C 
ATOM      9  C   UNL     1       6.602   4.875  14.500  1.00  0.00     0.016 C 
ATOM     10  C   UNL     1       4.536   8.753  14.310  1.00  0.00     0.040 C 
ENDROOT
TORSDOF 0
ENDMDL
MODEL 3
REMARK VINA RESULT:    -4.477      1.018      2.674
REMARK INTER + INTRA:          -4.477
REMARK INTER:                  -4.477
REMARK INTRA:                   0.000
REMARK UNBOUND:                 0.000
REMARK SMILES CC1=CC=CC(C)(C)[C@@H]1C
REMARK SMILES IDX 10 1 9 2 2 3 3 4 4 5 5 6 6 7 7 8 8 9 1 10
REMARK H PARENT
REMARK Flexibility Score: inf
ROOT
ATOM      1  C   UNL     1       4.418   8.311  14.262  1.00  0.00     0.013 C 
ATOM      2  C   UNL     1       5.400   7.148  13.990  1.00  0.00     0.021 C 
ATOM      3  C   UNL     1       6.869   7.584  14.104  1.00  0.00    -0.070 C 
ATOM      4  C   UNL     1       7.824   6.845  13.518  1.00  0.00    -0.001 C 
ATOM      5  C   UNL     1       7.491   5.673  12.697  1.00  0.00    -0.004 C 
ATOM      6  C   UNL     1       6.236   5.433  12.323  1.00  0.00    -0.020 C 
ATOM      7  C   UNL     1       5.118   6.418  12.620  1.00  0.00    -0.011 C 
ATOM      8  C   UNL     1       3.797   5.617  12.680  1.00  0.00     0.016 C 
ATOM      9  C   UNL     1       5.050   7.419  11.445  1.00  0.00     0.016 C 
ATOM     10  C   UNL     1       7.320   8.733  14.975  1.00  0.00     0.040 C 
ENDROOT
TORSDOF 0
ENDMDL
MODEL 4
REMARK VINA RESULT:    -4.341      1.101      3.893
REMARK INTER + INTRA:          -4.341
REMARK INTER:                  -4.341
REMARK INTRA:                   0.000
REMARK UNBOUND:                 0.000
REMARK SMILES CC1=CC=CC(C)(C)[C@@H]1C
REMARK SMILES IDX 10 1 9 2 2 3 3 4 4 5 5 6 6 7 7 8 8 9 1 10
REMARK H PARENT
REMARK Flexibility Score: inf
ROOT
ATOM      1  C   UNL     1       7.196   7.788  13.914  1.00  0.00     0.013 C 
ATOM      2  C   UNL     1       6.019   6.791  13.808  1.00  0.00     0.021 C 
ATOM      3  C   UNL     1       6.344   5.597  12.896  1.00  0.00    -0.070 C 
ATOM      4  C   UNL     1       5.341   4.875  12.372  1.00  0.00    -0.001 C 
ATOM      5  C   UNL     1       3.936   5.248  12.582  1.00  0.00    -0.004 C 
ATOM      6  C   UNL     1       3.612   6.430  13.104  1.00  0.00    -0.020 C 
ATOM      7  C   UNL     1       4.665   7.486  13.390  1.00  0.00    -0.011 C 
ATOM      8  C   UNL     1       4.127   8.382  14.529  1.00  0.00     0.016 C 
ATOM      9  C   UNL     1       4.833   8.338  12.113  1.00  0.00     0.016 C 
ATOM     10  C   UNL     1       7.750   5.094  12.671  1.00  0.00     0.040 C 
ENDROOT
TORSDOF 0
ENDMDL
MODEL 5
REMARK VINA RESULT:    -4.218      1.824      3.198
REMARK INTER + INTRA:          -4.218
REMARK INTER:                  -4.218
REMARK INTRA:                   0.000
REMARK UNBOUND:                 0.000
REMARK SMILES CC1=CC=CC(C)(C)[C@@H]1C
REMARK SMILES IDX 10 1 9 2 2 3 3 4 4 5 5 6 6 7 7 8 8 9 1 10
REMARK H PARENT
REMARK Flexibility Score: inf
ROOT
ATOM      1  C   UNL     1       4.519   8.254  15.166  1.00  0.00     0.013 C 
ATOM      2  C   UNL     1       4.792   8.664  13.700  1.00  0.00     0.021 C 
ATOM      3  C   UNL     1       3.700   9.586  13.137  1.00  0.00    -0.070 C 
ATOM      4  C   UNL     1       3.555   9.701  11.807  1.00  0.00    -0.001 C 
ATOM      5  C   UNL     1       4.361   8.902  10.875  1.00  0.00    -0.004 C 
ATOM      6  C   UNL     1       5.098   7.881  11.309  1.00  0.00    -0.020 C 
ATOM      7  C   UNL     1       5.044   7.424  12.757  1.00  0.00    -0.011 C 
ATOM      8  C   UNL     1       6.396   6.747  13.080  1.00  0.00     0.016 C 
ATOM      9  C   UNL     1       3.914   6.378  12.876  1.00  0.00     0.016 C 
ATOM     10  C   UNL     1       2.865  10.497  14.005  1.00  0.00     0.040 C 
ENDROOT
TORSDOF 0
ENDMDL
MODEL 6
REMARK VINA RESULT:    -3.909      2.181      4.720
REMARK INTER + INTRA:          -3.909
REMARK INTER:                  -3.909
REMARK INTRA:                   0.000
REMARK UNBOUND:                 0.000
REMARK SMILES CC1=CC=CC(C)(C)[C@@H]1C
REMARK SMILES IDX 10 1 9 2 2 3 3 4 4 5 5 6 6 7 7 8 8 9 1 10
REMARK H PARENT
REMARK Flexibility Score: inf
ROOT
ATOM      1  C   UNL     1       3.778   8.628  15.173  1.00  0.00     0.013 C 
ATOM      2  C   UNL     1       3.555   8.594  13.643  1.00  0.00     0.021 C 
ATOM      3  C   UNL     1       4.788   8.080  12.882  1.00  0.00    -0.070 C 
ATOM      4  C   UNL     1       4.923   8.364  11.577  1.00  0.00    -0.001 C 
ATOM      5  C   UNL     1       3.961   9.224  10.875  1.00  0.00    -0.004 C 
ATOM      6  C   UNL     1       3.055   9.930  11.549  1.00  0.00    -0.020 C 
ATOM      7  C   UNL     1       3.054   9.975  13.067  1.00  0.00    -0.011 C 
ATOM      8  C   UNL     1       1.607  10.273  13.522  1.00  0.00     0.016 C 
ATOM      9  C   UNL     1       3.971  11.140  13.503  1.00  0.00     0.016 C 
ATOM     10  C   UNL     1       5.797   7.139  13.494  1.00  0.00     0.040 C 
ENDROOT
TORSDOF 0
ENDMDL
MODEL 7
REMARK VINA RESULT:    -3.844      1.983      3.389
REMARK INTER + INTRA:          -3.844
REMARK INTER:                  -3.844
REMARK INTRA:                   0.000
REMARK UNBOUND:                 0.000
REMARK SMILES CC1=CC=CC(C)(C)[C@@H]1C
REMARK SMILES IDX 10 1 9 2 2 3 3 4 4 5 5 6 6 7 7 8 8 9 1 10
REMARK H PARENT
REMARK Flexibility Score: inf
ROOT
ATOM      1  C   UNL     1       4.783   8.504  10.876  1.00  0.00     0.013 C 
ATOM      2  C   UNL     1       3.919   8.656  12.149  1.00  0.00     0.021 C 
ATOM      3  C   UNL     1       3.648  10.128  12.500  1.00  0.00    -0.070 C 
ATOM      4  C   UNL     1       3.285  10.452  13.751  1.00  0.00    -0.001 C 
ATOM      5  C   UNL     1       3.220   9.443  14.816  1.00  0.00    -0.004 C 
ATOM      6  C   UNL     1       3.731   8.226  14.639  1.00  0.00    -0.020 C 
ATOM      7  C   UNL     1       4.506   7.867  13.383  1.00  0.00    -0.011 C 
ATOM      8  C   UNL     1       4.375   6.340  13.178  1.00  0.00     0.016 C 
ATOM      9  C   UNL     1       5.990   8.218  13.631  1.00  0.00     0.016 C 
ATOM     10  C   UNL     1       3.625  11.228  11.465  1.00  0.00     0.040 C 
ENDROOT
TORSDOF 0
ENDMDL
MODEL 8
REMARK VINA RESULT:    -3.617      0.940      3.184
REMARK INTER + INTRA:          -3.617
REMARK INTER:                  -3.617
REMARK INTRA:                   0.000
REMARK UNBOUND:                 0.000
REMARK SMILES CC1=CC=CC(C)(C)[C@@H]1C
REMARK SMILES IDX 10 1 9 2 2 3 3 4 4 5 5 6 6 7 7 8 8 9 1 10
REMARK H PARENT
REMARK Flexibility Score: inf
ROOT
ATOM      1  C   UNL     1       4.328   6.288  11.627  1.00  0.00     0.013 C 
ATOM      2  C   UNL     1       5.341   7.138  12.430  1.00  0.00     0.021 C 
ATOM      3  C   UNL     1       6.332   6.272  13.223  1.00  0.00    -0.070 C 
ATOM      4  C   UNL     1       6.990   6.808  14.263  1.00  0.00    -0.001 C 
ATOM      5  C   UNL     1       6.724   8.180  14.715  1.00  0.00    -0.004 C 
ATOM      6  C   UNL     1       5.673   8.860  14.259  1.00  0.00    -0.020 C 
ATOM      7  C   UNL     1       4.641   8.210  13.353  1.00  0.00    -0.011 C 
ATOM      8  C   UNL     1       3.993   9.331  12.508  1.00  0.00     0.016 C 
ATOM      9  C   UNL     1       3.563   7.569  14.255  1.00  0.00     0.016 C 
ATOM     10  C   UNL     1       6.722   4.875  12.803  1.00  0.00     0.040 C 
ENDROOT
TORSDOF 0
ENDMDL
