MODEL 1
REMARK VINA RESULT:    -2.341      0.000      0.000
REMARK INTER + INTRA:          -3.215
REMARK INTER:                  -2.889
REMARK INTRA:                  -0.326
REMARK UNBOUND:                -0.326
REMARK SMILES CCCCCC(C)=O
REMARK SMILES IDX 4 1 3 2 2 3 1 4 5 5 6 6 8 7 7 8
REMARK H PARENT
REMARK Flexibility Score: inf
ROOT
ATOM      1  C   UNL     1     149.429 143.195 137.704  1.00  0.00     0.008 C 
ENDROOT
BRANCH   1   2
ATOM      2  C   UNL     1     148.866 141.762 137.698  1.00  0.00     0.000 C 
BRANCH   2   3
ATOM      3  C   UNL     1     147.423 141.638 137.177  1.00  0.00    -0.003 C 
ATOM      4  C   UNL     1     146.413 141.327 138.281  1.00  0.00     0.004 C 
ENDBRANCH   2   3
ENDBRANCH   1   2
BRANCH   1   5
ATOM      5  C   UNL     1     148.944 144.022 138.903  1.00  0.00     0.075 C 
BRANCH   5   6
ATOM      6  C   UNL     1     147.979 145.088 138.459  1.00  0.00     0.129 C 
ATOM      7  O   UNL     1     148.335 145.928 137.646  1.00  0.00    -0.300 OA
ATOM      8  C   UNL     1     146.593 145.139 139.024  1.00  0.00     0.087 C 
ENDBRANCH   5   6
ENDBRANCH   1   5
TORSDOF 4
ENDMDL
MODEL 2
REMARK VINA RESULT:    -2.338      9.095     10.663
REMARK INTER + INTRA:          -3.212
REMARK INTER:                  -2.822
REMARK INTRA:                  -0.390
REMARK UNBOUND:                -0.326
REMARK SMILES CCCCCC(C)=O
REMARK SMILES IDX 4 1 3 2 2 3 1 4 5 5 6 6 8 7 7 8
REMARK H PARENT
REMARK Flexibility Score: inf
ROOT
ATOM      1  C   UNL     1     139.666 148.771 137.597  1.00  0.00     0.008 C 
ENDROOT
BRANCH   1   2
ATOM      2  C   UNL     1     139.595 147.374 136.957  1.00  0.00     0.000 C 
BRANCH   2   3
ATOM      3  C   UNL     1     139.981 146.215 137.894  1.00  0.00    -0.003 C 
ATOM      4  C   UNL     1     138.804 145.297 138.225  1.00  0.00     0.004 C 
ENDBRANCH   2   3
ENDBRANCH   1   2
BRANCH   1   5
ATOM      5  C   UNL     1     138.298 149.462 137.678  1.00  0.00     0.075 C 
BRANCH   5   6
ATOM      6  C   UNL     1     137.384 148.724 138.618  1.00  0.00     0.129 C 
ATOM      7  O   UNL     1     137.714 148.561 139.783  1.00  0.00    -0.300 OA
ATOM      8  C   UNL     1     136.082 148.166 138.128  1.00  0.00     0.087 C 
ENDBRANCH   5   6
ENDBRANCH   1   5
TORSDOF 4
ENDMDL
MODEL 3
REMARK VINA RESULT:    -2.332      9.645     11.350
REMARK INTER + INTRA:          -3.204
REMARK INTER:                  -2.862
REMARK INTRA:                  -0.342
REMARK UNBOUND:                -0.326
REMARK SMILES CCCCCC(C)=O
REMARK SMILES IDX 4 1 3 2 2 3 1 4 5 5 6 6 8 7 7 8
REMARK H PARENT
REMARK Flexibility Score: inf
ROOT
ATOM      1  C   UNL     1     138.277 149.317 137.760  1.00  0.00     0.008 C 
ENDROOT
BRANCH   1   2
ATOM      2  C   UNL     1     139.653 148.626 137.774  1.00  0.00     0.000 C 
BRANCH   2   3
ATOM      3  C   UNL     1     139.708 147.286 137.018  1.00  0.00    -0.003 C 
ATOM      4  C   UNL     1     139.858 146.081 137.947  1.00  0.00     0.004 C 
ENDBRANCH   2   3
ENDBRANCH   1   2
BRANCH   1   5
ATOM      5  C   UNL     1     137.392 148.911 138.946  1.00  0.00     0.075 C 
BRANCH   5   6
ATOM      6  C   UNL     1     136.334 147.934 138.511  1.00  0.00     0.129 C 
ATOM      7  O   UNL     1     135.498 148.272 137.686  1.00  0.00    -0.300 OA
ATOM      8  C   UNL     1     136.286 146.556 139.097  1.00  0.00     0.087 C 
ENDBRANCH   5   6
ENDBRANCH   1   5
TORSDOF 4
ENDMDL
MODEL 4
REMARK VINA RESULT:    -2.332      9.672     11.536
REMARK INTER + INTRA:          -3.203
REMARK INTER:                  -2.813
REMARK INTRA:                  -0.390
REMARK UNBOUND:                -0.326
REMARK SMILES CCCCCC(C)=O
REMARK SMILES IDX 4 1 3 2 2 3 1 4 5 5 6 6 8 7 7 8
REMARK H PARENT
REMARK Flexibility Score: inf
ROOT
ATOM      1  C   UNL     1     141.852 132.762 137.670  1.00  0.00     0.008 C 
ENDROOT
BRANCH   1   2
ATOM      2  C   UNL     1     141.889 134.150 137.007  1.00  0.00     0.000 C 
BRANCH   2   3
ATOM      3  C   UNL     1     141.528 135.320 137.940  1.00  0.00    -0.003 C 
ATOM      4  C   UNL     1     142.717 136.230 138.246  1.00  0.00     0.004 C 
ENDBRANCH   2   3
ENDBRANCH   1   2
BRANCH   1   5
ATOM      5  C   UNL     1     143.227 132.081 137.708  1.00  0.00     0.075 C 
BRANCH   5   6
ATOM      6  C   UNL     1     144.154 132.805 138.646  1.00  0.00     0.129 C 
ATOM      7  O   UNL     1     143.820 132.989 139.808  1.00  0.00    -0.300 OA
ATOM      8  C   UNL     1     145.474 133.321 138.160  1.00  0.00     0.087 C 
ENDBRANCH   5   6
ENDBRANCH   1   5
TORSDOF 4
ENDMDL
MODEL 5
REMARK VINA RESULT:    -2.322      1.276      1.790
REMARK INTER + INTRA:          -3.191
REMARK INTER:                  -2.799
REMARK INTRA:                  -0.392
REMARK UNBOUND:                -0.326
REMARK SMILES CCCCCC(C)=O
REMARK SMILES IDX 4 1 3 2 2 3 1 4 5 5 6 6 8 7 7 8
REMARK H PARENT
REMARK Flexibility Score: inf
ROOT
ATOM      1  C   UNL     1     148.868 141.840 137.649  1.00  0.00     0.008 C 
ENDROOT
BRANCH   1   2
ATOM      2  C   UNL     1     147.481 141.839 136.982  1.00  0.00     0.000 C 
BRANCH   2   3
ATOM      3  C   UNL     1     146.315 141.478 137.921  1.00  0.00    -0.003 C 
ATOM      4  C   UNL     1     145.375 142.654 138.186  1.00  0.00     0.004 C 
ENDBRANCH   2   3
ENDBRANCH   1   2
BRANCH   1   5
ATOM      5  C   UNL     1     149.522 143.229 137.669  1.00  0.00     0.075 C 
BRANCH   5   6
ATOM      6  C   UNL     1     148.784 144.151 138.600  1.00  0.00     0.129 C 
ATOM      7  O   UNL     1     148.680 143.863 139.783  1.00  0.00    -0.300 OA
ATOM      8  C   UNL     1     148.156 145.409 138.082  1.00  0.00     0.087 C 
ENDBRANCH   5   6
ENDBRANCH   1   5
TORSDOF 4
ENDMDL
MODEL 6
REMARK VINA RESULT:    -2.318     13.696     15.588
REMARK INTER + INTRA:          -3.187
REMARK INTER:                  -2.796
REMARK INTRA:                  -0.390
REMARK UNBOUND:                -0.326
REMARK SMILES CCCCCC(C)=O
REMARK SMILES IDX 4 1 3 2 2 3 1 4 5 5 6 6 8 7 7 8
REMARK H PARENT
REMARK Flexibility Score: inf
ROOT
ATOM      1  C   UNL     1     132.764 139.751 137.680  1.00  0.00     0.008 C 
ENDROOT
BRANCH   1   2
ATOM      2  C   UNL     1     134.166 139.731 137.045  1.00  0.00     0.000 C 
BRANCH   2   3
ATOM      3  C   UNL     1     135.319 140.037 138.018  1.00  0.00    -0.003 C 
ATOM      4  C   UNL     1     136.244 138.841 138.245  1.00  0.00     0.004 C 
ENDBRANCH   2   3
ENDBRANCH   1   2
BRANCH   1   5
ATOM      5  C   UNL     1     132.084 138.375 137.671  1.00  0.00     0.075 C 
BRANCH   5   6
ATOM      6  C   UNL     1     132.785 137.428 138.606  1.00  0.00     0.129 C 
ATOM      7  O   UNL     1     132.886 137.710 139.792  1.00  0.00    -0.300 OA
ATOM      8  C   UNL     1     133.379 136.153 138.091  1.00  0.00     0.087 C 
ENDBRANCH   5   6
ENDBRANCH   1   5
TORSDOF 4
ENDMDL
MODEL 7
REMARK VINA RESULT:    -2.292      9.565     10.892
REMARK INTER + INTRA:          -3.155
REMARK INTER:                  -2.843
REMARK INTRA:                  -0.312
REMARK UNBOUND:                -0.326
REMARK SMILES CCCCCC(C)=O
REMARK SMILES IDX 4 1 3 2 2 3 1 4 5 5 6 6 8 7 7 8
REMARK H PARENT
REMARK Flexibility Score: inf
ROOT
ATOM      1  C   UNL     1     142.931 133.485 139.031  1.00  0.00     0.008 C 
ENDROOT
BRANCH   1   2
ATOM      2  C   UNL     1     141.798 133.650 138.003  1.00  0.00     0.000 C 
BRANCH   2   3
ATOM      3  C   UNL     1     142.091 134.656 136.875  1.00  0.00    -0.003 C 
ATOM      4  C   UNL     1     142.086 136.108 137.353  1.00  0.00     0.004 C 
ENDBRANCH   2   3
ENDBRANCH   1   2
BRANCH   1   5
ATOM      5  C   UNL     1     144.104 132.650 138.498  1.00  0.00     0.075 C 
BRANCH   5   6
ATOM      6  C   UNL     1     145.339 133.498 138.355  1.00  0.00     0.129 C 
ATOM      7  O   UNL     1     146.259 133.115 137.648  1.00  0.00    -0.300 OA
ATOM      8  C   UNL     1     145.456 134.798 139.090  1.00  0.00     0.087 C 
ENDBRANCH   5   6
ENDBRANCH   1   5
TORSDOF 4
ENDMDL
MODEL 8
REMARK VINA RESULT:    -2.260      8.692     10.687
REMARK INTER + INTRA:          -3.115
REMARK INTER:                  -2.800
REMARK INTRA:                  -0.315
REMARK UNBOUND:                -0.326
REMARK SMILES CCCCCC(C)=O
REMARK SMILES IDX 4 1 3 2 2 3 1 4 5 5 6 6 8 7 7 8
REMARK H PARENT
REMARK Flexibility Score: inf
ROOT
ATOM      1  C   UNL     1     144.789 133.614 138.350  1.00  0.00     0.008 C 
ENDROOT
BRANCH   1   2
ATOM      2  C   UNL     1     145.573 134.753 139.024  1.00  0.00     0.000 C 
BRANCH   2   3
ATOM      3  C   UNL     1     144.704 135.780 139.773  1.00  0.00    -0.003 C 
ATOM      4  C   UNL     1     144.724 137.165 139.127  1.00  0.00     0.004 C 
ENDBRANCH   2   3
ENDBRANCH   1   2
BRANCH   1   5
ATOM      5  C   UNL     1     143.430 133.349 139.013  1.00  0.00     0.075 C 
BRANCH   5   6
ATOM      6  C   UNL     1     142.317 133.453 138.007  1.00  0.00     0.129 C 
ATOM      7  O   UNL     1     141.731 132.444 137.643  1.00  0.00    -0.300 OA
ATOM      8  C   UNL     1     141.937 134.783 137.431  1.00  0.00     0.087 C 
ENDBRANCH   5   6
ENDBRANCH   1   5
TORSDOF 4
ENDMDL
MODEL 9
REMARK VINA RESULT:    -0.256      1.050      2.035
REMARK INTER + INTRA:          -0.642
REMARK INTER:                  -0.301
REMARK INTRA:                  -0.340
REMARK UNBOUND:                -0.326
REMARK SMILES CCCCCC(C)=O
REMARK SMILES IDX 4 1 3 2 2 3 1 4 5 5 6 6 8 7 7 8
REMARK H PARENT
REMARK Flexibility Score: inf
ROOT
ATOM      1  C   UNL     1     147.744 143.413 139.332  1.00  0.00     0.008 C 
ENDROOT
BRANCH   1   2
ATOM      2  C   UNL     1     146.965 142.213 138.764  1.00  0.00     0.000 C 
BRANCH   2   3
ATOM      3  C   UNL     1     147.130 141.998 137.248  1.00  0.00    -0.003 C 
ATOM      4  C   UNL     1     148.476 141.377 136.875  1.00  0.00     0.004 C 
ENDBRANCH   2   3
ENDBRANCH   1   2
BRANCH   1   5
ATOM      5  C   UNL     1     147.370 144.741 138.659  1.00  0.00     0.075 C 
BRANCH   5   6
ATOM      6  C   UNL     1     148.586 145.398 138.066  1.00  0.00     0.129 C 
ATOM      7  O   UNL     1     148.502 146.527 137.605  1.00  0.00    -0.300 OA
ATOM      8  C   UNL     1     149.894 144.669 138.015  1.00  0.00     0.087 C 
ENDBRANCH   5   6
ENDBRANCH   1   5
TORSDOF 4
ENDMDL
