MODEL 1
REMARK VINA RESULT:    -5.004      0.000      0.000
REMARK INTER + INTRA:          -7.634
REMARK INTER:                  -7.052
REMARK INTRA:                  -0.582
REMARK UNBOUND:                -0.582
REMARK SMILES CCCCCCCCC(=O)[O-]
REMARK SMILES IDX 6 1 7 2 8 3 9 4 10 5 11 6 5 7 4 8 3 9 2 10 1 11
REMARK H PARENT
REMARK Flexibility Score: inf
ROOT
ATOM      1  C   UNL     1      20.321   6.123  -9.757  1.00  0.00     0.000 C 
ENDROOT
BRANCH   1   2
ATOM      2  C   UNL     1      21.625   6.629 -10.398  1.00  0.00     0.006 C 
BRANCH   2   3
ATOM      3  C   UNL     1      21.502   6.773 -11.921  1.00  0.00     0.053 C 
BRANCH   3   4
ATOM      4  C   UNL     1      21.698   5.464 -12.622  1.00  0.00     0.041 C 
ATOM      5  O   UNL     1      22.827   4.909 -12.625  1.00  0.00    -0.550 OA
ATOM      6  O   UNL     1      20.638   4.872 -13.296  1.00  0.00    -0.550 OA
ENDBRANCH   3   4
ENDBRANCH   2   3
ENDBRANCH   1   2
BRANCH   1   7
ATOM      7  C   UNL     1      19.085   6.899 -10.241  1.00  0.00     0.000 C 
BRANCH   7   8
ATOM      8  C   UNL     1      18.055   5.995 -10.941  1.00  0.00    -0.000 C 
BRANCH   8   9
ATOM      9  C   UNL     1      18.365   4.500 -10.764  1.00  0.00    -0.000 C 
BRANCH   9  10
ATOM     10  C   UNL     1      17.100   3.629 -10.771  1.00  0.00    -0.003 C 
ATOM     11  C   UNL     1      15.841   4.489 -10.725  1.00  0.00     0.004 C 
ENDBRANCH   9  10
ENDBRANCH   8   9
ENDBRANCH   7   8
ENDBRANCH   1   7
TORSDOF 7
ENDMDL
MODEL 2
REMARK VINA RESULT:    -4.427      2.496      4.509
REMARK INTER + INTRA:          -6.821
REMARK INTER:                  -6.217
REMARK INTRA:                  -0.604
REMARK UNBOUND:                -0.582
REMARK SMILES CCCCCCCCC(=O)[O-]
REMARK SMILES IDX 6 1 7 2 8 3 9 4 10 5 11 6 5 7 4 8 3 9 2 10 1 11
REMARK H PARENT
REMARK Flexibility Score: inf
ROOT
ATOM      1  C   UNL     1      19.291   7.009 -10.017  1.00  0.00     0.000 C 
ENDROOT
BRANCH   1   2
ATOM      2  C   UNL     1      18.247   6.279 -10.879  1.00  0.00     0.006 C 
BRANCH   2   3
ATOM      3  C   UNL     1      18.345   4.753 -10.736  1.00  0.00     0.053 C 
BRANCH   3   4
ATOM      4  C   UNL     1      16.994   4.108 -10.721  1.00  0.00     0.041 C 
ATOM      5  O   UNL     1      16.835   2.957 -11.206  1.00  0.00    -0.550 OA
ATOM      6  O   UNL     1      15.904   4.791 -10.196  1.00  0.00    -0.550 OA
ENDBRANCH   3   4
ENDBRANCH   2   3
ENDBRANCH   1   2
BRANCH   1   7
ATOM      7  C   UNL     1      20.734   6.605 -10.366  1.00  0.00     0.000 C 
BRANCH   7   8
ATOM      8  C   UNL     1      21.155   7.070 -11.771  1.00  0.00    -0.000 C 
BRANCH   8   9
ATOM      9  C   UNL     1      22.285   6.213 -12.362  1.00  0.00    -0.000 C 
BRANCH   9  10
ATOM     10  C   UNL     1      21.838   4.777 -12.675  1.00  0.00    -0.003 C 
ATOM     11  C   UNL     1      20.591   4.770 -13.555  1.00  0.00     0.004 C 
ENDBRANCH   9  10
ENDBRANCH   8   9
ENDBRANCH   7   8
ENDBRANCH   1   7
TORSDOF 7
ENDMDL
MODEL 3
REMARK VINA RESULT:    -3.390      2.350      5.130
REMARK INTER + INTRA:          -5.359
REMARK INTER:                  -5.071
REMARK INTRA:                  -0.288
REMARK UNBOUND:                -0.582
REMARK SMILES CCCCCCCCC(=O)[O-]
REMARK SMILES IDX 6 1 7 2 8 3 9 4 10 5 11 6 5 7 4 8 3 9 2 10 1 11
REMARK H PARENT
REMARK Flexibility Score: inf
ROOT
ATOM      1  C   UNL     1      20.442   6.306 -10.317  1.00  0.00     0.000 C 
ENDROOT
BRANCH   1   2
ATOM      2  C   UNL     1      18.969   6.584  -9.970  1.00  0.00     0.006 C 
BRANCH   2   3
ATOM      3  C   UNL     1      18.023   6.206 -11.119  1.00  0.00     0.053 C 
BRANCH   3   4
ATOM      4  C   UNL     1      17.324   4.908 -10.859  1.00  0.00     0.041 C 
ATOM      5  O   UNL     1      16.157   4.899 -10.387  1.00  0.00    -0.550 OA
ATOM      6  O   UNL     1      17.974   3.706 -11.111  1.00  0.00    -0.550 OA
ENDBRANCH   3   4
ENDBRANCH   2   3
ENDBRANCH   1   2
BRANCH   1   7
ATOM      7  C   UNL     1      20.820   6.793 -11.726  1.00  0.00     0.000 C 
BRANCH   7   8
ATOM      8  C   UNL     1      22.252   6.399 -12.124  1.00  0.00    -0.000 C 
BRANCH   8   9
ATOM      9  C   UNL     1      22.300   5.108 -12.957  1.00  0.00    -0.000 C 
BRANCH   9  10
ATOM     10  C   UNL     1      23.732   4.594 -13.172  1.00  0.00    -0.003 C 
ATOM     11  C   UNL     1      24.553   5.586 -13.992  1.00  0.00     0.004 C 
ENDBRANCH   9  10
ENDBRANCH   8   9
ENDBRANCH   7   8
ENDBRANCH   1   7
TORSDOF 7
ENDMDL
MODEL 4
REMARK VINA RESULT:    -3.184     11.737     13.719
REMARK INTER + INTRA:          -5.070
REMARK INTER:                  -4.819
REMARK INTRA:                  -0.250
REMARK UNBOUND:                -0.582
REMARK SMILES CCCCCCCCC(=O)[O-]
REMARK SMILES IDX 6 1 7 2 8 3 9 4 10 5 11 6 5 7 4 8 3 9 2 10 1 11
REMARK H PARENT
REMARK Flexibility Score: inf
ROOT
ATOM      1  C   UNL     1      26.676  -3.019 -18.568  1.00  0.00     0.000 C 
ENDROOT
BRANCH   1   2
ATOM      2  C   UNL     1      25.266  -3.287 -18.015  1.00  0.00     0.006 C 
BRANCH   2   3
ATOM      3  C   UNL     1      24.244  -2.254 -18.511  1.00  0.00     0.053 C 
BRANCH   3   4
ATOM      4  C   UNL     1      23.990  -1.189 -17.490  1.00  0.00     0.041 C 
ATOM      5  O   UNL     1      23.467  -0.095 -17.830  1.00  0.00    -0.550 OA
ATOM      6  O   UNL     1      24.357  -1.393 -16.166  1.00  0.00    -0.550 OA
ENDBRANCH   3   4
ENDBRANCH   2   3
ENDBRANCH   1   2
BRANCH   1   7
ATOM      7  C   UNL     1      26.688  -2.839 -20.095  1.00  0.00     0.000 C 
BRANCH   7   8
ATOM      8  C   UNL     1      25.788  -3.855 -20.818  1.00  0.00    -0.000 C 
BRANCH   8   9
ATOM      9  C   UNL     1      26.579  -4.788 -21.749  1.00  0.00    -0.000 C 
BRANCH   9  10
ATOM     10  C   UNL     1      26.312  -6.273 -21.465  1.00  0.00    -0.003 C 
ATOM     11  C   UNL     1      25.623  -6.459 -20.116  1.00  0.00     0.004 C 
ENDBRANCH   9  10
ENDBRANCH   8   9
ENDBRANCH   7   8
ENDBRANCH   1   7
TORSDOF 7
ENDMDL
MODEL 5
REMARK VINA RESULT:    -3.094     11.803     13.726
REMARK INTER + INTRA:          -4.942
REMARK INTER:                  -4.763
REMARK INTRA:                  -0.179
REMARK UNBOUND:                -0.582
REMARK SMILES CCCCCCCCC(=O)[O-]
REMARK SMILES IDX 6 1 7 2 8 3 9 4 10 5 11 6 5 7 4 8 3 9 2 10 1 11
REMARK H PARENT
REMARK Flexibility Score: inf
ROOT
ATOM      1  C   UNL     1      23.507  -3.457 -19.813  1.00  0.00     0.000 C 
ENDROOT
BRANCH   1   2
ATOM      2  C   UNL     1      24.596  -2.411 -19.517  1.00  0.00     0.006 C 
BRANCH   2   3
ATOM      3  C   UNL     1      24.997  -2.397 -18.035  1.00  0.00     0.053 C 
BRANCH   3   4
ATOM      4  C   UNL     1      24.253  -1.348 -17.268  1.00  0.00     0.041 C 
ATOM      5  O   UNL     1      24.250  -1.364 -16.009  1.00  0.00    -0.550 OA
ATOM      6  O   UNL     1      23.538  -0.368 -17.945  1.00  0.00    -0.550 OA
ENDBRANCH   3   4
ENDBRANCH   2   3
ENDBRANCH   1   2
BRANCH   1   7
ATOM      7  C   UNL     1      23.866  -4.852 -19.275  1.00  0.00     0.000 C 
BRANCH   7   8
ATOM      8  C   UNL     1      25.360  -5.183 -19.437  1.00  0.00    -0.000 C 
BRANCH   8   9
ATOM      9  C   UNL     1      25.596  -6.462 -20.257  1.00  0.00    -0.000 C 
BRANCH   9  10
ATOM     10  C   UNL     1      26.427  -6.208 -21.523  1.00  0.00    -0.003 C 
ATOM     11  C   UNL     1      26.522  -4.716 -21.828  1.00  0.00     0.004 C 
ENDBRANCH   9  10
ENDBRANCH   8   9
ENDBRANCH   7   8
ENDBRANCH   1   7
TORSDOF 7
ENDMDL
MODEL 6
REMARK VINA RESULT:    -3.075     11.664     13.437
REMARK INTER + INTRA:          -4.916
REMARK INTER:                  -4.470
REMARK INTRA:                  -0.446
REMARK UNBOUND:                -0.582
REMARK SMILES CCCCCCCCC(=O)[O-]
REMARK SMILES IDX 6 1 7 2 8 3 9 4 10 5 11 6 5 7 4 8 3 9 2 10 1 11
REMARK H PARENT
REMARK Flexibility Score: inf
ROOT
ATOM      1  C   UNL     1      26.857  -2.709 -19.350  1.00  0.00     0.000 C 
ENDROOT
BRANCH   1   2
ATOM      2  C   UNL     1      25.752  -3.080 -20.355  1.00  0.00     0.006 C 
BRANCH   2   3
ATOM      3  C   UNL     1      26.115  -4.324 -21.179  1.00  0.00     0.053 C 
BRANCH   3   4
ATOM      4  C   UNL     1      25.591  -5.579 -20.552  1.00  0.00     0.041 C 
ATOM      5  O   UNL     1      24.873  -5.521 -19.519  1.00  0.00    -0.550 OA
ATOM      6  O   UNL     1      25.921  -6.815 -21.092  1.00  0.00    -0.550 OA
ENDBRANCH   3   4
ENDBRANCH   2   3
ENDBRANCH   1   2
BRANCH   1   7
ATOM      7  C   UNL     1      26.449  -2.988 -17.894  1.00  0.00     0.000 C 
BRANCH   7   8
ATOM      8  C   UNL     1      24.938  -2.822 -17.659  1.00  0.00    -0.000 C 
BRANCH   8   9
ATOM      9  C   UNL     1      24.621  -1.807 -16.549  1.00  0.00    -0.000 C 
BRANCH   9  10
ATOM     10  C   UNL     1      23.909  -0.553 -17.078  1.00  0.00    -0.003 C 
ATOM     11  C   UNL     1      23.727  -0.623 -18.592  1.00  0.00     0.004 C 
ENDBRANCH   9  10
ENDBRANCH   8   9
ENDBRANCH   7   8
ENDBRANCH   1   7
TORSDOF 7
ENDMDL
MODEL 7
REMARK VINA RESULT:    -2.887      1.684      2.517
REMARK INTER + INTRA:          -4.650
REMARK INTER:                  -4.392
REMARK INTRA:                  -0.258
REMARK UNBOUND:                -0.582
REMARK SMILES CCCCCCCCC(=O)[O-]
REMARK SMILES IDX 6 1 7 2 8 3 9 4 10 5 11 6 5 7 4 8 3 9 2 10 1 11
REMARK H PARENT
REMARK Flexibility Score: inf
ROOT
ATOM      1  C   UNL     1      21.696   6.862 -11.676  1.00  0.00     0.000 C 
ENDROOT
BRANCH   1   2
ATOM      2  C   UNL     1      22.354   5.773 -12.541  1.00  0.00     0.006 C 
BRANCH   2   3
ATOM      3  C   UNL     1      23.587   6.296 -13.291  1.00  0.00     0.053 C 
BRANCH   3   4
ATOM      4  C   UNL     1      24.419   5.180 -13.841  1.00  0.00     0.041 C 
ATOM      5  O   UNL     1      24.062   3.983 -13.680  1.00  0.00    -0.550 OA
ATOM      6  O   UNL     1      25.606   5.460 -14.506  1.00  0.00    -0.550 OA
ENDBRANCH   3   4
ENDBRANCH   2   3
ENDBRANCH   1   2
BRANCH   1   7
ATOM      7  C   UNL     1      20.633   6.297 -10.720  1.00  0.00     0.000 C 
BRANCH   7   8
ATOM      8  C   UNL     1      19.241   6.905 -10.956  1.00  0.00    -0.000 C 
BRANCH   8   9
ATOM      9  C   UNL     1      18.103   5.943 -10.577  1.00  0.00    -0.000 C 
BRANCH   9  10
ATOM     10  C   UNL     1      18.364   4.504 -11.045  1.00  0.00    -0.003 C 
ATOM     11  C   UNL     1      17.131   3.628 -10.839  1.00  0.00     0.004 C 
ENDBRANCH   9  10
ENDBRANCH   8   9
ENDBRANCH   7   8
ENDBRANCH   1   7
TORSDOF 7
ENDMDL
MODEL 8
REMARK VINA RESULT:    -2.690     12.307     14.049
REMARK INTER + INTRA:          -4.373
REMARK INTER:                  -3.942
REMARK INTRA:                  -0.431
REMARK UNBOUND:                -0.582
REMARK SMILES CCCCCCCCC(=O)[O-]
REMARK SMILES IDX 6 1 7 2 8 3 9 4 10 5 11 6 5 7 4 8 3 9 2 10 1 11
REMARK H PARENT
REMARK Flexibility Score: inf
ROOT
ATOM      1  C   UNL     1      25.159  -4.106 -18.220  1.00  0.00     0.000 C 
ENDROOT
BRANCH   1   2
ATOM      2  C   UNL     1      24.621  -5.185 -19.176  1.00  0.00     0.006 C 
BRANCH   2   3
ATOM      3  C   UNL     1      25.693  -6.222 -19.539  1.00  0.00     0.053 C 
BRANCH   3   4
ATOM      4  C   UNL     1      25.904  -6.309 -21.018  1.00  0.00     0.041 C 
ATOM      5  O   UNL     1      25.582  -7.352 -21.645  1.00  0.00    -0.550 OA
ATOM      6  O   UNL     1      26.485  -5.248 -21.701  1.00  0.00    -0.550 OA
ENDBRANCH   3   4
ENDBRANCH   2   3
ENDBRANCH   1   2
BRANCH   1   7
ATOM      7  C   UNL     1      26.061  -3.083 -18.931  1.00  0.00     0.000 C 
BRANCH   7   8
ATOM      8  C   UNL     1      25.286  -2.197 -19.920  1.00  0.00    -0.000 C 
BRANCH   8   9
ATOM      9  C   UNL     1      23.896  -1.802 -19.396  1.00  0.00    -0.000 C 
BRANCH   9  10
ATOM     10  C   UNL     1      23.922  -0.515 -18.559  1.00  0.00    -0.003 C 
ATOM     11  C   UNL     1      23.989  -0.831 -17.067  1.00  0.00     0.004 C 
ENDBRANCH   9  10
ENDBRANCH   8   9
ENDBRANCH   7   8
ENDBRANCH   1   7
TORSDOF 7
ENDMDL
