MODEL 1
REMARK VINA RESULT:    -4.155      0.000      0.000
REMARK INTER + INTRA:          -5.126
REMARK INTER:                  -4.884
REMARK INTRA:                  -0.242
REMARK UNBOUND:                -0.242
REMARK SMILES [NH3+][C@@H](CO)C(=O)[O-]
REMARK SMILES IDX 3 1 2 2 1 3 5 7 6 8 7 9 4 10
REMARK H PARENT 1 4 1 5 1 6 4 11
REMARK Flexibility Score: inf
ROOT
ATOM      1  C   UNL     1     128.022 103.809 128.476  1.00  0.00     0.227 C 
ENDROOT
BRANCH   1   2
ATOM      2  C   UNL     1     127.051 104.962 128.167  1.00  0.00     0.253 C 
BRANCH   2   3
ATOM      3  N   UNL     1     127.167 106.021 129.177  1.00  0.00    -0.348 N 
ATOM      4  H   UNL     1     127.439 106.921 128.719  1.00  0.00     0.345 HD
ATOM      5  H   UNL     1     126.260 106.152 129.681  1.00  0.00     0.345 HD
ATOM      6  H   UNL     1     127.909 105.770 129.870  1.00  0.00     0.345 HD
ENDBRANCH   2   3
BRANCH   2   7
ATOM      7  C   UNL     1     125.632 104.463 128.091  1.00  0.00     0.102 C 
ATOM      8  O   UNL     1     125.035 104.074 129.129  1.00  0.00    -0.544 OA
ATOM      9  O   UNL     1     124.977 104.418 126.866  1.00  0.00    -0.544 OA
ENDBRANCH   2   7
ENDBRANCH   1   2
BRANCH   1  10
ATOM     10  O   UNL     1     127.613 102.631 127.833  1.00  0.00    -0.390 OA
ATOM     11  H   UNL     1     128.382 102.320 127.286  1.00  0.00     0.210 HD
ENDBRANCH   1  10
TORSDOF 4
ENDMDL
MODEL 2
REMARK VINA RESULT:    -4.122      1.859      2.103
REMARK INTER + INTRA:          -5.087
REMARK INTER:                  -4.756
REMARK INTRA:                  -0.331
REMARK UNBOUND:                -0.242
REMARK SMILES [NH3+][C@@H](CO)C(=O)[O-]
REMARK SMILES IDX 3 1 2 2 1 3 5 7 6 8 7 9 4 10
REMARK H PARENT 1 4 1 5 1 6 4 11
REMARK Flexibility Score: inf
ROOT
ATOM      1  C   UNL     1     127.978 105.095 128.804  1.00  0.00     0.227 C 
ENDROOT
BRANCH   1   2
ATOM      2  C   UNL     1     127.136 103.806 128.814  1.00  0.00     0.253 C 
BRANCH   2   3
ATOM      3  N   UNL     1     127.667 102.834 127.850  1.00  0.00    -0.348 N 
ATOM      4  H   UNL     1     127.455 103.150 126.875  1.00  0.00     0.345 HD
ATOM      5  H   UNL     1     128.701 102.730 127.961  1.00  0.00     0.345 HD
ATOM      6  H   UNL     1     127.211 101.905 127.997  1.00  0.00     0.345 HD
ENDBRANCH   2   3
BRANCH   2   7
ATOM      7  C   UNL     1     125.691 104.106 128.514  1.00  0.00     0.102 C 
ATOM      8  O   UNL     1     124.820 104.027 129.420  1.00  0.00    -0.544 OA
ATOM      9  O   UNL     1     125.310 104.460 127.226  1.00  0.00    -0.544 OA
ENDBRANCH   2   7
ENDBRANCH   1   2
BRANCH   1  10
ATOM     10  O   UNL     1     127.177 106.211 129.088  1.00  0.00    -0.390 OA
ATOM     11  H   UNL     1     126.291 106.043 128.672  1.00  0.00     0.210 HD
ENDBRANCH   1  10
TORSDOF 4
ENDMDL
MODEL 3
REMARK VINA RESULT:    -4.095      1.839      2.261
REMARK INTER + INTRA:          -5.055
REMARK INTER:                  -4.842
REMARK INTRA:                  -0.213
REMARK UNBOUND:                -0.242
REMARK SMILES [NH3+][C@@H](CO)C(=O)[O-]
REMARK SMILES IDX 3 1 2 2 1 3 5 7 6 8 7 9 4 10
REMARK H PARENT 1 4 1 5 1 6 4 11
REMARK Flexibility Score: inf
ROOT
ATOM      1  C   UNL     1     127.857 105.320 128.047  1.00  0.00     0.227 C 
ENDROOT
BRANCH   1   2
ATOM      2  C   UNL     1     127.128 104.043 128.501  1.00  0.00     0.253 C 
BRANCH   2   3
ATOM      3  N   UNL     1     127.652 102.868 127.793  1.00  0.00    -0.348 N 
ATOM      4  H   UNL     1     127.004 102.057 127.923  1.00  0.00     0.345 HD
ATOM      5  H   UNL     1     127.753 103.067 126.771  1.00  0.00     0.345 HD
ATOM      6  H   UNL     1     128.586 102.607 128.184  1.00  0.00     0.345 HD
ENDBRANCH   2   3
BRANCH   2   7
ATOM      7  C   UNL     1     125.643 104.167 128.281  1.00  0.00     0.102 C 
ATOM      8  O   UNL     1     125.184 104.415 127.134  1.00  0.00    -0.544 OA
ATOM      9  O   UNL     1     124.769 104.022 129.351  1.00  0.00    -0.544 OA
ENDBRANCH   2   7
ENDBRANCH   1   2
BRANCH   1  10
ATOM     10  O   UNL     1     127.721 105.503 126.663  1.00  0.00    -0.390 OA
ATOM     11  H   UNL     1     128.612 105.775 126.320  1.00  0.00     0.210 HD
ENDBRANCH   1  10
TORSDOF 4
ENDMDL
MODEL 4
REMARK VINA RESULT:    -4.090      1.860      2.420
REMARK INTER + INTRA:          -5.050
REMARK INTER:                  -4.687
REMARK INTRA:                  -0.363
REMARK UNBOUND:                -0.242
REMARK SMILES [NH3+][C@@H](CO)C(=O)[O-]
REMARK SMILES IDX 3 1 2 2 1 3 5 7 6 8 7 9 4 10
REMARK H PARENT 1 4 1 5 1 6 4 11
REMARK Flexibility Score: inf
ROOT
ATOM      1  C   UNL     1     127.950 105.051 128.979  1.00  0.00     0.227 C 
ENDROOT
BRANCH   1   2
ATOM      2  C   UNL     1     127.099 103.775 128.859  1.00  0.00     0.253 C 
BRANCH   2   3
ATOM      3  N   UNL     1     127.660 102.871 127.848  1.00  0.00    -0.348 N 
ATOM      4  H   UNL     1     127.642 101.886 128.202  1.00  0.00     0.345 HD
ATOM      5  H   UNL     1     127.114 102.926 126.958  1.00  0.00     0.345 HD
ATOM      6  H   UNL     1     128.655 103.130 127.655  1.00  0.00     0.345 HD
ENDBRANCH   2   3
BRANCH   2   7
ATOM      7  C   UNL     1     125.670 104.113 128.523  1.00  0.00     0.102 C 
ATOM      8  O   UNL     1     125.345 104.420 127.345  1.00  0.00    -0.544 OA
ATOM      9  O   UNL     1     124.702 104.102 129.520  1.00  0.00    -0.544 OA
ENDBRANCH   2   7
ENDBRANCH   1   2
BRANCH   1  10
ATOM     10  O   UNL     1     127.132 106.185 129.082  1.00  0.00    -0.390 OA
ATOM     11  H   UNL     1     126.545 106.190 128.281  1.00  0.00     0.210 HD
ENDBRANCH   1  10
TORSDOF 4
ENDMDL
MODEL 5
REMARK VINA RESULT:    -4.081      1.835      1.903
REMARK INTER + INTRA:          -5.039
REMARK INTER:                  -4.825
REMARK INTRA:                  -0.214
REMARK UNBOUND:                -0.242
REMARK SMILES [NH3+][C@@H](CO)C(=O)[O-]
REMARK SMILES IDX 3 1 2 2 1 3 5 7 6 8 7 9 4 10
REMARK H PARENT 1 4 1 5 1 6 4 11
REMARK Flexibility Score: inf
ROOT
ATOM      1  C   UNL     1     127.893 105.349 128.092  1.00  0.00     0.227 C 
ENDROOT
BRANCH   1   2
ATOM      2  C   UNL     1     127.157 104.072 128.534  1.00  0.00     0.253 C 
BRANCH   2   3
ATOM      3  N   UNL     1     127.684 102.899 127.824  1.00  0.00    -0.348 N 
ATOM      4  H   UNL     1     127.052 102.079 127.976  1.00  0.00     0.345 HD
ATOM      5  H   UNL     1     127.759 103.090 126.799  1.00  0.00     0.345 HD
ATOM      6  H   UNL     1     128.630 102.655 128.196  1.00  0.00     0.345 HD
ENDBRANCH   2   3
BRANCH   2   7
ATOM      7  C   UNL     1     125.674 104.200 128.304  1.00  0.00     0.102 C 
ATOM      8  O   UNL     1     124.863 104.044 129.255  1.00  0.00    -0.544 OA
ATOM      9  O   UNL     1     125.191 104.479 127.031  1.00  0.00    -0.544 OA
ENDBRANCH   2   7
ENDBRANCH   1   2
BRANCH   1  10
ATOM     10  O   UNL     1     127.753 105.549 126.710  1.00  0.00    -0.390 OA
ATOM     11  H   UNL     1     126.828 105.276 126.473  1.00  0.00     0.210 HD
ENDBRANCH   1  10
TORSDOF 4
ENDMDL
MODEL 6
REMARK VINA RESULT:    -4.012     10.062     10.639
REMARK INTER + INTRA:          -4.958
REMARK INTER:                  -4.720
REMARK INTRA:                  -0.237
REMARK UNBOUND:                -0.242
REMARK SMILES [NH3+][C@@H](CO)C(=O)[O-]
REMARK SMILES IDX 3 1 2 2 1 3 5 7 6 8 7 9 4 10
REMARK H PARENT 1 4 1 5 1 6 4 11
REMARK Flexibility Score: inf
ROOT
ATOM      1  C   UNL     1     115.392 102.054 128.660  1.00  0.00     0.227 C 
ENDROOT
BRANCH   1   2
ATOM      2  C   UNL     1     115.994 102.905 129.792  1.00  0.00     0.253 C 
BRANCH   2   3
ATOM      3  N   UNL     1     116.950 103.881 129.254  1.00  0.00    -0.348 N 
ATOM      4  H   UNL     1     116.613 104.236 128.329  1.00  0.00     0.345 HD
ATOM      5  H   UNL     1     117.064 104.687 129.911  1.00  0.00     0.345 HD
ATOM      6  H   UNL     1     117.879 103.424 129.110  1.00  0.00     0.345 HD
ENDBRANCH   2   3
BRANCH   2   7
ATOM      7  C   UNL     1     116.662 102.032 130.823  1.00  0.00     0.102 C 
ATOM      8  O   UNL     1     116.165 100.918 131.137  1.00  0.00    -0.544 OA
ATOM      9  O   UNL     1     117.828 102.462 131.445  1.00  0.00    -0.544 OA
ENDBRANCH   2   7
ENDBRANCH   1   2
BRANCH   1  10
ATOM     10  O   UNL     1     116.348 101.163 128.149  1.00  0.00    -0.390 OA
ATOM     11  H   UNL     1     116.072 100.948 127.219  1.00  0.00     0.210 HD
ENDBRANCH   1  10
TORSDOF 4
ENDMDL
MODEL 7
REMARK VINA RESULT:    -4.003      2.735      3.107
REMARK INTER + INTRA:          -4.947
REMARK INTER:                  -4.721
REMARK INTRA:                  -0.226
REMARK UNBOUND:                -0.242
REMARK SMILES [NH3+][C@@H](CO)C(=O)[O-]
REMARK SMILES IDX 3 1 2 2 1 3 5 7 6 8 7 9 4 10
REMARK H PARENT 1 4 1 5 1 6 4 11
REMARK Flexibility Score: inf
ROOT
ATOM      1  C   UNL     1     128.249 103.975 129.058  1.00  0.00     0.227 C 
ENDROOT
BRANCH   1   2
ATOM      2  C   UNL     1     128.206 103.551 130.536  1.00  0.00     0.253 C 
BRANCH   2   3
ATOM      3  N   UNL     1     129.276 102.588 130.830  1.00  0.00    -0.348 N 
ATOM      4  H   UNL     1     128.965 101.930 131.581  1.00  0.00     0.345 HD
ATOM      5  H   UNL     1     129.525 102.041 129.974  1.00  0.00     0.345 HD
ATOM      6  H   UNL     1     130.124 103.095 131.171  1.00  0.00     0.345 HD
ENDBRANCH   2   3
BRANCH   2   7
ATOM      7  C   UNL     1     126.864 102.965 130.888  1.00  0.00     0.102 C 
ATOM      8  O   UNL     1     126.380 103.121 132.040  1.00  0.00    -0.544 OA
ATOM      9  O   UNL     1     126.157 102.234 129.941  1.00  0.00    -0.544 OA
ENDBRANCH   2   7
ENDBRANCH   1   2
BRANCH   1  10
ATOM     10  O   UNL     1     128.421 102.858 128.227  1.00  0.00    -0.390 OA
ATOM     11  H   UNL     1     129.276 102.991 127.739  1.00  0.00     0.210 HD
ENDBRANCH   1  10
TORSDOF 4
ENDMDL
MODEL 8
REMARK VINA RESULT:    -3.961      3.465      4.034
REMARK INTER + INTRA:          -4.899
REMARK INTER:                  -4.571
REMARK INTRA:                  -0.328
REMARK UNBOUND:                -0.242
REMARK SMILES [NH3+][C@@H](CO)C(=O)[O-]
REMARK SMILES IDX 3 1 2 2 1 3 5 7 6 8 7 9 4 10
REMARK H PARENT 1 4 1 5 1 6 4 11
REMARK Flexibility Score: inf
ROOT
ATOM      1  C   UNL     1     128.078 103.874 132.618  1.00  0.00     0.227 C 
ENDROOT
BRANCH   1   2
ATOM      2  C   UNL     1     128.111 103.224 131.224  1.00  0.00     0.253 C 
BRANCH   2   3
ATOM      3  N   UNL     1     129.419 102.604 130.973  1.00  0.00    -0.348 N 
ATOM      4  H   UNL     1     129.967 102.559 131.863  1.00  0.00     0.345 HD
ATOM      5  H   UNL     1     129.302 101.637 130.591  1.00  0.00     0.345 HD
ATOM      6  H   UNL     1     129.957 103.180 130.287  1.00  0.00     0.345 HD
ENDBRANCH   2   3
BRANCH   2   7
ATOM      7  C   UNL     1     127.797 104.234 130.152  1.00  0.00     0.102 C 
ATOM      8  O   UNL     1     126.603 104.539 129.891  1.00  0.00    -0.544 OA
ATOM      9  O   UNL     1     128.829 104.827 129.434  1.00  0.00    -0.544 OA
ENDBRANCH   2   7
ENDBRANCH   1   2
BRANCH   1  10
ATOM     10  O   UNL     1     128.340 105.250 132.529  1.00  0.00    -0.390 OA
ATOM     11  H   UNL     1     128.402 105.469 131.563  1.00  0.00     0.210 HD
ENDBRANCH   1  10
TORSDOF 4
ENDMDL
MODEL 9
REMARK VINA RESULT:    -3.848      2.117      2.933
REMARK INTER + INTRA:          -4.765
REMARK INTER:                  -4.391
REMARK INTRA:                  -0.374
REMARK UNBOUND:                -0.242
REMARK SMILES [NH3+][C@@H](CO)C(=O)[O-]
REMARK SMILES IDX 3 1 2 2 1 3 5 7 6 8 7 9 4 10
REMARK H PARENT 1 4 1 5 1 6 4 11
REMARK Flexibility Score: inf
ROOT
ATOM      1  C   UNL     1     126.899 103.812 128.140  1.00  0.00     0.227 C 
ENDROOT
BRANCH   1   2
ATOM      2  C   UNL     1     126.959 104.624 129.446  1.00  0.00     0.253 C 
BRANCH   2   3
ATOM      3  N   UNL     1     127.328 106.018 129.172  1.00  0.00    -0.348 N 
ATOM      4  H   UNL     1     126.538 106.507 128.692  1.00  0.00     0.345 HD
ATOM      5  H   UNL     1     127.556 106.522 130.060  1.00  0.00     0.345 HD
ATOM      6  H   UNL     1     128.161 106.046 128.540  1.00  0.00     0.345 HD
ENDBRANCH   2   3
BRANCH   2   7
ATOM      7  C   UNL     1     127.931 104.006 130.417  1.00  0.00     0.102 C 
ATOM      8  O   UNL     1     129.069 104.516 130.595  1.00  0.00    -0.544 OA
ATOM      9  O   UNL     1     127.578 102.857 131.115  1.00  0.00    -0.544 OA
ENDBRANCH   2   7
ENDBRANCH   1   2
BRANCH   1  10
ATOM     10  O   UNL     1     127.991 102.936 128.050  1.00  0.00    -0.390 OA
ATOM     11  H   UNL     1     128.717 103.324 128.606  1.00  0.00     0.210 HD
ENDBRANCH   1  10
TORSDOF 4
ENDMDL
