MODEL 1
REMARK VINA RESULT:    -5.024      0.000      0.000
REMARK INTER + INTRA:          -9.887
REMARK INTER:                  -8.549
REMARK INTRA:                  -1.339
REMARK UNBOUND:                -1.339
REMARK SMILES CCCCCCCCCCCCCC(=O)[O-]
REMARK SMILES IDX 8 1 9 2 10 3 11 4 12 5 13 6 14 7 15 8 16 9 7 10 6 11 5 12
REMARK SMILES IDX 4 13 3 14 2 15 1 16
REMARK H PARENT
REMARK Flexibility Score: inf
ROOT
ATOM      1  C   UNL     1       2.867  42.637  10.888  1.00  0.00     0.000 C 
ENDROOT
BRANCH   1   2
ATOM      2  C   UNL     1       4.172  43.423  10.680  1.00  0.00     0.000 C 
BRANCH   2   3
ATOM      3  C   UNL     1       4.301  44.630  11.627  1.00  0.00     0.000 C 
BRANCH   3   4
ATOM      4  C   UNL     1       4.192  46.014  10.953  1.00  0.00     0.000 C 
BRANCH   4   5
ATOM      5  C   UNL     1       4.691  46.073   9.498  1.00  0.00     0.006 C 
BRANCH   5   6
ATOM      6  C   UNL     1       4.774  47.505   8.955  1.00  0.00     0.053 C 
BRANCH   6   7
ATOM      7  C   UNL     1       6.159  48.047   9.125  1.00  0.00     0.041 C 
ATOM      8  O   UNL     1       7.099  47.286   9.474  1.00  0.00    -0.550 OA
ATOM      9  O   UNL     1       6.419  49.384   8.850  1.00  0.00    -0.550 OA
ENDBRANCH   6   7
ENDBRANCH   5   6
ENDBRANCH   4   5
ENDBRANCH   3   4
ENDBRANCH   2   3
ENDBRANCH   1   2
BRANCH   1  10
ATOM     10  C   UNL     1       1.961  43.252  11.971  1.00  0.00     0.000 C 
BRANCH  10  11
ATOM     11  C   UNL     1       0.794  44.107  11.448  1.00  0.00    -0.000 C 
BRANCH  11  12
ATOM     12  C   UNL     1       0.966  44.521   9.975  1.00  0.00    -0.000 C 
BRANCH  12  13
ATOM     13  C   UNL     1       0.307  45.875   9.664  1.00  0.00    -0.000 C 
BRANCH  13  14
ATOM     14  C   UNL     1       0.216  46.153   8.153  1.00  0.00    -0.000 C 
BRANCH  14  15
ATOM     15  C   UNL     1       1.138  47.299   7.709  1.00  0.00    -0.003 C 
ATOM     16  C   UNL     1       1.162  48.460   8.703  1.00  0.00     0.004 C 
ENDBRANCH  14  15
ENDBRANCH  13  14
ENDBRANCH  12  13
ENDBRANCH  11  12
ENDBRANCH  10  11
ENDBRANCH   1  10
TORSDOF 12
ENDMDL
MODEL 2
REMARK VINA RESULT:    -4.983      0.911      4.001
REMARK INTER + INTRA:          -9.817
REMARK INTER:                  -8.402
REMARK INTRA:                  -1.414
REMARK UNBOUND:                -1.339
REMARK SMILES CCCCCCCCCCCCCC(=O)[O-]
REMARK SMILES IDX 8 1 9 2 10 3 11 4 12 5 13 6 14 7 15 8 16 9 7 10 6 11 5 12
REMARK SMILES IDX 4 13 3 14 2 15 1 16
REMARK H PARENT
REMARK Flexibility Score: inf
ROOT
ATOM      1  C   UNL     1       0.343  45.912   8.090  1.00  0.00     0.000 C 
ENDROOT
BRANCH   1   2
ATOM      2  C   UNL     1       0.879  47.298   7.692  1.00  0.00     0.000 C 
BRANCH   2   3
ATOM      3  C   UNL     1       1.982  47.807   8.638  1.00  0.00     0.000 C 
BRANCH   3   4
ATOM      4  C   UNL     1       3.422  47.700   8.094  1.00  0.00     0.000 C 
BRANCH   4   5
ATOM      5  C   UNL     1       4.327  46.700   8.835  1.00  0.00     0.006 C 
BRANCH   5   6
ATOM      6  C   UNL     1       5.122  47.350   9.975  1.00  0.00     0.053 C 
BRANCH   6   7
ATOM      7  C   UNL     1       6.382  47.962   9.450  1.00  0.00     0.041 C 
ATOM      8  O   UNL     1       6.379  49.143   9.013  1.00  0.00    -0.550 OA
ATOM      9  O   UNL     1       7.571  47.244   9.488  1.00  0.00    -0.550 OA
ENDBRANCH   6   7
ENDBRANCH   5   6
ENDBRANCH   4   5
ENDBRANCH   3   4
ENDBRANCH   2   3
ENDBRANCH   1   2
BRANCH   1  10
ATOM     10  C   UNL     1       0.290  45.703   9.615  1.00  0.00     0.000 C 
BRANCH  10  11
ATOM     11  C   UNL     1       1.166  44.558  10.154  1.00  0.00    -0.000 C 
BRANCH  11  12
ATOM     12  C   UNL     1       1.794  43.706   9.037  1.00  0.00    -0.000 C 
BRANCH  12  13
ATOM     13  C   UNL     1       2.881  42.754   9.564  1.00  0.00    -0.000 C 
BRANCH  13  14
ATOM     14  C   UNL     1       2.789  42.538  11.085  1.00  0.00    -0.000 C 
BRANCH  14  15
ATOM     15  C   UNL     1       4.115  42.835  11.802  1.00  0.00    -0.003 C 
ATOM     16  C   UNL     1       4.293  44.316  12.133  1.00  0.00     0.004 C 
ENDBRANCH  14  15
ENDBRANCH  13  14
ENDBRANCH  12  13
ENDBRANCH  11  12
ENDBRANCH  10  11
ENDBRANCH   1  10
TORSDOF 12
ENDMDL
MODEL 3
REMARK VINA RESULT:    -4.973      2.345      5.228
REMARK INTER + INTRA:          -9.800
REMARK INTER:                  -8.356
REMARK INTRA:                  -1.444
REMARK UNBOUND:                -1.339
REMARK SMILES CCCCCCCCCCCCCC(=O)[O-]
REMARK SMILES IDX 8 1 9 2 10 3 11 4 12 5 13 6 14 7 15 8 16 9 7 10 6 11 5 12
REMARK SMILES IDX 4 13 3 14 2 15 1 16
REMARK H PARENT
REMARK Flexibility Score: inf
ROOT
ATOM      1  C   UNL     1       0.317  46.515   7.604  1.00  0.00     0.000 C 
ENDROOT
BRANCH   1   2
ATOM      2  C   UNL     1       0.413  45.116   8.235  1.00  0.00     0.000 C 
BRANCH   2   3
ATOM      3  C   UNL     1       0.458  45.155   9.774  1.00  0.00     0.000 C 
BRANCH   3   4
ATOM      4  C   UNL     1       1.477  44.201  10.431  1.00  0.00     0.000 C 
BRANCH   4   5
ATOM      5  C   UNL     1       2.274  43.322   9.451  1.00  0.00     0.006 C 
BRANCH   5   6
ATOM      6  C   UNL     1       3.778  43.307   9.753  1.00  0.00     0.053 C 
BRANCH   6   7
ATOM      7  C   UNL     1       4.015  43.031  11.205  1.00  0.00     0.041 C 
ATOM      8  O   UNL     1       4.410  43.951  11.969  1.00  0.00    -0.550 OA
ATOM      9  O   UNL     1       3.753  41.769  11.724  1.00  0.00    -0.550 OA
ENDBRANCH   6   7
ENDBRANCH   5   6
ENDBRANCH   4   5
ENDBRANCH   3   4
ENDBRANCH   2   3
ENDBRANCH   1   2
BRANCH   1  10
ATOM     10  C   UNL     1       0.840  47.629   8.531  1.00  0.00     0.000 C 
BRANCH  10  11
ATOM     11  C   UNL     1       2.065  48.400   8.007  1.00  0.00    -0.000 C 
BRANCH  11  12
ATOM     12  C   UNL     1       3.368  47.584   8.088  1.00  0.00    -0.000 C 
BRANCH  12  13
ATOM     13  C   UNL     1       3.580  46.950   9.473  1.00  0.00    -0.000 C 
BRANCH  13  14
ATOM     14  C   UNL     1       5.068  46.739   9.803  1.00  0.00    -0.000 C 
BRANCH  14  15
ATOM     15  C   UNL     1       5.972  47.790   9.140  1.00  0.00    -0.003 C 
ATOM     16  C   UNL     1       7.450  47.603   9.483  1.00  0.00     0.004 C 
ENDBRANCH  14  15
ENDBRANCH  13  14
ENDBRANCH  12  13
ENDBRANCH  11  12
ENDBRANCH  10  11
ENDBRANCH   1  10
TORSDOF 12
ENDMDL
MODEL 4
REMARK VINA RESULT:    -4.918      3.533      5.632
REMARK INTER + INTRA:          -9.706
REMARK INTER:                  -8.378
REMARK INTRA:                  -1.329
REMARK UNBOUND:                -1.339
REMARK SMILES CCCCCCCCCCCCCC(=O)[O-]
REMARK SMILES IDX 8 1 9 2 10 3 11 4 12 5 13 6 14 7 15 8 16 9 7 10 6 11 5 12
REMARK SMILES IDX 4 13 3 14 2 15 1 16
REMARK H PARENT
REMARK Flexibility Score: inf
ROOT
ATOM      1  C   UNL     1       1.110  44.418  10.157  1.00  0.00     0.000 C 
ENDROOT
BRANCH   1   2
ATOM      2  C   UNL     1       1.840  43.757   8.975  1.00  0.00     0.000 C 
BRANCH   2   3
ATOM      3  C   UNL     1       3.241  43.241   9.351  1.00  0.00     0.000 C 
BRANCH   3   4
ATOM      4  C   UNL     1       3.741  43.644  10.754  1.00  0.00     0.000 C 
BRANCH   4   5
ATOM      5  C   UNL     1       4.071  42.470  11.693  1.00  0.00     0.006 C 
BRANCH   5   6
ATOM      6  C   UNL     1       2.958  41.416  11.741  1.00  0.00     0.053 C 
BRANCH   6   7
ATOM      7  C   UNL     1       3.421  40.202  12.484  1.00  0.00     0.041 C 
ATOM      8  O   UNL     1       4.618  40.112  12.866  1.00  0.00    -0.550 OA
ATOM      9  O   UNL     1       2.519  39.193  12.796  1.00  0.00    -0.550 OA
ENDBRANCH   6   7
ENDBRANCH   5   6
ENDBRANCH   4   5
ENDBRANCH   3   4
ENDBRANCH   2   3
ENDBRANCH   1   2
BRANCH   1  10
ATOM     10  C   UNL     1       0.849  45.920   9.938  1.00  0.00     0.000 C 
BRANCH  10  11
ATOM     11  C   UNL     1       2.100  46.816   9.953  1.00  0.00    -0.000 C 
BRANCH  11  12
ATOM     12  C   UNL     1       2.274  47.625   8.655  1.00  0.00    -0.000 C 
BRANCH  12  13
ATOM     13  C   UNL     1       3.742  47.701   8.202  1.00  0.00    -0.000 C 
BRANCH  13  14
ATOM     14  C   UNL     1       4.627  46.647   8.890  1.00  0.00    -0.000 C 
BRANCH  14  15
ATOM     15  C   UNL     1       5.684  47.277   9.810  1.00  0.00    -0.003 C 
ATOM     16  C   UNL     1       6.456  48.413   9.139  1.00  0.00     0.004 C 
ENDBRANCH  14  15
ENDBRANCH  13  14
ENDBRANCH  12  13
ENDBRANCH  11  12
ENDBRANCH  10  11
ENDBRANCH   1  10
TORSDOF 12
ENDMDL
MODEL 5
REMARK VINA RESULT:    -4.856      1.057      3.516
REMARK INTER + INTRA:          -9.602
REMARK INTER:                  -8.228
REMARK INTRA:                  -1.374
REMARK UNBOUND:                -1.339
REMARK SMILES CCCCCCCCCCCCCC(=O)[O-]
REMARK SMILES IDX 8 1 9 2 10 3 11 4 12 5 13 6 14 7 15 8 16 9 7 10 6 11 5 12
REMARK SMILES IDX 4 13 3 14 2 15 1 16
REMARK H PARENT
REMARK Flexibility Score: inf
ROOT
ATOM      1  C   UNL     1       1.018  45.341   9.223  1.00  0.00     0.000 C 
ENDROOT
BRANCH   1   2
ATOM      2  C   UNL     1       1.270  46.721   8.593  1.00  0.00     0.000 C 
BRANCH   2   3
ATOM      3  C   UNL     1       2.637  47.315   8.979  1.00  0.00     0.000 C 
BRANCH   3   4
ATOM      4  C   UNL     1       3.293  46.703  10.235  1.00  0.00     0.000 C 
BRANCH   4   5
ATOM      5  C   UNL     1       4.831  46.646  10.206  1.00  0.00     0.006 C 
BRANCH   5   6
ATOM      6  C   UNL     1       5.433  47.420   9.027  1.00  0.00     0.053 C 
BRANCH   6   7
ATOM      7  C   UNL     1       6.689  48.117   9.448  1.00  0.00     0.041 C 
ATOM      8  O   UNL     1       7.785  47.497   9.458  1.00  0.00    -0.550 OA
ATOM      9  O   UNL     1       6.656  49.465   9.782  1.00  0.00    -0.550 OA
ENDBRANCH   6   7
ENDBRANCH   5   6
ENDBRANCH   4   5
ENDBRANCH   3   4
ENDBRANCH   2   3
ENDBRANCH   1   2
BRANCH   1  10
ATOM     10  C   UNL     1      -0.069  45.367  10.314  1.00  0.00     0.000 C 
BRANCH  10  11
ATOM     11  C   UNL     1       0.210  44.484  11.543  1.00  0.00    -0.000 C 
BRANCH  11  12
ATOM     12  C   UNL     1       1.696  44.110  11.690  1.00  0.00    -0.000 C 
BRANCH  12  13
ATOM     13  C   UNL     1       1.899  42.623  12.024  1.00  0.00    -0.000 C 
BRANCH  13  14
ATOM     14  C   UNL     1       3.018  41.978  11.187  1.00  0.00    -0.000 C 
BRANCH  14  15
ATOM     15  C   UNL     1       3.957  43.020  10.559  1.00  0.00    -0.003 C 
ATOM     16  C   UNL     1       3.813  43.112   9.041  1.00  0.00     0.004 C 
ENDBRANCH  14  15
ENDBRANCH  13  14
ENDBRANCH  12  13
ENDBRANCH  11  12
ENDBRANCH  10  11
ENDBRANCH   1  10
TORSDOF 12
ENDMDL
MODEL 6
REMARK VINA RESULT:    -4.844      1.225      4.283
REMARK INTER + INTRA:          -9.580
REMARK INTER:                  -8.306
REMARK INTRA:                  -1.274
REMARK UNBOUND:                -1.339
REMARK SMILES CCCCCCCCCCCCCC(=O)[O-]
REMARK SMILES IDX 8 1 9 2 10 3 11 4 12 5 13 6 14 7 15 8 16 9 7 10 6 11 5 12
REMARK SMILES IDX 4 13 3 14 2 15 1 16
REMARK H PARENT
REMARK Flexibility Score: inf
ROOT
ATOM      1  C   UNL     1       0.216  45.793   9.640  1.00  0.00     0.000 C 
ENDROOT
BRANCH   1   2
ATOM      2  C   UNL     1       0.702  46.291   8.268  1.00  0.00     0.000 C 
BRANCH   2   3
ATOM      3  C   UNL     1       1.615  47.527   8.369  1.00  0.00     0.000 C 
BRANCH   3   4
ATOM      4  C   UNL     1       2.828  47.377   9.311  1.00  0.00     0.000 C 
BRANCH   4   5
ATOM      5  C   UNL     1       4.199  47.354   8.611  1.00  0.00     0.006 C 
BRANCH   5   6
ATOM      6  C   UNL     1       5.342  46.960   9.555  1.00  0.00     0.053 C 
BRANCH   6   7
ATOM      7  C   UNL     1       6.514  47.871   9.363  1.00  0.00     0.041 C 
ATOM      8  O   UNL     1       7.680  47.463   9.607  1.00  0.00    -0.550 OA
ATOM      9  O   UNL     1       6.322  49.155   8.869  1.00  0.00    -0.550 OA
ENDBRANCH   6   7
ENDBRANCH   5   6
ENDBRANCH   4   5
ENDBRANCH   3   4
ENDBRANCH   2   3
ENDBRANCH   1   2
BRANCH   1  10
ATOM     10  C   UNL     1       1.039  44.606  10.175  1.00  0.00     0.000 C 
BRANCH  10  11
ATOM     11  C   UNL     1       1.678  43.709   9.099  1.00  0.00    -0.000 C 
BRANCH  11  12
ATOM     12  C   UNL     1       3.146  43.360   9.404  1.00  0.00    -0.000 C 
BRANCH  12  13
ATOM     13  C   UNL     1       3.596  43.861  10.786  1.00  0.00    -0.000 C 
BRANCH  13  14
ATOM     14  C   UNL     1       3.994  42.711  11.729  1.00  0.00    -0.000 C 
BRANCH  14  15
ATOM     15  C   UNL     1       3.021  41.524  11.654  1.00  0.00    -0.003 C 
ATOM     16  C   UNL     1       3.446  40.350  12.534  1.00  0.00     0.004 C 
ENDBRANCH  14  15
ENDBRANCH  13  14
ENDBRANCH  12  13
ENDBRANCH  11  12
ENDBRANCH  10  11
ENDBRANCH   1  10
TORSDOF 12
ENDMDL
MODEL 7
REMARK VINA RESULT:    -4.821      2.369      4.464
REMARK INTER + INTRA:          -9.541
REMARK INTER:                  -8.068
REMARK INTRA:                  -1.474
REMARK UNBOUND:                -1.339
REMARK SMILES CCCCCCCCCCCCCC(=O)[O-]
REMARK SMILES IDX 8 1 9 2 10 3 11 4 12 5 13 6 14 7 15 8 16 9 7 10 6 11 5 12
REMARK SMILES IDX 4 13 3 14 2 15 1 16
REMARK H PARENT
REMARK Flexibility Score: inf
ROOT
ATOM      1  C   UNL     1       2.644  42.658  11.021  1.00  0.00     0.000 C 
ENDROOT
BRANCH   1   2
ATOM      2  C   UNL     1       2.607  42.845   9.495  1.00  0.00     0.000 C 
BRANCH   2   3
ATOM      3  C   UNL     1       1.540  43.859   9.043  1.00  0.00     0.000 C 
BRANCH   3   4
ATOM      4  C   UNL     1       0.796  44.590  10.181  1.00  0.00     0.000 C 
BRANCH   4   5
ATOM      5  C   UNL     1       0.018  45.845   9.752  1.00  0.00     0.006 C 
BRANCH   5   6
ATOM      6  C   UNL     1       0.488  46.405   8.403  1.00  0.00     0.053 C 
BRANCH   6   7
ATOM      7  C   UNL     1       0.357  47.896   8.383  1.00  0.00     0.041 C 
ATOM      8  O   UNL     1       1.260  48.618   8.882  1.00  0.00    -0.550 OA
ATOM      9  O   UNL     1      -0.740  48.489   7.770  1.00  0.00    -0.550 OA
ENDBRANCH   6   7
ENDBRANCH   5   6
ENDBRANCH   4   5
ENDBRANCH   3   4
ENDBRANCH   2   3
ENDBRANCH   1   2
BRANCH   1  10
ATOM     10  C   UNL     1       3.973  43.115  11.650  1.00  0.00     0.000 C 
BRANCH  10  11
ATOM     11  C   UNL     1       4.053  44.610  12.008  1.00  0.00    -0.000 C 
BRANCH  11  12
ATOM     12  C   UNL     1       4.765  45.448  10.930  1.00  0.00    -0.000 C 
BRANCH  12  13
ATOM     13  C   UNL     1       3.818  46.440  10.236  1.00  0.00    -0.000 C 
BRANCH  13  14
ATOM     14  C   UNL     1       4.505  47.209   9.092  1.00  0.00    -0.000 C 
BRANCH  14  15
ATOM     15  C   UNL     1       6.016  47.371   9.318  1.00  0.00    -0.003 C 
ATOM     16  C   UNL     1       6.474  48.827   9.247  1.00  0.00     0.004 C 
ENDBRANCH  14  15
ENDBRANCH  13  14
ENDBRANCH  12  13
ENDBRANCH  11  12
ENDBRANCH  10  11
ENDBRANCH   1  10
TORSDOF 12
ENDMDL
MODEL 8
REMARK VINA RESULT:    -4.683      3.380      5.525
REMARK INTER + INTRA:          -9.307
REMARK INTER:                  -8.045
REMARK INTRA:                  -1.261
REMARK UNBOUND:                -1.339
REMARK SMILES CCCCCCCCCCCCCC(=O)[O-]
REMARK SMILES IDX 8 1 9 2 10 3 11 4 12 5 13 6 14 7 15 8 16 9 7 10 6 11 5 12
REMARK SMILES IDX 4 13 3 14 2 15 1 16
REMARK H PARENT
REMARK Flexibility Score: inf
ROOT
ATOM      1  C   UNL     1       4.276  45.748   9.523  1.00  0.00     0.000 C 
ENDROOT
BRANCH   1   2
ATOM      2  C   UNL     1       3.882  45.773  11.010  1.00  0.00     0.000 C 
BRANCH   2   3
ATOM      3  C   UNL     1       4.329  44.509  11.768  1.00  0.00     0.000 C 
BRANCH   3   4
ATOM      4  C   UNL     1       3.204  43.509  12.109  1.00  0.00     0.000 C 
BRANCH   4   5
ATOM      5  C   UNL     1       3.300  42.150  11.394  1.00  0.00     0.006 C 
BRANCH   5   6
ATOM      6  C   UNL     1       2.670  41.008  12.202  1.00  0.00     0.053 C 
BRANCH   6   7
ATOM      7  C   UNL     1       3.722  40.037  12.639  1.00  0.00     0.041 C 
ATOM      8  O   UNL     1       3.435  38.821  12.796  1.00  0.00    -0.550 OA
ATOM      9  O   UNL     1       5.030  40.467  12.826  1.00  0.00    -0.550 OA
ENDBRANCH   6   7
ENDBRANCH   5   6
ENDBRANCH   4   5
ENDBRANCH   3   4
ENDBRANCH   2   3
ENDBRANCH   1   2
BRANCH   1  10
ATOM     10  C   UNL     1       4.452  47.157   8.925  1.00  0.00     0.000 C 
BRANCH  10  11
ATOM     11  C   UNL     1       3.267  47.669   8.086  1.00  0.00    -0.000 C 
BRANCH  11  12
ATOM     12  C   UNL     1       1.977  47.838   8.908  1.00  0.00    -0.000 C 
BRANCH  12  13
ATOM     13  C   UNL     1       0.710  47.603   8.070  1.00  0.00    -0.000 C 
BRANCH  13  14
ATOM     14  C   UNL     1       0.394  46.107   7.886  1.00  0.00    -0.000 C 
BRANCH  14  15
ATOM     15  C   UNL     1       0.565  45.306   9.186  1.00  0.00    -0.003 C 
ATOM     16  C   UNL     1       1.270  43.967   8.970  1.00  0.00     0.004 C 
ENDBRANCH  14  15
ENDBRANCH  13  14
ENDBRANCH  12  13
ENDBRANCH  11  12
ENDBRANCH  10  11
ENDBRANCH   1  10
TORSDOF 12
ENDMDL
MODEL 9
REMARK VINA RESULT:    -4.656      2.968      4.976
REMARK INTER + INTRA:          -9.261
REMARK INTER:                  -7.872
REMARK INTRA:                  -1.389
REMARK UNBOUND:                -1.339
REMARK SMILES CCCCCCCCCCCCCC(=O)[O-]
REMARK SMILES IDX 8 1 9 2 10 3 11 4 12 5 13 6 14 7 15 8 16 9 7 10 6 11 5 12
REMARK SMILES IDX 4 13 3 14 2 15 1 16
REMARK H PARENT
REMARK Flexibility Score: inf
ROOT
ATOM      1  C   UNL     1       4.781  47.650   8.781  1.00  0.00     0.000 C 
ENDROOT
BRANCH   1   2
ATOM      2  C   UNL     1       5.246  46.703   9.901  1.00  0.00     0.000 C 
BRANCH   2   3
ATOM      3  C   UNL     1       4.080  46.161  10.748  1.00  0.00     0.000 C 
BRANCH   3   4
ATOM      4  C   UNL     1       4.163  44.662  11.104  1.00  0.00     0.000 C 
BRANCH   4   5
ATOM      5  C   UNL     1       4.065  43.700   9.907  1.00  0.00     0.006 C 
BRANCH   5   6
ATOM      6  C   UNL     1       2.980  42.631  10.090  1.00  0.00     0.053 C 
BRANCH   6   7
ATOM      7  C   UNL     1       2.996  42.107  11.492  1.00  0.00     0.041 C 
ATOM      8  O   UNL     1       1.997  42.271  12.241  1.00  0.00    -0.550 OA
ATOM      9  O   UNL     1       4.096  41.396  11.956  1.00  0.00    -0.550 OA
ENDBRANCH   6   7
ENDBRANCH   5   6
ENDBRANCH   4   5
ENDBRANCH   3   4
ENDBRANCH   2   3
ENDBRANCH   1   2
BRANCH   1  10
ATOM     10  C   UNL     1       3.366  47.323   8.268  1.00  0.00     0.000 C 
BRANCH  10  11
ATOM     11  C   UNL     1       2.610  48.500   7.626  1.00  0.00    -0.000 C 
BRANCH  11  12
ATOM     12  C   UNL     1       1.116  48.527   7.997  1.00  0.00    -0.000 C 
BRANCH  12  13
ATOM     13  C   UNL     1       0.436  47.162   7.798  1.00  0.00    -0.000 C 
BRANCH  13  14
ATOM     14  C   UNL     1      -0.154  46.602   9.105  1.00  0.00    -0.000 C 
BRANCH  14  15
ATOM     15  C   UNL     1       0.645  45.406   9.645  1.00  0.00    -0.003 C 
ATOM     16  C   UNL     1       0.142  44.921  11.004  1.00  0.00     0.004 C 
ENDBRANCH  14  15
ENDBRANCH  13  14
ENDBRANCH  12  13
ENDBRANCH  11  12
ENDBRANCH  10  11
ENDBRANCH   1  10
TORSDOF 12
ENDMDL
