MODEL 1
REMARK VINA RESULT:    -3.866      0.000      0.000
REMARK INTER + INTRA:          -5.175
REMARK INTER:                  -5.448
REMARK INTRA:                   0.274
REMARK UNBOUND:                 0.274
REMARK SMILES CC1=CCC(=C(C)C)C(=O)CC(C)=CCC1
REMARK SMILES IDX 12 1 14 2 13 3 15 4 16 5 2 6 1 7 3 8 11 10 9 11 10 12 5 13
REMARK SMILES IDX 6 14 7 15 8 16 4 17
REMARK H PARENT
REMARK Flexibility Score: 60.00
ROOT
ATOM      1  C   UNL     1       6.656   7.342  -9.110  1.00  0.00    -0.070 C 
ATOM      2  C   UNL     1       6.029   7.087 -10.280  1.00  0.00    -0.027 C 
ATOM      3  C   UNL     1       7.521   8.575  -9.028  1.00  0.00     0.039 C 
ENDROOT
BRANCH   2   4
ATOM      4  C   UNL     1       5.048   5.961 -10.528  1.00  0.00     0.032 C 
BRANCH   4   5
ATOM      5  C   UNL     1       5.688   4.564 -10.669  1.00  0.00     0.034 C 
BRANCH   5   6
ATOM      6  C   UNL     1       4.967   3.494  -9.869  1.00  0.00    -0.077 C 
ATOM      7  C   UNL     1       3.539   3.185 -10.238  1.00  0.00     0.039 C 
ATOM      8  C   UNL     1       5.544   2.752  -8.892  1.00  0.00    -0.023 CG0
ATOM      9  G   UNL     1       6.950   2.897  -8.343  1.00  0.00     0.000 G0
ENDBRANCH   5   6
ENDBRANCH   4   5
ENDBRANCH   2   4
BRANCH   1  10
ATOM     10  C   UNL     1       6.458   6.507  -7.861  1.00  0.00     0.111 C 
BRANCH  10  11
ATOM     11  C   UNL     1       7.450   5.375  -7.787  1.00  0.00     0.163 C 
ATOM     12  O   UNL     1       8.645   5.611  -8.112  1.00  0.00    -0.294 OA
BRANCH  11  13
ATOM     13  C   UNL     1       7.080   4.017  -7.288  1.00  0.00    -0.002 C 
ATOM     14  C   UNL     1       6.772   3.817  -5.971  1.00  0.00    -0.069 C 
ATOM     15  C   UNL     1       6.242   2.492  -5.466  1.00  0.00     0.039 C 
ATOM     16  C   UNL     1       6.945   4.918  -4.949  1.00  0.00     0.039 C 
BRANCH  13  17
ATOM     17  C   UNL     1       6.971   2.903  -8.317  1.00  0.00     0.066 CG0
ATOM     18  G   UNL     1       5.566   2.764  -8.869  1.00  0.00     0.000 G0
ENDBRANCH  13  17
ENDBRANCH  11  13
ENDBRANCH  10  11
ENDBRANCH   1  10
TORSDOF 0
ENDMDL
MODEL 2
REMARK VINA RESULT:    -3.830      2.533      5.039
REMARK INTER + INTRA:          -5.124
REMARK INTER:                  -5.501
REMARK INTRA:                   0.377
REMARK UNBOUND:                 0.274
REMARK SMILES CC1=CCC(=C(C)C)C(=O)CC(C)=CCC1
REMARK SMILES IDX 12 1 14 2 13 3 15 4 16 5 2 6 1 7 3 8 11 10 9 11 10 12 5 13
REMARK SMILES IDX 6 14 7 15 8 16 4 17
REMARK H PARENT
REMARK Flexibility Score: 60.00
ROOT
ATOM      1  C   UNL     1       6.661   4.547  -5.609  1.00  0.00    -0.070 C 
ATOM      2  C   UNL     1       7.498   4.246  -4.592  1.00  0.00    -0.027 C 
ATOM      3  C   UNL     1       6.363   6.003  -5.870  1.00  0.00     0.039 C 
ENDROOT
BRANCH   2   4
ATOM      4  C   UNL     1       7.993   2.861  -4.237  1.00  0.00     0.032 C 
BRANCH   4   5
ATOM      5  C   UNL     1       9.367   2.491  -4.835  1.00  0.00     0.034 C 
BRANCH   5   6
ATOM      6  C   UNL     1       9.314   1.280  -5.749  1.00  0.00    -0.077 C 
ATOM      7  C   UNL     1       9.446  -0.082  -5.117  1.00  0.00     0.039 C 
ATOM      8  C   UNL     1       9.085   1.340  -7.084  1.00  0.00    -0.023 CG0
ATOM      9  G   UNL     1       8.941   2.588  -7.932  1.00  0.00     0.000 G0
ENDBRANCH   5   6
ENDBRANCH   4   5
ENDBRANCH   2   4
BRANCH   1  10
ATOM     10  C   UNL     1       6.087   3.507  -6.549  1.00  0.00     0.111 C 
BRANCH  10  11
ATOM     11  C   UNL     1       6.608   3.680  -7.953  1.00  0.00     0.163 C 
ATOM     12  O   UNL     1       6.257   4.708  -8.593  1.00  0.00    -0.294 OA
BRANCH  11  13
ATOM     13  C   UNL     1       7.563   2.718  -8.578  1.00  0.00    -0.002 C 
ATOM     14  C   UNL     1       7.235   2.054  -9.726  1.00  0.00    -0.069 C 
ATOM     15  C   UNL     1       8.237   1.196 -10.469  1.00  0.00     0.039 C 
ATOM     16  C   UNL     1       5.846   2.147 -10.317  1.00  0.00     0.039 C 
BRANCH  13  17
ATOM     17  C   UNL     1       8.936   2.586  -7.937  1.00  0.00     0.066 CG0
ATOM     18  G   UNL     1       9.056   1.339  -7.084  1.00  0.00     0.000 G0
ENDBRANCH  13  17
ENDBRANCH  11  13
ENDBRANCH  10  11
ENDBRANCH   1  10
TORSDOF 0
ENDMDL
MODEL 3
REMARK VINA RESULT:    -3.590      2.406      4.207
REMARK INTER + INTRA:          -4.785
REMARK INTER:                  -5.473
REMARK INTRA:                   0.687
REMARK UNBOUND:                 0.274
REMARK SMILES CC1=CCC(=C(C)C)C(=O)CC(C)=CCC1
REMARK SMILES IDX 12 1 14 2 13 3 15 4 16 5 2 6 1 7 3 8 11 10 9 11 10 12 5 13
REMARK SMILES IDX 6 14 7 15 8 16 4 17
REMARK H PARENT
REMARK Flexibility Score: 60.00
ROOT
ATOM      1  C   UNL     1       6.916   4.107  -5.078  1.00  0.00    -0.070 C 
ATOM      2  C   UNL     1       6.933   5.408  -5.443  1.00  0.00    -0.027 C 
ATOM      3  C   UNL     1       7.682   3.711  -3.840  1.00  0.00     0.039 C 
ENDROOT
BRANCH   2   4
ATOM      4  C   UNL     1       6.152   6.013  -6.590  1.00  0.00     0.032 C 
BRANCH   4   5
ATOM      5  C   UNL     1       6.042   5.118  -7.843  1.00  0.00     0.034 C 
BRANCH   5   6
ATOM      6  C   UNL     1       7.347   5.000  -8.609  1.00  0.00    -0.077 C 
ATOM      7  C   UNL     1       8.039   6.276  -9.014  1.00  0.00     0.039 C 
ATOM      8  C   UNL     1       7.964   3.827  -8.891  1.00  0.00    -0.023 CG0
ATOM      9  G   UNL     1       7.451   2.430  -8.601  1.00  0.00     0.000 G0
ENDBRANCH   5   6
ENDBRANCH   4   5
ENDBRANCH   2   4
BRANCH   1  10
ATOM     10  C   UNL     1       6.093   3.053  -5.792  1.00  0.00     0.111 C 
BRANCH  10  11
ATOM     11  C   UNL     1       6.926   1.850  -6.153  1.00  0.00     0.163 C 
ATOM     12  O   UNL     1       6.733   0.781  -5.513  1.00  0.00    -0.294 OA
BRANCH  11  13
ATOM     13  C   UNL     1       7.914   1.866  -7.273  1.00  0.00    -0.002 C 
ATOM     14  C   UNL     1       9.157   1.321  -7.115  1.00  0.00    -0.069 C 
ATOM     15  C   UNL     1      10.122   1.179  -8.273  1.00  0.00     0.039 C 
ATOM     16  C   UNL     1       9.632   0.827  -5.766  1.00  0.00     0.039 C 
BRANCH  13  17
ATOM     17  C   UNL     1       7.444   2.424  -8.607  1.00  0.00     0.066 CG0
ATOM     18  G   UNL     1       7.969   3.823  -8.864  1.00  0.00     0.000 G0
ENDBRANCH  13  17
ENDBRANCH  11  13
ENDBRANCH  10  11
ENDBRANCH   1  10
TORSDOF 0
ENDMDL
MODEL 4
REMARK VINA RESULT:    -3.470     14.260     15.347
REMARK INTER + INTRA:          -4.616
REMARK INTER:                  -4.866
REMARK INTRA:                   0.251
REMARK UNBOUND:                 0.274
REMARK SMILES CC1=CCC(=C(C)C)C(=O)CC(C)=CCC1
REMARK SMILES IDX 12 1 14 2 13 3 15 4 16 5 2 6 1 7 3 8 11 10 9 11 10 12 5 13
REMARK SMILES IDX 6 14 7 15 8 16 4 17
REMARK H PARENT
REMARK Flexibility Score: 60.00
ROOT
ATOM      1  C   UNL     1      -4.907  13.431  -2.981  1.00  0.00    -0.070 C 
ATOM      2  C   UNL     1      -3.785  13.952  -3.524  1.00  0.00    -0.027 C 
ATOM      3  C   UNL     1      -5.497  14.125  -1.778  1.00  0.00     0.039 C 
ENDROOT
BRANCH   2   4
ATOM      4  C   UNL     1      -3.103  13.460  -4.782  1.00  0.00     0.032 C 
BRANCH   4   5
ATOM      5  C   UNL     1      -3.812  13.848  -6.097  1.00  0.00     0.034 C 
BRANCH   5   6
ATOM      6  C   UNL     1      -4.111  12.655  -6.988  1.00  0.00    -0.077 C 
ATOM      7  C   UNL     1      -2.942  11.874  -7.530  1.00  0.00     0.039 C 
ATOM      8  C   UNL     1      -5.359  12.206  -7.270  1.00  0.00    -0.023 CG0
ATOM      9  G   UNL     1      -6.674  12.836  -6.853  1.00  0.00     0.000 G0
ENDBRANCH   5   6
ENDBRANCH   4   5
ENDBRANCH   2   4
BRANCH   1  10
ATOM     10  C   UNL     1      -5.648  12.250  -3.575  1.00  0.00     0.111 C 
BRANCH  10  11
ATOM     11  C   UNL     1      -6.902  12.684  -4.290  1.00  0.00     0.163 C 
ATOM     12  O   UNL     1      -7.615  13.572  -3.749  1.00  0.00    -0.294 OA
BRANCH  11  13
ATOM     13  C   UNL     1      -7.287  12.148  -5.629  1.00  0.00    -0.002 C 
ATOM     14  C   UNL     1      -8.207  11.143  -5.741  1.00  0.00    -0.069 C 
ATOM     15  C   UNL     1      -8.736  10.688  -7.085  1.00  0.00     0.039 C 
ATOM     16  C   UNL     1      -8.748  10.434  -4.519  1.00  0.00     0.039 C 
BRANCH  13  17
ATOM     17  C   UNL     1      -6.688  12.829  -6.849  1.00  0.00     0.066 CG0
ATOM     18  G   UNL     1      -5.366  12.211  -7.262  1.00  0.00     0.000 G0
ENDBRANCH  13  17
ENDBRANCH  11  13
ENDBRANCH  10  11
ENDBRANCH   1  10
TORSDOF 0
ENDMDL
MODEL 5
REMARK VINA RESULT:    -3.421      2.608      4.307
REMARK INTER + INTRA:          -4.547
REMARK INTER:                  -4.978
REMARK INTRA:                   0.430
REMARK UNBOUND:                 0.274
REMARK SMILES CC1=CCC(=C(C)C)C(=O)CC(C)=CCC1
REMARK SMILES IDX 12 1 14 2 13 3 15 4 16 5 2 6 1 7 3 8 11 10 9 11 10 12 5 13
REMARK SMILES IDX 6 14 7 15 8 16 4 17
REMARK H PARENT
REMARK Flexibility Score: 60.00
ROOT
ATOM      1  C   UNL     1       9.682   1.027  -9.000  1.00  0.00    -0.070 C 
ATOM      2  C   UNL     1       9.492   1.395 -10.286  1.00  0.00    -0.027 C 
ATOM      3  C   UNL     1      10.058  -0.408  -8.725  1.00  0.00     0.039 C 
ENDROOT
BRANCH   2   4
ATOM      4  C   UNL     1       9.208   2.801 -10.769  1.00  0.00     0.032 C 
BRANCH   4   5
ATOM      5  C   UNL     1       7.711   3.156 -10.886  1.00  0.00     0.034 C 
BRANCH   5   6
ATOM      6  C   UNL     1       7.302   4.318 -10.000  1.00  0.00    -0.077 C 
ATOM      7  C   UNL     1       7.492   5.713 -10.540  1.00  0.00     0.039 C 
ATOM      8  C   UNL     1       6.713   4.184  -8.786  1.00  0.00    -0.023 CG0
ATOM      9  G   UNL     1       6.441   2.892  -8.040  1.00  0.00     0.000 G0
ENDBRANCH   5   6
ENDBRANCH   4   5
ENDBRANCH   2   4
BRANCH   1  10
ATOM     10  C   UNL     1       9.627   1.999  -7.839  1.00  0.00     0.111 C 
BRANCH  10  11
ATOM     11  C   UNL     1       8.440   1.734  -6.948  1.00  0.00     0.163 C 
ATOM     12  O   UNL     1       8.441   0.679  -6.258  1.00  0.00    -0.294 OA
BRANCH  11  13
ATOM     13  C   UNL     1       7.309   2.699  -6.811  1.00  0.00    -0.002 C 
ATOM     14  C   UNL     1       7.149   3.429  -5.667  1.00  0.00    -0.069 C 
ATOM     15  C   UNL     1       6.111   4.526  -5.556  1.00  0.00     0.039 C 
ATOM     16  C   UNL     1       8.009   3.178  -4.449  1.00  0.00     0.039 C 
BRANCH  13  17
ATOM     17  C   UNL     1       6.412   2.896  -8.023  1.00  0.00     0.066 CG0
ATOM     18  G   UNL     1       6.734   4.172  -8.776  1.00  0.00     0.000 G0
ENDBRANCH  13  17
ENDBRANCH  11  13
ENDBRANCH  10  11
ENDBRANCH   1  10
TORSDOF 0
ENDMDL
MODEL 6
REMARK VINA RESULT:    -3.343      2.092      4.798
REMARK INTER + INTRA:          -4.438
REMARK INTER:                  -5.708
REMARK INTRA:                   1.270
REMARK UNBOUND:                 0.274
REMARK SMILES CC1=CCC(=C(C)C)C(=O)CC(C)=CCC1
REMARK SMILES IDX 12 1 14 2 13 3 15 4 16 5 2 6 1 7 3 8 11 10 9 11 10 12 5 13
REMARK SMILES IDX 6 14 7 15 8 16 4 17
REMARK H PARENT
REMARK Flexibility Score: 60.00
ROOT
ATOM      1  C   UNL     1       8.273   2.956  -5.258  1.00  0.00    -0.070 C 
ATOM      2  C   UNL     1       7.282   3.796  -4.887  1.00  0.00    -0.027 C 
ATOM      3  C   UNL     1       9.117   2.336  -4.172  1.00  0.00     0.039 C 
ENDROOT
BRANCH   2   4
ATOM      4  C   UNL     1       6.273   4.436  -5.815  1.00  0.00     0.032 C 
BRANCH   4   5
ATOM      5  C   UNL     1       6.637   5.860  -6.285  1.00  0.00     0.034 C 
BRANCH   5   6
ATOM      6  C   UNL     1       6.868   5.954  -7.783  1.00  0.00    -0.077 C 
ATOM      7  C   UNL     1       7.595   7.166  -8.305  1.00  0.00     0.039 C 
ATOM      8  C   UNL     1       6.526   4.988  -8.671  1.00  0.00    -0.023 CG0
ATOM      9  G   UNL     1       5.777   3.702  -8.380  1.00  0.00     0.000 G0
ENDBRANCH   5   6
ENDBRANCH   4   5
ENDBRANCH   2   4
BRANCH   1  10
ATOM     10  C   UNL     1       8.514   2.537  -6.694  1.00  0.00     0.111 C 
BRANCH  10  11
ATOM     11  C   UNL     1       7.284   1.919  -7.306  1.00  0.00     0.163 C 
ATOM     12  O   UNL     1       6.748   0.947  -6.708  1.00  0.00    -0.294 OA
BRANCH  11  13
ATOM     13  C   UNL     1       6.650   2.455  -8.548  1.00  0.00    -0.002 C 
ATOM     14  C   UNL     1       6.799   1.809  -9.743  1.00  0.00    -0.069 C 
ATOM     15  C   UNL     1       6.044   2.236 -10.983  1.00  0.00     0.039 C 
ATOM     16  C   UNL     1       7.731   0.626  -9.885  1.00  0.00     0.039 C 
BRANCH  13  17
ATOM     17  C   UNL     1       5.766   3.683  -8.403  1.00  0.00     0.066 CG0
ATOM     18  G   UNL     1       6.522   4.972  -8.665  1.00  0.00     0.000 G0
ENDBRANCH  13  17
ENDBRANCH  11  13
ENDBRANCH  10  11
ENDBRANCH   1  10
TORSDOF 0
ENDMDL
MODEL 7
REMARK VINA RESULT:    -3.289      1.480      3.716
REMARK INTER + INTRA:          -4.361
REMARK INTER:                  -4.600
REMARK INTRA:                   0.238
REMARK UNBOUND:                 0.274
REMARK SMILES CC1=CCC(=C(C)C)C(=O)CC(C)=CCC1
REMARK SMILES IDX 12 1 14 2 13 3 15 4 16 5 2 6 1 7 3 8 11 10 9 11 10 12 5 13
REMARK SMILES IDX 6 14 7 15 8 16 4 17
REMARK H PARENT
REMARK Flexibility Score: 60.00
ROOT
ATOM      1  C   UNL     1       7.204   3.974  -7.095  1.00  0.00    -0.070 C 
ATOM      2  C   UNL     1       6.445   2.856  -7.111  1.00  0.00    -0.027 C 
ATOM      3  C   UNL     1       6.789   5.096  -6.177  1.00  0.00     0.039 C 
ENDROOT
BRANCH   2   4
ATOM      4  C   UNL     1       6.750   1.593  -7.887  1.00  0.00     0.032 C 
BRANCH   4   5
ATOM      5  C   UNL     1       6.974   1.800  -9.400  1.00  0.00     0.034 C 
BRANCH   5   6
ATOM      6  C   UNL     1       5.819   2.511 -10.082  1.00  0.00    -0.077 C 
ATOM      7  C   UNL     1       4.463   1.855 -10.030  1.00  0.00     0.039 C 
ATOM      8  C   UNL     1       5.914   3.727 -10.674  1.00  0.00    -0.023 CG0
ATOM      9  G   UNL     1       7.167   4.558 -10.861  1.00  0.00     0.000 G0
ENDBRANCH   5   6
ENDBRANCH   4   5
ENDBRANCH   2   4
BRANCH   1  10
ATOM     10  C   UNL     1       8.493   4.115  -7.880  1.00  0.00     0.111 C 
BRANCH  10  11
ATOM     11  C   UNL     1       8.465   5.323  -8.781  1.00  0.00     0.163 C 
ATOM     12  O   UNL     1       9.451   6.107  -8.752  1.00  0.00    -0.294 OA
BRANCH  11  13
ATOM     13  C   UNL     1       7.350   5.582  -9.739  1.00  0.00    -0.002 C 
ATOM     14  C   UNL     1       6.598   6.719  -9.645  1.00  0.00    -0.069 C 
ATOM     15  C   UNL     1       5.568   7.087 -10.692  1.00  0.00     0.039 C 
ATOM     16  C   UNL     1       6.761   7.674  -8.484  1.00  0.00     0.039 C 
BRANCH  13  17
ATOM     17  C   UNL     1       7.155   4.581 -10.867  1.00  0.00     0.066 CG0
ATOM     18  G   UNL     1       5.915   3.730 -10.674  1.00  0.00     0.000 G0
ENDBRANCH  13  17
ENDBRANCH  11  13
ENDBRANCH  10  11
ENDBRANCH   1  10
TORSDOF 0
ENDMDL
MODEL 8
REMARK VINA RESULT:    -3.283      2.224      3.481
REMARK INTER + INTRA:          -4.353
REMARK INTER:                  -4.758
REMARK INTRA:                   0.404
REMARK UNBOUND:                 0.274
REMARK SMILES CC1=CCC(=C(C)C)C(=O)CC(C)=CCC1
REMARK SMILES IDX 12 1 14 2 13 3 15 4 16 5 2 6 1 7 3 8 11 10 9 11 10 12 5 13
REMARK SMILES IDX 6 14 7 15 8 16 4 17
REMARK H PARENT
REMARK Flexibility Score: 60.00
ROOT
ATOM      1  C   UNL     1       7.044   4.578  -6.849  1.00  0.00    -0.070 C 
ATOM      2  C   UNL     1       6.430   5.241  -7.854  1.00  0.00    -0.027 C 
ATOM      3  C   UNL     1       6.414   4.633  -5.480  1.00  0.00     0.039 C 
ENDROOT
BRANCH   2   4
ATOM      4  C   UNL     1       6.851   5.226  -9.308  1.00  0.00     0.032 C 
BRANCH   4   5
ATOM      5  C   UNL     1       5.799   4.651 -10.280  1.00  0.00     0.034 C 
BRANCH   5   6
ATOM      6  C   UNL     1       5.294   3.279  -9.871  1.00  0.00    -0.077 C 
ATOM      7  C   UNL     1       3.817   3.122  -9.617  1.00  0.00     0.039 C 
ATOM      8  C   UNL     1       6.073   2.173  -9.787  1.00  0.00    -0.023 CG0
ATOM      9  G   UNL     1       7.575   2.094  -9.979  1.00  0.00     0.000 G0
ENDBRANCH   5   6
ENDBRANCH   4   5
ENDBRANCH   2   4
BRANCH   1  10
ATOM     10  C   UNL     1       8.271   3.712  -7.051  1.00  0.00     0.111 C 
BRANCH  10  11
ATOM     11  C   UNL     1       7.900   2.302  -7.431  1.00  0.00     0.163 C 
ATOM     12  O   UNL     1       7.153   1.655  -6.648  1.00  0.00    -0.294 OA
BRANCH  11  13
ATOM     13  C   UNL     1       8.329   1.679  -8.718  1.00  0.00    -0.002 C 
ATOM     14  C   UNL     1       9.291   0.708  -8.737  1.00  0.00    -0.069 C 
ATOM     15  C   UNL     1       9.635  -0.053 -10.000  1.00  0.00     0.039 C 
ATOM     16  C   UNL     1      10.061   0.341  -7.488  1.00  0.00     0.039 C 
BRANCH  13  17
ATOM     17  C   UNL     1       7.590   2.103  -9.977  1.00  0.00     0.066 CG0
ATOM     18  G   UNL     1       6.088   2.146  -9.777  1.00  0.00     0.000 G0
ENDBRANCH  13  17
ENDBRANCH  11  13
ENDBRANCH  10  11
ENDBRANCH   1  10
TORSDOF 0
ENDMDL
MODEL 9
REMARK VINA RESULT:    -3.227      1.672      3.555
REMARK INTER + INTRA:          -4.274
REMARK INTER:                  -4.776
REMARK INTRA:                   0.502
REMARK UNBOUND:                 0.274
REMARK SMILES CC1=CCC(=C(C)C)C(=O)CC(C)=CCC1
REMARK SMILES IDX 12 1 14 2 13 3 15 4 16 5 2 6 1 7 3 8 11 10 9 11 10 12 5 13
REMARK SMILES IDX 6 14 7 15 8 16 4 17
REMARK H PARENT
REMARK Flexibility Score: 60.00
ROOT
ATOM      1  C   UNL     1       6.265   3.338  -9.812  1.00  0.00    -0.070 C 
ATOM      2  C   UNL     1       5.232   4.121 -10.196  1.00  0.00    -0.027 C 
ATOM      3  C   UNL     1       5.944   1.994  -9.207  1.00  0.00     0.039 C 
ENDROOT
BRANCH   2   4
ATOM      4  C   UNL     1       5.350   5.451 -10.907  1.00  0.00     0.032 C 
BRANCH   4   5
ATOM      5  C   UNL     1       5.231   6.688  -9.991  1.00  0.00     0.034 C 
BRANCH   5   6
ATOM      6  C   UNL     1       6.576   7.226  -9.536  1.00  0.00    -0.077 C 
ATOM      7  C   UNL     1       7.220   8.301 -10.372  1.00  0.00     0.039 C 
ATOM      8  C   UNL     1       7.200   6.852  -8.392  1.00  0.00    -0.023 CG0
ATOM      9  G   UNL     1       6.754   5.785  -7.413  1.00  0.00     0.000 G0
ENDBRANCH   5   6
ENDBRANCH   4   5
ENDBRANCH   2   4
BRANCH   1  10
ATOM     10  C   UNL     1       7.717   3.704 -10.044  1.00  0.00     0.111 C 
BRANCH  10  11
ATOM     11  C   UNL     1       8.346   4.290  -8.806  1.00  0.00     0.163 C 
ATOM     12  O   UNL     1       9.548   4.665  -8.873  1.00  0.00    -0.294 OA
BRANCH  11  13
ATOM     13  C   UNL     1       7.584   4.496  -7.540  1.00  0.00    -0.002 C 
ATOM     14  C   UNL     1       7.694   3.609  -6.506  1.00  0.00    -0.069 C 
ATOM     15  C   UNL     1       7.061   3.871  -5.156  1.00  0.00     0.039 C 
ATOM     16  C   UNL     1       8.461   2.315  -6.660  1.00  0.00     0.039 C 
BRANCH  13  17
ATOM     17  C   UNL     1       6.764   5.771  -7.421  1.00  0.00     0.066 CG0
ATOM     18  G   UNL     1       7.203   6.833  -8.410  1.00  0.00     0.000 G0
ENDBRANCH  13  17
ENDBRANCH  11  13
ENDBRANCH  10  11
ENDBRANCH   1  10
TORSDOF 0
ENDMDL
