MODEL 1
REMARK VINA RESULT:    -2.167      0.000      0.000
REMARK INTER + INTRA:          -5.207
REMARK INTER:                  -3.941
REMARK INTRA:                  -1.266
REMARK UNBOUND:                -1.266
REMARK SMILES CCCCCCCCCCCCCC[C@H](C)C(=O)[O-]
REMARK SMILES IDX 9 1 10 2 11 3 12 4 13 5 14 6 15 7 16 8 17 9 18 10 19 11 8 12
REMARK SMILES IDX 7 13 6 14 5 15 4 16 3 17 2 18 1 19
REMARK H PARENT
REMARK Flexibility Score: inf
ROOT
ATOM      1  C   UNL     1     -21.027   1.858   7.063  1.00  0.00     0.000 C 
ENDROOT
BRANCH   1   2
ATOM      2  C   UNL     1     -21.834   2.383   8.262  1.00  0.00     0.000 C 
BRANCH   2   3
ATOM      3  C   UNL     1     -21.902   1.366   9.416  1.00  0.00     0.000 C 
BRANCH   3   4
ATOM      4  C   UNL     1     -22.257   2.022  10.760  1.00  0.00     0.000 C 
BRANCH   4   5
ATOM      5  C   UNL     1     -21.806   1.186  11.967  1.00  0.00     0.001 C 
BRANCH   5   6
ATOM      6  C   UNL     1     -21.533  -0.270  11.556  1.00  0.00     0.009 C 
BRANCH   6   7
ATOM      7  C   UNL     1     -21.002  -1.118  12.730  1.00  0.00     0.032 C 
ATOM      8  C   UNL     1     -21.425  -2.582  12.574  1.00  0.00     0.014 C 
BRANCH   7   9
ATOM      9  C   UNL     1     -21.477  -0.583  14.055  1.00  0.00     0.044 C 
ATOM     10  O   UNL     1     -20.666  -0.060  14.864  1.00  0.00    -0.550 OA
ATOM     11  O   UNL     1     -22.822  -0.669  14.394  1.00  0.00    -0.550 OA
ENDBRANCH   7   9
ENDBRANCH   6   7
ENDBRANCH   5   6
ENDBRANCH   4   5
ENDBRANCH   3   4
ENDBRANCH   2   3
ENDBRANCH   1   2
BRANCH   1  12
ATOM     12  C   UNL     1     -21.650   0.594   6.445  1.00  0.00     0.000 C 
BRANCH  12  13
ATOM     13  C   UNL     1     -20.626  -0.540   6.242  1.00  0.00    -0.000 C 
BRANCH  13  14
ATOM     14  C   UNL     1     -20.955  -1.853   6.976  1.00  0.00    -0.000 C 
BRANCH  14  15
ATOM     15  C   UNL     1     -20.607  -1.870   8.476  1.00  0.00    -0.000 C 
BRANCH  15  16
ATOM     16  C   UNL     1     -20.317  -3.280   9.035  1.00  0.00    -0.000 C 
BRANCH  16  17
ATOM     17  C   UNL     1     -19.844  -4.259   7.947  1.00  0.00    -0.000 C 
BRANCH  17  18
ATOM     18  C   UNL     1     -20.128  -5.725   8.311  1.00  0.00    -0.003 C 
ATOM     19  C   UNL     1     -21.620  -6.017   8.464  1.00  0.00     0.004 C 
ENDBRANCH  17  18
ENDBRANCH  16  17
ENDBRANCH  15  16
ENDBRANCH  14  15
ENDBRANCH  13  14
ENDBRANCH  12  13
ENDBRANCH   1  12
TORSDOF 14
ENDMDL
MODEL 2
REMARK VINA RESULT:    -2.134      1.449      5.359
REMARK INTER + INTRA:          -5.147
REMARK INTER:                  -3.839
REMARK INTRA:                  -1.308
REMARK UNBOUND:                -1.266
REMARK SMILES CCCCCCCCCCCCCC[C@H](C)C(=O)[O-]
REMARK SMILES IDX 9 1 10 2 11 3 12 4 13 5 14 6 15 7 16 8 17 9 18 10 19 11 8 12
REMARK SMILES IDX 7 13 6 14 5 15 4 16 3 17 2 18 1 19
REMARK H PARENT
REMARK Flexibility Score: inf
ROOT
ATOM      1  C   UNL     1     -21.355  -1.369   7.015  1.00  0.00     0.000 C 
ENDROOT
BRANCH   1   2
ATOM      2  C   UNL     1     -20.617  -2.700   7.236  1.00  0.00     0.000 C 
BRANCH   2   3
ATOM      3  C   UNL     1     -20.238  -2.924   8.710  1.00  0.00     0.000 C 
BRANCH   3   4
ATOM      4  C   UNL     1     -20.618  -1.733   9.605  1.00  0.00     0.000 C 
BRANCH   4   5
ATOM      5  C   UNL     1     -21.037  -2.163  11.019  1.00  0.00     0.001 C 
BRANCH   5   6
ATOM      6  C   UNL     1     -20.587  -1.128  12.063  1.00  0.00     0.009 C 
BRANCH   6   7
ATOM      7  C   UNL     1     -21.782  -0.428  12.744  1.00  0.00     0.032 C 
ATOM      8  C   UNL     1     -21.801   1.065  12.400  1.00  0.00     0.014 C 
BRANCH   7   9
ATOM      9  C   UNL     1     -21.749  -0.611  14.238  1.00  0.00     0.044 C 
ATOM     10  O   UNL     1     -22.730  -1.120  14.843  1.00  0.00    -0.550 OA
ATOM     11  O   UNL     1     -20.630  -0.214  14.960  1.00  0.00    -0.550 OA
ENDBRANCH   7   9
ENDBRANCH   6   7
ENDBRANCH   5   6
ENDBRANCH   4   5
ENDBRANCH   3   4
ENDBRANCH   2   3
ENDBRANCH   1   2
BRANCH   1  12
ATOM     12  C   UNL     1     -20.566  -0.404   6.112  1.00  0.00     0.000 C 
BRANCH  12  13
ATOM     13  C   UNL     1     -20.189   0.909   6.824  1.00  0.00    -0.000 C 
BRANCH  13  14
ATOM     14  C   UNL     1     -21.382   1.783   7.254  1.00  0.00    -0.000 C 
BRANCH  14  15
ATOM     15  C   UNL     1     -21.745   1.706   8.749  1.00  0.00    -0.000 C 
BRANCH  15  16
ATOM     16  C   UNL     1     -22.412   2.987   9.296  1.00  0.00    -0.000 C 
BRANCH  16  17
ATOM     17  C   UNL     1     -22.488   4.108   8.245  1.00  0.00    -0.000 C 
BRANCH  17  18
ATOM     18  C   UNL     1     -22.336   5.506   8.864  1.00  0.00    -0.003 C 
ATOM     19  C   UNL     1     -20.882   5.866   9.162  1.00  0.00     0.004 C 
ENDBRANCH  17  18
ENDBRANCH  16  17
ENDBRANCH  15  16
ENDBRANCH  14  15
ENDBRANCH  13  14
ENDBRANCH  12  13
ENDBRANCH   1  12
TORSDOF 14
ENDMDL
MODEL 3
REMARK VINA RESULT:    -2.010      3.188      7.148
REMARK INTER + INTRA:          -4.920
REMARK INTER:                  -3.600
REMARK INTRA:                  -1.320
REMARK UNBOUND:                -1.266
REMARK SMILES CCCCCCCCCCCCCC[C@H](C)C(=O)[O-]
REMARK SMILES IDX 9 1 10 2 11 3 12 4 13 5 14 6 15 7 16 8 17 9 18 10 19 11 8 12
REMARK SMILES IDX 7 13 6 14 5 15 4 16 3 17 2 18 1 19
REMARK H PARENT
REMARK Flexibility Score: inf
ROOT
ATOM      1  C   UNL     1     -21.920  -0.522  13.745  1.00  0.00     0.000 C 
ENDROOT
BRANCH   1   2
ATOM      2  C   UNL     1     -20.975  -1.647  13.291  1.00  0.00     0.000 C 
BRANCH   2   3
ATOM      3  C   UNL     1     -21.276  -2.126  11.860  1.00  0.00     0.000 C 
BRANCH   3   4
ATOM      4  C   UNL     1     -20.101  -1.886  10.897  1.00  0.00     0.000 C 
BRANCH   4   5
ATOM      5  C   UNL     1     -20.501  -2.039   9.422  1.00  0.00     0.001 C 
BRANCH   5   6
ATOM      6  C   UNL     1     -21.011  -0.706   8.851  1.00  0.00     0.009 C 
BRANCH   6   7
ATOM      7  C   UNL     1     -21.474  -0.839   7.385  1.00  0.00     0.032 C 
ATOM      8  C   UNL     1     -20.844  -2.071   6.728  1.00  0.00     0.014 C 
BRANCH   7   9
ATOM      9  C   UNL     1     -21.141   0.395   6.589  1.00  0.00     0.044 C 
ATOM     10  O   UNL     1     -20.183   1.138   6.929  1.00  0.00    -0.550 OA
ATOM     11  O   UNL     1     -21.897   0.722   5.469  1.00  0.00    -0.550 OA
ENDBRANCH   7   9
ENDBRANCH   6   7
ENDBRANCH   5   6
ENDBRANCH   4   5
ENDBRANCH   3   4
ENDBRANCH   2   3
ENDBRANCH   1   2
BRANCH   1  12
ATOM     12  C   UNL     1     -21.476   0.860  13.236  1.00  0.00     0.000 C 
BRANCH  12  13
ATOM     13  C   UNL     1     -22.402   1.421  12.140  1.00  0.00    -0.000 C 
BRANCH  13  14
ATOM     14  C   UNL     1     -21.687   1.889  10.858  1.00  0.00    -0.000 C 
BRANCH  14  15
ATOM     15  C   UNL     1     -22.617   2.283   9.696  1.00  0.00    -0.000 C 
BRANCH  15  16
ATOM     16  C   UNL     1     -21.968   3.243   8.675  1.00  0.00    -0.000 C 
BRANCH  16  17
ATOM     17  C   UNL     1     -22.859   4.457   8.360  1.00  0.00    -0.000 C 
BRANCH  17  18
ATOM     18  C   UNL     1     -22.179   5.791   8.706  1.00  0.00    -0.003 C 
ATOM     19  C   UNL     1     -20.923   5.611   9.556  1.00  0.00     0.004 C 
ENDBRANCH  17  18
ENDBRANCH  16  17
ENDBRANCH  15  16
ENDBRANCH  14  15
ENDBRANCH  13  14
ENDBRANCH  12  13
ENDBRANCH   1  12
TORSDOF 14
ENDMDL
MODEL 4
REMARK VINA RESULT:    -1.914      2.891      5.073
REMARK INTER + INTRA:          -4.747
REMARK INTER:                  -3.663
REMARK INTRA:                  -1.084
REMARK UNBOUND:                -1.266
REMARK SMILES CCCCCCCCCCCCCC[C@H](C)C(=O)[O-]
REMARK SMILES IDX 9 1 10 2 11 3 12 4 13 5 14 6 15 7 16 8 17 9 18 10 19 11 8 12
REMARK SMILES IDX 7 13 6 14 5 15 4 16 3 17 2 18 1 19
REMARK H PARENT
REMARK Flexibility Score: inf
ROOT
ATOM      1  C   UNL     1     -21.182  -0.196  13.807  1.00  0.00     0.000 C 
ENDROOT
BRANCH   1   2
ATOM      2  C   UNL     1     -21.454   1.176  13.167  1.00  0.00     0.000 C 
BRANCH   2   3
ATOM      3  C   UNL     1     -22.257   1.065  11.859  1.00  0.00     0.000 C 
BRANCH   3   4
ATOM      4  C   UNL     1     -21.890   2.162  10.847  1.00  0.00     0.000 C 
BRANCH   4   5
ATOM      5  C   UNL     1     -22.268   1.790   9.405  1.00  0.00     0.001 C 
BRANCH   5   6
ATOM      6  C   UNL     1     -21.436   0.597   8.909  1.00  0.00     0.009 C 
BRANCH   6   7
ATOM      7  C   UNL     1     -20.774   0.875   7.543  1.00  0.00     0.032 C 
ATOM      8  C   UNL     1     -21.333   2.160   6.923  1.00  0.00     0.014 C 
BRANCH   7   9
ATOM      9  C   UNL     1     -20.965  -0.279   6.594  1.00  0.00     0.044 C 
ATOM     10  O   UNL     1     -21.897  -1.107   6.772  1.00  0.00    -0.550 OA
ATOM     11  O   UNL     1     -20.105  -0.437   5.514  1.00  0.00    -0.550 OA
ENDBRANCH   7   9
ENDBRANCH   6   7
ENDBRANCH   5   6
ENDBRANCH   4   5
ENDBRANCH   3   4
ENDBRANCH   2   3
ENDBRANCH   1   2
BRANCH   1  12
ATOM     12  C   UNL     1     -21.669  -1.361  12.929  1.00  0.00     0.000 C 
BRANCH  12  13
ATOM     13  C   UNL     1     -20.579  -1.890  11.977  1.00  0.00    -0.000 C 
BRANCH  13  14
ATOM     14  C   UNL     1     -21.044  -2.145  10.531  1.00  0.00    -0.000 C 
BRANCH  14  15
ATOM     15  C   UNL     1     -19.935  -2.578   9.553  1.00  0.00    -0.000 C 
BRANCH  15  16
ATOM     16  C   UNL     1     -20.434  -3.478   8.402  1.00  0.00    -0.000 C 
BRANCH  16  17
ATOM     17  C   UNL     1     -19.547  -4.718   8.197  1.00  0.00    -0.000 C 
BRANCH  17  18
ATOM     18  C   UNL     1     -20.368  -5.990   7.932  1.00  0.00    -0.003 C 
ATOM     19  C   UNL     1     -21.663  -6.038   8.741  1.00  0.00     0.004 C 
ENDBRANCH  17  18
ENDBRANCH  16  17
ENDBRANCH  15  16
ENDBRANCH  14  15
ENDBRANCH  13  14
ENDBRANCH  12  13
ENDBRANCH   1  12
TORSDOF 14
ENDMDL
MODEL 5
REMARK VINA RESULT:    -1.824      1.921      5.368
REMARK INTER + INTRA:          -4.582
REMARK INTER:                  -4.074
REMARK INTRA:                  -0.508
REMARK UNBOUND:                -1.266
REMARK SMILES CCCCCCCCCCCCCC[C@H](C)C(=O)[O-]
REMARK SMILES IDX 9 1 10 2 11 3 12 4 13 5 14 6 15 7 16 8 17 9 18 10 19 11 8 12
REMARK SMILES IDX 7 13 6 14 5 15 4 16 3 17 2 18 1 19
REMARK H PARENT
REMARK Flexibility Score: inf
ROOT
ATOM      1  C   UNL     1     -20.963  -1.574   7.111  1.00  0.00     0.000 C 
ENDROOT
BRANCH   1   2
ATOM      2  C   UNL     1     -21.092  -1.154   8.586  1.00  0.00     0.000 C 
BRANCH   2   3
ATOM      3  C   UNL     1     -20.628  -2.257   9.553  1.00  0.00     0.000 C 
BRANCH   3   4
ATOM      4  C   UNL     1     -20.262  -1.708  10.942  1.00  0.00     0.000 C 
BRANCH   4   5
ATOM      5  C   UNL     1     -21.023  -2.409  12.078  1.00  0.00     0.001 C 
BRANCH   5   6
ATOM      6  C   UNL     1     -21.869  -1.403  12.875  1.00  0.00     0.009 C 
BRANCH   6   7
ATOM      7  C   UNL     1     -21.029  -0.218  13.395  1.00  0.00     0.032 C 
ATOM      8  C   UNL     1     -20.988  -0.216  14.927  1.00  0.00     0.014 C 
BRANCH   7   9
ATOM      9  C   UNL     1     -21.563   1.097  12.893  1.00  0.00     0.044 C 
ATOM     10  O   UNL     1     -21.247   2.176  13.462  1.00  0.00    -0.550 OA
ATOM     11  O   UNL     1     -22.415   1.126  11.796  1.00  0.00    -0.550 OA
ENDBRANCH   7   9
ENDBRANCH   6   7
ENDBRANCH   5   6
ENDBRANCH   4   5
ENDBRANCH   3   4
ENDBRANCH   2   3
ENDBRANCH   1   2
BRANCH   1  12
ATOM     12  C   UNL     1     -20.832  -0.366   6.167  1.00  0.00     0.000 C 
BRANCH  12  13
ATOM     13  C   UNL     1     -20.310   0.897   6.879  1.00  0.00    -0.000 C 
BRANCH  13  14
ATOM     14  C   UNL     1     -21.392   1.926   7.256  1.00  0.00    -0.000 C 
BRANCH  14  15
ATOM     15  C   UNL     1     -21.872   1.867   8.718  1.00  0.00    -0.000 C 
BRANCH  15  16
ATOM     16  C   UNL     1     -22.540   3.169   9.210  1.00  0.00    -0.000 C 
BRANCH  16  17
ATOM     17  C   UNL     1     -22.485   4.292   8.160  1.00  0.00    -0.000 C 
BRANCH  17  18
ATOM     18  C   UNL     1     -22.279   5.678   8.791  1.00  0.00    -0.003 C 
ATOM     19  C   UNL     1     -20.858   5.883   9.316  1.00  0.00     0.004 C 
ENDBRANCH  17  18
ENDBRANCH  16  17
ENDBRANCH  15  16
ENDBRANCH  14  15
ENDBRANCH  13  14
ENDBRANCH  12  13
ENDBRANCH   1  12
TORSDOF 14
ENDMDL
MODEL 6
REMARK VINA RESULT:    -1.803      1.242      1.940
REMARK INTER + INTRA:          -4.545
REMARK INTER:                  -3.344
REMARK INTRA:                  -1.200
REMARK UNBOUND:                -1.266
REMARK SMILES CCCCCCCCCCCCCC[C@H](C)C(=O)[O-]
REMARK SMILES IDX 9 1 10 2 11 3 12 4 13 5 14 6 15 7 16 8 17 9 18 10 19 11 8 12
REMARK SMILES IDX 7 13 6 14 5 15 4 16 3 17 2 18 1 19
REMARK H PARENT
REMARK Flexibility Score: inf
ROOT
ATOM      1  C   UNL     1     -21.772   2.058   8.237  1.00  0.00     0.000 C 
ENDROOT
BRANCH   1   2
ATOM      2  C   UNL     1     -21.718   1.005   9.357  1.00  0.00     0.000 C 
BRANCH   2   3
ATOM      3  C   UNL     1     -22.401   1.485  10.649  1.00  0.00     0.000 C 
BRANCH   3   4
ATOM      4  C   UNL     1     -21.421   2.177  11.612  1.00  0.00     0.000 C 
BRANCH   4   5
ATOM      5  C   UNL     1     -21.544   1.664  13.055  1.00  0.00     0.001 C 
BRANCH   5   6
ATOM      6  C   UNL     1     -22.496   0.459  13.130  1.00  0.00     0.009 C 
BRANCH   6   7
ATOM      7  C   UNL     1     -21.834  -0.766  13.795  1.00  0.00     0.032 C 
ATOM      8  C   UNL     1     -20.663  -0.332  14.684  1.00  0.00     0.014 C 
BRANCH   7   9
ATOM      9  C   UNL     1     -21.360  -1.760  12.769  1.00  0.00     0.044 C 
ATOM     10  O   UNL     1     -21.722  -2.965  12.829  1.00  0.00    -0.550 OA
ATOM     11  O   UNL     1     -20.513  -1.350  11.746  1.00  0.00    -0.550 OA
ENDBRANCH   7   9
ENDBRANCH   6   7
ENDBRANCH   5   6
ENDBRANCH   4   5
ENDBRANCH   3   4
ENDBRANCH   2   3
ENDBRANCH   1   2
BRANCH   1  12
ATOM     12  C   UNL     1     -20.931   1.656   7.013  1.00  0.00     0.000 C 
BRANCH  12  13
ATOM     13  C   UNL     1     -21.496   0.426   6.276  1.00  0.00    -0.000 C 
BRANCH  13  14
ATOM     14  C   UNL     1     -20.523  -0.761   6.149  1.00  0.00    -0.000 C 
BRANCH  14  15
ATOM     15  C   UNL     1     -20.927  -2.025   6.930  1.00  0.00    -0.000 C 
BRANCH  15  16
ATOM     16  C   UNL     1     -20.617  -1.951   8.441  1.00  0.00    -0.000 C 
BRANCH  16  17
ATOM     17  C   UNL     1     -20.023  -3.262   8.986  1.00  0.00    -0.000 C 
BRANCH  17  18
ATOM     18  C   UNL     1     -19.830  -4.321   7.889  1.00  0.00    -0.003 C 
ATOM     19  C   UNL     1     -20.541  -5.636   8.206  1.00  0.00     0.004 C 
ENDBRANCH  17  18
ENDBRANCH  16  17
ENDBRANCH  15  16
ENDBRANCH  14  15
ENDBRANCH  13  14
ENDBRANCH  12  13
ENDBRANCH   1  12
TORSDOF 14
ENDMDL
MODEL 7
REMARK VINA RESULT:    -1.098      2.127      5.873
REMARK INTER + INTRA:          -3.262
REMARK INTER:                  -2.002
REMARK INTRA:                  -1.260
REMARK UNBOUND:                -1.266
REMARK SMILES CCCCCCCCCCCCCC[C@H](C)C(=O)[O-]
REMARK SMILES IDX 9 1 10 2 11 3 12 4 13 5 14 6 15 7 16 8 17 9 18 10 19 11 8 12
REMARK SMILES IDX 7 13 6 14 5 15 4 16 3 17 2 18 1 19
REMARK H PARENT
REMARK Flexibility Score: inf
ROOT
ATOM      1  C   UNL     1     -20.587   0.065   6.795  1.00  0.00     0.000 C 
ENDROOT
BRANCH   1   2
ATOM      2  C   UNL     1     -21.501  -1.114   7.168  1.00  0.00     0.000 C 
BRANCH   2   3
ATOM      3  C   UNL     1     -20.708  -2.390   7.501  1.00  0.00     0.000 C 
BRANCH   3   4
ATOM      4  C   UNL     1     -20.031  -2.321   8.880  1.00  0.00     0.000 C 
BRANCH   4   5
ATOM      5  C   UNL     1     -21.040  -2.322  10.038  1.00  0.00     0.001 C 
BRANCH   5   6
ATOM      6  C   UNL     1     -20.737  -1.189  11.031  1.00  0.00     0.009 C 
BRANCH   6   7
ATOM      7  C   UNL     1     -20.923  -1.632  12.497  1.00  0.00     0.032 C 
ATOM      8  C   UNL     1     -21.696  -2.954  12.568  1.00  0.00     0.014 C 
BRANCH   7   9
ATOM      9  C   UNL     1     -21.633  -0.578  13.305  1.00  0.00     0.044 C 
ATOM     10  O   UNL     1     -22.124  -0.857  14.431  1.00  0.00    -0.550 OA
ATOM     11  O   UNL     1     -21.752   0.713  12.806  1.00  0.00    -0.550 OA
ENDBRANCH   7   9
ENDBRANCH   6   7
ENDBRANCH   5   6
ENDBRANCH   4   5
ENDBRANCH   3   4
ENDBRANCH   2   3
ENDBRANCH   1   2
BRANCH   1  12
ATOM     12  C   UNL     1     -21.115   1.408   7.328  1.00  0.00     0.000 C 
BRANCH  12  13
ATOM     13  C   UNL     1     -21.617   1.319   8.782  1.00  0.00    -0.000 C 
BRANCH  13  14
ATOM     14  C   UNL     1     -22.247   2.612   9.334  1.00  0.00    -0.000 C 
BRANCH  14  15
ATOM     15  C   UNL     1     -22.604   3.671   8.275  1.00  0.00    -0.000 C 
BRANCH  15  16
ATOM     16  C   UNL     1     -22.511   5.124   8.788  1.00  0.00    -0.000 C 
BRANCH  16  17
ATOM     17  C   UNL     1     -21.100   5.716   8.632  1.00  0.00    -0.000 C 
BRANCH  17  18
ATOM     18  C   UNL     1     -20.429   6.003   9.985  1.00  0.00    -0.003 C 
ATOM     19  C   UNL     1     -19.117   6.773   9.842  1.00  0.00     0.004 C 
ENDBRANCH  17  18
ENDBRANCH  16  17
ENDBRANCH  15  16
ENDBRANCH  14  15
ENDBRANCH  13  14
ENDBRANCH  12  13
ENDBRANCH   1  12
TORSDOF 14
ENDMDL
MODEL 8
REMARK VINA RESULT:    -0.720      3.008      6.122
REMARK INTER + INTRA:          -2.575
REMARK INTER:                  -1.276
REMARK INTRA:                  -1.300
REMARK UNBOUND:                -1.266
REMARK SMILES CCCCCCCCCCCCCC[C@H](C)C(=O)[O-]
REMARK SMILES IDX 9 1 10 2 11 3 12 4 13 5 14 6 15 7 16 8 17 9 18 10 19 11 8 12
REMARK SMILES IDX 7 13 6 14 5 15 4 16 3 17 2 18 1 19
REMARK H PARENT
REMARK Flexibility Score: inf
ROOT
ATOM      1  C   UNL     1     -20.512  -2.765   7.491  1.00  0.00     0.000 C 
ENDROOT
BRANCH   1   2
ATOM      2  C   UNL     1     -21.299  -1.476   7.200  1.00  0.00     0.000 C 
BRANCH   2   3
ATOM      3  C   UNL     1     -20.605  -0.587   6.152  1.00  0.00     0.000 C 
BRANCH   3   4
ATOM      4  C   UNL     1     -20.291   0.820   6.687  1.00  0.00     0.000 C 
BRANCH   4   5
ATOM      5  C   UNL     1     -21.308   1.299   7.734  1.00  0.00     0.001 C 
BRANCH   5   6
ATOM      6  C   UNL     1     -21.656   2.781   7.524  1.00  0.00     0.009 C 
BRANCH   6   7
ATOM      7  C   UNL     1     -22.038   3.483   8.844  1.00  0.00     0.032 C 
ATOM      8  C   UNL     1     -23.398   2.988   9.346  1.00  0.00     0.014 C 
BRANCH   7   9
ATOM      9  C   UNL     1     -22.062   4.980   8.684  1.00  0.00     0.044 C 
ATOM     10  O   UNL     1     -22.851   5.525   7.868  1.00  0.00    -0.550 OA
ATOM     11  O   UNL     1     -21.205   5.772   9.440  1.00  0.00    -0.550 OA
ENDBRANCH   7   9
ENDBRANCH   6   7
ENDBRANCH   5   6
ENDBRANCH   4   5
ENDBRANCH   3   4
ENDBRANCH   2   3
ENDBRANCH   1   2
BRANCH   1  12
ATOM     12  C   UNL     1     -20.254  -2.968   8.994  1.00  0.00     0.000 C 
BRANCH  12  13
ATOM     13  C   UNL     1     -20.567  -1.712   9.830  1.00  0.00    -0.000 C 
BRANCH  13  14
ATOM     14  C   UNL     1     -20.207  -1.817  11.324  1.00  0.00    -0.000 C 
BRANCH  14  15
ATOM     15  C   UNL     1     -21.389  -2.132  12.261  1.00  0.00    -0.000 C 
BRANCH  15  16
ATOM     16  C   UNL     1     -21.251  -1.512  13.669  1.00  0.00    -0.000 C 
BRANCH  16  17
ATOM     17  C   UNL     1     -22.209  -0.328  13.888  1.00  0.00    -0.000 C 
BRANCH  17  18
ATOM     18  C   UNL     1     -21.565   1.022  13.538  1.00  0.00    -0.003 C 
ATOM     19  C   UNL     1     -21.856   1.462  12.104  1.00  0.00     0.004 C 
ENDBRANCH  17  18
ENDBRANCH  16  17
ENDBRANCH  15  16
ENDBRANCH  14  15
ENDBRANCH  13  14
ENDBRANCH  12  13
ENDBRANCH   1  12
TORSDOF 14
ENDMDL
MODEL 9
REMARK VINA RESULT:    -0.707      3.097      5.714
REMARK INTER + INTRA:          -2.552
REMARK INTER:                  -1.513
REMARK INTRA:                  -1.040
REMARK UNBOUND:                -1.266
REMARK SMILES CCCCCCCCCCCCCC[C@H](C)C(=O)[O-]
REMARK SMILES IDX 9 1 10 2 11 3 12 4 13 5 14 6 15 7 16 8 17 9 18 10 19 11 8 12
REMARK SMILES IDX 7 13 6 14 5 15 4 16 3 17 2 18 1 19
REMARK H PARENT
REMARK Flexibility Score: inf
ROOT
ATOM      1  C   UNL     1     -20.616  -0.571   6.194  1.00  0.00     0.000 C 
ENDROOT
BRANCH   1   2
ATOM      2  C   UNL     1     -21.437   0.730   6.186  1.00  0.00     0.000 C 
BRANCH   2   3
ATOM      3  C   UNL     1     -21.009   1.703   7.299  1.00  0.00     0.000 C 
BRANCH   3   4
ATOM      4  C   UNL     1     -21.758   1.457   8.618  1.00  0.00     0.000 C 
BRANCH   4   5
ATOM      5  C   UNL     1     -22.448   2.720   9.155  1.00  0.00     0.001 C 
BRANCH   5   6
ATOM      6  C   UNL     1     -22.121   3.939   8.278  1.00  0.00     0.009 C 
BRANCH   6   7
ATOM      7  C   UNL     1     -22.192   5.263   9.068  1.00  0.00     0.032 C 
ATOM      8  C   UNL     1     -22.939   6.332   8.266  1.00  0.00     0.014 C 
BRANCH   7   9
ATOM      9  C   UNL     1     -20.819   5.760   9.434  1.00  0.00     0.044 C 
ATOM     10  O   UNL     1     -20.127   6.403   8.600  1.00  0.00    -0.550 OA
ATOM     11  O   UNL     1     -20.304   5.506  10.700  1.00  0.00    -0.550 OA
ENDBRANCH   7   9
ENDBRANCH   6   7
ENDBRANCH   5   6
ENDBRANCH   4   5
ENDBRANCH   3   4
ENDBRANCH   2   3
ENDBRANCH   1   2
BRANCH   1  12
ATOM     12  C   UNL     1     -21.360  -1.728   6.883  1.00  0.00     0.000 C 
BRANCH  12  13
ATOM     13  C   UNL     1     -20.558  -2.349   8.043  1.00  0.00    -0.000 C 
BRANCH  13  14
ATOM     14  C   UNL     1     -20.601  -1.555   9.363  1.00  0.00    -0.000 C 
BRANCH  14  15
ATOM     15  C   UNL     1     -20.926  -2.387  10.617  1.00  0.00    -0.000 C 
BRANCH  15  16
ATOM     16  C   UNL     1     -20.491  -1.719  11.940  1.00  0.00    -0.000 C 
BRANCH  16  17
ATOM     17  C   UNL     1     -21.656  -1.560  12.931  1.00  0.00    -0.000 C 
BRANCH  17  18
ATOM     18  C   UNL     1     -21.579  -0.245  13.723  1.00  0.00    -0.003 C 
ATOM     19  C   UNL     1     -21.808   0.986  12.848  1.00  0.00     0.004 C 
ENDBRANCH  17  18
ENDBRANCH  16  17
ENDBRANCH  15  16
ENDBRANCH  14  15
ENDBRANCH  13  14
ENDBRANCH  12  13
ENDBRANCH   1  12
TORSDOF 14
ENDMDL
