MODEL 1
REMARK VINA RESULT:    -7.557      0.000      0.000
REMARK INTER + INTRA:          -9.312
REMARK INTER:                  -9.103
REMARK INTRA:                  -0.209
REMARK UNBOUND:                -0.209
REMARK SMILES O=c1c(O)c(-c2ccc(O)c(O)c2)oc2cc(O)cc(O)c12
REMARK SMILES IDX 5 1 3 2 2 3 1 4 22 5 20 6 19 7 17 8 16 9 15 10 14 11 6 12
REMARK SMILES IDX 7 13 8 14 9 15 13 16 11 17 10 18 12 20 4 22 21 24 18 26
REMARK H PARENT 10 19 12 21 4 23 21 25 18 27
REMARK Flexibility Score: inf
ROOT
ATOM      1  C   UNL     1     -36.010 -28.867   7.089  1.00  0.00     0.180 A 
ATOM      2  C   UNL     1     -36.960 -28.593   8.089  1.00  0.00     0.208 A 
ATOM      3  C   UNL     1     -36.754 -27.496   8.941  1.00  0.00     0.238 A 
ATOM      4  O   UNL     1     -37.634 -27.223   9.798  1.00  0.00    -0.285 OA
ATOM      5  C   UNL     1     -35.595 -26.696   8.794  1.00  0.00     0.111 A 
ATOM      6  C   UNL     1     -35.265 -25.585   9.626  1.00  0.00     0.134 A 
ATOM      7  C   UNL     1     -34.159 -24.787   9.308  1.00  0.00     0.093 A 
ATOM      8  C   UNL     1     -33.334 -25.099   8.224  1.00  0.00     0.123 A 
ATOM      9  C   UNL     1     -33.614 -26.217   7.440  1.00  0.00     0.094 A 
ATOM     10  C   UNL     1     -34.731 -27.011   7.712  1.00  0.00     0.146 A 
ATOM     11  O   UNL     1     -34.967 -28.060   6.935  1.00  0.00    -0.452 OA
ENDROOT
BRANCH   1  12
ATOM     12  C   UNL     1     -36.145 -30.020   6.169  1.00  0.00     0.025 A 
ATOM     13  C   UNL     1     -37.146 -30.056   5.182  1.00  0.00     0.016 A 
ATOM     14  C   UNL     1     -37.269 -31.164   4.341  1.00  0.00     0.051 A 
ATOM     15  C   UNL     1     -36.405 -32.257   4.481  1.00  0.00     0.157 A 
ATOM     16  C   UNL     1     -35.294 -31.127   6.319  1.00  0.00     0.062 A 
ATOM     17  C   UNL     1     -35.417 -32.240   5.475  1.00  0.00     0.158 A 
BRANCH  15  18
ATOM     18  O   UNL     1     -36.523 -33.364   3.643  1.00  0.00    -0.504 OA
ATOM     19  H   UNL     1     -37.204 -34.093   3.822  1.00  0.00     0.293 HD
ENDBRANCH  15  18
BRANCH  17  20
ATOM     20  O   UNL     1     -34.563 -33.332   5.617  1.00  0.00    -0.504 OA
ATOM     21  H   UNL     1     -33.825 -33.519   4.949  1.00  0.00     0.293 HD
ENDBRANCH  17  20
ENDBRANCH   1  12
BRANCH   2  22
ATOM     22  O   UNL     1     -38.108 -29.381   8.203  1.00  0.00    -0.502 OA
ATOM     23  H   UNL     1     -38.127 -30.241   8.736  1.00  0.00     0.293 HD
ENDBRANCH   2  22
BRANCH   6  24
ATOM     24  O   UNL     1     -35.969 -25.242  10.784  1.00  0.00    -0.507 OA
ATOM     25  H   UNL     1     -36.971 -25.132  10.837  1.00  0.00     0.293 HD
ENDBRANCH   6  24
BRANCH   8  26
ATOM     26  O   UNL     1     -32.228 -24.309   7.923  1.00  0.00    -0.508 OA
ATOM     27  H   UNL     1     -32.234 -23.666   7.139  1.00  0.00     0.293 HD
ENDBRANCH   8  26
TORSDOF 6
ENDMDL
MODEL 2
REMARK VINA RESULT:    -7.366      2.534      6.983
REMARK INTER + INTRA:          -9.083
REMARK INTER:                  -8.833
REMARK INTRA:                  -0.249
REMARK UNBOUND:                -0.209
REMARK SMILES O=c1c(O)c(-c2ccc(O)c(O)c2)oc2cc(O)cc(O)c12
REMARK SMILES IDX 5 1 3 2 2 3 1 4 22 5 20 6 19 7 17 8 16 9 15 10 14 11 6 12
REMARK SMILES IDX 7 13 8 14 9 15 13 16 11 17 10 18 12 20 4 22 21 24 18 26
REMARK H PARENT 10 19 12 21 4 23 21 25 18 27
REMARK Flexibility Score: inf
ROOT
ATOM      1  C   UNL     1     -37.148 -29.863   7.538  1.00  0.00     0.180 A 
ATOM      2  C   UNL     1     -38.329 -30.596   7.327  1.00  0.00     0.208 A 
ATOM      3  C   UNL     1     -38.328 -31.633   6.381  1.00  0.00     0.238 A 
ATOM      4  O   UNL     1     -39.372 -32.320   6.236  1.00  0.00    -0.285 OA
ATOM      5  C   UNL     1     -37.152 -31.915   5.646  1.00  0.00     0.111 A 
ATOM      6  C   UNL     1     -37.048 -32.916   4.634  1.00  0.00     0.134 A 
ATOM      7  C   UNL     1     -35.800 -33.196   4.063  1.00  0.00     0.093 A 
ATOM      8  C   UNL     1     -34.665 -32.465   4.421  1.00  0.00     0.123 A 
ATOM      9  C   UNL     1     -34.767 -31.445   5.365  1.00  0.00     0.094 A 
ATOM     10  C   UNL     1     -35.991 -31.167   5.978  1.00  0.00     0.146 A 
ATOM     11  O   UNL     1     -36.043 -30.195   6.879  1.00  0.00    -0.452 OA
ENDROOT
BRANCH   1  12
ATOM     12  C   UNL     1     -37.077 -28.739   8.500  1.00  0.00     0.025 A 
ATOM     13  C   UNL     1     -36.442 -28.882   9.746  1.00  0.00     0.016 A 
ATOM     14  C   UNL     1     -36.408 -27.816  10.649  1.00  0.00     0.051 A 
ATOM     15  C   UNL     1     -37.019 -26.598  10.325  1.00  0.00     0.157 A 
ATOM     16  C   UNL     1     -37.706 -27.523   8.189  1.00  0.00     0.062 A 
ATOM     17  C   UNL     1     -37.671 -26.452   9.094  1.00  0.00     0.158 A 
BRANCH  15  18
ATOM     18  O   UNL     1     -36.986 -25.531  11.221  1.00  0.00    -0.504 OA
ATOM     19  H   UNL     1     -36.111 -25.117  11.520  1.00  0.00     0.293 HD
ENDBRANCH  15  18
BRANCH  17  20
ATOM     20  O   UNL     1     -38.285 -25.241   8.777  1.00  0.00    -0.504 OA
ATOM     21  H   UNL     1     -38.984 -25.176   8.048  1.00  0.00     0.293 HD
ENDBRANCH  17  20
ENDBRANCH   1  12
BRANCH   2  22
ATOM     22  O   UNL     1     -39.473 -30.316   8.080  1.00  0.00    -0.502 OA
ATOM     23  H   UNL     1     -39.908 -31.001   8.684  1.00  0.00     0.293 HD
ENDBRANCH   2  22
BRANCH   6  24
ATOM     24  O   UNL     1     -38.137 -33.640   4.138  1.00  0.00    -0.507 OA
ATOM     25  H   UNL     1     -38.425 -34.548   4.473  1.00  0.00     0.293 HD
ENDBRANCH   6  24
BRANCH   8  26
ATOM     26  O   UNL     1     -33.430 -32.739   3.838  1.00  0.00    -0.508 OA
ATOM     27  H   UNL     1     -32.653 -33.093   4.384  1.00  0.00     0.293 HD
ENDBRANCH   8  26
TORSDOF 6
ENDMDL
MODEL 3
REMARK VINA RESULT:    -7.356      1.185      2.872
REMARK INTER + INTRA:          -9.071
REMARK INTER:                  -8.912
REMARK INTRA:                  -0.159
REMARK UNBOUND:                -0.209
REMARK SMILES O=c1c(O)c(-c2ccc(O)c(O)c2)oc2cc(O)cc(O)c12
REMARK SMILES IDX 5 1 3 2 2 3 1 4 22 5 20 6 19 7 17 8 16 9 15 10 14 11 6 12
REMARK SMILES IDX 7 13 8 14 9 15 13 16 11 17 10 18 12 20 4 22 21 24 18 26
REMARK H PARENT 10 19 12 21 4 23 21 25 18 27
REMARK Flexibility Score: inf
ROOT
ATOM      1  C   UNL     1     -35.125 -29.023   6.573  1.00  0.00     0.180 A 
ATOM      2  C   UNL     1     -33.916 -28.380   6.255  1.00  0.00     0.208 A 
ATOM      3  C   UNL     1     -33.563 -27.211   6.949  1.00  0.00     0.238 A 
ATOM      4  O   UNL     1     -32.454 -26.671   6.699  1.00  0.00    -0.285 OA
ATOM      5  C   UNL     1     -34.430 -26.691   7.940  1.00  0.00     0.111 A 
ATOM      6  C   UNL     1     -34.193 -25.492   8.677  1.00  0.00     0.134 A 
ATOM      7  C   UNL     1     -35.055 -25.142   9.724  1.00  0.00     0.093 A 
ATOM      8  C   UNL     1     -36.181 -25.914  10.017  1.00  0.00     0.123 A 
ATOM      9  C   UNL     1     -36.455 -27.054   9.265  1.00  0.00     0.094 A 
ATOM     10  C   UNL     1     -35.594 -27.448   8.237  1.00  0.00     0.146 A 
ATOM     11  O   UNL     1     -35.885 -28.547   7.552  1.00  0.00    -0.452 OA
ENDROOT
BRANCH   1  12
ATOM     12  C   UNL     1     -35.577 -30.245   5.869  1.00  0.00     0.025 A 
ATOM     13  C   UNL     1     -36.748 -30.250   5.090  1.00  0.00     0.016 A 
ATOM     14  C   UNL     1     -37.169 -31.420   4.454  1.00  0.00     0.051 A 
ATOM     15  C   UNL     1     -36.435 -32.605   4.597  1.00  0.00     0.157 A 
ATOM     16  C   UNL     1     -34.856 -31.440   6.026  1.00  0.00     0.062 A 
ATOM     17  C   UNL     1     -35.278 -32.615   5.387  1.00  0.00     0.158 A 
BRANCH  15  18
ATOM     18  O   UNL     1     -36.851 -33.774   3.963  1.00  0.00    -0.504 OA
ATOM     19  H   UNL     1     -36.814 -34.671   4.432  1.00  0.00     0.293 HD
ENDBRANCH  15  18
BRANCH  17  20
ATOM     20  O   UNL     1     -34.553 -33.797   5.533  1.00  0.00    -0.504 OA
ATOM     21  H   UNL     1     -34.859 -34.662   5.105  1.00  0.00     0.293 HD
ENDBRANCH  17  20
ENDBRANCH   1  12
BRANCH   2  22
ATOM     22  O   UNL     1     -33.064 -28.923   5.290  1.00  0.00    -0.502 OA
ATOM     23  H   UNL     1     -32.591 -28.353   4.600  1.00  0.00     0.293 HD
ENDBRANCH   2  22
BRANCH   6  24
ATOM     24  O   UNL     1     -33.149 -24.603   8.404  1.00  0.00    -0.507 OA
ATOM     25  H   UNL     1     -33.272 -23.638   8.131  1.00  0.00     0.293 HD
ENDBRANCH   6  24
BRANCH   8  26
ATOM     26  O   UNL     1     -37.042 -25.551  11.051  1.00  0.00    -0.508 OA
ATOM     27  H   UNL     1     -37.093 -24.595  11.387  1.00  0.00     0.293 HD
ENDBRANCH   8  26
TORSDOF 6
ENDMDL
MODEL 4
REMARK VINA RESULT:    -7.265      1.128      1.766
REMARK INTER + INTRA:          -8.961
REMARK INTER:                  -8.715
REMARK INTRA:                  -0.246
REMARK UNBOUND:                -0.209
REMARK SMILES O=c1c(O)c(-c2ccc(O)c(O)c2)oc2cc(O)cc(O)c12
REMARK SMILES IDX 5 1 3 2 2 3 1 4 22 5 20 6 19 7 17 8 16 9 15 10 14 11 6 12
REMARK SMILES IDX 7 13 8 14 9 15 13 16 11 17 10 18 12 20 4 22 21 24 18 26
REMARK H PARENT 10 19 12 21 4 23 21 25 18 27
REMARK Flexibility Score: inf
ROOT
ATOM      1  C   UNL     1     -35.594 -28.152   7.701  1.00  0.00     0.180 A 
ATOM      2  C   UNL     1     -36.484 -27.812   8.734  1.00  0.00     0.208 A 
ATOM      3  C   UNL     1     -36.221 -26.674   9.513  1.00  0.00     0.238 A 
ATOM      4  O   UNL     1     -37.051 -26.343  10.400  1.00  0.00    -0.285 OA
ATOM      5  C   UNL     1     -35.064 -25.898   9.260  1.00  0.00     0.111 A 
ATOM      6  C   UNL     1     -34.678 -24.748  10.012  1.00  0.00     0.134 A 
ATOM      7  C   UNL     1     -33.583 -23.983   9.592  1.00  0.00     0.093 A 
ATOM      8  C   UNL     1     -32.822 -24.363   8.484  1.00  0.00     0.123 A 
ATOM      9  C   UNL     1     -33.155 -25.518   7.778  1.00  0.00     0.094 A 
ATOM     10  C   UNL     1     -34.263 -26.282   8.153  1.00  0.00     0.146 A 
ATOM     11  O   UNL     1     -34.552 -27.368   7.446  1.00  0.00    -0.452 OA
ENDROOT
BRANCH   1  12
ATOM     12  C   UNL     1     -35.789 -29.350   6.853  1.00  0.00     0.025 A 
ATOM     13  C   UNL     1     -34.968 -30.483   6.987  1.00  0.00     0.016 A 
ATOM     14  C   UNL     1     -35.155 -31.594   6.160  1.00  0.00     0.051 A 
ATOM     15  C   UNL     1     -36.155 -31.584   5.180  1.00  0.00     0.157 A 
ATOM     16  C   UNL     1     -36.777 -29.337   5.855  1.00  0.00     0.062 A 
ATOM     17  C   UNL     1     -36.966 -30.452   5.025  1.00  0.00     0.158 A 
BRANCH  15  18
ATOM     18  O   UNL     1     -36.347 -32.690   4.354  1.00  0.00    -0.504 OA
ATOM     19  H   UNL     1     -35.609 -33.367   4.196  1.00  0.00     0.293 HD
ENDBRANCH  15  18
BRANCH  17  20
ATOM     20  O   UNL     1     -37.956 -30.441   4.044  1.00  0.00    -0.504 OA
ATOM     21  H   UNL     1     -37.962 -29.750   3.304  1.00  0.00     0.293 HD
ENDBRANCH  17  20
ENDBRANCH   1  12
BRANCH   2  22
ATOM     22  O   UNL     1     -37.633 -28.578   8.952  1.00  0.00    -0.502 OA
ATOM     23  H   UNL     1     -38.222 -28.454   9.765  1.00  0.00     0.293 HD
ENDBRANCH   2  22
BRANCH   6  24
ATOM     24  O   UNL     1     -35.314 -24.335  11.186  1.00  0.00    -0.507 OA
ATOM     25  H   UNL     1     -35.668 -24.957  11.898  1.00  0.00     0.293 HD
ENDBRANCH   6  24
BRANCH   8  26
ATOM     26  O   UNL     1     -31.725 -23.605   8.081  1.00  0.00    -0.508 OA
ATOM     27  H   UNL     1     -31.256 -22.971   8.718  1.00  0.00     0.293 HD
ENDBRANCH   8  26
TORSDOF 6
ENDMDL
MODEL 5
REMARK VINA RESULT:    -7.124      2.698      3.532
REMARK INTER + INTRA:          -8.791
REMARK INTER:                  -8.483
REMARK INTRA:                  -0.308
REMARK UNBOUND:                -0.209
REMARK SMILES O=c1c(O)c(-c2ccc(O)c(O)c2)oc2cc(O)cc(O)c12
REMARK SMILES IDX 5 1 3 2 2 3 1 4 22 5 20 6 19 7 17 8 16 9 15 10 14 11 6 12
REMARK SMILES IDX 7 13 8 14 9 15 13 16 11 17 10 18 12 20 4 22 21 24 18 26
REMARK H PARENT 10 19 12 21 4 23 21 25 18 27
REMARK Flexibility Score: inf
ROOT
ATOM      1  C   UNL     1     -36.566 -29.247   8.327  1.00  0.00     0.180 A 
ATOM      2  C   UNL     1     -36.813 -27.986   8.898  1.00  0.00     0.208 A 
ATOM      3  C   UNL     1     -35.888 -26.951   8.690  1.00  0.00     0.238 A 
ATOM      4  O   UNL     1     -36.141 -25.810   9.157  1.00  0.00    -0.285 OA
ATOM      5  C   UNL     1     -34.719 -27.193   7.928  1.00  0.00     0.111 A 
ATOM      6  C   UNL     1     -33.694 -26.229   7.687  1.00  0.00     0.134 A 
ATOM      7  C   UNL     1     -32.646 -26.539   6.811  1.00  0.00     0.093 A 
ATOM      8  C   UNL     1     -32.552 -27.800   6.218  1.00  0.00     0.123 A 
ATOM      9  C   UNL     1     -33.516 -28.768   6.494  1.00  0.00     0.094 A 
ATOM     10  C   UNL     1     -34.592 -28.477   7.336  1.00  0.00     0.146 A 
ATOM     11  O   UNL     1     -35.494 -29.424   7.563  1.00  0.00    -0.452 OA
ENDROOT
BRANCH   1  12
ATOM     12  C   UNL     1     -37.482 -30.394   8.521  1.00  0.00     0.025 A 
ATOM     13  C   UNL     1     -38.631 -30.556   7.727  1.00  0.00     0.016 A 
ATOM     14  C   UNL     1     -39.494 -31.633   7.944  1.00  0.00     0.051 A 
ATOM     15  C   UNL     1     -39.230 -32.555   8.964  1.00  0.00     0.157 A 
ATOM     16  C   UNL     1     -37.233 -31.310   9.556  1.00  0.00     0.062 A 
ATOM     17  C   UNL     1     -38.099 -32.392   9.774  1.00  0.00     0.158 A 
BRANCH  15  18
ATOM     18  O   UNL     1     -40.088 -33.632   9.183  1.00  0.00    -0.504 OA
ATOM     19  H   UNL     1     -40.099 -34.433   8.564  1.00  0.00     0.293 HD
ENDBRANCH  15  18
BRANCH  17  20
ATOM     20  O   UNL     1     -37.842 -33.306  10.794  1.00  0.00    -0.504 OA
ATOM     21  H   UNL     1     -36.899 -33.603  11.015  1.00  0.00     0.293 HD
ENDBRANCH  17  20
ENDBRANCH   1  12
BRANCH   2  22
ATOM     22  O   UNL     1     -37.984 -27.763   9.627  1.00  0.00    -0.502 OA
ATOM     23  H   UNL     1     -38.871 -28.176   9.371  1.00  0.00     0.293 HD
ENDBRANCH   2  22
BRANCH   6  24
ATOM     24  O   UNL     1     -33.644 -24.974   8.300  1.00  0.00    -0.507 OA
ATOM     25  H   UNL     1     -32.796 -24.508   8.589  1.00  0.00     0.293 HD
ENDBRANCH   6  24
BRANCH   8  26
ATOM     26  O   UNL     1     -31.498 -28.105   5.360  1.00  0.00    -0.508 OA
ATOM     27  H   UNL     1     -31.039 -27.388   4.810  1.00  0.00     0.293 HD
ENDBRANCH   8  26
TORSDOF 6
ENDMDL
MODEL 6
REMARK VINA RESULT:    -6.871      2.391      7.631
REMARK INTER + INTRA:          -8.487
REMARK INTER:                  -8.157
REMARK INTRA:                  -0.330
REMARK UNBOUND:                -0.209
REMARK SMILES O=c1c(O)c(-c2ccc(O)c(O)c2)oc2cc(O)cc(O)c12
REMARK SMILES IDX 5 1 3 2 2 3 1 4 22 5 20 6 19 7 17 8 16 9 15 10 14 11 6 12
REMARK SMILES IDX 7 13 8 14 9 15 13 16 11 17 10 18 12 20 4 22 21 24 18 26
REMARK H PARENT 10 19 12 21 4 23 21 25 18 27
REMARK Flexibility Score: inf
ROOT
ATOM      1  C   UNL     1     -36.980 -29.663   7.180  1.00  0.00     0.180 A 
ATOM      2  C   UNL     1     -35.910 -29.835   6.285  1.00  0.00     0.208 A 
ATOM      3  C   UNL     1     -35.970 -30.873   5.342  1.00  0.00     0.238 A 
ATOM      4  O   UNL     1     -35.035 -30.988   4.508  1.00  0.00    -0.285 OA
ATOM      5  C   UNL     1     -37.092 -31.737   5.316  1.00  0.00     0.111 A 
ATOM      6  C   UNL     1     -37.241 -32.846   4.430  1.00  0.00     0.134 A 
ATOM      7  C   UNL     1     -38.450 -33.553   4.405  1.00  0.00     0.093 A 
ATOM      8  C   UNL     1     -39.490 -33.231   5.279  1.00  0.00     0.123 A 
ATOM      9  C   UNL     1     -39.333 -32.188   6.189  1.00  0.00     0.094 A 
ATOM     10  C   UNL     1     -38.152 -31.442   6.213  1.00  0.00     0.146 A 
ATOM     11  O   UNL     1     -38.047 -30.449   7.088  1.00  0.00    -0.452 OA
ENDROOT
BRANCH   1  12
ATOM     12  C   UNL     1     -36.978 -28.607   8.219  1.00  0.00     0.025 A 
ATOM     13  C   UNL     1     -36.366 -28.811   9.469  1.00  0.00     0.016 A 
ATOM     14  C   UNL     1     -36.397 -27.810  10.442  1.00  0.00     0.051 A 
ATOM     15  C   UNL     1     -37.050 -26.597  10.188  1.00  0.00     0.157 A 
ATOM     16  C   UNL     1     -37.649 -27.398   7.976  1.00  0.00     0.062 A 
ATOM     17  C   UNL     1     -37.680 -26.392   8.953  1.00  0.00     0.158 A 
BRANCH  15  18
ATOM     18  O   UNL     1     -37.082 -25.595  11.155  1.00  0.00    -0.504 OA
ATOM     19  H   UNL     1     -37.249 -24.627  10.909  1.00  0.00     0.293 HD
ENDBRANCH  15  18
BRANCH  17  20
ATOM     20  O   UNL     1     -38.335 -25.187   8.705  1.00  0.00    -0.504 OA
ATOM     21  H   UNL     1     -39.299 -25.042   8.979  1.00  0.00     0.293 HD
ENDBRANCH  17  20
ENDBRANCH   1  12
BRANCH   2  22
ATOM     22  O   UNL     1     -34.822 -28.958   6.313  1.00  0.00    -0.502 OA
ATOM     23  H   UNL     1     -33.955 -29.151   5.830  1.00  0.00     0.293 HD
ENDBRANCH   2  22
BRANCH   6  24
ATOM     24  O   UNL     1     -36.230 -33.308   3.582  1.00  0.00    -0.507 OA
ATOM     25  H   UNL     1     -36.324 -33.420   2.583  1.00  0.00     0.293 HD
ENDBRANCH   6  24
BRANCH   8  26
ATOM     26  O   UNL     1     -40.684 -33.949   5.258  1.00  0.00    -0.508 OA
ATOM     27  H   UNL     1     -41.022 -34.439   6.078  1.00  0.00     0.293 HD
ENDBRANCH   8  26
TORSDOF 6
ENDMDL
MODEL 7
REMARK VINA RESULT:    -6.750     16.554     17.536
REMARK INTER + INTRA:          -8.340
REMARK INTER:                  -8.038
REMARK INTRA:                  -0.302
REMARK UNBOUND:                -0.209
REMARK SMILES O=c1c(O)c(-c2ccc(O)c(O)c2)oc2cc(O)cc(O)c12
REMARK SMILES IDX 5 1 3 2 2 3 1 4 22 5 20 6 19 7 17 8 16 9 15 10 14 11 6 12
REMARK SMILES IDX 7 13 8 14 9 15 13 16 11 17 10 18 12 20 4 22 21 24 18 26
REMARK H PARENT 10 19 12 21 4 23 21 25 18 27
REMARK Flexibility Score: inf
ROOT
ATOM      1  C   UNL     1     -46.095 -20.647  -3.999  1.00  0.00     0.180 A 
ATOM      2  C   UNL     1     -45.137 -19.985  -4.787  1.00  0.00     0.208 A 
ATOM      3  C   UNL     1     -44.406 -18.926  -4.224  1.00  0.00     0.238 A 
ATOM      4  O   UNL     1     -43.513 -18.373  -4.916  1.00  0.00    -0.285 OA
ATOM      5  C   UNL     1     -44.652 -18.533  -2.886  1.00  0.00     0.111 A 
ATOM      6  C   UNL     1     -43.999 -17.449  -2.227  1.00  0.00     0.134 A 
ATOM      7  C   UNL     1     -44.227 -17.232  -0.862  1.00  0.00     0.093 A 
ATOM      8  C   UNL     1     -45.133 -18.020  -0.149  1.00  0.00     0.123 A 
ATOM      9  C   UNL     1     -45.821 -19.043  -0.798  1.00  0.00     0.094 A 
ATOM     10  C   UNL     1     -45.588 -19.306  -2.151  1.00  0.00     0.146 A 
ATOM     11  O   UNL     1     -46.256 -20.298  -2.728  1.00  0.00    -0.452 OA
ENDROOT
BRANCH   1  12
ATOM     12  C   UNL     1     -46.922 -21.755  -4.529  1.00  0.00     0.025 A 
ATOM     13  C   UNL     1     -46.428 -23.070  -4.596  1.00  0.00     0.016 A 
ATOM     14  C   UNL     1     -47.217 -24.096  -5.122  1.00  0.00     0.051 A 
ATOM     15  C   UNL     1     -48.504 -23.822  -5.601  1.00  0.00     0.157 A 
ATOM     16  C   UNL     1     -48.205 -21.482  -5.029  1.00  0.00     0.062 A 
ATOM     17  C   UNL     1     -48.999 -22.511  -5.557  1.00  0.00     0.158 A 
BRANCH  15  18
ATOM     18  O   UNL     1     -49.296 -24.842  -6.125  1.00  0.00    -0.504 OA
ATOM     19  H   UNL     1     -50.024 -25.283  -5.575  1.00  0.00     0.293 HD
ENDBRANCH  15  18
BRANCH  17  20
ATOM     20  O   UNL     1     -50.277 -22.239  -6.040  1.00  0.00    -0.504 OA
ATOM     21  H   UNL     1     -50.438 -22.006  -7.013  1.00  0.00     0.293 HD
ENDBRANCH  17  20
ENDBRANCH   1  12
BRANCH   2  22
ATOM     22  O   UNL     1     -44.894 -20.403  -6.098  1.00  0.00    -0.502 OA
ATOM     23  H   UNL     1     -44.672 -19.756  -6.843  1.00  0.00     0.293 HD
ENDBRANCH   2  22
BRANCH   6  24
ATOM     24  O   UNL     1     -43.146 -16.546  -2.868  1.00  0.00    -0.507 OA
ATOM     25  H   UNL     1     -42.956 -15.607  -2.548  1.00  0.00     0.293 HD
ENDBRANCH   6  24
BRANCH   8  26
ATOM     26  O   UNL     1     -45.366 -17.788   1.205  1.00  0.00    -0.508 OA
ATOM     27  H   UNL     1     -44.751 -18.161   1.919  1.00  0.00     0.293 HD
ENDBRANCH   8  26
TORSDOF 6
ENDMDL
MODEL 8
REMARK VINA RESULT:    -6.599     15.539     17.380
REMARK INTER + INTRA:          -8.159
REMARK INTER:                  -7.836
REMARK INTRA:                  -0.323
REMARK UNBOUND:                -0.209
REMARK SMILES O=c1c(O)c(-c2ccc(O)c(O)c2)oc2cc(O)cc(O)c12
REMARK SMILES IDX 5 1 3 2 2 3 1 4 22 5 20 6 19 7 17 8 16 9 15 10 14 11 6 12
REMARK SMILES IDX 7 13 8 14 9 15 13 16 11 17 10 18 12 20 4 22 21 24 18 26
REMARK H PARENT 10 19 12 21 4 23 21 25 18 27
REMARK Flexibility Score: inf
ROOT
ATOM      1  C   UNL     1     -45.505 -18.789  -0.198  1.00  0.00     0.180 A 
ATOM      2  C   UNL     1     -46.304 -19.915   0.066  1.00  0.00     0.208 A 
ATOM      3  C   UNL     1     -46.730 -20.715  -1.007  1.00  0.00     0.238 A 
ATOM      4  O   UNL     1     -47.400 -21.751  -0.760  1.00  0.00    -0.285 OA
ATOM      5  C   UNL     1     -46.365 -20.371  -2.331  1.00  0.00     0.111 A 
ATOM      6  C   UNL     1     -46.774 -21.086  -3.497  1.00  0.00     0.134 A 
ATOM      7  C   UNL     1     -46.247 -20.732  -4.745  1.00  0.00     0.093 A 
ATOM      8  C   UNL     1     -45.377 -19.647  -4.878  1.00  0.00     0.123 A 
ATOM      9  C   UNL     1     -45.018 -18.905  -3.754  1.00  0.00     0.094 A 
ATOM     10  C   UNL     1     -45.500 -19.257  -2.490  1.00  0.00     0.146 A 
ATOM     11  O   UNL     1     -45.125 -18.530  -1.444  1.00  0.00    -0.452 OA
ENDROOT
BRANCH   1  12
ATOM     12  C   UNL     1     -45.038 -17.885   0.877  1.00  0.00     0.025 A 
ATOM     13  C   UNL     1     -43.816 -18.104   1.538  1.00  0.00     0.016 A 
ATOM     14  C   UNL     1     -43.406 -17.251   2.566  1.00  0.00     0.051 A 
ATOM     15  C   UNL     1     -44.215 -16.177   2.957  1.00  0.00     0.157 A 
ATOM     16  C   UNL     1     -45.854 -16.819   1.287  1.00  0.00     0.062 A 
ATOM     17  C   UNL     1     -45.443 -15.962   2.318  1.00  0.00     0.158 A 
BRANCH  15  18
ATOM     18  O   UNL     1     -43.809 -15.323   3.981  1.00  0.00    -0.504 OA
ATOM     19  H   UNL     1     -43.144 -14.577   3.816  1.00  0.00     0.293 HD
ENDBRANCH  15  18
BRANCH  17  20
ATOM     20  O   UNL     1     -46.250 -14.896   2.715  1.00  0.00    -0.504 OA
ATOM     21  H   UNL     1     -45.854 -14.037   3.077  1.00  0.00     0.293 HD
ENDBRANCH  17  20
ENDBRANCH   1  12
BRANCH   2  22
ATOM     22  O   UNL     1     -46.634 -20.250   1.382  1.00  0.00    -0.502 OA
ATOM     23  H   UNL     1     -46.287 -21.086   1.833  1.00  0.00     0.293 HD
ENDBRANCH   2  22
BRANCH   6  24
ATOM     24  O   UNL     1     -47.709 -22.125  -3.487  1.00  0.00    -0.507 OA
ATOM     25  H   UNL     1     -48.212 -22.438  -2.669  1.00  0.00     0.293 HD
ENDBRANCH   6  24
BRANCH   8  26
ATOM     26  O   UNL     1     -44.868 -19.292  -6.125  1.00  0.00    -0.508 OA
ATOM     27  H   UNL     1     -43.933 -19.558  -6.411  1.00  0.00     0.293 HD
ENDBRANCH   8  26
TORSDOF 6
ENDMDL
MODEL 9
REMARK VINA RESULT:    -6.578      2.438      3.645
REMARK INTER + INTRA:          -8.133
REMARK INTER:                  -8.159
REMARK INTRA:                   0.026
REMARK UNBOUND:                -0.209
REMARK SMILES O=c1c(O)c(-c2ccc(O)c(O)c2)oc2cc(O)cc(O)c12
REMARK SMILES IDX 5 1 3 2 2 3 1 4 22 5 20 6 19 7 17 8 16 9 15 10 14 11 6 12
REMARK SMILES IDX 7 13 8 14 9 15 13 16 11 17 10 18 12 20 4 22 21 24 18 26
REMARK H PARENT 10 19 12 21 4 23 21 25 18 27
REMARK Flexibility Score: inf
ROOT
ATOM      1  C   UNL     1     -36.806 -29.651   7.377  1.00  0.00     0.180 A 
ATOM      2  C   UNL     1     -35.699 -29.613   6.511  1.00  0.00     0.208 A 
ATOM      3  C   UNL     1     -34.781 -28.556   6.625  1.00  0.00     0.238 A 
ATOM      4  O   UNL     1     -33.764 -28.556   5.884  1.00  0.00    -0.285 OA
ATOM      5  C   UNL     1     -34.989 -27.543   7.592  1.00  0.00     0.111 A 
ATOM      6  C   UNL     1     -34.145 -26.405   7.768  1.00  0.00     0.134 A 
ATOM      7  C   UNL     1     -34.374 -25.535   8.841  1.00  0.00     0.093 A 
ATOM      8  C   UNL     1     -35.456 -25.726   9.705  1.00  0.00     0.123 A 
ATOM      9  C   UNL     1     -36.320 -26.800   9.505  1.00  0.00     0.094 A 
ATOM     10  C   UNL     1     -36.096 -27.705   8.465  1.00  0.00     0.146 A 
ATOM     11  O   UNL     1     -36.938 -28.721   8.316  1.00  0.00    -0.452 OA
ENDROOT
BRANCH   1  12
ATOM     12  C   UNL     1     -37.829 -30.718   7.302  1.00  0.00     0.025 A 
ATOM     13  C   UNL     1     -38.380 -31.119   6.071  1.00  0.00     0.016 A 
ATOM     14  C   UNL     1     -39.362 -32.111   6.026  1.00  0.00     0.051 A 
ATOM     15  C   UNL     1     -39.818 -32.708   7.208  1.00  0.00     0.157 A 
ATOM     16  C   UNL     1     -38.305 -31.305   8.486  1.00  0.00     0.062 A 
ATOM     17  C   UNL     1     -39.290 -32.302   8.441  1.00  0.00     0.158 A 
BRANCH  15  18
ATOM     18  O   UNL     1     -40.796 -33.700   7.168  1.00  0.00    -0.504 OA
ATOM     19  H   UNL     1     -40.834 -34.434   7.864  1.00  0.00     0.293 HD
ENDBRANCH  15  18
BRANCH  17  20
ATOM     20  O   UNL     1     -39.751 -32.892   9.617  1.00  0.00    -0.504 OA
ATOM     21  H   UNL     1     -39.242 -33.644  10.067  1.00  0.00     0.293 HD
ENDBRANCH  17  20
ENDBRANCH   1  12
BRANCH   2  22
ATOM     22  O   UNL     1     -35.500 -30.635   5.579  1.00  0.00    -0.502 OA
ATOM     23  H   UNL     1     -36.261 -31.194   5.215  1.00  0.00     0.293 HD
ENDBRANCH   2  22
BRANCH   6  24
ATOM     24  O   UNL     1     -33.095 -26.072   6.909  1.00  0.00    -0.507 OA
ATOM     25  H   UNL     1     -32.167 -25.811   7.209  1.00  0.00     0.293 HD
ENDBRANCH   6  24
BRANCH   8  26
ATOM     26  O   UNL     1     -35.685 -24.847  10.761  1.00  0.00    -0.508 OA
ATOM     27  H   UNL     1     -36.494 -24.236  10.776  1.00  0.00     0.293 HD
ENDBRANCH   8  26
TORSDOF 6
ENDMDL
