MODEL 1
REMARK VINA RESULT:    -3.493      0.000      0.000
REMARK INTER + INTRA:          -4.747
REMARK INTER:                  -4.310
REMARK INTRA:                  -0.437
REMARK UNBOUND:                -0.437
REMARK SMILES C=CC[C@@H](C)C(=O)CC
REMARK SMILES IDX 4 1 5 2 6 3 7 4 8 5 9 6 3 7 2 8 1 9
REMARK H PARENT
REMARK Flexibility Score: inf
ROOT
ATOM      1  C   UNL     1      16.773  18.046  16.892  1.00  0.00     0.057 C 
ATOM      2  C   UNL     1      17.392  17.324  15.687  1.00  0.00     0.016 C 
ENDROOT
BRANCH   1   3
ATOM      3  C   UNL     1      17.714  19.102  17.435  1.00  0.00     0.135 C 
ATOM      4  O   UNL     1      17.976  20.089  16.762  1.00  0.00    -0.299 OA
BRANCH   3   5
ATOM      5  C   UNL     1      18.340  18.959  18.797  1.00  0.00     0.072 C 
ATOM      6  C   UNL     1      17.947  17.631  19.436  1.00  0.00     0.012 C 
ENDBRANCH   3   5
ENDBRANCH   1   3
BRANCH   1   7
ATOM      7  C   UNL     1      15.377  18.627  16.579  1.00  0.00     0.038 C 
BRANCH   7   8
ATOM      8  C   UNL     1      14.247  17.832  17.181  1.00  0.00    -0.034 C 
ATOM      9  C   UNL     1      14.446  16.967  18.181  1.00  0.00     0.004 C 
ENDBRANCH   7   8
ENDBRANCH   1   7
TORSDOF 4
ENDMDL
MODEL 2
REMARK VINA RESULT:    -3.443      1.841      3.640
REMARK INTER + INTRA:          -4.685
REMARK INTER:                  -4.224
REMARK INTRA:                  -0.461
REMARK UNBOUND:                -0.437
REMARK SMILES C=CC[C@@H](C)C(=O)CC
REMARK SMILES IDX 4 1 5 2 6 3 7 4 8 5 9 6 3 7 2 8 1 9
REMARK H PARENT
REMARK Flexibility Score: inf
ROOT
ATOM      1  C   UNL     1      17.428  18.384  17.493  1.00  0.00     0.057 C 
ATOM      2  C   UNL     1      17.928  17.913  18.866  1.00  0.00     0.016 C 
ENDROOT
BRANCH   1   3
ATOM      3  C   UNL     1      16.187  17.620  17.076  1.00  0.00     0.135 C 
ATOM      4  O   UNL     1      15.171  17.690  17.753  1.00  0.00    -0.299 OA
BRANCH   3   5
ATOM      5  C   UNL     1      16.180  16.768  15.834  1.00  0.00     0.072 C 
ATOM      6  C   UNL     1      17.515  16.865  15.104  1.00  0.00     0.012 C 
ENDBRANCH   3   5
ENDBRANCH   1   3
BRANCH   1   7
ATOM      7  C   UNL     1      17.208  19.911  17.437  1.00  0.00     0.038 C 
BRANCH   7   8
ATOM      8  C   UNL     1      17.416  20.497  16.063  1.00  0.00    -0.034 C 
ATOM      9  C   UNL     1      16.400  20.687  15.215  1.00  0.00     0.004 C 
ENDBRANCH   7   8
ENDBRANCH   1   7
TORSDOF 4
ENDMDL
MODEL 3
REMARK VINA RESULT:    -3.364      1.810      2.963
REMARK INTER + INTRA:          -4.588
REMARK INTER:                  -4.275
REMARK INTRA:                  -0.313
REMARK UNBOUND:                -0.437
REMARK SMILES C=CC[C@@H](C)C(=O)CC
REMARK SMILES IDX 4 1 5 2 6 3 7 4 8 5 9 6 3 7 2 8 1 9
REMARK H PARENT
REMARK Flexibility Score: inf
ROOT
ATOM      1  C   UNL     1      15.729  18.484  17.240  1.00  0.00     0.057 C 
ATOM      2  C   UNL     1      14.543  17.542  17.493  1.00  0.00     0.016 C 
ENDROOT
BRANCH   1   3
ATOM      3  C   UNL     1      17.047  17.758  17.415  1.00  0.00     0.135 C 
ATOM      4  O   UNL     1      17.453  17.011  16.535  1.00  0.00    -0.299 OA
BRANCH   3   5
ATOM      5  C   UNL     1      17.873  17.936  18.661  1.00  0.00     0.072 C 
ATOM      6  C   UNL     1      18.381  19.369  18.773  1.00  0.00     0.012 C 
ENDBRANCH   3   5
ENDBRANCH   1   3
BRANCH   1   7
ATOM      7  C   UNL     1      15.639  19.190  15.870  1.00  0.00     0.038 C 
BRANCH   7   8
ATOM      8  C   UNL     1      16.509  20.418  15.770  1.00  0.00    -0.034 C 
ATOM      9  C   UNL     1      16.648  21.093  14.625  1.00  0.00     0.004 C 
ENDBRANCH   7   8
ENDBRANCH   1   7
TORSDOF 4
ENDMDL
MODEL 4
REMARK VINA RESULT:    -3.340      1.854      3.578
REMARK INTER + INTRA:          -4.559
REMARK INTER:                  -4.069
REMARK INTRA:                  -0.489
REMARK UNBOUND:                -0.437
REMARK SMILES C=CC[C@@H](C)C(=O)CC
REMARK SMILES IDX 4 1 5 2 6 3 7 4 8 5 9 6 3 7 2 8 1 9
REMARK H PARENT
REMARK Flexibility Score: inf
ROOT
ATOM      1  C   UNL     1      16.127  20.135  16.206  1.00  0.00     0.057 C 
ATOM      2  C   UNL     1      16.866  20.567  14.932  1.00  0.00     0.016 C 
ENDROOT
BRANCH   1   3
ATOM      3  C   UNL     1      15.784  18.659  16.162  1.00  0.00     0.135 C 
ATOM      4  O   UNL     1      15.046  18.178  17.010  1.00  0.00    -0.299 OA
BRANCH   3   5
ATOM      5  C   UNL     1      16.341  17.765  15.085  1.00  0.00     0.072 C 
ATOM      6  C   UNL     1      17.259  16.705  15.684  1.00  0.00     0.012 C 
ENDBRANCH   3   5
ENDBRANCH   1   3
BRANCH   1   7
ATOM      7  C   UNL     1      16.899  20.505  17.491  1.00  0.00     0.038 C 
BRANCH   7   8
ATOM      8  C   UNL     1      18.176  19.725  17.670  1.00  0.00    -0.034 C 
ATOM      9  C   UNL     1      18.414  19.000  18.767  1.00  0.00     0.004 C 
ENDBRANCH   7   8
ENDBRANCH   1   7
TORSDOF 4
ENDMDL
MODEL 5
REMARK VINA RESULT:    -3.321      1.987      3.660
REMARK INTER + INTRA:          -4.534
REMARK INTER:                  -4.200
REMARK INTRA:                  -0.334
REMARK UNBOUND:                -0.437
REMARK SMILES C=CC[C@@H](C)C(=O)CC
REMARK SMILES IDX 4 1 5 2 6 3 7 4 8 5 9 6 3 7 2 8 1 9
REMARK H PARENT
REMARK Flexibility Score: inf
ROOT
ATOM      1  C   UNL     1      16.278  20.118  15.979  1.00  0.00     0.057 C 
ATOM      2  C   UNL     1      16.474  20.902  14.674  1.00  0.00     0.016 C 
ENDROOT
BRANCH   1   3
ATOM      3  C   UNL     1      15.394  18.908  15.758  1.00  0.00     0.135 C 
ATOM      4  O   UNL     1      14.477  18.962  14.951  1.00  0.00    -0.299 OA
BRANCH   3   5
ATOM      5  C   UNL     1      15.621  17.630  16.521  1.00  0.00     0.072 C 
ATOM      6  C   UNL     1      14.674  17.536  17.713  1.00  0.00     0.012 C 
ENDBRANCH   3   5
ENDBRANCH   1   3
BRANCH   1   7
ATOM      7  C   UNL     1      17.618  19.735  16.643  1.00  0.00     0.038 C 
BRANCH   7   8
ATOM      8  C   UNL     1      17.734  20.201  18.073  1.00  0.00    -0.034 C 
ATOM      9  C   UNL     1      18.393  19.493  18.995  1.00  0.00     0.004 C 
ENDBRANCH   7   8
ENDBRANCH   1   7
TORSDOF 4
ENDMDL
MODEL 6
REMARK VINA RESULT:    -3.318      1.392      2.772
REMARK INTER + INTRA:          -4.531
REMARK INTER:                  -4.126
REMARK INTRA:                  -0.405
REMARK UNBOUND:                -0.437
REMARK SMILES C=CC[C@@H](C)C(=O)CC
REMARK SMILES IDX 4 1 5 2 6 3 7 4 8 5 9 6 3 7 2 8 1 9
REMARK H PARENT
REMARK Flexibility Score: inf
ROOT
ATOM      1  C   UNL     1      17.180  18.293  17.732  1.00  0.00     0.057 C 
ATOM      2  C   UNL     1      17.923  17.818  18.989  1.00  0.00     0.016 C 
ENDROOT
BRANCH   1   3
ATOM      3  C   UNL     1      17.458  19.757  17.457  1.00  0.00     0.135 C 
ATOM      4  O   UNL     1      17.662  20.524  18.388  1.00  0.00    -0.299 OA
BRANCH   3   5
ATOM      5  C   UNL     1      17.485  20.292  16.050  1.00  0.00     0.072 C 
ATOM      6  C   UNL     1      16.070  20.541  15.538  1.00  0.00     0.012 C 
ENDBRANCH   3   5
ENDBRANCH   1   3
BRANCH   1   7
ATOM      7  C   UNL     1      17.481  17.412  16.500  1.00  0.00     0.038 C 
BRANCH   7   8
ATOM      8  C   UNL     1      16.247  16.815  15.874  1.00  0.00    -0.034 C 
ATOM      9  C   UNL     1      15.034  16.975  16.412  1.00  0.00     0.004 C 
ENDBRANCH   7   8
ENDBRANCH   1   7
TORSDOF 4
ENDMDL
MODEL 7
REMARK VINA RESULT:    -3.305     10.220     11.642
REMARK INTER + INTRA:          -4.515
REMARK INTER:                  -4.098
REMARK INTRA:                  -0.417
REMARK UNBOUND:                -0.437
REMARK SMILES C=CC[C@@H](C)C(=O)CC
REMARK SMILES IDX 4 1 5 2 6 3 7 4 8 5 9 6 3 7 2 8 1 9
REMARK H PARENT
REMARK Flexibility Score: inf
ROOT
ATOM      1  C   UNL     1      20.743  22.904   8.222  1.00  0.00     0.057 C 
ATOM      2  C   UNL     1      20.851  21.378   8.095  1.00  0.00     0.016 C 
ENDROOT
BRANCH   1   3
ATOM      3  C   UNL     1      20.346  23.306   9.628  1.00  0.00     0.135 C 
ATOM      4  O   UNL     1      21.179  23.298  10.523  1.00  0.00    -0.299 OA
BRANCH   3   5
ATOM      5  C   UNL     1      18.933  23.716   9.949  1.00  0.00     0.072 C 
ATOM      6  C   UNL     1      18.321  24.498   8.792  1.00  0.00     0.012 C 
ENDBRANCH   3   5
ENDBRANCH   1   3
BRANCH   1   7
ATOM      7  C   UNL     1      22.027  23.627   7.761  1.00  0.00     0.038 C 
BRANCH   7   8
ATOM      8  C   UNL     1      21.905  24.254   6.395  1.00  0.00    -0.034 C 
ATOM      9  C   UNL     1      20.726  24.636   5.896  1.00  0.00     0.004 C 
ENDBRANCH   7   8
ENDBRANCH   1   7
TORSDOF 4
ENDMDL
MODEL 8
REMARK VINA RESULT:    -3.288      8.667     10.098
REMARK INTER + INTRA:          -4.494
REMARK INTER:                  -4.010
REMARK INTRA:                  -0.484
REMARK UNBOUND:                -0.437
REMARK SMILES C=CC[C@@H](C)C(=O)CC
REMARK SMILES IDX 4 1 5 2 6 3 7 4 8 5 9 6 3 7 2 8 1 9
REMARK H PARENT
REMARK Flexibility Score: inf
ROOT
ATOM      1  C   UNL     1      20.514  18.395   8.646  1.00  0.00     0.057 C 
ATOM      2  C   UNL     1      20.900  18.562  10.122  1.00  0.00     0.016 C 
ENDROOT
BRANCH   1   3
ATOM      3  C   UNL     1      19.053  18.016   8.506  1.00  0.00     0.135 C 
ATOM      4  O   UNL     1      18.642  16.977   9.004  1.00  0.00    -0.299 OA
BRANCH   3   5
ATOM      5  C   UNL     1      18.090  18.899   7.758  1.00  0.00     0.072 C 
ATOM      6  C   UNL     1      17.259  19.735   8.726  1.00  0.00     0.012 C 
ENDBRANCH   3   5
ENDBRANCH   1   3
BRANCH   1   7
ATOM      7  C   UNL     1      20.868  19.636   7.799  1.00  0.00     0.038 C 
BRANCH   7   8
ATOM      8  C   UNL     1      21.130  20.870   8.625  1.00  0.00    -0.034 C 
ATOM      9  C   UNL     1      20.499  22.025   8.389  1.00  0.00     0.004 C 
ENDBRANCH   7   8
ENDBRANCH   1   7
TORSDOF 4
ENDMDL
MODEL 9
REMARK VINA RESULT:    -3.253      9.429     10.670
REMARK INTER + INTRA:          -4.450
REMARK INTER:                  -3.976
REMARK INTRA:                  -0.474
REMARK UNBOUND:                -0.437
REMARK SMILES C=CC[C@@H](C)C(=O)CC
REMARK SMILES IDX 4 1 5 2 6 3 7 4 8 5 9 6 3 7 2 8 1 9
REMARK H PARENT
REMARK Flexibility Score: inf
ROOT
ATOM      1  C   UNL     1      19.547  22.031   9.647  1.00  0.00     0.057 C 
ATOM      2  C   UNL     1      18.346  21.146   9.285  1.00  0.00     0.016 C 
ENDROOT
BRANCH   1   3
ATOM      3  C   UNL     1      20.560  22.059   8.520  1.00  0.00     0.135 C 
ATOM      4  O   UNL     1      20.694  21.083   7.796  1.00  0.00    -0.299 OA
BRANCH   3   5
ATOM      5  C   UNL     1      21.413  23.275   8.272  1.00  0.00     0.072 C 
ATOM      6  C   UNL     1      21.181  23.822   6.868  1.00  0.00     0.012 C 
ENDBRANCH   3   5
ENDBRANCH   1   3
BRANCH   1   7
ATOM      7  C   UNL     1      19.125  23.453  10.073  1.00  0.00     0.038 C 
BRANCH   7   8
ATOM      8  C   UNL     1      17.899  23.956   9.354  1.00  0.00    -0.034 C 
ATOM      9  C   UNL     1      17.930  25.051   8.587  1.00  0.00     0.004 C 
ENDBRANCH   7   8
ENDBRANCH   1   7
TORSDOF 4
ENDMDL
