MODEL 1
REMARK VINA RESULT:    -3.724      0.000      0.000
REMARK INTER + INTRA:          -6.465
REMARK INTER:                  -4.922
REMARK INTRA:                  -1.543
REMARK UNBOUND:                -1.543
REMARK SMILES CC[C@@H](C=C[C@H](C)[C@H]1CC[C@@H]2[C@@H]3CC=C4C[C@@H](O)CC[C@@]4(C)[C@H]3CC[C@@]21C)C(C)C
REMARK SMILES IDX 6 1 7 2 5 3 4 4 3 5 2 6 1 7 28 8 29 9 30 10 8 11 9 12 26 13
REMARK SMILES IDX 10 14 11 15 25 16 27 17 12 18 24 19 23 20 13 21 21 22 14 23
REMARK SMILES IDX 15 24 20 25 22 26 16 27 19 28 17 29 18 30
REMARK H PARENT 18 31
REMARK Flexibility Score: inf
ROOT
ATOM      1  C   UNL     1       3.803  41.011  12.050  1.00  0.00     0.012 C 
ATOM      2  C   UNL     1       5.084  40.859  12.896  1.00  0.00     0.012 C 
ENDROOT
BRANCH   1   3
ATOM      3  C   UNL     1       2.751  40.074  12.602  1.00  0.00    -0.028 C 
ATOM      4  C   UNL     1       1.659  40.545  13.229  1.00  0.00    -0.027 C 
BRANCH   4   5
ATOM      5  C   UNL     1       0.634  39.653  13.901  1.00  0.00     0.014 C 
BRANCH   5   6
ATOM      6  C   UNL     1       0.358  38.417  13.004  1.00  0.00     0.004 C 
ATOM      7  C   UNL     1      -1.125  38.049  12.925  1.00  0.00     0.004 C 
ENDBRANCH   5   6
BRANCH   5   8
ATOM      8  C   UNL     1      -0.623  40.463  14.388  1.00  0.00    -0.011 C 
ATOM      9  C   UNL     1      -0.593  40.895  15.866  1.00  0.00     0.008 C 
ATOM     10  C   UNL     1      -0.892  41.683  13.495  1.00  0.00     0.008 C 
ENDBRANCH   5   8
ENDBRANCH   4   5
ENDBRANCH   1   3
BRANCH   1  11
ATOM     11  C   UNL     1       3.316  42.500  12.014  1.00  0.00     0.002 C 
ATOM     12  C   UNL     1       4.369  43.441  12.616  1.00  0.00     0.005 C 
ATOM     13  C   UNL     1       2.937  43.135  10.618  1.00  0.00    -0.026 C 
ATOM     14  C   UNL     1       4.092  44.809  12.037  1.00  0.00     0.005 C 
ATOM     15  C   UNL     1       3.633  44.537  10.607  1.00  0.00    -0.001 C 
ATOM     16  C   UNL     1       1.382  43.270  10.474  1.00  0.00     0.007 C 
ATOM     17  C   UNL     1       3.465  42.329   9.401  1.00  0.00     0.012 C 
ATOM     18  C   UNL     1       2.746  45.644   9.979  1.00  0.00     0.000 C 
ATOM     19  C   UNL     1       0.804  44.490  11.211  1.00  0.00     0.005 C 
ATOM     20  C   UNL     1       1.402  45.840  10.718  1.00  0.00     0.003 C 
ATOM     21  C   UNL     1       3.449  47.001   9.889  1.00  0.00     0.031 C 
ATOM     22  C   UNL     1       0.432  46.770   9.890  1.00  0.00    -0.008 C 
ATOM     23  C   UNL     1       2.561  47.994   9.192  1.00  0.00    -0.027 C 
ATOM     24  C   UNL     1       1.205  47.918   9.203  1.00  0.00    -0.065 C 
ATOM     25  C   UNL     1      -0.319  45.982   8.769  1.00  0.00     0.014 C 
ATOM     26  C   UNL     1      -0.594  47.386  10.880  1.00  0.00     0.016 C 
ATOM     27  C   UNL     1       0.427  48.834   8.282  1.00  0.00     0.063 C 
ATOM     28  C   UNL     1      -1.125  46.889   7.814  1.00  0.00     0.033 C 
ATOM     29  C   UNL     1      -0.265  48.005   7.192  1.00  0.00     0.118 C 
BRANCH  29  30
ATOM     30  O   UNL     1       0.694  47.433   6.335  1.00  0.00    -0.393 OA
ATOM     31  H   UNL     1       1.394  48.122   6.187  1.00  0.00     0.210 HD
ENDBRANCH  29  30
ENDBRANCH   1  11
TORSDOF 6
ENDMDL
MODEL 2
REMARK VINA RESULT:    -2.662      1.485      2.872
REMARK INTER + INTRA:          -5.061
REMARK INTER:                  -4.824
REMARK INTRA:                  -0.238
REMARK UNBOUND:                -1.543
REMARK SMILES CC[C@@H](C=C[C@H](C)[C@H]1CC[C@@H]2[C@@H]3CC=C4C[C@@H](O)CC[C@@]4(C)[C@H]3CC[C@@]21C)C(C)C
REMARK SMILES IDX 6 1 7 2 5 3 4 4 3 5 2 6 1 7 28 8 29 9 30 10 8 11 9 12 26 13
REMARK SMILES IDX 10 14 11 15 25 16 27 17 12 18 24 19 23 20 13 21 21 22 14 23
REMARK SMILES IDX 15 24 20 25 22 26 16 27 19 28 17 29 18 30
REMARK H PARENT 18 31
REMARK Flexibility Score: inf
ROOT
ATOM      1  C   UNL     1       3.824  42.134  11.897  1.00  0.00     0.012 C 
ATOM      2  C   UNL     1       4.390  42.991  13.048  1.00  0.00     0.012 C 
ENDROOT
BRANCH   1   3
ATOM      3  C   UNL     1       2.605  41.395  12.403  1.00  0.00    -0.028 C 
ATOM      4  C   UNL     1       2.723  40.255  13.105  1.00  0.00    -0.027 C 
BRANCH   4   5
ATOM      5  C   UNL     1       1.539  39.414  13.536  1.00  0.00     0.014 C 
BRANCH   5   6
ATOM      6  C   UNL     1       1.383  38.208  12.570  1.00  0.00     0.004 C 
ATOM      7  C   UNL     1       2.711  37.740  11.972  1.00  0.00     0.004 C 
ENDBRANCH   5   6
BRANCH   5   8
ATOM      8  C   UNL     1       0.254  40.286  13.782  1.00  0.00    -0.011 C 
ATOM      9  C   UNL     1      -1.086  39.553  13.588  1.00  0.00     0.008 C 
ATOM     10  C   UNL     1       0.283  40.959  15.163  1.00  0.00     0.008 C 
ENDBRANCH   5   8
ENDBRANCH   4   5
ENDBRANCH   1   3
BRANCH   1  11
ATOM     11  C   UNL     1       3.508  43.011  10.636  1.00  0.00     0.002 C 
ATOM     12  C   UNL     1       3.024  42.143   9.467  1.00  0.00     0.005 C 
ATOM     13  C   UNL     1       2.439  44.166  10.771  1.00  0.00    -0.026 C 
ATOM     14  C   UNL     1       2.232  43.058   8.562  1.00  0.00     0.005 C 
ATOM     15  C   UNL     1       1.521  44.020   9.510  1.00  0.00    -0.001 C 
ATOM     16  C   UNL     1       3.139  45.568  10.805  1.00  0.00     0.007 C 
ATOM     17  C   UNL     1       1.543  44.044  12.032  1.00  0.00     0.012 C 
ATOM     18  C   UNL     1       1.129  45.386   8.890  1.00  0.00     0.000 C 
ATOM     19  C   UNL     1       3.550  46.080   9.414  1.00  0.00     0.005 C 
ATOM     20  C   UNL     1       2.347  46.222   8.436  1.00  0.00     0.003 C 
ATOM     21  C   UNL     1       0.166  45.256   7.707  1.00  0.00     0.031 C 
ATOM     22  C   UNL     1       1.917  47.696   8.071  1.00  0.00    -0.008 C 
ATOM     23  C   UNL     1      -0.236  46.620   7.219  1.00  0.00    -0.027 C 
ATOM     24  C   UNL     1       0.549  47.721   7.354  1.00  0.00    -0.065 C 
ATOM     25  C   UNL     1       1.791  48.600   9.340  1.00  0.00     0.014 C 
ATOM     26  C   UNL     1       2.990  48.280   7.113  1.00  0.00     0.016 C 
ATOM     27  C   UNL     1      -0.052  49.074   7.036  1.00  0.00     0.063 C 
ATOM     28  C   UNL     1       1.184  49.989   9.047  1.00  0.00     0.033 C 
ATOM     29  C   UNL     1      -0.172  49.902   8.322  1.00  0.00     0.118 C 
BRANCH  29  30
ATOM     30  O   UNL     1      -1.125  49.326   9.183  1.00  0.00    -0.393 OA
ATOM     31  H   UNL     1      -0.892  48.363   9.266  1.00  0.00     0.210 HD
ENDBRANCH  29  30
ENDBRANCH   1  11
TORSDOF 6
ENDMDL
