MODEL 1
REMARK VINA RESULT:    -3.951      0.000      0.000
REMARK INTER + INTRA:          -5.083
REMARK INTER:                  -4.990
REMARK INTRA:                  -0.093
REMARK UNBOUND:                -0.093
REMARK SMILES CCCCCCO
REMARK SMILES IDX 4 1 3 2 2 3 1 4 5 5 6 6 7 7
REMARK H PARENT 7 8
REMARK Flexibility Score: inf
ROOT
ATOM      1  C   UNL     1     -20.144  -4.362   0.288  1.00  0.00     0.002 C 
ENDROOT
BRANCH   1   2
ATOM      2  C   UNL     1     -20.414  -5.734  -0.349  1.00  0.00    -0.000 C 
BRANCH   2   3
ATOM      3  C   UNL     1     -21.420  -6.570   0.453  1.00  0.00    -0.003 C 
ATOM      4  C   UNL     1     -21.329  -8.047   0.079  1.00  0.00     0.004 C 
ENDBRANCH   2   3
ENDBRANCH   1   2
BRANCH   1   5
ATOM      5  C   UNL     1     -19.413  -4.470   1.636  1.00  0.00     0.028 C 
BRANCH   5   6
ATOM      6  C   UNL     1     -17.948  -4.882   1.460  1.00  0.00     0.156 C 
BRANCH   6   7
ATOM      7  O   UNL     1     -17.094  -3.799   1.716  1.00  0.00    -0.396 OA
ATOM      8  H   UNL     1     -17.669  -3.033   1.974  1.00  0.00     0.210 HD
ENDBRANCH   6   7
ENDBRANCH   5   6
ENDBRANCH   1   5
TORSDOF 5
ENDMDL
MODEL 2
REMARK VINA RESULT:    -3.833      1.544      2.077
REMARK INTER + INTRA:          -4.934
REMARK INTER:                  -4.788
REMARK INTRA:                  -0.146
REMARK UNBOUND:                -0.093
REMARK SMILES CCCCCCO
REMARK SMILES IDX 4 1 3 2 2 3 1 4 5 5 6 6 7 7
REMARK H PARENT 7 8
REMARK Flexibility Score: inf
ROOT
ATOM      1  C   UNL     1     -20.100  -6.647   1.479  1.00  0.00     0.002 C 
ENDROOT
BRANCH   1   2
ATOM      2  C   UNL     1     -21.404  -6.663   0.665  1.00  0.00    -0.000 C 
BRANCH   2   3
ATOM      3  C   UNL     1     -21.501  -7.875  -0.271  1.00  0.00    -0.003 C 
ATOM      4  C   UNL     1     -20.413  -8.899   0.042  1.00  0.00     0.004 C 
ENDBRANCH   2   3
ENDBRANCH   1   2
BRANCH   1   5
ATOM      5  C   UNL     1     -19.224  -5.424   1.166  1.00  0.00     0.028 C 
BRANCH   5   6
ATOM      6  C   UNL     1     -20.056  -4.235   0.677  1.00  0.00     0.156 C 
BRANCH   6   7
ATOM      7  O   UNL     1     -20.257  -3.310   1.713  1.00  0.00    -0.396 OA
ATOM      8  H   UNL     1     -21.220  -3.346   1.949  1.00  0.00     0.210 HD
ENDBRANCH   6   7
ENDBRANCH   5   6
ENDBRANCH   1   5
TORSDOF 5
ENDMDL
MODEL 3
REMARK VINA RESULT:    -3.821     16.952     18.337
REMARK INTER + INTRA:          -4.919
REMARK INTER:                  -4.789
REMARK INTRA:                  -0.130
REMARK UNBOUND:                -0.093
REMARK SMILES CCCCCCO
REMARK SMILES IDX 4 1 3 2 2 3 1 4 5 5 6 6 7 7
REMARK H PARENT 7 8
REMARK Flexibility Score: inf
ROOT
ATOM      1  C   UNL     1     -18.071  10.107  11.284  1.00  0.00     0.002 C 
ENDROOT
BRANCH   1   2
ATOM      2  C   UNL     1     -19.027   8.932  11.024  1.00  0.00    -0.000 C 
BRANCH   2   3
ATOM      3  C   UNL     1     -18.806   8.283   9.650  1.00  0.00    -0.003 C 
ATOM      4  C   UNL     1     -17.416   8.604   9.108  1.00  0.00     0.004 C 
ENDBRANCH   2   3
ENDBRANCH   1   2
BRANCH   1   5
ATOM      5  C   UNL     1     -17.528  10.119  12.721  1.00  0.00     0.028 C 
BRANCH   5   6
ATOM      6  C   UNL     1     -15.997  10.125  12.754  1.00  0.00     0.156 C 
BRANCH   6   7
ATOM      7  O   UNL     1     -15.472  10.103  11.453  1.00  0.00    -0.396 OA
ATOM      8  H   UNL     1     -15.708  10.971  11.033  1.00  0.00     0.210 HD
ENDBRANCH   6   7
ENDBRANCH   5   6
ENDBRANCH   1   5
TORSDOF 5
ENDMDL
MODEL 4
REMARK VINA RESULT:    -3.761      1.942      3.596
REMARK INTER + INTRA:          -4.842
REMARK INTER:                  -4.646
REMARK INTRA:                  -0.196
REMARK UNBOUND:                -0.093
REMARK SMILES CCCCCCO
REMARK SMILES IDX 4 1 3 2 2 3 1 4 5 5 6 6 7 7
REMARK H PARENT 7 8
REMARK Flexibility Score: inf
ROOT
ATOM      1  C   UNL     1     -20.543  -5.674  -0.638  1.00  0.00     0.002 C 
ENDROOT
BRANCH   1   2
ATOM      2  C   UNL     1     -20.193  -4.347   0.054  1.00  0.00    -0.000 C 
BRANCH   2   3
ATOM      3  C   UNL     1     -19.702  -4.543   1.494  1.00  0.00    -0.003 C 
ATOM      4  C   UNL     1     -18.239  -4.978   1.522  1.00  0.00     0.004 C 
ENDBRANCH   2   3
ENDBRANCH   1   2
BRANCH   1   5
ATOM      5  C   UNL     1     -21.490  -6.546   0.202  1.00  0.00     0.028 C 
BRANCH   5   6
ATOM      6  C   UNL     1     -20.972  -7.980   0.342  1.00  0.00     0.156 C 
BRANCH   6   7
ATOM      7  O   UNL     1     -19.855  -8.025   1.188  1.00  0.00    -0.396 OA
ATOM      8  H   UNL     1     -19.157  -8.549   0.717  1.00  0.00     0.210 HD
ENDBRANCH   6   7
ENDBRANCH   5   6
ENDBRANCH   1   5
TORSDOF 5
ENDMDL
MODEL 5
REMARK VINA RESULT:    -3.739      2.605      4.111
REMARK INTER + INTRA:          -4.816
REMARK INTER:                  -4.674
REMARK INTRA:                  -0.142
REMARK UNBOUND:                -0.093
REMARK SMILES CCCCCCO
REMARK SMILES IDX 4 1 3 2 2 3 1 4 5 5 6 6 7 7
REMARK H PARENT 7 8
REMARK Flexibility Score: inf
ROOT
ATOM      1  C   UNL     1     -20.164  -6.689   1.586  1.00  0.00     0.002 C 
ENDROOT
BRANCH   1   2
ATOM      2  C   UNL     1     -19.174  -5.655   1.026  1.00  0.00    -0.000 C 
BRANCH   2   3
ATOM      3  C   UNL     1     -19.833  -4.296   0.749  1.00  0.00    -0.003 C 
ATOM      4  C   UNL     1     -20.374  -3.676   2.035  1.00  0.00     0.004 C 
ENDBRANCH   2   3
ENDBRANCH   1   2
BRANCH   1   5
ATOM      5  C   UNL     1     -20.387  -7.871   0.630  1.00  0.00     0.028 C 
BRANCH   5   6
ATOM      6  C   UNL     1     -21.630  -7.672  -0.243  1.00  0.00     0.156 C 
BRANCH   6   7
ATOM      7  O   UNL     1     -22.414  -6.615   0.242  1.00  0.00    -0.396 OA
ATOM      8  H   UNL     1     -21.849  -5.800   0.211  1.00  0.00     0.210 HD
ENDBRANCH   6   7
ENDBRANCH   5   6
ENDBRANCH   1   5
TORSDOF 5
ENDMDL
MODEL 6
REMARK VINA RESULT:    -3.452      5.351      7.938
REMARK INTER + INTRA:          -4.453
REMARK INTER:                  -4.479
REMARK INTRA:                   0.026
REMARK UNBOUND:                -0.093
REMARK SMILES CCCCCCO
REMARK SMILES IDX 4 1 3 2 2 3 1 4 5 5 6 6 7 7
REMARK H PARENT 7 8
REMARK Flexibility Score: inf
ROOT
ATOM      1  C   UNL     1     -12.964  -5.584   3.525  1.00  0.00     0.002 C 
ENDROOT
BRANCH   1   2
ATOM      2  C   UNL     1     -11.829  -5.052   2.635  1.00  0.00    -0.000 C 
BRANCH   2   3
ATOM      3  C   UNL     1     -11.831  -3.521   2.528  1.00  0.00    -0.003 C 
ATOM      4  C   UNL     1     -10.440  -2.993   2.187  1.00  0.00     0.004 C 
ENDBRANCH   2   3
ENDBRANCH   1   2
BRANCH   1   5
ATOM      5  C   UNL     1     -14.261  -4.773   3.375  1.00  0.00     0.028 C 
BRANCH   5   6
ATOM      6  C   UNL     1     -14.906  -4.975   2.000  1.00  0.00     0.156 C 
BRANCH   6   7
ATOM      7  O   UNL     1     -16.088  -4.227   1.892  1.00  0.00    -0.396 OA
ATOM      8  H   UNL     1     -15.939  -3.380   2.386  1.00  0.00     0.210 HD
ENDBRANCH   6   7
ENDBRANCH   5   6
ENDBRANCH   1   5
TORSDOF 5
ENDMDL
MODEL 7
REMARK VINA RESULT:    -3.254     16.655     17.588
REMARK INTER + INTRA:          -4.202
REMARK INTER:                  -4.007
REMARK INTRA:                  -0.195
REMARK UNBOUND:                -0.093
REMARK SMILES CCCCCCO
REMARK SMILES IDX 4 1 3 2 2 3 1 4 5 5 6 6 7 7
REMARK H PARENT 7 8
REMARK Flexibility Score: inf
ROOT
ATOM      1  C   UNL     1     -17.260   8.919   9.573  1.00  0.00     0.002 C 
ENDROOT
BRANCH   1   2
ATOM      2  C   UNL     1     -18.324   7.826   9.761  1.00  0.00    -0.000 C 
BRANCH   2   3
ATOM      3  C   UNL     1     -19.725   8.287   9.340  1.00  0.00    -0.003 C 
ATOM      4  C   UNL     1     -20.686   8.282  10.526  1.00  0.00     0.004 C 
ENDBRANCH   2   3
ENDBRANCH   1   2
BRANCH   1   5
ATOM      5  C   UNL     1     -17.481  10.125  10.500  1.00  0.00     0.028 C 
BRANCH   5   6
ATOM      6  C   UNL     1     -17.107   9.806  11.951  1.00  0.00     0.156 C 
BRANCH   6   7
ATOM      7  O   UNL     1     -18.258   9.637  12.735  1.00  0.00    -0.396 OA
ATOM      8  H   UNL     1     -18.950   9.236  12.148  1.00  0.00     0.210 HD
ENDBRANCH   6   7
ENDBRANCH   5   6
ENDBRANCH   1   5
TORSDOF 5
ENDMDL
MODEL 8
REMARK VINA RESULT:    -3.198      6.548      8.441
REMARK INTER + INTRA:          -4.132
REMARK INTER:                  -4.048
REMARK INTRA:                  -0.083
REMARK UNBOUND:                -0.093
REMARK SMILES CCCCCCO
REMARK SMILES IDX 4 1 3 2 2 3 1 4 5 5 6 6 7 7
REMARK H PARENT 7 8
REMARK Flexibility Score: inf
ROOT
ATOM      1  C   UNL     1     -11.122  -4.816   2.630  1.00  0.00     0.002 C 
ENDROOT
BRANCH   1   2
ATOM      2  C   UNL     1     -12.442  -5.331   3.227  1.00  0.00    -0.000 C 
BRANCH   2   3
ATOM      3  C   UNL     1     -13.672  -4.839   2.452  1.00  0.00    -0.003 C 
ATOM      4  C   UNL     1     -14.919  -4.856   3.333  1.00  0.00     0.004 C 
ENDBRANCH   2   3
ENDBRANCH   1   2
BRANCH   1   5
ATOM      5  C   UNL     1     -11.213  -3.353   2.170  1.00  0.00     0.028 C 
BRANCH   5   6
ATOM      6  C   UNL     1      -9.999  -2.535   2.621  1.00  0.00     0.156 C 
BRANCH   6   7
ATOM      7  O   UNL     1      -8.964  -2.622   1.678  1.00  0.00    -0.396 OA
ATOM      8  H   UNL     1      -8.152  -2.245   2.106  1.00  0.00     0.210 HD
ENDBRANCH   6   7
ENDBRANCH   5   6
ENDBRANCH   1   5
TORSDOF 5
ENDMDL
