MODEL 1
REMARK VINA RESULT:    -3.344      0.000      0.000
REMARK INTER + INTRA:          -5.879
REMARK INTER:                  -4.811
REMARK INTRA:                  -1.069
REMARK UNBOUND:                -1.069
REMARK SMILES O=C(CO)[C@H](O)[C@H](O)[C@H](O)CO
REMARK SMILES IDX 7 1 9 2 11 3 12 4 10 6 5 8 2 9 1 10 3 11 4 12 6 14 8 16
REMARK H PARENT 12 5 10 7 4 13 6 15 8 17
REMARK Flexibility Score: inf
ROOT
ATOM      1  C   UNL     1       0.498   7.985   6.113  1.00  0.00     0.181 C 
ENDROOT
BRANCH   1   2
ATOM      2  C   UNL     1       0.866   7.676   4.637  1.00  0.00     0.171 C 
BRANCH   2   3
ATOM      3  C   UNL     1       0.072   6.494   4.046  1.00  0.00     0.190 C 
BRANCH   3   4
ATOM      4  O   UNL     1      -0.895   6.957   3.142  1.00  0.00    -0.394 OA
ATOM      5  H   UNL     1      -1.542   7.499   3.663  1.00  0.00     0.210 HD
ENDBRANCH   3   4
ENDBRANCH   2   3
BRANCH   2   6
ATOM      6  O   UNL     1       0.621   8.832   3.875  1.00  0.00    -0.388 OA
ATOM      7  H   UNL     1       1.330   9.490   4.100  1.00  0.00     0.211 HD
ENDBRANCH   2   6
ENDBRANCH   1   2
BRANCH   1   8
ATOM      8  C   UNL     1      -0.766   7.265   6.652  1.00  0.00     0.214 C 
BRANCH   8   9
ATOM      9  C   UNL     1      -1.885   8.237   6.982  1.00  0.00     0.189 C 
ATOM     10  O   UNL     1      -1.945   8.723   8.101  1.00  0.00    -0.294 OA
BRANCH   9  11
ATOM     11  C   UNL     1      -2.907   8.664   5.961  1.00  0.00     0.234 C 
BRANCH  11  12
ATOM     12  O   UNL     1      -2.298   9.069   4.765  1.00  0.00    -0.388 OA
ATOM     13  H   UNL     1      -1.745   8.302   4.465  1.00  0.00     0.211 HD
ENDBRANCH  11  12
ENDBRANCH   9  11
ENDBRANCH   8   9
BRANCH   8  14
ATOM     14  O   UNL     1      -0.441   6.480   7.771  1.00  0.00    -0.382 OA
ATOM     15  H   UNL     1      -0.330   5.547   7.448  1.00  0.00     0.211 HD
ENDBRANCH   8  14
ENDBRANCH   1   8
BRANCH   1  16
ATOM     16  O   UNL     1       0.365   9.374   6.282  1.00  0.00    -0.387 OA
ATOM     17  H   UNL     1       0.828   9.806   5.517  1.00  0.00     0.211 HD
ENDBRANCH   1  16
TORSDOF 10
ENDMDL
MODEL 2
REMARK VINA RESULT:    -3.336     14.893     16.413
REMARK INTER + INTRA:          -5.868
REMARK INTER:                  -4.916
REMARK INTRA:                  -0.952
REMARK UNBOUND:                -1.069
REMARK SMILES O=C(CO)[C@H](O)[C@H](O)[C@H](O)CO
REMARK SMILES IDX 7 1 9 2 11 3 12 4 10 6 5 8 2 9 1 10 3 11 4 12 6 14 8 16
REMARK H PARENT 12 5 10 7 4 13 6 15 8 17
REMARK Flexibility Score: inf
ROOT
ATOM      1  C   UNL     1      -0.261  -7.462   5.739  1.00  0.00     0.181 C 
ENDROOT
BRANCH   1   2
ATOM      2  C   UNL     1      -1.112  -7.417   4.443  1.00  0.00     0.171 C 
BRANCH   2   3
ATOM      3  C   UNL     1      -0.670  -6.313   3.462  1.00  0.00     0.190 C 
BRANCH   3   4
ATOM      4  O   UNL     1       0.452  -6.728   2.729  1.00  0.00    -0.394 OA
ATOM      5  H   UNL     1       0.814  -5.923   2.275  1.00  0.00     0.210 HD
ENDBRANCH   3   4
ENDBRANCH   2   3
BRANCH   2   6
ATOM      6  O   UNL     1      -1.013  -8.670   3.812  1.00  0.00    -0.388 OA
ATOM      7  H   UNL     1      -1.188  -9.363   4.503  1.00  0.00     0.211 HD
ENDBRANCH   2   6
ENDBRANCH   1   2
BRANCH   1   8
ATOM      8  C   UNL     1       0.780  -8.611   5.816  1.00  0.00     0.214 C 
BRANCH   8   9
ATOM      9  C   UNL     1       1.662  -8.506   7.048  1.00  0.00     0.189 C 
ATOM     10  O   UNL     1       1.149  -8.545   8.156  1.00  0.00    -0.294 OA
BRANCH   9  11
ATOM     11  C   UNL     1       3.162  -8.398   6.957  1.00  0.00     0.234 C 
BRANCH  11  12
ATOM     12  O   UNL     1       3.716  -9.509   6.306  1.00  0.00    -0.388 OA
ATOM     13  H   UNL     1       3.627  -9.330   5.334  1.00  0.00     0.211 HD
ENDBRANCH  11  12
ENDBRANCH   9  11
ENDBRANCH   8   9
BRANCH   8  14
ATOM     14  O   UNL     1       1.558  -8.644   4.647  1.00  0.00    -0.382 OA
ATOM     15  H   UNL     1       1.281  -9.450   4.137  1.00  0.00     0.211 HD
ENDBRANCH   8  14
ENDBRANCH   1   8
BRANCH   1  16
ATOM     16  O   UNL     1      -1.111  -7.513   6.857  1.00  0.00    -0.387 OA
ATOM     17  H   UNL     1      -0.531  -7.527   7.663  1.00  0.00     0.211 HD
ENDBRANCH   1  16
TORSDOF 10
ENDMDL
MODEL 3
REMARK VINA RESULT:    -3.300      1.341      1.780
REMARK INTER + INTRA:          -5.815
REMARK INTER:                  -4.817
REMARK INTRA:                  -0.998
REMARK UNBOUND:                -1.069
REMARK SMILES O=C(CO)[C@H](O)[C@H](O)[C@H](O)CO
REMARK SMILES IDX 7 1 9 2 11 3 12 4 10 6 5 8 2 9 1 10 3 11 4 12 6 14 8 16
REMARK H PARENT 12 5 10 7 4 13 6 15 8 17
REMARK Flexibility Score: inf
ROOT
ATOM      1  C   UNL     1       0.477   7.509   5.598  1.00  0.00     0.181 C 
ENDROOT
BRANCH   1   2
ATOM      2  C   UNL     1       1.165   7.568   4.209  1.00  0.00     0.171 C 
BRANCH   2   3
ATOM      3  C   UNL     1       0.561   6.584   3.188  1.00  0.00     0.190 C 
BRANCH   3   4
ATOM      4  O   UNL     1      -0.789   6.883   2.956  1.00  0.00    -0.394 OA
ATOM      5  H   UNL     1      -1.160   7.222   3.812  1.00  0.00     0.210 HD
ENDBRANCH   3   4
ENDBRANCH   2   3
BRANCH   2   6
ATOM      6  O   UNL     1       1.047   8.881   3.719  1.00  0.00    -0.388 OA
ATOM      7  H   UNL     1       1.823   9.045   3.122  1.00  0.00     0.211 HD
ENDBRANCH   2   6
ENDBRANCH   1   2
BRANCH   1   8
ATOM      8  C   UNL     1      -0.373   8.751   5.977  1.00  0.00     0.214 C 
BRANCH   8   9
ATOM      9  C   UNL     1      -1.024   8.608   7.341  1.00  0.00     0.189 C 
ATOM     10  O   UNL     1      -0.350   8.777   8.346  1.00  0.00    -0.294 OA
BRANCH   9  11
ATOM     11  C   UNL     1      -2.490   8.307   7.506  1.00  0.00     0.234 C 
BRANCH  11  12
ATOM     12  O   UNL     1      -3.285   9.367   7.049  1.00  0.00    -0.388 OA
ATOM     13  H   UNL     1      -2.658  10.043   6.683  1.00  0.00     0.211 HD
ENDBRANCH  11  12
ENDBRANCH   9  11
ENDBRANCH   8   9
BRANCH   8  14
ATOM     14  O   UNL     1      -1.339   9.001   4.988  1.00  0.00    -0.382 OA
ATOM     15  H   UNL     1      -1.767   8.131   4.774  1.00  0.00     0.211 HD
ENDBRANCH   8  14
ENDBRANCH   1   8
BRANCH   1  16
ATOM     16  O   UNL     1       1.444   7.272   6.590  1.00  0.00    -0.387 OA
ATOM     17  H   UNL     1       1.070   7.610   7.447  1.00  0.00     0.211 HD
ENDBRANCH   1  16
TORSDOF 10
ENDMDL
MODEL 4
REMARK VINA RESULT:    -3.286     14.644     16.729
REMARK INTER + INTRA:          -5.795
REMARK INTER:                  -4.830
REMARK INTRA:                  -0.965
REMARK UNBOUND:                -1.069
REMARK SMILES O=C(CO)[C@H](O)[C@H](O)[C@H](O)CO
REMARK SMILES IDX 7 1 9 2 11 3 12 4 10 6 5 8 2 9 1 10 3 11 4 12 6 14 8 16
REMARK H PARENT 12 5 10 7 4 13 6 15 8 17
REMARK Flexibility Score: inf
ROOT
ATOM      1  C   UNL     1      -5.077  -5.941  -3.301  1.00  0.00     0.181 C 
ENDROOT
BRANCH   1   2
ATOM      2  C   UNL     1      -6.542  -6.066  -2.806  1.00  0.00     0.171 C 
BRANCH   2   3
ATOM      3  C   UNL     1      -7.541  -5.248  -3.648  1.00  0.00     0.190 C 
BRANCH   3   4
ATOM      4  O   UNL     1      -7.635  -5.773  -4.946  1.00  0.00    -0.394 OA
ATOM      5  H   UNL     1      -6.707  -5.876  -5.283  1.00  0.00     0.210 HD
ENDBRANCH   3   4
ENDBRANCH   2   3
BRANCH   2   6
ATOM      6  O   UNL     1      -6.901  -7.426  -2.845  1.00  0.00    -0.388 OA
ATOM      7  H   UNL     1      -7.417  -7.571  -3.681  1.00  0.00     0.211 HD
ENDBRANCH   2   6
ENDBRANCH   1   2
BRANCH   1   8
ATOM      8  C   UNL     1      -3.988  -6.051  -2.201  1.00  0.00     0.214 C 
BRANCH   8   9
ATOM      9  C   UNL     1      -3.552  -4.691  -1.686  1.00  0.00     0.189 C 
ATOM     10  O   UNL     1      -4.313  -4.046  -0.981  1.00  0.00    -0.294 OA
BRANCH   9  11
ATOM     11  C   UNL     1      -2.188  -4.119  -1.976  1.00  0.00     0.234 C 
BRANCH  11  12
ATOM     12  O   UNL     1      -1.937  -4.069  -3.354  1.00  0.00    -0.388 OA
ATOM     13  H   UNL     1      -0.978  -3.832  -3.450  1.00  0.00     0.211 HD
ENDBRANCH  11  12
ENDBRANCH   9  11
ENDBRANCH   8   9
BRANCH   8  14
ATOM     14  O   UNL     1      -2.885  -6.781  -2.677  1.00  0.00    -0.382 OA
ATOM     15  H   UNL     1      -3.219  -7.685  -2.918  1.00  0.00     0.211 HD
ENDBRANCH   8  14
ENDBRANCH   1   8
BRANCH   1  16
ATOM     16  O   UNL     1      -4.922  -4.736  -4.007  1.00  0.00    -0.387 OA
ATOM     17  H   UNL     1      -5.616  -4.110  -3.671  1.00  0.00     0.211 HD
ENDBRANCH   1  16
TORSDOF 10
ENDMDL
MODEL 5
REMARK VINA RESULT:    -3.239     14.035     15.540
REMARK INTER + INTRA:          -5.728
REMARK INTER:                  -4.725
REMARK INTRA:                  -1.004
REMARK UNBOUND:                -1.069
REMARK SMILES O=C(CO)[C@H](O)[C@H](O)[C@H](O)CO
REMARK SMILES IDX 7 1 9 2 11 3 12 4 10 6 5 8 2 9 1 10 3 11 4 12 6 14 8 16
REMARK H PARENT 12 5 10 7 4 13 6 15 8 17
REMARK Flexibility Score: inf
ROOT
ATOM      1  C   UNL     1       0.396  -6.857   3.812  1.00  0.00     0.181 C 
ENDROOT
BRANCH   1   2
ATOM      2  C   UNL     1      -0.898  -6.155   3.320  1.00  0.00     0.171 C 
BRANCH   2   3
ATOM      3  C   UNL     1      -0.850  -5.763   1.830  1.00  0.00     0.190 C 
BRANCH   3   4
ATOM      4  O   UNL     1       0.175  -4.834   1.599  1.00  0.00    -0.394 OA
ATOM      5  H   UNL     1      -0.260  -3.953   1.461  1.00  0.00     0.210 HD
ENDBRANCH   3   4
ENDBRANCH   2   3
BRANCH   2   6
ATOM      6  O   UNL     1      -1.978  -7.028   3.540  1.00  0.00    -0.388 OA
ATOM      7  H   UNL     1      -2.629  -6.552   4.120  1.00  0.00     0.211 HD
ENDBRANCH   2   6
ENDBRANCH   1   2
BRANCH   1   8
ATOM      8  C   UNL     1       0.231  -7.768   5.057  1.00  0.00     0.214 C 
BRANCH   8   9
ATOM      9  C   UNL     1       1.371  -7.602   6.045  1.00  0.00     0.189 C 
ATOM     10  O   UNL     1       1.419  -6.599   6.742  1.00  0.00    -0.294 OA
BRANCH   9  11
ATOM     11  C   UNL     1       2.431  -8.656   6.236  1.00  0.00     0.234 C 
BRANCH  11  12
ATOM     12  O   UNL     1       2.892  -9.146   5.006  1.00  0.00    -0.388 OA
ATOM     13  H   UNL     1       2.493  -8.562   4.310  1.00  0.00     0.211 HD
ENDBRANCH  11  12
ENDBRANCH   9  11
ENDBRANCH   8   9
BRANCH   8  14
ATOM     14  O   UNL     1       0.101  -9.111   4.666  1.00  0.00    -0.382 OA
ATOM     15  H   UNL     1      -0.562  -9.528   5.277  1.00  0.00     0.211 HD
ENDBRANCH   8  14
ENDBRANCH   1   8
BRANCH   1  16
ATOM     16  O   UNL     1       1.389  -5.893   4.054  1.00  0.00    -0.387 OA
ATOM     17  H   UNL     1       1.034  -5.277   4.748  1.00  0.00     0.211 HD
ENDBRANCH   1  16
TORSDOF 10
ENDMDL
MODEL 6
REMARK VINA RESULT:    -3.166      1.318      2.255
REMARK INTER + INTRA:          -5.622
REMARK INTER:                  -4.678
REMARK INTRA:                  -0.944
REMARK UNBOUND:                -1.069
REMARK SMILES O=C(CO)[C@H](O)[C@H](O)[C@H](O)CO
REMARK SMILES IDX 7 1 9 2 11 3 12 4 10 6 5 8 2 9 1 10 3 11 4 12 6 14 8 16
REMARK H PARENT 12 5 10 7 4 13 6 15 8 17
REMARK Flexibility Score: inf
ROOT
ATOM      1  C   UNL     1      -1.165   7.422   5.311  1.00  0.00     0.181 C 
ENDROOT
BRANCH   1   2
ATOM      2  C   UNL     1       0.209   8.049   4.956  1.00  0.00     0.171 C 
BRANCH   2   3
ATOM      3  C   UNL     1       0.917   7.340   3.785  1.00  0.00     0.190 C 
BRANCH   3   4
ATOM      4  O   UNL     1       0.023   7.131   2.724  1.00  0.00    -0.394 OA
ATOM      5  H   UNL     1      -0.864   7.457   3.027  1.00  0.00     0.210 HD
ENDBRANCH   3   4
ENDBRANCH   2   3
BRANCH   2   6
ATOM      6  O   UNL     1       0.000   9.400   4.628  1.00  0.00    -0.388 OA
ATOM      7  H   UNL     1       0.174   9.498   3.654  1.00  0.00     0.211 HD
ENDBRANCH   2   6
ENDBRANCH   1   2
BRANCH   1   8
ATOM      8  C   UNL     1      -1.862   8.007   6.568  1.00  0.00     0.214 C 
BRANCH   8   9
ATOM      9  C   UNL     1      -2.970   8.981   6.210  1.00  0.00     0.189 C 
ATOM     10  O   UNL     1      -3.059   9.391   5.062  1.00  0.00    -0.294 OA
BRANCH   9  11
ATOM     11  C   UNL     1      -4.002   9.431   7.212  1.00  0.00     0.234 C 
BRANCH  11  12
ATOM     12  O   UNL     1      -3.547   9.260   8.526  1.00  0.00    -0.388 OA
ATOM     13  H   UNL     1      -2.638   8.871   8.455  1.00  0.00     0.211 HD
ENDBRANCH  11  12
ENDBRANCH   9  11
ENDBRANCH   8   9
BRANCH   8  14
ATOM     14  O   UNL     1      -0.917   8.615   7.412  1.00  0.00    -0.382 OA
ATOM     15  H   UNL     1      -0.251   9.063   6.826  1.00  0.00     0.211 HD
ENDBRANCH   8  14
ENDBRANCH   1   8
BRANCH   1  16
ATOM     16  O   UNL     1      -1.024   6.031   5.448  1.00  0.00    -0.387 OA
ATOM     17  H   UNL     1      -0.053   5.844   5.541  1.00  0.00     0.211 HD
ENDBRANCH   1  16
TORSDOF 10
ENDMDL
MODEL 7
REMARK VINA RESULT:    -3.165     14.414     16.100
REMARK INTER + INTRA:          -5.621
REMARK INTER:                  -4.656
REMARK INTRA:                  -0.965
REMARK UNBOUND:                -1.069
REMARK SMILES O=C(CO)[C@H](O)[C@H](O)[C@H](O)CO
REMARK SMILES IDX 7 1 9 2 11 3 12 4 10 6 5 8 2 9 1 10 3 11 4 12 6 14 8 16
REMARK H PARENT 12 5 10 7 4 13 6 15 8 17
REMARK Flexibility Score: inf
ROOT
ATOM      1  C   UNL     1      -2.909  -4.739  -2.384  1.00  0.00     0.181 C 
ENDROOT
BRANCH   1   2
ATOM      2  C   UNL     1      -1.810  -5.141  -1.365  1.00  0.00     0.171 C 
BRANCH   2   3
ATOM      3  C   UNL     1      -0.640  -4.139  -1.304  1.00  0.00     0.190 C 
BRANCH   3   4
ATOM      4  O   UNL     1       0.358  -4.494  -2.224  1.00  0.00    -0.394 OA
ATOM      5  H   UNL     1      -0.081  -5.033  -2.932  1.00  0.00     0.210 HD
ENDBRANCH   3   4
ENDBRANCH   2   3
BRANCH   2   6
ATOM      6  O   UNL     1      -2.408  -5.240  -0.096  1.00  0.00    -0.388 OA
ATOM      7  H   UNL     1      -2.028  -6.043   0.348  1.00  0.00     0.211 HD
ENDBRANCH   2   6
ENDBRANCH   1   2
BRANCH   1   8
ATOM      8  C   UNL     1      -3.835  -5.891  -2.858  1.00  0.00     0.214 C 
BRANCH   8   9
ATOM      9  C   UNL     1      -5.100  -5.375  -3.520  1.00  0.00     0.189 C 
ATOM     10  O   UNL     1      -5.016  -4.745  -4.564  1.00  0.00    -0.294 OA
BRANCH   9  11
ATOM     11  C   UNL     1      -6.472  -5.651  -2.961  1.00  0.00     0.234 C 
BRANCH  11  12
ATOM     12  O   UNL     1      -6.770  -7.020  -2.988  1.00  0.00    -0.388 OA
ATOM     13  H   UNL     1      -6.239  -7.403  -3.733  1.00  0.00     0.211 HD
ENDBRANCH  11  12
ENDBRANCH   9  11
ENDBRANCH   8   9
BRANCH   8  14
ATOM     14  O   UNL     1      -4.146  -6.741  -1.784  1.00  0.00    -0.382 OA
ATOM     15  H   UNL     1      -3.685  -7.605  -1.955  1.00  0.00     0.211 HD
ENDBRANCH   8  14
ENDBRANCH   1   8
BRANCH   1  16
ATOM     16  O   UNL     1      -2.313  -4.118  -3.495  1.00  0.00    -0.387 OA
ATOM     17  H   UNL     1      -1.989  -4.842  -4.093  1.00  0.00     0.211 HD
ENDBRANCH   1  16
TORSDOF 10
ENDMDL
MODEL 8
REMARK VINA RESULT:    -3.138      1.255      2.107
REMARK INTER + INTRA:          -5.583
REMARK INTER:                  -4.666
REMARK INTRA:                  -0.917
REMARK UNBOUND:                -1.069
REMARK SMILES O=C(CO)[C@H](O)[C@H](O)[C@H](O)CO
REMARK SMILES IDX 7 1 9 2 11 3 12 4 10 6 5 8 2 9 1 10 3 11 4 12 6 14 8 16
REMARK H PARENT 12 5 10 7 4 13 6 15 8 17
REMARK Flexibility Score: inf
ROOT
ATOM      1  C   UNL     1       0.787   8.059   5.120  1.00  0.00     0.181 C 
ENDROOT
BRANCH   1   2
ATOM      2  C   UNL     1       0.916   6.662   4.457  1.00  0.00     0.171 C 
BRANCH   2   3
ATOM      3  C   UNL     1       0.654   6.683   2.938  1.00  0.00     0.190 C 
BRANCH   3   4
ATOM      4  O   UNL     1      -0.723   6.735   2.677  1.00  0.00    -0.394 OA
ATOM      5  H   UNL     1      -1.096   5.849   2.923  1.00  0.00     0.210 HD
ENDBRANCH   3   4
ENDBRANCH   2   3
BRANCH   2   6
ATOM      6  O   UNL     1       2.215   6.182   4.701  1.00  0.00    -0.388 OA
ATOM      7  H   UNL     1       2.175   5.190   4.664  1.00  0.00     0.211 HD
ENDBRANCH   2   6
ENDBRANCH   1   2
BRANCH   1   8
ATOM      8  C   UNL     1      -0.143   8.126   6.361  1.00  0.00     0.214 C 
BRANCH   8   9
ATOM      9  C   UNL     1      -1.595   8.348   5.980  1.00  0.00     0.189 C 
ATOM     10  O   UNL     1      -2.002   7.936   4.904  1.00  0.00    -0.294 OA
BRANCH   9  11
ATOM     11  C   UNL     1      -2.576   9.023   6.904  1.00  0.00     0.234 C 
BRANCH  11  12
ATOM     12  O   UNL     1      -2.370   8.641   8.236  1.00  0.00    -0.388 OA
ATOM     13  H   UNL     1      -3.064   9.111   8.767  1.00  0.00     0.211 HD
ENDBRANCH  11  12
ENDBRANCH   9  11
ENDBRANCH   8   9
BRANCH   8  14
ATOM     14  O   UNL     1       0.298   9.123   7.248  1.00  0.00    -0.382 OA
ATOM     15  H   UNL     1       1.160   8.810   7.631  1.00  0.00     0.211 HD
ENDBRANCH   8  14
ENDBRANCH   1   8
BRANCH   1  16
ATOM     16  O   UNL     1       0.370   8.997   4.161  1.00  0.00    -0.387 OA
ATOM     17  H   UNL     1       0.518   9.898   4.552  1.00  0.00     0.211 HD
ENDBRANCH   1  16
TORSDOF 10
ENDMDL
MODEL 9
REMARK VINA RESULT:    -3.108      1.528      2.222
REMARK INTER + INTRA:          -5.540
REMARK INTER:                  -4.617
REMARK INTRA:                  -0.924
REMARK UNBOUND:                -1.069
REMARK SMILES O=C(CO)[C@H](O)[C@H](O)[C@H](O)CO
REMARK SMILES IDX 7 1 9 2 11 3 12 4 10 6 5 8 2 9 1 10 3 11 4 12 6 14 8 16
REMARK H PARENT 12 5 10 7 4 13 6 15 8 17
REMARK Flexibility Score: inf
ROOT
ATOM      1  C   UNL     1      -0.057   8.054   4.829  1.00  0.00     0.181 C 
ENDROOT
BRANCH   1   2
ATOM      2  C   UNL     1       0.661   7.482   3.579  1.00  0.00     0.171 C 
BRANCH   2   3
ATOM      3  C   UNL     1       1.766   6.464   3.924  1.00  0.00     0.190 C 
BRANCH   3   4
ATOM      4  O   UNL     1       1.561   5.932   5.205  1.00  0.00    -0.394 OA
ATOM      5  H   UNL     1       2.332   6.216   5.762  1.00  0.00     0.210 HD
ENDBRANCH   3   4
ENDBRANCH   2   3
BRANCH   2   6
ATOM      6  O   UNL     1      -0.306   6.864   2.765  1.00  0.00    -0.388 OA
ATOM      7  H   UNL     1      -0.384   7.406   1.936  1.00  0.00     0.211 HD
ENDBRANCH   2   6
ENDBRANCH   1   2
BRANCH   1   8
ATOM      8  C   UNL     1      -1.498   7.532   5.071  1.00  0.00     0.214 C 
BRANCH   8   9
ATOM      9  C   UNL     1      -2.384   8.574   5.730  1.00  0.00     0.189 C 
ATOM     10  O   UNL     1      -2.967   9.391   5.034  1.00  0.00    -0.294 OA
BRANCH   9  11
ATOM     11  C   UNL     1      -2.610   8.612   7.219  1.00  0.00     0.234 C 
BRANCH  11  12
ATOM     12  O   UNL     1      -1.398   8.622   7.922  1.00  0.00    -0.388 OA
ATOM     13  H   UNL     1      -0.807   7.972   7.461  1.00  0.00     0.211 HD
ENDBRANCH  11  12
ENDBRANCH   9  11
ENDBRANCH   8   9
BRANCH   8  14
ATOM     14  O   UNL     1      -1.468   6.350   5.831  1.00  0.00    -0.382 OA
ATOM     15  H   UNL     1      -0.528   6.219   6.125  1.00  0.00     0.211 HD
ENDBRANCH   8  14
ENDBRANCH   1   8
BRANCH   1  16
ATOM     16  O   UNL     1      -0.063   9.458   4.764  1.00  0.00    -0.387 OA
ATOM     17  H   UNL     1       0.522   9.717   4.004  1.00  0.00     0.211 HD
ENDBRANCH   1  16
TORSDOF 10
ENDMDL
