MODEL 1
REMARK VINA RESULT:    -5.468      0.000      0.000
REMARK INTER + INTRA:          -5.628
REMARK INTER:                  -5.628
REMARK INTRA:                   0.000
REMARK UNBOUND:                 0.000
REMARK SMILES O=c1ccc2cc(O)ccc2o1
REMARK SMILES IDX 9 1 10 2 11 3 5 4 4 5 3 6 2 7 1 8 12 9 6 10 7 11 8 12
REMARK H PARENT 8 13
REMARK Flexibility Score: inf
ROOT
ATOM      1  C   UNL     1     -13.860  27.371 -18.250  1.00  0.00     0.050 A 
ATOM      2  C   UNL     1     -14.113  26.589 -19.381  1.00  0.00     0.052 A 
ATOM      3  C   UNL     1     -13.115  26.406 -20.344  1.00  0.00     0.138 A 
ATOM      4  C   UNL     1     -11.852  27.015 -20.170  1.00  0.00     0.021 A 
ATOM      5  C   UNL     1     -10.875  26.814 -21.149  1.00  0.00     0.019 A 
ATOM      6  C   UNL     1     -11.171  26.025 -22.261  1.00  0.00     0.094 A 
ATOM      7  C   UNL     1     -12.444  25.453 -22.366  1.00  0.00     0.336 A 
ATOM      8  O   UNL     1     -12.731  24.739 -23.362  1.00  0.00    -0.246 OA
ATOM      9  O   UNL     1     -13.357  25.660 -21.420  1.00  0.00    -0.423 OA
ATOM     10  C   UNL     1     -11.604  27.799 -19.034  1.00  0.00     0.058 A 
ATOM     11  C   UNL     1     -12.611  27.977 -18.072  1.00  0.00     0.116 A 
ENDROOT
BRANCH  11  12
ATOM     12  O   UNL     1     -12.378  28.753 -16.940  1.00  0.00    -0.508 OA
ATOM     13  H   UNL     1     -13.119  28.975 -16.287  1.00  0.00     0.293 HD
ENDBRANCH  11  12
TORSDOF 1
ENDMDL
MODEL 2
REMARK VINA RESULT:    -5.332      7.660     10.593
REMARK INTER + INTRA:          -5.487
REMARK INTER:                  -5.487
REMARK INTRA:                   0.000
REMARK UNBOUND:                 0.000
REMARK SMILES O=c1ccc2cc(O)ccc2o1
REMARK SMILES IDX 9 1 10 2 11 3 5 4 4 5 3 6 2 7 1 8 12 9 6 10 7 11 8 12
REMARK H PARENT 8 13
REMARK Flexibility Score: inf
ROOT
ATOM      1  C   UNL     1     -15.096  20.881 -30.050  1.00  0.00     0.050 A 
ATOM      2  C   UNL     1     -15.500  21.418 -28.824  1.00  0.00     0.052 A 
ATOM      3  C   UNL     1     -15.078  22.698 -28.447  1.00  0.00     0.138 A 
ATOM      4  C   UNL     1     -14.242  23.444 -29.308  1.00  0.00     0.021 A 
ATOM      5  C   UNL     1     -13.837  24.719 -28.904  1.00  0.00     0.019 A 
ATOM      6  C   UNL     1     -14.265  25.215 -27.673  1.00  0.00     0.094 A 
ATOM      7  C   UNL     1     -15.092  24.420 -26.872  1.00  0.00     0.336 A 
ATOM      8  O   UNL     1     -15.488  24.851 -25.757  1.00  0.00    -0.246 OA
ATOM      9  O   UNL     1     -15.463  23.209 -27.280  1.00  0.00    -0.423 OA
ATOM     10  C   UNL     1     -13.840  22.899 -30.537  1.00  0.00     0.058 A 
ATOM     11  C   UNL     1     -14.268  21.615 -30.907  1.00  0.00     0.116 A 
ENDROOT
BRANCH  11  12
ATOM     12  O   UNL     1     -13.876  21.062 -32.124  1.00  0.00    -0.508 OA
ATOM     13  H   UNL     1     -13.546  21.640 -32.887  1.00  0.00     0.293 HD
ENDBRANCH  11  12
TORSDOF 1
ENDMDL
MODEL 3
REMARK VINA RESULT:    -5.185     10.576     11.885
REMARK INTER + INTRA:          -5.337
REMARK INTER:                  -5.337
REMARK INTRA:                   0.000
REMARK UNBOUND:                 0.000
REMARK SMILES O=c1ccc2cc(O)ccc2o1
REMARK SMILES IDX 9 1 10 2 11 3 5 4 4 5 3 6 2 7 1 8 12 9 6 10 7 11 8 12
REMARK H PARENT 8 13
REMARK Flexibility Score: inf
ROOT
ATOM      1  C   UNL     1     -17.471  33.193 -12.809  1.00  0.00     0.050 A 
ATOM      2  C   UNL     1     -18.458  32.518 -12.085  1.00  0.00     0.052 A 
ATOM      3  C   UNL     1     -19.631  32.099 -12.721  1.00  0.00     0.138 A 
ATOM      4  C   UNL     1     -19.814  32.361 -14.098  1.00  0.00     0.021 A 
ATOM      5  C   UNL     1     -20.997  31.930 -14.706  1.00  0.00     0.019 A 
ATOM      6  C   UNL     1     -21.954  31.259 -13.944  1.00  0.00     0.094 A 
ATOM      7  C   UNL     1     -21.704  31.035 -12.586  1.00  0.00     0.336 A 
ATOM      8  O   UNL     1     -22.556  30.432 -11.882  1.00  0.00    -0.246 OA
ATOM      9  O   UNL     1     -20.570  31.456 -12.031  1.00  0.00    -0.423 OA
ATOM     10  C   UNL     1     -18.821  33.038 -14.819  1.00  0.00     0.058 A 
ATOM     11  C   UNL     1     -17.647  33.455 -14.173  1.00  0.00     0.116 A 
ENDROOT
BRANCH  11  12
ATOM     12  O   UNL     1     -16.653  34.130 -14.877  1.00  0.00    -0.508 OA
ATOM     13  H   UNL     1     -16.707  34.258 -15.880  1.00  0.00     0.293 HD
ENDBRANCH  11  12
TORSDOF 1
ENDMDL
MODEL 4
REMARK VINA RESULT:    -5.135      1.233      2.085
REMARK INTER + INTRA:          -5.285
REMARK INTER:                  -5.285
REMARK INTRA:                   0.000
REMARK UNBOUND:                 0.000
REMARK SMILES O=c1ccc2cc(O)ccc2o1
REMARK SMILES IDX 9 1 10 2 11 3 5 4 4 5 3 6 2 7 1 8 12 9 6 10 7 11 8 12
REMARK H PARENT 8 13
REMARK Flexibility Score: inf
ROOT
ATOM      1  C   UNL     1     -11.650  28.026 -18.543  1.00  0.00     0.050 A 
ATOM      2  C   UNL     1     -11.011  27.736 -19.751  1.00  0.00     0.052 A 
ATOM      3  C   UNL     1     -11.596  26.845 -20.658  1.00  0.00     0.138 A 
ATOM      4  C   UNL     1     -12.835  26.241 -20.348  1.00  0.00     0.021 A 
ATOM      5  C   UNL     1     -13.395  25.356 -21.273  1.00  0.00     0.019 A 
ATOM      6  C   UNL     1     -12.721  25.096 -22.467  1.00  0.00     0.094 A 
ATOM      7  C   UNL     1     -11.498  25.732 -22.707  1.00  0.00     0.336 A 
ATOM      8  O   UNL     1     -10.875  25.510 -23.778  1.00  0.00    -0.246 OA
ATOM      9  O   UNL     1     -10.987  26.570 -21.809  1.00  0.00    -0.423 OA
ATOM     10  C   UNL     1     -13.472  26.536 -19.134  1.00  0.00     0.058 A 
ATOM     11  C   UNL     1     -12.878  27.430 -18.230  1.00  0.00     0.116 A 
ENDROOT
BRANCH  11  12
ATOM     12  O   UNL     1     -13.500  27.731 -17.020  1.00  0.00    -0.508 OA
ATOM     13  H   UNL     1     -12.986  27.742 -16.148  1.00  0.00     0.293 HD
ENDBRANCH  11  12
TORSDOF 1
ENDMDL
MODEL 5
REMARK VINA RESULT:    -5.060     10.966     12.144
REMARK INTER + INTRA:          -5.208
REMARK INTER:                  -5.208
REMARK INTRA:                   0.000
REMARK UNBOUND:                 0.000
REMARK SMILES O=c1ccc2cc(O)ccc2o1
REMARK SMILES IDX 9 1 10 2 11 3 5 4 4 5 3 6 2 7 1 8 12 9 6 10 7 11 8 12
REMARK H PARENT 8 13
REMARK Flexibility Score: inf
ROOT
ATOM      1  C   UNL     1     -15.398  22.975 -32.125  1.00  0.00     0.050 A 
ATOM      2  C   UNL     1     -16.013  21.741 -31.894  1.00  0.00     0.052 A 
ATOM      3  C   UNL     1     -15.753  21.038 -30.712  1.00  0.00     0.138 A 
ATOM      4  C   UNL     1     -14.866  21.580 -29.754  1.00  0.00     0.021 A 
ATOM      5  C   UNL     1     -14.625  20.855 -28.584  1.00  0.00     0.019 A 
ATOM      6  C   UNL     1     -15.262  19.628 -28.395  1.00  0.00     0.094 A 
ATOM      7  C   UNL     1     -16.128  19.154 -29.387  1.00  0.00     0.336 A 
ATOM      8  O   UNL     1     -16.711  18.049 -29.235  1.00  0.00    -0.246 OA
ATOM      9  O   UNL     1     -16.340  19.864 -30.492  1.00  0.00    -0.423 OA
ATOM     10  C   UNL     1     -14.252  22.818 -29.992  1.00  0.00     0.058 A 
ATOM     11  C   UNL     1     -14.519  23.516 -31.180  1.00  0.00     0.116 A 
ENDROOT
BRANCH  11  12
ATOM     12  O   UNL     1     -13.915  24.747 -31.428  1.00  0.00    -0.508 OA
ATOM     13  H   UNL     1     -13.394  24.920 -32.279  1.00  0.00     0.293 HD
ENDBRANCH  11  12
TORSDOF 1
ENDMDL
MODEL 6
REMARK VINA RESULT:    -5.050     12.885     14.647
REMARK INTER + INTRA:          -5.198
REMARK INTER:                  -5.198
REMARK INTRA:                   0.000
REMARK UNBOUND:                 0.000
REMARK SMILES O=c1ccc2cc(O)ccc2o1
REMARK SMILES IDX 9 1 10 2 11 3 5 4 4 5 3 6 2 7 1 8 12 9 6 10 7 11 8 12
REMARK H PARENT 8 13
REMARK Flexibility Score: inf
ROOT
ATOM      1  C   UNL     1     -28.111  26.918 -21.088  1.00  0.00     0.050 A 
ATOM      2  C   UNL     1     -28.198  27.483 -19.812  1.00  0.00     0.052 A 
ATOM      3  C   UNL     1     -27.044  27.951 -19.173  1.00  0.00     0.138 A 
ATOM      4  C   UNL     1     -25.793  27.851 -19.822  1.00  0.00     0.021 A 
ATOM      5  C   UNL     1     -24.659  28.327 -19.158  1.00  0.00     0.019 A 
ATOM      6  C   UNL     1     -24.792  28.883 -17.886  1.00  0.00     0.094 A 
ATOM      7  C   UNL     1     -26.064  28.950 -17.306  1.00  0.00     0.336 A 
ATOM      8  O   UNL     1     -26.204  29.448 -16.158  1.00  0.00    -0.246 OA
ATOM      9  O   UNL     1     -27.128  28.489 -17.959  1.00  0.00    -0.423 OA
ATOM     10  C   UNL     1     -25.712  27.283 -21.102  1.00  0.00     0.058 A 
ATOM     11  C   UNL     1     -26.874  26.816 -21.736  1.00  0.00     0.116 A 
ENDROOT
BRANCH  11  12
ATOM     12  O   UNL     1     -26.808  26.250 -23.006  1.00  0.00    -0.508 OA
ATOM     13  H   UNL     1     -26.389  25.341 -23.161  1.00  0.00     0.293 HD
ENDBRANCH  11  12
TORSDOF 1
ENDMDL
MODEL 7
REMARK VINA RESULT:    -4.968      1.366      4.912
REMARK INTER + INTRA:          -5.113
REMARK INTER:                  -5.113
REMARK INTRA:                   0.000
REMARK UNBOUND:                 0.000
REMARK SMILES O=c1ccc2cc(O)ccc2o1
REMARK SMILES IDX 9 1 10 2 11 3 5 4 4 5 3 6 2 7 1 8 12 9 6 10 7 11 8 12
REMARK H PARENT 8 13
REMARK Flexibility Score: inf
ROOT
ATOM      1  C   UNL     1     -11.049  25.992 -23.499  1.00  0.00     0.050 A 
ATOM      2  C   UNL     1     -10.875  26.821 -22.387  1.00  0.00     0.052 A 
ATOM      3  C   UNL     1     -11.651  26.625 -21.239  1.00  0.00     0.138 A 
ATOM      4  C   UNL     1     -12.610  25.588 -21.209  1.00  0.00     0.021 A 
ATOM      5  C   UNL     1     -13.370  25.417 -20.049  1.00  0.00     0.019 A 
ATOM      6  C   UNL     1     -13.163  26.267 -18.962  1.00  0.00     0.094 A 
ATOM      7  C   UNL     1     -12.195  27.273 -19.064  1.00  0.00     0.336 A 
ATOM      8  O   UNL     1     -11.994  28.050 -18.094  1.00  0.00    -0.246 OA
ATOM      9  O   UNL     1     -11.485  27.414 -20.180  1.00  0.00    -0.423 OA
ATOM     10  C   UNL     1     -12.780  24.760 -22.328  1.00  0.00     0.058 A 
ATOM     11  C   UNL     1     -11.997  24.963 -23.475  1.00  0.00     0.116 A 
ENDROOT
BRANCH  11  12
ATOM     12  O   UNL     1     -12.156  24.148 -24.593  1.00  0.00    -0.508 OA
ATOM     13  H   UNL     1     -11.404  23.562 -24.933  1.00  0.00     0.293 HD
ENDBRANCH  11  12
TORSDOF 1
ENDMDL
MODEL 8
REMARK VINA RESULT:    -4.930     13.012     14.564
REMARK INTER + INTRA:          -5.074
REMARK INTER:                  -5.074
REMARK INTRA:                   0.000
REMARK UNBOUND:                 0.000
REMARK SMILES O=c1ccc2cc(O)ccc2o1
REMARK SMILES IDX 9 1 10 2 11 3 5 4 4 5 3 6 2 7 1 8 12 9 6 10 7 11 8 12
REMARK H PARENT 8 13
REMARK Flexibility Score: inf
ROOT
ATOM      1  C   UNL     1     -24.376  28.772 -19.085  1.00  0.00     0.050 A 
ATOM      2  C   UNL     1     -25.661  28.778 -18.534  1.00  0.00     0.052 A 
ATOM      3  C   UNL     1     -26.715  28.146 -19.204  1.00  0.00     0.138 A 
ATOM      4  C   UNL     1     -26.475  27.503 -20.440  1.00  0.00     0.021 A 
ATOM      5  C   UNL     1     -27.547  26.881 -21.085  1.00  0.00     0.019 A 
ATOM      6  C   UNL     1     -28.812  26.912 -20.498  1.00  0.00     0.094 A 
ATOM      7  C   UNL     1     -28.974  27.567 -19.272  1.00  0.00     0.336 A 
ATOM      8  O   UNL     1     -30.108  27.606 -18.726  1.00  0.00    -0.246 OA
ATOM      9  O   UNL     1     -27.937  28.152 -18.678  1.00  0.00    -0.423 OA
ATOM     10  C   UNL     1     -25.184  27.501 -20.988  1.00  0.00     0.058 A 
ATOM     11  C   UNL     1     -24.133  28.137 -20.309  1.00  0.00     0.116 A 
ENDROOT
BRANCH  11  12
ATOM     12  O   UNL     1     -22.847  28.142 -20.843  1.00  0.00    -0.508 OA
ATOM     13  H   UNL     1     -22.644  27.725 -21.743  1.00  0.00     0.293 HD
ENDBRANCH  11  12
TORSDOF 1
ENDMDL
MODEL 9
REMARK VINA RESULT:    -4.856     14.589     16.444
REMARK INTER + INTRA:          -4.998
REMARK INTER:                  -4.998
REMARK INTRA:                   0.000
REMARK UNBOUND:                 0.000
REMARK SMILES O=c1ccc2cc(O)ccc2o1
REMARK SMILES IDX 9 1 10 2 11 3 5 4 4 5 3 6 2 7 1 8 12 9 6 10 7 11 8 12
REMARK H PARENT 8 13
REMARK Flexibility Score: inf
ROOT
ATOM      1  C   UNL     1     -26.144  27.755 -20.476  1.00  0.00     0.050 A 
ATOM      2  C   UNL     1     -26.404  28.496 -19.320  1.00  0.00     0.052 A 
ATOM      3  C   UNL     1     -27.686  28.495 -18.759  1.00  0.00     0.138 A 
ATOM      4  C   UNL     1     -28.716  27.742 -19.367  1.00  0.00     0.021 A 
ATOM      5  C   UNL     1     -29.987  27.761 -18.784  1.00  0.00     0.019 A 
ATOM      6  C   UNL     1     -30.200  28.514 -17.630  1.00  0.00     0.094 A 
ATOM      7  C   UNL     1     -29.132  29.234 -17.084  1.00  0.00     0.336 A 
ATOM      8  O   UNL     1     -29.305  29.921 -16.042  1.00  0.00    -0.246 OA
ATOM      9  O   UNL     1     -27.932  29.200 -17.658  1.00  0.00    -0.423 OA
ATOM     10  C   UNL     1     -28.450  27.001 -20.527  1.00  0.00     0.058 A 
ATOM     11  C   UNL     1     -27.161  27.008 -21.082  1.00  0.00     0.116 A 
ENDROOT
BRANCH  11  12
ATOM     12  O   UNL     1     -26.883  26.276 -22.234  1.00  0.00    -0.508 OA
ATOM     13  H   UNL     1     -25.933  26.061 -22.510  1.00  0.00     0.293 HD
ENDBRANCH  11  12
TORSDOF 1
ENDMDL
