MODEL 1
REMARK VINA RESULT:    -5.025      0.000      0.000
REMARK INTER + INTRA:         -10.693
REMARK INTER:                  -8.549
REMARK INTRA:                  -2.144
REMARK UNBOUND:                -2.144
REMARK SMILES CCCCCCCCCCCCCC(=O)[O-]
REMARK SMILES IDX 8 1 9 2 10 3 11 4 12 5 13 6 14 7 15 8 16 9 7 10 6 11 5 12
REMARK SMILES IDX 4 13 3 14 2 15 1 16
REMARK H PARENT
REMARK Flexibility Score: inf
ROOT
ATOM      1  C   UNL     1      12.097   5.737  18.712  1.00  0.00     0.000 C 
ENDROOT
BRANCH   1   2
ATOM      2  C   UNL     1      11.678   4.890  19.923  1.00  0.00     0.000 C 
BRANCH   2   3
ATOM      3  C   UNL     1      10.886   3.651  19.479  1.00  0.00     0.000 C 
BRANCH   3   4
ATOM      4  C   UNL     1      11.051   3.347  17.982  1.00  0.00     0.000 C 
BRANCH   4   5
ATOM      5  C   UNL     1       9.890   2.509  17.415  1.00  0.00     0.006 C 
BRANCH   5   6
ATOM      6  C   UNL     1       8.960   1.987  18.518  1.00  0.00     0.053 C 
BRANCH   6   7
ATOM      7  C   UNL     1       8.414   0.630  18.191  1.00  0.00     0.041 C 
ATOM      8  O   UNL     1       7.885   0.413  17.069  1.00  0.00    -0.550 OA
ATOM      9  O   UNL     1       8.517  -0.403  19.114  1.00  0.00    -0.550 OA
ENDBRANCH   6   7
ENDBRANCH   5   6
ENDBRANCH   4   5
ENDBRANCH   3   4
ENDBRANCH   2   3
ENDBRANCH   1   2
BRANCH   1  10
ATOM     10  C   UNL     1      11.454   7.135  18.703  1.00  0.00     0.000 C 
BRANCH  10  11
ATOM     11  C   UNL     1      10.685   7.488  17.416  1.00  0.00    -0.000 C 
BRANCH  11  12
ATOM     12  C   UNL     1       9.492   6.556  17.157  1.00  0.00    -0.000 C 
BRANCH  12  13
ATOM     13  C   UNL     1       8.417   6.726  18.238  1.00  0.00    -0.000 C 
BRANCH  13  14
ATOM     14  C   UNL     1       7.699   5.397  18.513  1.00  0.00    -0.000 C 
BRANCH  14  15
ATOM     15  C   UNL     1       7.640   5.056  20.010  1.00  0.00    -0.003 C 
ATOM     16  C   UNL     1       8.409   6.055  20.874  1.00  0.00     0.004 C 
ENDBRANCH  14  15
ENDBRANCH  13  14
ENDBRANCH  12  13
ENDBRANCH  11  12
ENDBRANCH  10  11
ENDBRANCH   1  10
TORSDOF 12
ENDMDL
MODEL 2
REMARK VINA RESULT:    -4.995      4.080      6.155
REMARK INTER + INTRA:         -10.643
REMARK INTER:                  -8.747
REMARK INTRA:                  -1.895
REMARK UNBOUND:                -2.144
REMARK SMILES CCCCCCCCCCCCCC(=O)[O-]
REMARK SMILES IDX 8 1 9 2 10 3 11 4 12 5 13 6 14 7 15 8 16 9 7 10 6 11 5 12
REMARK SMILES IDX 4 13 3 14 2 15 1 16
REMARK H PARENT
REMARK Flexibility Score: inf
ROOT
ATOM      1  C   UNL     1       8.348   6.705  17.897  1.00  0.00     0.000 C 
ENDROOT
BRANCH   1   2
ATOM      2  C   UNL     1       9.650   6.424  17.132  1.00  0.00     0.000 C 
BRANCH   2   3
ATOM      3  C   UNL     1      10.778   7.352  17.608  1.00  0.00     0.000 C 
BRANCH   3   4
ATOM      4  C   UNL     1      11.774   6.645  18.540  1.00  0.00     0.000 C 
BRANCH   4   5
ATOM      5  C   UNL     1      12.484   7.619  19.497  1.00  0.00     0.006 C 
BRANCH   5   6
ATOM      6  C   UNL     1      11.739   7.770  20.829  1.00  0.00     0.053 C 
BRANCH   6   7
ATOM      7  C   UNL     1      12.466   8.675  21.777  1.00  0.00     0.041 C 
ATOM      8  O   UNL     1      13.658   8.428  22.101  1.00  0.00    -0.550 OA
ATOM      9  O   UNL     1      11.839   9.809  22.277  1.00  0.00    -0.550 OA
ENDBRANCH   6   7
ENDBRANCH   5   6
ENDBRANCH   4   5
ENDBRANCH   3   4
ENDBRANCH   2   3
ENDBRANCH   1   2
BRANCH   1  10
ATOM     10  C   UNL     1       8.044   5.651  18.977  1.00  0.00     0.000 C 
BRANCH  10  11
ATOM     11  C   UNL     1       8.562   5.996  20.386  1.00  0.00    -0.000 C 
BRANCH  11  12
ATOM     12  C   UNL     1       8.898   4.752  21.221  1.00  0.00    -0.000 C 
BRANCH  12  13
ATOM     13  C   UNL     1      10.328   4.273  20.942  1.00  0.00    -0.000 C 
BRANCH  13  14
ATOM     14  C   UNL     1      10.323   2.986  20.103  1.00  0.00    -0.000 C 
BRANCH  14  15
ATOM     15  C   UNL     1      10.787   3.223  18.658  1.00  0.00    -0.003 C 
ATOM     16  C   UNL     1       9.840   2.610  17.626  1.00  0.00     0.004 C 
ENDBRANCH  14  15
ENDBRANCH  13  14
ENDBRANCH  12  13
ENDBRANCH  11  12
ENDBRANCH  10  11
ENDBRANCH   1  10
TORSDOF 12
ENDMDL
MODEL 3
REMARK VINA RESULT:    -4.988     18.769     20.074
REMARK INTER + INTRA:         -10.630
REMARK INTER:                  -8.652
REMARK INTRA:                  -1.978
REMARK UNBOUND:                -2.144
REMARK SMILES CCCCCCCCCCCCCC(=O)[O-]
REMARK SMILES IDX 8 1 9 2 10 3 11 4 12 5 13 6 14 7 15 8 16 9 7 10 6 11 5 12
REMARK SMILES IDX 4 13 3 14 2 15 1 16
REMARK H PARENT
REMARK Flexibility Score: inf
ROOT
ATOM      1  C   UNL     1      16.469  -5.202  36.690  1.00  0.00     0.000 C 
ENDROOT
BRANCH   1   2
ATOM      2  C   UNL     1      15.315  -4.903  35.721  1.00  0.00     0.000 C 
BRANCH   2   3
ATOM      3  C   UNL     1      15.184  -6.011  34.665  1.00  0.00     0.000 C 
BRANCH   3   4
ATOM      4  C   UNL     1      15.478  -5.512  33.242  1.00  0.00     0.000 C 
BRANCH   4   5
ATOM      5  C   UNL     1      15.811  -6.657  32.269  1.00  0.00     0.006 C 
BRANCH   5   6
ATOM      6  C   UNL     1      15.602  -8.037  32.905  1.00  0.00     0.053 C 
BRANCH   6   7
ATOM      7  C   UNL     1      15.788  -9.144  31.911  1.00  0.00     0.041 C 
ATOM      8  O   UNL     1      14.787  -9.723  31.412  1.00  0.00    -0.550 OA
ATOM      9  O   UNL     1      17.066  -9.514  31.511  1.00  0.00    -0.550 OA
ENDBRANCH   6   7
ENDBRANCH   5   6
ENDBRANCH   4   5
ENDBRANCH   3   4
ENDBRANCH   2   3
ENDBRANCH   1   2
BRANCH   1  10
ATOM     10  C   UNL     1      17.722  -4.351  36.415  1.00  0.00     0.000 C 
BRANCH  10  11
ATOM     11  C   UNL     1      17.456  -3.016  35.695  1.00  0.00    -0.000 C 
BRANCH  11  12
ATOM     12  C   UNL     1      18.046  -2.973  34.277  1.00  0.00    -0.000 C 
BRANCH  12  13
ATOM     13  C   UNL     1      19.184  -3.989  34.125  1.00  0.00    -0.000 C 
BRANCH  13  14
ATOM     14  C   UNL     1      18.953  -4.896  32.907  1.00  0.00    -0.000 C 
BRANCH  14  15
ATOM     15  C   UNL     1      19.442  -6.334  33.140  1.00  0.00    -0.003 C 
ATOM     16  C   UNL     1      18.843  -6.965  34.397  1.00  0.00     0.004 C 
ENDBRANCH  14  15
ENDBRANCH  13  14
ENDBRANCH  12  13
ENDBRANCH  11  12
ENDBRANCH  10  11
ENDBRANCH   1  10
TORSDOF 12
ENDMDL
MODEL 4
REMARK VINA RESULT:    -4.966      0.875      2.718
REMARK INTER + INTRA:         -10.593
REMARK INTER:                  -8.563
REMARK INTRA:                  -2.031
REMARK UNBOUND:                -2.144
REMARK SMILES CCCCCCCCCCCCCC(=O)[O-]
REMARK SMILES IDX 8 1 9 2 10 3 11 4 12 5 13 6 14 7 15 8 16 9 7 10 6 11 5 12
REMARK SMILES IDX 4 13 3 14 2 15 1 16
REMARK H PARENT
REMARK Flexibility Score: inf
ROOT
ATOM      1  C   UNL     1       9.073   4.906  21.373  1.00  0.00     0.000 C 
ENDROOT
BRANCH   1   2
ATOM      2  C   UNL     1      10.415   4.423  20.802  1.00  0.00     0.000 C 
BRANCH   2   3
ATOM      3  C   UNL     1      10.272   3.033  20.165  1.00  0.00     0.000 C 
BRANCH   3   4
ATOM      4  C   UNL     1      10.745   2.997  18.705  1.00  0.00     0.000 C 
BRANCH   4   5
ATOM      5  C   UNL     1       9.620   2.617  17.725  1.00  0.00     0.006 C 
BRANCH   5   6
ATOM      6  C   UNL     1       8.410   2.005  18.442  1.00  0.00     0.053 C 
BRANCH   6   7
ATOM      7  C   UNL     1       8.249   0.549  18.122  1.00  0.00     0.041 C 
ATOM      8  O   UNL     1       8.652  -0.326  18.932  1.00  0.00    -0.550 OA
ATOM      9  O   UNL     1       7.625   0.160  16.943  1.00  0.00    -0.550 OA
ENDBRANCH   6   7
ENDBRANCH   5   6
ENDBRANCH   4   5
ENDBRANCH   3   4
ENDBRANCH   2   3
ENDBRANCH   1   2
BRANCH   1  10
ATOM     10  C   UNL     1       8.402   5.986  20.503  1.00  0.00     0.000 C 
BRANCH  10  11
ATOM     11  C   UNL     1       7.894   5.495  19.135  1.00  0.00    -0.000 C 
BRANCH  11  12
ATOM     12  C   UNL     1       8.365   6.378  17.970  1.00  0.00    -0.000 C 
BRANCH  12  13
ATOM     13  C   UNL     1       9.561   7.244  18.386  1.00  0.00    -0.000 C 
BRANCH  13  14
ATOM     14  C   UNL     1      10.812   6.884  17.571  1.00  0.00    -0.000 C 
BRANCH  14  15
ATOM     15  C   UNL     1      12.012   6.524  18.460  1.00  0.00    -0.003 C 
ATOM     16  C   UNL     1      12.131   7.427  19.687  1.00  0.00     0.004 C 
ENDBRANCH  14  15
ENDBRANCH  13  14
ENDBRANCH  12  13
ENDBRANCH  11  12
ENDBRANCH  10  11
ENDBRANCH   1  10
TORSDOF 12
ENDMDL
MODEL 5
REMARK VINA RESULT:    -4.965     19.364     20.663
REMARK INTER + INTRA:         -10.592
REMARK INTER:                  -8.896
REMARK INTRA:                  -1.696
REMARK UNBOUND:                -2.144
REMARK SMILES CCCCCCCCCCCCCC(=O)[O-]
REMARK SMILES IDX 8 1 9 2 10 3 11 4 12 5 13 6 14 7 15 8 16 9 7 10 6 11 5 12
REMARK SMILES IDX 4 13 3 14 2 15 1 16
REMARK H PARENT
REMARK Flexibility Score: inf
ROOT
ATOM      1  C   UNL     1      18.849  -6.981  33.904  1.00  0.00     0.000 C 
ENDROOT
BRANCH   1   2
ATOM      2  C   UNL     1      19.379  -5.832  33.032  1.00  0.00     0.000 C 
BRANCH   2   3
ATOM      3  C   UNL     1      19.275  -4.489  33.771  1.00  0.00     0.000 C 
BRANCH   3   4
ATOM      4  C   UNL     1      17.999  -3.713  33.414  1.00  0.00     0.000 C 
BRANCH   4   5
ATOM      5  C   UNL     1      17.733  -2.536  34.370  1.00  0.00     0.006 C 
BRANCH   5   6
ATOM      6  C   UNL     1      18.949  -2.219  35.250  1.00  0.00     0.053 C 
BRANCH   6   7
ATOM      7  C   UNL     1      18.598  -1.288  36.371  1.00  0.00     0.041 C 
ATOM      8  O   UNL     1      19.392  -0.368  36.702  1.00  0.00    -0.550 OA
ATOM      9  O   UNL     1      17.382  -1.417  37.029  1.00  0.00    -0.550 OA
ENDBRANCH   6   7
ENDBRANCH   5   6
ENDBRANCH   4   5
ENDBRANCH   3   4
ENDBRANCH   2   3
ENDBRANCH   1   2
BRANCH   1  10
ATOM     10  C   UNL     1      17.841  -7.881  33.167  1.00  0.00     0.000 C 
BRANCH  10  11
ATOM     11  C   UNL     1      16.591  -7.157  32.634  1.00  0.00    -0.000 C 
BRANCH  11  12
ATOM     12  C   UNL     1      15.281  -7.747  33.177  1.00  0.00    -0.000 C 
BRANCH  12  13
ATOM     13  C   UNL     1      14.866  -7.056  34.482  1.00  0.00    -0.000 C 
BRANCH  13  14
ATOM     14  C   UNL     1      15.362  -5.603  34.517  1.00  0.00    -0.000 C 
BRANCH  14  15
ATOM     15  C   UNL     1      15.409  -5.029  35.941  1.00  0.00    -0.003 C 
ATOM     16  C   UNL     1      16.788  -5.162  36.587  1.00  0.00     0.004 C 
ENDBRANCH  14  15
ENDBRANCH  13  14
ENDBRANCH  12  13
ENDBRANCH  11  12
ENDBRANCH  10  11
ENDBRANCH   1  10
TORSDOF 12
ENDMDL
MODEL 6
REMARK VINA RESULT:    -4.963      3.136      5.135
REMARK INTER + INTRA:         -10.589
REMARK INTER:                  -8.656
REMARK INTRA:                  -1.933
REMARK UNBOUND:                -2.144
REMARK SMILES CCCCCCCCCCCCCC(=O)[O-]
REMARK SMILES IDX 8 1 9 2 10 3 11 4 12 5 13 6 14 7 15 8 16 9 7 10 6 11 5 12
REMARK SMILES IDX 4 13 3 14 2 15 1 16
REMARK H PARENT
REMARK Flexibility Score: inf
ROOT
ATOM      1  C   UNL     1      10.492   3.236  20.217  1.00  0.00     0.000 C 
ENDROOT
BRANCH   1   2
ATOM      2  C   UNL     1      10.550   3.886  18.826  1.00  0.00     0.000 C 
BRANCH   2   3
ATOM      3  C   UNL     1      11.937   4.491  18.559  1.00  0.00     0.000 C 
BRANCH   3   4
ATOM      4  C   UNL     1      11.883   6.003  18.294  1.00  0.00     0.000 C 
BRANCH   4   5
ATOM      5  C   UNL     1      10.739   6.398  17.344  1.00  0.00     0.006 C 
BRANCH   5   6
ATOM      6  C   UNL     1      10.125   7.756  17.710  1.00  0.00     0.053 C 
BRANCH   6   7
ATOM      7  C   UNL     1       8.631   7.741  17.599  1.00  0.00     0.041 C 
ATOM      8  O   UNL     1       8.000   8.810  17.384  1.00  0.00    -0.550 OA
ATOM      9  O   UNL     1       7.936   6.542  17.701  1.00  0.00    -0.550 OA
ENDBRANCH   6   7
ENDBRANCH   5   6
ENDBRANCH   4   5
ENDBRANCH   3   4
ENDBRANCH   2   3
ENDBRANCH   1   2
BRANCH   1  10
ATOM     10  C   UNL     1       9.895   4.164  21.291  1.00  0.00     0.000 C 
BRANCH  10  11
ATOM     11  C   UNL     1       8.953   5.257  20.755  1.00  0.00    -0.000 C 
BRANCH  11  12
ATOM     12  C   UNL     1       9.343   6.667  21.225  1.00  0.00    -0.000 C 
BRANCH  12  13
ATOM     13  C   UNL     1      10.851   6.759  21.490  1.00  0.00    -0.000 C 
BRANCH  13  14
ATOM     14  C   UNL     1      11.336   8.214  21.402  1.00  0.00    -0.000 C 
BRANCH  14  15
ATOM     15  C   UNL     1      12.862   8.336  21.537  1.00  0.00    -0.003 C 
ATOM     16  C   UNL     1      13.553   8.617  20.204  1.00  0.00     0.004 C 
ENDBRANCH  14  15
ENDBRANCH  13  14
ENDBRANCH  12  13
ENDBRANCH  11  12
ENDBRANCH  10  11
ENDBRANCH   1  10
TORSDOF 12
ENDMDL
MODEL 7
REMARK VINA RESULT:    -4.873     18.658     20.265
REMARK INTER + INTRA:         -10.436
REMARK INTER:                  -8.289
REMARK INTRA:                  -2.147
REMARK UNBOUND:                -2.144
REMARK SMILES CCCCCCCCCCCCCC(=O)[O-]
REMARK SMILES IDX 8 1 9 2 10 3 11 4 12 5 13 6 14 7 15 8 16 9 7 10 6 11 5 12
REMARK SMILES IDX 4 13 3 14 2 15 1 16
REMARK H PARENT
REMARK Flexibility Score: inf
ROOT
ATOM      1  C   UNL     1      19.130  -5.730  36.199  1.00  0.00     0.000 C 
ENDROOT
BRANCH   1   2
ATOM      2  C   UNL     1      17.905  -5.701  37.125  1.00  0.00     0.000 C 
BRANCH   2   3
ATOM      3  C   UNL     1      16.639  -6.143  36.375  1.00  0.00     0.000 C 
BRANCH   3   4
ATOM      4  C   UNL     1      15.732  -4.963  35.996  1.00  0.00     0.000 C 
BRANCH   4   5
ATOM      5  C   UNL     1      15.057  -5.150  34.625  1.00  0.00     0.006 C 
BRANCH   5   6
ATOM      6  C   UNL     1      15.117  -6.605  34.143  1.00  0.00     0.053 C 
BRANCH   6   7
ATOM      7  C   UNL     1      15.754  -6.720  32.792  1.00  0.00     0.041 C 
ATOM      8  O   UNL     1      15.774  -5.730  32.014  1.00  0.00    -0.550 OA
ATOM      9  O   UNL     1      16.354  -7.911  32.403  1.00  0.00    -0.550 OA
ENDBRANCH   6   7
ENDBRANCH   5   6
ENDBRANCH   4   5
ENDBRANCH   3   4
ENDBRANCH   2   3
ENDBRANCH   1   2
BRANCH   1  10
ATOM     10  C   UNL     1      18.865  -6.464  34.872  1.00  0.00     0.000 C 
BRANCH  10  11
ATOM     11  C   UNL     1      19.212  -5.661  33.604  1.00  0.00    -0.000 C 
BRANCH  11  12
ATOM     12  C   UNL     1      19.250  -4.146  33.848  1.00  0.00    -0.000 C 
BRANCH  12  13
ATOM     13  C   UNL     1      17.906  -3.498  33.492  1.00  0.00    -0.000 C 
BRANCH  13  14
ATOM     14  C   UNL     1      17.732  -2.156  34.218  1.00  0.00    -0.000 C 
BRANCH  14  15
ATOM     15  C   UNL     1      18.260  -2.194  35.661  1.00  0.00    -0.003 C 
ATOM     16  C   UNL     1      19.038  -0.933  36.038  1.00  0.00     0.004 C 
ENDBRANCH  14  15
ENDBRANCH  13  14
ENDBRANCH  12  13
ENDBRANCH  11  12
ENDBRANCH  10  11
ENDBRANCH   1  10
TORSDOF 12
ENDMDL
MODEL 8
REMARK VINA RESULT:    -4.854      4.096      5.567
REMARK INTER + INTRA:         -10.403
REMARK INTER:                  -8.402
REMARK INTRA:                  -2.001
REMARK UNBOUND:                -2.144
REMARK SMILES CCCCCCCCCCCCCC(=O)[O-]
REMARK SMILES IDX 8 1 9 2 10 3 11 4 12 5 13 6 14 7 15 8 16 9 7 10 6 11 5 12
REMARK SMILES IDX 4 13 3 14 2 15 1 16
REMARK H PARENT
REMARK Flexibility Score: inf
ROOT
ATOM      1  C   UNL     1      10.751   4.064  19.328  1.00  0.00     0.000 C 
ENDROOT
BRANCH   1   2
ATOM      2  C   UNL     1      10.671   4.047  20.861  1.00  0.00     0.000 C 
BRANCH   2   3
ATOM      3  C   UNL     1       9.490   4.895  21.359  1.00  0.00     0.000 C 
BRANCH   3   4
ATOM      4  C   UNL     1       9.765   6.404  21.271  1.00  0.00     0.000 C 
BRANCH   4   5
ATOM      5  C   UNL     1      11.217   6.765  21.632  1.00  0.00     0.006 C 
BRANCH   5   6
ATOM      6  C   UNL     1      11.527   8.245  21.376  1.00  0.00     0.053 C 
BRANCH   6   7
ATOM      7  C   UNL     1      13.002   8.508  21.339  1.00  0.00     0.041 C 
ATOM      8  O   UNL     1      13.599   8.613  20.235  1.00  0.00    -0.550 OA
ATOM      9  O   UNL     1      13.711   8.669  22.522  1.00  0.00    -0.550 OA
ENDBRANCH   6   7
ENDBRANCH   5   6
ENDBRANCH   4   5
ENDBRANCH   3   4
ENDBRANCH   2   3
ENDBRANCH   1   2
BRANCH   1  10
ATOM     10  C   UNL     1      12.119   4.534  18.801  1.00  0.00     0.000 C 
BRANCH  10  11
ATOM     11  C   UNL     1      12.179   6.012  18.373  1.00  0.00    -0.000 C 
BRANCH  11  12
ATOM     12  C   UNL     1      11.005   6.421  17.471  1.00  0.00    -0.000 C 
BRANCH  12  13
ATOM     13  C   UNL     1      10.395   7.751  17.935  1.00  0.00    -0.000 C 
BRANCH  13  14
ATOM     14  C   UNL     1       8.862   7.713  17.845  1.00  0.00    -0.000 C 
BRANCH  14  15
ATOM     15  C   UNL     1       8.335   6.378  17.297  1.00  0.00    -0.003 C 
ATOM     16  C   UNL     1       7.626   5.540  18.360  1.00  0.00     0.004 C 
ENDBRANCH  14  15
ENDBRANCH  13  14
ENDBRANCH  12  13
ENDBRANCH  11  12
ENDBRANCH  10  11
ENDBRANCH   1  10
TORSDOF 12
ENDMDL
MODEL 9
REMARK VINA RESULT:    -4.832     19.104     20.598
REMARK INTER + INTRA:         -10.365
REMARK INTER:                  -8.733
REMARK INTRA:                  -1.632
REMARK UNBOUND:                -2.144
REMARK SMILES CCCCCCCCCCCCCC(=O)[O-]
REMARK SMILES IDX 8 1 9 2 10 3 11 4 12 5 13 6 14 7 15 8 16 9 7 10 6 11 5 12
REMARK SMILES IDX 4 13 3 14 2 15 1 16
REMARK H PARENT
REMARK Flexibility Score: inf
ROOT
ATOM      1  C   UNL     1      16.615  -4.859  36.735  1.00  0.00     0.000 C 
ENDROOT
BRANCH   1   2
ATOM      2  C   UNL     1      17.497  -6.113  36.636  1.00  0.00     0.000 C 
BRANCH   2   3
ATOM      3  C   UNL     1      18.882  -5.767  36.069  1.00  0.00     0.000 C 
BRANCH   3   4
ATOM      4  C   UNL     1      18.977  -5.997  34.553  1.00  0.00     0.000 C 
BRANCH   4   5
ATOM      5  C   UNL     1      18.820  -4.696  33.744  1.00  0.00     0.006 C 
BRANCH   5   6
ATOM      6  C   UNL     1      19.258  -3.462  34.543  1.00  0.00     0.053 C 
BRANCH   6   7
ATOM      7  C   UNL     1      18.169  -2.435  34.625  1.00  0.00     0.041 C 
ATOM      8  O   UNL     1      17.341  -2.313  33.684  1.00  0.00    -0.550 OA
ATOM      9  O   UNL     1      18.049  -1.636  35.754  1.00  0.00    -0.550 OA
ENDBRANCH   6   7
ENDBRANCH   5   6
ENDBRANCH   4   5
ENDBRANCH   3   4
ENDBRANCH   2   3
ENDBRANCH   1   2
BRANCH   1  10
ATOM     10  C   UNL     1      15.259  -5.018  36.024  1.00  0.00     0.000 C 
BRANCH  10  11
ATOM     11  C   UNL     1      15.337  -5.109  34.489  1.00  0.00    -0.000 C 
BRANCH  11  12
ATOM     12  C   UNL     1      15.095  -6.530  33.960  1.00  0.00    -0.000 C 
BRANCH  12  13
ATOM     13  C   UNL     1      15.797  -6.742  32.612  1.00  0.00    -0.000 C 
BRANCH  13  14
ATOM     14  C   UNL     1      16.591  -8.057  32.607  1.00  0.00    -0.000 C 
BRANCH  14  15
ATOM     15  C   UNL     1      16.129  -9.021  31.504  1.00  0.00    -0.003 C 
ATOM     16  C   UNL     1      14.861  -9.787  31.881  1.00  0.00     0.004 C 
ENDBRANCH  14  15
ENDBRANCH  13  14
ENDBRANCH  12  13
ENDBRANCH  11  12
ENDBRANCH  10  11
ENDBRANCH   1  10
TORSDOF 12
ENDMDL
