MODEL 1
REMARK VINA RESULT:    -4.315      0.000      0.000
REMARK INTER + INTRA:          -4.315
REMARK INTER:                  -4.315
REMARK INTRA:                   0.000
REMARK UNBOUND:                 0.000
REMARK SMILES C=C1CCC[C@]2(C)Cc3occ(C)c3C[C@H]12
REMARK SMILES IDX 13 1 12 2 11 3 10 4 9 5 14 6 15 7 16 8 2 9 1 10 3 11 4 12
REMARK SMILES IDX 5 13 6 14 8 15 7 16
REMARK H PARENT
REMARK Flexibility Score: inf
ROOT
ATOM      1  C   UNL     1      35.923 -38.111   6.694  1.00  0.00     0.048 C 
ATOM      2  C   UNL     1      34.724 -37.262   6.965  1.00  0.00    -0.009 A 
ATOM      3  C   UNL     1      33.924 -36.638   6.024  1.00  0.00     0.198 A 
ATOM      4  O   UNL     1      32.889 -36.087   6.623  1.00  0.00    -0.469 OA
ATOM      5  C   UNL     1      32.972 -36.341   7.909  1.00  0.00     0.107 A 
ATOM      6  C   UNL     1      34.106 -37.057   8.181  1.00  0.00    -0.003 A 
ATOM      7  C   UNL     1      34.425 -37.660   9.508  1.00  0.00     0.048 C 
ATOM      8  C   UNL     1      33.585 -37.024  10.653  1.00  0.00     0.025 C 
ATOM      9  C   UNL     1      33.624 -37.951  11.856  1.00  0.00    -0.073 C 
ATOM     10  C   UNL     1      34.484 -37.726  12.861  1.00  0.00     0.008 C 
ATOM     11  C   UNL     1      32.796 -39.219  11.827  1.00  0.00     0.031 C 
ATOM     12  C   UNL     1      31.368 -38.959  11.327  1.00  0.00     0.005 C 
ATOM     13  C   UNL     1      31.321 -38.061  10.075  1.00  0.00     0.008 C 
ATOM     14  C   UNL     1      32.093 -36.721  10.261  1.00  0.00    -0.019 C 
ATOM     15  C   UNL     1      32.011 -35.875   8.950  1.00  0.00     0.083 C 
ATOM     16  C   UNL     1      31.422 -35.878  11.378  1.00  0.00     0.012 C 
ENDROOT
TORSDOF 0
ENDMDL
MODEL 2
REMARK VINA RESULT:    -4.294      3.588      5.750
REMARK INTER + INTRA:          -4.294
REMARK INTER:                  -4.294
REMARK INTRA:                   0.000
REMARK UNBOUND:                 0.000
REMARK SMILES C=C1CCC[C@]2(C)Cc3occ(C)c3C[C@H]12
REMARK SMILES IDX 13 1 12 2 11 3 10 4 9 5 14 6 15 7 16 8 2 9 1 10 3 11 4 12
REMARK SMILES IDX 5 13 6 14 8 15 7 16
REMARK H PARENT
REMARK Flexibility Score: inf
ROOT
ATOM      1  C   UNL     1      33.820 -37.193  10.242  1.00  0.00     0.048 C 
ATOM      2  C   UNL     1      34.380 -37.523  11.587  1.00  0.00    -0.009 A 
ATOM      3  C   UNL     1      34.455 -36.678  12.680  1.00  0.00     0.198 A 
ATOM      4  O   UNL     1      34.887 -37.351  13.727  1.00  0.00    -0.469 OA
ATOM      5  C   UNL     1      35.077 -38.600  13.366  1.00  0.00     0.107 A 
ATOM      6  C   UNL     1      34.793 -38.760  12.037  1.00  0.00    -0.003 A 
ATOM      7  C   UNL     1      34.737 -40.079  11.340  1.00  0.00     0.048 C 
ATOM      8  C   UNL     1      35.466 -41.193  12.144  1.00  0.00     0.025 C 
ATOM      9  C   UNL     1      35.004 -42.545  11.627  1.00  0.00    -0.073 C 
ATOM     10  C   UNL     1      35.741 -43.220  10.731  1.00  0.00     0.008 C 
ATOM     11  C   UNL     1      33.625 -43.040  12.011  1.00  0.00     0.031 C 
ATOM     12  C   UNL     1      33.346 -42.853  13.510  1.00  0.00     0.005 C 
ATOM     13  C   UNL     1      33.765 -41.465  14.032  1.00  0.00     0.008 C 
ATOM     14  C   UNL     1      35.245 -41.112  13.697  1.00  0.00    -0.019 C 
ATOM     15  C   UNL     1      35.588 -39.690  14.246  1.00  0.00     0.083 C 
ATOM     16  C   UNL     1      36.197 -42.108  14.412  1.00  0.00     0.012 C 
ENDROOT
TORSDOF 0
ENDMDL
MODEL 3
REMARK VINA RESULT:    -4.245      2.206      3.389
REMARK INTER + INTRA:          -4.245
REMARK INTER:                  -4.245
REMARK INTRA:                   0.000
REMARK UNBOUND:                 0.000
REMARK SMILES C=C1CCC[C@]2(C)Cc3occ(C)c3C[C@H]12
REMARK SMILES IDX 13 1 12 2 11 3 10 4 9 5 14 6 15 7 16 8 2 9 1 10 3 11 4 12
REMARK SMILES IDX 5 13 6 14 8 15 7 16
REMARK H PARENT
REMARK Flexibility Score: inf
ROOT
ATOM      1  C   UNL     1      34.633 -39.200   7.409  1.00  0.00     0.048 C 
ATOM      2  C   UNL     1      34.511 -38.300   8.595  1.00  0.00    -0.009 A 
ATOM      3  C   UNL     1      34.120 -36.972   8.587  1.00  0.00     0.198 A 
ATOM      4  O   UNL     1      34.004 -36.540   9.826  1.00  0.00    -0.469 OA
ATOM      5  C   UNL     1      34.285 -37.534  10.638  1.00  0.00     0.107 A 
ATOM      6  C   UNL     1      34.625 -38.651   9.924  1.00  0.00    -0.003 A 
ATOM      7  C   UNL     1      34.835 -40.003  10.521  1.00  0.00     0.048 C 
ATOM      8  C   UNL     1      35.076 -39.929  12.056  1.00  0.00     0.025 C 
ATOM      9  C   UNL     1      34.842 -41.307  12.651  1.00  0.00    -0.073 C 
ATOM     10  C   UNL     1      35.876 -42.126  12.900  1.00  0.00     0.008 C 
ATOM     11  C   UNL     1      33.419 -41.803  12.804  1.00  0.00     0.031 C 
ATOM     12  C   UNL     1      32.502 -40.732  13.413  1.00  0.00     0.005 C 
ATOM     13  C   UNL     1      32.697 -39.340  12.780  1.00  0.00     0.008 C 
ATOM     14  C   UNL     1      34.181 -38.870  12.796  1.00  0.00    -0.019 C 
ATOM     15  C   UNL     1      34.299 -37.462  12.128  1.00  0.00     0.083 C 
ATOM     16  C   UNL     1      34.667 -38.709  14.261  1.00  0.00     0.012 C 
ENDROOT
TORSDOF 0
ENDMDL
MODEL 4
REMARK VINA RESULT:    -4.243     11.022     13.211
REMARK INTER + INTRA:          -4.243
REMARK INTER:                  -4.243
REMARK INTRA:                   0.000
REMARK UNBOUND:                 0.000
REMARK SMILES C=C1CCC[C@]2(C)Cc3occ(C)c3C[C@H]12
REMARK SMILES IDX 13 1 12 2 11 3 10 4 9 5 14 6 15 7 16 8 2 9 1 10 3 11 4 12
REMARK SMILES IDX 5 13 6 14 8 15 7 16
REMARK H PARENT
REMARK Flexibility Score: inf
ROOT
ATOM      1  C   UNL     1      42.237 -37.585  13.231  1.00  0.00     0.048 C 
ATOM      2  C   UNL     1      42.360 -38.869  13.983  1.00  0.00    -0.009 A 
ATOM      3  C   UNL     1      41.358 -39.514  14.688  1.00  0.00     0.198 A 
ATOM      4  O   UNL     1      41.798 -40.681  15.110  1.00  0.00    -0.469 OA
ATOM      5  C   UNL     1      43.036 -40.831  14.695  1.00  0.00     0.107 A 
ATOM      6  C   UNL     1      43.443 -39.724  14.001  1.00  0.00    -0.003 A 
ATOM      7  C   UNL     1      44.727 -39.627  13.246  1.00  0.00     0.048 C 
ATOM      8  C   UNL     1      45.746 -40.715  13.690  1.00  0.00     0.025 C 
ATOM      9  C   UNL     1      46.814 -40.844  12.618  1.00  0.00    -0.073 C 
ATOM     10  C   UNL     1      47.991 -40.213  12.748  1.00  0.00     0.008 C 
ATOM     11  C   UNL     1      46.470 -41.561  11.329  1.00  0.00     0.031 C 
ATOM     12  C   UNL     1      45.728 -42.880  11.587  1.00  0.00     0.005 C 
ATOM     13  C   UNL     1      44.607 -42.746  12.637  1.00  0.00     0.008 C 
ATOM     14  C   UNL     1      45.102 -42.120  13.974  1.00  0.00    -0.019 C 
ATOM     15  C   UNL     1      43.911 -42.005  14.979  1.00  0.00     0.083 C 
ATOM     16  C   UNL     1      46.154 -43.051  14.634  1.00  0.00     0.012 C 
ENDROOT
TORSDOF 0
ENDMDL
MODEL 5
REMARK VINA RESULT:    -4.206      5.614      7.597
REMARK INTER + INTRA:          -4.206
REMARK INTER:                  -4.206
REMARK INTRA:                   0.000
REMARK UNBOUND:                 0.000
REMARK SMILES C=C1CCC[C@]2(C)Cc3occ(C)c3C[C@H]12
REMARK SMILES IDX 13 1 12 2 11 3 10 4 9 5 14 6 15 7 16 8 2 9 1 10 3 11 4 12
REMARK SMILES IDX 5 13 6 14 8 15 7 16
REMARK H PARENT
REMARK Flexibility Score: inf
ROOT
ATOM      1  C   UNL     1      32.996 -40.587   0.385  1.00  0.00     0.048 C 
ATOM      2  C   UNL     1      32.707 -39.879   1.668  1.00  0.00    -0.009 A 
ATOM      3  C   UNL     1      31.709 -40.188   2.576  1.00  0.00     0.198 A 
ATOM      4  O   UNL     1      31.840 -39.432   3.648  1.00  0.00    -0.469 OA
ATOM      5  C   UNL     1      32.890 -38.660   3.483  1.00  0.00     0.107 A 
ATOM      6  C   UNL     1      33.459 -38.884   2.259  1.00  0.00    -0.003 A 
ATOM      7  C   UNL     1      34.761 -38.304   1.815  1.00  0.00     0.048 C 
ATOM      8  C   UNL     1      35.178 -37.081   2.681  1.00  0.00     0.025 C 
ATOM      9  C   UNL     1      36.662 -36.829   2.479  1.00  0.00    -0.073 C 
ATOM     10  C   UNL     1      37.083 -35.892   1.614  1.00  0.00     0.008 C 
ATOM     11  C   UNL     1      37.657 -37.757   3.144  1.00  0.00     0.031 C 
ATOM     12  C   UNL     1      37.297 -38.026   4.613  1.00  0.00     0.005 C 
ATOM     13  C   UNL     1      35.801 -38.334   4.820  1.00  0.00     0.008 C 
ATOM     14  C   UNL     1      34.868 -37.245   4.213  1.00  0.00    -0.019 C 
ATOM     15  C   UNL     1      33.374 -37.634   4.451  1.00  0.00     0.083 C 
ATOM     16  C   UNL     1      35.098 -35.892   4.939  1.00  0.00     0.012 C 
ENDROOT
TORSDOF 0
ENDMDL
MODEL 6
REMARK VINA RESULT:    -4.192     11.997     13.875
REMARK INTER + INTRA:          -4.192
REMARK INTER:                  -4.192
REMARK INTRA:                   0.000
REMARK UNBOUND:                 0.000
REMARK SMILES C=C1CCC[C@]2(C)Cc3occ(C)c3C[C@H]12
REMARK SMILES IDX 13 1 12 2 11 3 10 4 9 5 14 6 15 7 16 8 2 9 1 10 3 11 4 12
REMARK SMILES IDX 5 13 6 14 8 15 7 16
REMARK H PARENT
REMARK Flexibility Score: inf
ROOT
ATOM      1  C   UNL     1      38.476 -41.770  -5.056  1.00  0.00     0.048 C 
ATOM      2  C   UNL     1      37.561 -40.918  -4.239  1.00  0.00    -0.009 A 
ATOM      3  C   UNL     1      37.621 -39.543  -4.096  1.00  0.00     0.198 A 
ATOM      4  O   UNL     1      36.577 -39.126  -3.408  1.00  0.00    -0.469 OA
ATOM      5  C   UNL     1      35.833 -40.168  -3.116  1.00  0.00     0.107 A 
ATOM      6  C   UNL     1      36.407 -41.314  -3.595  1.00  0.00    -0.003 A 
ATOM      7  C   UNL     1      35.748 -42.653  -3.590  1.00  0.00     0.048 C 
ATOM      8  C   UNL     1      34.555 -42.711  -2.594  1.00  0.00     0.025 C 
ATOM      9  C   UNL     1      33.682 -43.902  -2.951  1.00  0.00    -0.073 C 
ATOM     10  C   UNL     1      33.811 -45.063  -2.291  1.00  0.00     0.008 C 
ATOM     11  C   UNL     1      32.784 -43.809  -4.167  1.00  0.00     0.031 C 
ATOM     12  C   UNL     1      32.017 -42.480  -4.213  1.00  0.00     0.005 C 
ATOM     13  C   UNL     1      32.906 -41.260  -3.902  1.00  0.00     0.008 C 
ATOM     14  C   UNL     1      33.684 -41.403  -2.560  1.00  0.00    -0.019 C 
ATOM     15  C   UNL     1      34.570 -40.138  -2.323  1.00  0.00     0.083 C 
ATOM     16  C   UNL     1      32.682 -41.474  -1.376  1.00  0.00     0.012 C 
ENDROOT
TORSDOF 0
ENDMDL
MODEL 7
REMARK VINA RESULT:    -4.154     17.686     19.403
REMARK INTER + INTRA:          -4.154
REMARK INTER:                  -4.154
REMARK INTRA:                   0.000
REMARK UNBOUND:                 0.000
REMARK SMILES C=C1CCC[C@]2(C)Cc3occ(C)c3C[C@H]12
REMARK SMILES IDX 13 1 12 2 11 3 10 4 9 5 14 6 15 7 16 8 2 9 1 10 3 11 4 12
REMARK SMILES IDX 5 13 6 14 8 15 7 16
REMARK H PARENT
REMARK Flexibility Score: inf
ROOT
ATOM      1  C   UNL     1      45.167 -53.066  15.125  1.00  0.00     0.048 C 
ATOM      2  C   UNL     1      44.425 -54.128  14.380  1.00  0.00    -0.009 A 
ATOM      3  C   UNL     1      44.703 -55.483  14.379  1.00  0.00     0.198 A 
ATOM      4  O   UNL     1      43.763 -56.125  13.716  1.00  0.00    -0.469 OA
ATOM      5  C   UNL     1      42.877 -55.247  13.303  1.00  0.00     0.107 A 
ATOM      6  C   UNL     1      43.248 -53.984  13.675  1.00  0.00    -0.003 A 
ATOM      7  C   UNL     1      42.390 -52.772  13.520  1.00  0.00     0.048 C 
ATOM      8  C   UNL     1      41.240 -53.001  12.498  1.00  0.00     0.025 C 
ATOM      9  C   UNL     1      40.181 -51.934  12.713  1.00  0.00    -0.073 C 
ATOM     10  C   UNL     1      40.153 -50.836  11.940  1.00  0.00     0.008 C 
ATOM     11  C   UNL     1      39.264 -52.048  13.913  1.00  0.00     0.031 C 
ATOM     12  C   UNL     1      38.711 -53.471  14.078  1.00  0.00     0.005 C 
ATOM     13  C   UNL     1      39.790 -54.560  13.912  1.00  0.00     0.008 C 
ATOM     14  C   UNL     1      40.585 -54.427  12.579  1.00  0.00    -0.019 C 
ATOM     15  C   UNL     1      41.664 -55.554  12.491  1.00  0.00     0.083 C 
ATOM     16  C   UNL     1      39.628 -54.631  11.374  1.00  0.00     0.012 C 
ENDROOT
TORSDOF 0
ENDMDL
MODEL 8
REMARK VINA RESULT:    -4.134     11.522     13.251
REMARK INTER + INTRA:          -4.134
REMARK INTER:                  -4.134
REMARK INTRA:                   0.000
REMARK UNBOUND:                 0.000
REMARK SMILES C=C1CCC[C@]2(C)Cc3occ(C)c3C[C@H]12
REMARK SMILES IDX 13 1 12 2 11 3 10 4 9 5 14 6 15 7 16 8 2 9 1 10 3 11 4 12
REMARK SMILES IDX 5 13 6 14 8 15 7 16
REMARK H PARENT
REMARK Flexibility Score: inf
ROOT
ATOM      1  C   UNL     1      37.761 -38.431  -1.685  1.00  0.00     0.048 C 
ATOM      2  C   UNL     1      37.282 -39.223  -2.857  1.00  0.00    -0.009 A 
ATOM      3  C   UNL     1      37.995 -39.508  -4.009  1.00  0.00     0.198 A 
ATOM      4  O   UNL     1      37.300 -40.336  -4.763  1.00  0.00    -0.469 OA
ATOM      5  C   UNL     1      36.177 -40.616  -4.142  1.00  0.00     0.107 A 
ATOM      6  C   UNL     1      36.105 -39.936  -2.957  1.00  0.00    -0.003 A 
ATOM      7  C   UNL     1      35.049 -40.150  -1.924  1.00  0.00     0.048 C 
ATOM      8  C   UNL     1      33.803 -40.877  -2.508  1.00  0.00     0.025 C 
ATOM      9  C   UNL     1      32.990 -41.445  -1.358  1.00  0.00    -0.073 C 
ATOM     10  C   UNL     1      31.923 -40.783  -0.884  1.00  0.00     0.008 C 
ATOM     11  C   UNL     1      33.497 -42.685  -0.650  1.00  0.00     0.031 C 
ATOM     12  C   UNL     1      33.955 -43.764  -1.641  1.00  0.00     0.005 C 
ATOM     13  C   UNL     1      34.824 -43.204  -2.784  1.00  0.00     0.008 C 
ATOM     14  C   UNL     1      34.148 -42.017  -3.533  1.00  0.00    -0.019 C 
ATOM     15  C   UNL     1      35.092 -41.497  -4.664  1.00  0.00     0.083 C 
ATOM     16  C   UNL     1      32.848 -42.505  -4.227  1.00  0.00     0.012 C 
ENDROOT
TORSDOF 0
ENDMDL
MODEL 9
REMARK VINA RESULT:    -4.071     12.529     14.129
REMARK INTER + INTRA:          -4.071
REMARK INTER:                  -4.071
REMARK INTRA:                   0.000
REMARK UNBOUND:                 0.000
REMARK SMILES C=C1CCC[C@]2(C)Cc3occ(C)c3C[C@H]12
REMARK SMILES IDX 13 1 12 2 11 3 10 4 9 5 14 6 15 7 16 8 2 9 1 10 3 11 4 12
REMARK SMILES IDX 5 13 6 14 8 15 7 16
REMARK H PARENT
REMARK Flexibility Score: inf
ROOT
ATOM      1  C   UNL     1      38.479 -36.258  -2.514  1.00  0.00     0.048 C 
ATOM      2  C   UNL     1      39.038 -37.525  -3.073  1.00  0.00    -0.009 A 
ATOM      3  C   UNL     1      40.375 -37.822  -3.270  1.00  0.00     0.198 A 
ATOM      4  O   UNL     1      40.495 -39.076  -3.657  1.00  0.00    -0.469 OA
ATOM      5  C   UNL     1      39.296 -39.611  -3.701  1.00  0.00     0.107 A 
ATOM      6  C   UNL     1      38.348 -38.684  -3.363  1.00  0.00    -0.003 A 
ATOM      7  C   UNL     1      36.904 -38.995  -3.145  1.00  0.00     0.048 C 
ATOM      8  C   UNL     1      36.503 -40.361  -3.772  1.00  0.00     0.025 C 
ATOM      9  C   UNL     1      35.191 -40.812  -3.152  1.00  0.00    -0.073 C 
ATOM     10  C   UNL     1      34.028 -40.596  -3.787  1.00  0.00     0.008 C 
ATOM     11  C   UNL     1      35.202 -41.358  -1.740  1.00  0.00     0.031 C 
ATOM     12  C   UNL     1      36.336 -42.371  -1.526  1.00  0.00     0.005 C 
ATOM     13  C   UNL     1      37.684 -41.898  -2.107  1.00  0.00     0.008 C 
ATOM     14  C   UNL     1      37.586 -41.486  -3.605  1.00  0.00    -0.019 C 
ATOM     15  C   UNL     1      38.984 -41.009  -4.116  1.00  0.00     0.083 C 
ATOM     16  C   UNL     1      37.195 -42.718  -4.465  1.00  0.00     0.012 C 
ENDROOT
TORSDOF 0
ENDMDL
