MODEL 1
REMARK VINA RESULT:    -4.244      0.000      0.000
REMARK INTER + INTRA:          -6.701
REMARK INTER:                  -5.236
REMARK INTRA:                  -1.465
REMARK UNBOUND:                -1.465
REMARK SMILES CC(C)=CCC[C@@H](C)c1ccc(C)cc1
REMARK SMILES IDX 6 1 7 2 8 3 9 4 13 5 12 6 11 7 14 8 10 9 15 10 5 11 4 12
REMARK SMILES IDX 2 13 1 14 3 15
REMARK H PARENT
REMARK Flexibility Score: inf
ROOT
ATOM      1  C   UNL     1     -15.206  25.870  20.767  1.00  0.00     0.012 C 
ENDROOT
BRANCH   1   2
ATOM      2  C   UNL     1     -15.939  26.930  19.906  1.00  0.00     0.016 C 
ATOM      3  C   UNL     1     -15.600  26.803  18.413  1.00  0.00     0.013 C 
BRANCH   2   4
ATOM      4  C   UNL     1     -17.440  26.831  20.115  1.00  0.00    -0.045 A 
ATOM      5  C   UNL     1     -21.715  26.527  20.659  1.00  0.00     0.044 C 
ATOM      6  C   UNL     1     -20.227  26.627  20.499  1.00  0.00    -0.051 A 
ATOM      7  C   UNL     1     -19.581  27.863  20.646  1.00  0.00     0.004 A 
ATOM      8  C   UNL     1     -19.477  25.499  20.134  1.00  0.00     0.004 A 
ATOM      9  C   UNL     1     -18.200  27.964  20.462  1.00  0.00     0.004 A 
ATOM     10  C   UNL     1     -18.095  25.599  19.948  1.00  0.00     0.004 A 
ENDBRANCH   2   4
ENDBRANCH   1   2
BRANCH   1  11
ATOM     11  C   UNL     1     -15.379  26.074  22.283  1.00  0.00     0.028 C 
BRANCH  11  12
ATOM     12  C   UNL     1     -16.284  25.036  22.903  1.00  0.00    -0.028 C 
ATOM     13  C   UNL     1     -17.378  25.352  23.630  1.00  0.00    -0.080 C 
ATOM     14  C   UNL     1     -18.209  24.237  24.209  1.00  0.00     0.039 C 
ATOM     15  C   UNL     1     -17.780  26.788  23.868  1.00  0.00     0.039 C 
ENDBRANCH  11  12
ENDBRANCH   1  11
TORSDOF 4
ENDMDL
MODEL 2
REMARK VINA RESULT:    -4.238     13.935     15.666
REMARK INTER + INTRA:          -6.694
REMARK INTER:                  -5.697
REMARK INTRA:                  -0.997
REMARK UNBOUND:                -1.465
REMARK SMILES CC(C)=CCC[C@@H](C)c1ccc(C)cc1
REMARK SMILES IDX 6 1 7 2 8 3 9 4 13 5 12 6 11 7 14 8 10 9 15 10 5 11 4 12
REMARK SMILES IDX 2 13 1 14 3 15
REMARK H PARENT
REMARK Flexibility Score: inf
ROOT
ATOM      1  C   UNL     1     -21.054  23.310   5.709  1.00  0.00     0.012 C 
ENDROOT
BRANCH   1   2
ATOM      2  C   UNL     1     -20.455  24.377   6.661  1.00  0.00     0.016 C 
ATOM      3  C   UNL     1     -18.923  24.289   6.744  1.00  0.00     0.013 C 
BRANCH   2   4
ATOM      4  C   UNL     1     -20.879  25.769   6.223  1.00  0.00    -0.045 A 
ATOM      5  C   UNL     1     -22.035  29.745   4.992  1.00  0.00     0.044 C 
ATOM      6  C   UNL     1     -21.650  28.353   5.398  1.00  0.00    -0.051 A 
ATOM      7  C   UNL     1     -22.410  27.658   6.350  1.00  0.00     0.004 A 
ATOM      8  C   UNL     1     -20.489  27.760   4.880  1.00  0.00     0.004 A 
ATOM      9  C   UNL     1     -22.033  26.375   6.755  1.00  0.00     0.004 A 
ATOM     10  C   UNL     1     -20.109  26.478   5.285  1.00  0.00     0.004 A 
ENDBRANCH   2   4
ENDBRANCH   1   2
BRANCH   1  11
ATOM     11  C   UNL     1     -22.542  23.012   5.969  1.00  0.00     0.028 C 
BRANCH  11  12
ATOM     12  C   UNL     1     -22.831  22.761   7.431  1.00  0.00    -0.028 C 
ATOM     13  C   UNL     1     -23.912  23.262   8.065  1.00  0.00    -0.080 C 
ATOM     14  C   UNL     1     -24.101  22.954   9.528  1.00  0.00     0.039 C 
ATOM     15  C   UNL     1     -24.926  24.116   7.342  1.00  0.00     0.039 C 
ENDBRANCH  11  12
ENDBRANCH   1  11
TORSDOF 4
ENDMDL
MODEL 3
REMARK VINA RESULT:    -4.224      1.715      2.725
REMARK INTER + INTRA:          -6.677
REMARK INTER:                  -5.278
REMARK INTRA:                  -1.398
REMARK UNBOUND:                -1.465
REMARK SMILES CC(C)=CCC[C@@H](C)c1ccc(C)cc1
REMARK SMILES IDX 6 1 7 2 8 3 9 4 13 5 12 6 11 7 14 8 10 9 15 10 5 11 4 12
REMARK SMILES IDX 2 13 1 14 3 15
REMARK H PARENT
REMARK Flexibility Score: inf
ROOT
ATOM      1  C   UNL     1     -14.135  24.379  20.200  1.00  0.00     0.012 C 
ENDROOT
BRANCH   1   2
ATOM      2  C   UNL     1     -15.323  24.401  19.205  1.00  0.00     0.016 C 
ATOM      3  C   UNL     1     -16.038  23.043  19.122  1.00  0.00     0.013 C 
BRANCH   2   4
ATOM      4  C   UNL     1     -16.309  25.491  19.588  1.00  0.00    -0.045 A 
ATOM      5  C   UNL     1     -19.147  28.574  20.637  1.00  0.00     0.044 C 
ATOM      6  C   UNL     1     -18.154  27.501  20.302  1.00  0.00    -0.051 A 
ATOM      7  C   UNL     1     -16.835  27.838  19.967  1.00  0.00     0.004 A 
ATOM      8  C   UNL     1     -18.553  26.158  20.252  1.00  0.00     0.004 A 
ATOM      9  C   UNL     1     -15.918  26.843  19.620  1.00  0.00     0.004 A 
ATOM     10  C   UNL     1     -17.638  25.161  19.904  1.00  0.00     0.004 A 
ENDBRANCH   2   4
ENDBRANCH   1   2
BRANCH   1  11
ATOM     11  C   UNL     1     -14.542  24.046  21.646  1.00  0.00     0.028 C 
BRANCH  11  12
ATOM     12  C   UNL     1     -13.871  24.950  22.655  1.00  0.00    -0.028 C 
ATOM     13  C   UNL     1     -14.539  25.882  23.368  1.00  0.00    -0.080 C 
ATOM     14  C   UNL     1     -13.770  26.735  24.343  1.00  0.00     0.039 C 
ATOM     15  C   UNL     1     -16.027  26.082  23.208  1.00  0.00     0.039 C 
ENDBRANCH  11  12
ENDBRANCH   1  11
TORSDOF 4
ENDMDL
MODEL 4
REMARK VINA RESULT:    -4.180      1.256      3.967
REMARK INTER + INTRA:          -6.623
REMARK INTER:                  -5.196
REMARK INTRA:                  -1.427
REMARK UNBOUND:                -1.465
REMARK SMILES CC(C)=CCC[C@@H](C)c1ccc(C)cc1
REMARK SMILES IDX 6 1 7 2 8 3 9 4 13 5 12 6 11 7 14 8 10 9 15 10 5 11 4 12
REMARK SMILES IDX 2 13 1 14 3 15
REMARK H PARENT
REMARK Flexibility Score: inf
ROOT
ATOM      1  C   UNL     1     -17.468  26.095  23.296  1.00  0.00     0.012 C 
ENDROOT
BRANCH   1   2
ATOM      2  C   UNL     1     -16.133  26.470  22.603  1.00  0.00     0.016 C 
ATOM      3  C   UNL     1     -14.934  25.720  23.204  1.00  0.00     0.013 C 
BRANCH   2   4
ATOM      4  C   UNL     1     -16.223  26.206  21.110  1.00  0.00    -0.045 A 
ATOM      5  C   UNL     1     -16.452  25.410  16.871  1.00  0.00     0.044 C 
ATOM      6  C   UNL     1     -16.399  25.699  18.341  1.00  0.00    -0.051 A 
ATOM      7  C   UNL     1     -15.839  26.897  18.807  1.00  0.00     0.004 A 
ATOM      8  C   UNL     1     -16.847  24.745  19.267  1.00  0.00     0.004 A 
ATOM      9  C   UNL     1     -15.757  27.153  20.178  1.00  0.00     0.004 A 
ATOM     10  C   UNL     1     -16.765  24.998  20.639  1.00  0.00     0.004 A 
ENDBRANCH   2   4
ENDBRANCH   1   2
BRANCH   1  11
ATOM     11  C   UNL     1     -18.569  27.158  23.136  1.00  0.00     0.028 C 
BRANCH  11  12
ATOM     12  C   UNL     1     -19.680  26.702  22.219  1.00  0.00    -0.028 C 
ATOM     13  C   UNL     1     -19.929  27.275  21.022  1.00  0.00    -0.080 C 
ATOM     14  C   UNL     1     -21.067  26.745  20.189  1.00  0.00     0.039 C 
ATOM     15  C   UNL     1     -19.095  28.424  20.507  1.00  0.00     0.039 C 
ENDBRANCH  11  12
ENDBRANCH   1  11
TORSDOF 4
ENDMDL
MODEL 5
REMARK VINA RESULT:    -4.170     14.159     15.822
REMARK INTER + INTRA:          -6.610
REMARK INTER:                  -5.660
REMARK INTRA:                  -0.949
REMARK UNBOUND:                -1.465
REMARK SMILES CC(C)=CCC[C@@H](C)c1ccc(C)cc1
REMARK SMILES IDX 6 1 7 2 8 3 9 4 13 5 12 6 11 7 14 8 10 9 15 10 5 11 4 12
REMARK SMILES IDX 2 13 1 14 3 15
REMARK H PARENT
REMARK Flexibility Score: inf
ROOT
ATOM      1  C   UNL     1     -22.252  26.534   6.921  1.00  0.00     0.012 C 
ENDROOT
BRANCH   1   2
ATOM      2  C   UNL     1     -21.620  26.238   5.537  1.00  0.00     0.016 C 
ATOM      3  C   UNL     1     -21.048  27.502   4.875  1.00  0.00     0.013 C 
BRANCH   2   4
ATOM      4  C   UNL     1     -20.539  25.179   5.669  1.00  0.00    -0.045 A 
ATOM      5  C   UNL     1     -17.449  22.178   5.993  1.00  0.00     0.044 C 
ATOM      6  C   UNL     1     -18.518  23.227   5.910  1.00  0.00    -0.051 A 
ATOM      7  C   UNL     1     -19.855  22.897   6.172  1.00  0.00     0.004 A 
ATOM      8  C   UNL     1     -18.199  24.531   5.501  1.00  0.00     0.004 A 
ATOM      9  C   UNL     1     -20.856  23.864   6.059  1.00  0.00     0.004 A 
ATOM     10  C   UNL     1     -19.199  25.499   5.387  1.00  0.00     0.004 A 
ENDBRANCH   2   4
ENDBRANCH   1   2
BRANCH   1  11
ATOM     11  C   UNL     1     -23.665  25.951   7.095  1.00  0.00     0.028 C 
BRANCH  11  12
ATOM     12  C   UNL     1     -23.754  25.000   8.266  1.00  0.00    -0.028 C 
ATOM     13  C   UNL     1     -24.112  23.704   8.137  1.00  0.00    -0.080 C 
ATOM     14  C   UNL     1     -24.175  22.845   9.372  1.00  0.00     0.039 C 
ATOM     15  C   UNL     1     -24.446  23.107   6.791  1.00  0.00     0.039 C 
ENDBRANCH  11  12
ENDBRANCH   1  11
TORSDOF 4
ENDMDL
MODEL 6
REMARK VINA RESULT:    -4.139      1.795      4.921
REMARK INTER + INTRA:          -6.572
REMARK INTER:                  -5.194
REMARK INTRA:                  -1.378
REMARK UNBOUND:                -1.465
REMARK SMILES CC(C)=CCC[C@@H](C)c1ccc(C)cc1
REMARK SMILES IDX 6 1 7 2 8 3 9 4 13 5 12 6 11 7 14 8 10 9 15 10 5 11 4 12
REMARK SMILES IDX 2 13 1 14 3 15
REMARK H PARENT
REMARK Flexibility Score: inf
ROOT
ATOM      1  C   UNL     1     -20.742  25.860  23.621  1.00  0.00     0.012 C 
ENDROOT
BRANCH   1   2
ATOM      2  C   UNL     1     -20.283  27.327  23.426  1.00  0.00     0.016 C 
ATOM      3  C   UNL     1     -19.882  27.993  24.752  1.00  0.00     0.013 C 
BRANCH   2   4
ATOM      4  C   UNL     1     -19.133  27.391  22.436  1.00  0.00    -0.045 A 
ATOM      5  C   UNL     1     -15.894  27.557  19.583  1.00  0.00     0.044 C 
ATOM      6  C   UNL     1     -17.007  27.523  20.588  1.00  0.00    -0.051 A 
ATOM      7  C   UNL     1     -16.885  26.752  21.752  1.00  0.00     0.004 A 
ATOM      8  C   UNL     1     -18.207  28.207  20.339  1.00  0.00     0.004 A 
ATOM      9  C   UNL     1     -17.935  26.691  22.672  1.00  0.00     0.004 A 
ATOM     10  C   UNL     1     -19.258  28.146  21.257  1.00  0.00     0.004 A 
ENDBRANCH   2   4
ENDBRANCH   1   2
BRANCH   1  11
ATOM     11  C   UNL     1     -21.535  25.294  22.429  1.00  0.00     0.028 C 
BRANCH  11  12
ATOM     12  C   UNL     1     -20.657  24.530  21.466  1.00  0.00    -0.028 C 
ATOM     13  C   UNL     1     -20.606  24.799  20.143  1.00  0.00    -0.080 C 
ATOM     14  C   UNL     1     -19.700  23.970  19.270  1.00  0.00     0.039 C 
ATOM     15  C   UNL     1     -21.431  25.905  19.530  1.00  0.00     0.039 C 
ENDBRANCH  11  12
ENDBRANCH   1  11
TORSDOF 4
ENDMDL
MODEL 7
REMARK VINA RESULT:    -4.130      1.898      3.914
REMARK INTER + INTRA:          -6.561
REMARK INTER:                  -5.089
REMARK INTRA:                  -1.472
REMARK UNBOUND:                -1.465
REMARK SMILES CC(C)=CCC[C@@H](C)c1ccc(C)cc1
REMARK SMILES IDX 6 1 7 2 8 3 9 4 13 5 12 6 11 7 14 8 10 9 15 10 5 11 4 12
REMARK SMILES IDX 2 13 1 14 3 15
REMARK H PARENT
REMARK Flexibility Score: inf
ROOT
ATOM      1  C   UNL     1     -14.211  24.144  21.375  1.00  0.00     0.012 C 
ENDROOT
BRANCH   1   2
ATOM      2  C   UNL     1     -14.824  24.966  22.538  1.00  0.00     0.016 C 
ATOM      3  C   UNL     1     -13.762  25.768  23.306  1.00  0.00     0.013 C 
BRANCH   2   4
ATOM      4  C   UNL     1     -15.905  25.894  22.013  1.00  0.00    -0.045 A 
ATOM      5  C   UNL     1     -18.947  28.574  20.521  1.00  0.00     0.044 C 
ATOM      6  C   UNL     1     -17.902  27.621  21.022  1.00  0.00    -0.051 A 
ATOM      7  C   UNL     1     -18.130  26.870  22.184  1.00  0.00     0.004 A 
ATOM      8  C   UNL     1     -16.662  27.525  20.373  1.00  0.00     0.004 A 
ATOM      9  C   UNL     1     -17.144  26.009  22.672  1.00  0.00     0.004 A 
ATOM     10  C   UNL     1     -15.675  26.665  20.861  1.00  0.00     0.004 A 
ENDBRANCH   2   4
ENDBRANCH   1   2
BRANCH   1  11
ATOM     11  C   UNL     1     -15.171  23.096  20.783  1.00  0.00     0.028 C 
BRANCH  11  12
ATOM     12  C   UNL     1     -15.527  23.391  19.344  1.00  0.00    -0.028 C 
ATOM     13  C   UNL     1     -16.786  23.659  18.936  1.00  0.00    -0.080 C 
ATOM     14  C   UNL     1     -17.030  23.932  17.475  1.00  0.00     0.039 C 
ATOM     15  C   UNL     1     -17.941  23.689  19.908  1.00  0.00     0.039 C 
ENDBRANCH  11  12
ENDBRANCH   1  11
TORSDOF 4
ENDMDL
MODEL 8
REMARK VINA RESULT:    -4.040      1.482      3.719
REMARK INTER + INTRA:          -6.449
REMARK INTER:                  -5.044
REMARK INTRA:                  -1.406
REMARK UNBOUND:                -1.465
REMARK SMILES CC(C)=CCC[C@@H](C)c1ccc(C)cc1
REMARK SMILES IDX 6 1 7 2 8 3 9 4 13 5 12 6 11 7 14 8 10 9 15 10 5 11 4 12
REMARK SMILES IDX 2 13 1 14 3 15
REMARK H PARENT
REMARK Flexibility Score: inf
ROOT
ATOM      1  C   UNL     1     -17.213  27.117  19.657  1.00  0.00     0.012 C 
ENDROOT
BRANCH   1   2
ATOM      2  C   UNL     1     -17.833  27.762  20.923  1.00  0.00     0.016 C 
ATOM      3  C   UNL     1     -19.163  28.470  20.624  1.00  0.00     0.013 C 
BRANCH   2   4
ATOM      4  C   UNL     1     -18.027  26.714  22.006  1.00  0.00    -0.045 A 
ATOM      5  C   UNL     1     -18.628  23.724  25.064  1.00  0.00     0.044 C 
ATOM      6  C   UNL     1     -18.391  24.755  24.001  1.00  0.00    -0.051 A 
ATOM      7  C   UNL     1     -18.049  26.068  24.353  1.00  0.00     0.004 A 
ATOM      8  C   UNL     1     -18.575  24.432  22.648  1.00  0.00     0.004 A 
ATOM      9  C   UNL     1     -17.862  27.038  23.366  1.00  0.00     0.004 A 
ATOM     10  C   UNL     1     -18.390  25.401  21.659  1.00  0.00     0.004 A 
ENDBRANCH   2   4
ENDBRANCH   1   2
BRANCH   1  11
ATOM     11  C   UNL     1     -15.680  26.987  19.714  1.00  0.00     0.028 C 
BRANCH  11  12
ATOM     12  C   UNL     1     -15.228  25.548  19.800  1.00  0.00    -0.028 C 
ATOM     13  C   UNL     1     -14.681  25.013  20.912  1.00  0.00    -0.080 C 
ATOM     14  C   UNL     1     -14.258  23.567  20.887  1.00  0.00     0.039 C 
ATOM     15  C   UNL     1     -14.488  25.828  22.168  1.00  0.00     0.039 C 
ENDBRANCH  11  12
ENDBRANCH   1  11
TORSDOF 4
ENDMDL
MODEL 9
REMARK VINA RESULT:    -4.028      2.516      4.814
REMARK INTER + INTRA:          -6.434
REMARK INTER:                  -5.723
REMARK INTRA:                  -0.711
REMARK UNBOUND:                -1.465
REMARK SMILES CC(C)=CCC[C@@H](C)c1ccc(C)cc1
REMARK SMILES IDX 6 1 7 2 8 3 9 4 13 5 12 6 11 7 14 8 10 9 15 10 5 11 4 12
REMARK SMILES IDX 2 13 1 14 3 15
REMARK H PARENT
REMARK Flexibility Score: inf
ROOT
ATOM      1  C   UNL     1     -14.959  25.180  19.735  1.00  0.00     0.012 C 
ENDROOT
BRANCH   1   2
ATOM      2  C   UNL     1     -15.560  26.592  19.520  1.00  0.00     0.016 C 
ATOM      3  C   UNL     1     -16.040  26.806  18.075  1.00  0.00     0.013 C 
BRANCH   2   4
ATOM      4  C   UNL     1     -16.701  26.833  20.493  1.00  0.00    -0.045 A 
ATOM      5  C   UNL     1     -19.937  27.570  23.258  1.00  0.00     0.044 C 
ATOM      6  C   UNL     1     -18.828  27.290  22.287  1.00  0.00    -0.051 A 
ATOM      7  C   UNL     1     -17.747  26.480  22.663  1.00  0.00     0.004 A 
ATOM      8  C   UNL     1     -18.828  27.891  21.020  1.00  0.00     0.004 A 
ATOM      9  C   UNL     1     -16.696  26.247  21.773  1.00  0.00     0.004 A 
ATOM     10  C   UNL     1     -17.777  27.661  20.129  1.00  0.00     0.004 A 
ENDBRANCH   2   4
ENDBRANCH   1   2
BRANCH   1  11
ATOM     11  C   UNL     1     -14.648  24.432  18.427  1.00  0.00     0.028 C 
BRANCH  11  12
ATOM     12  C   UNL     1     -13.173  24.144  18.267  1.00  0.00    -0.028 C 
ATOM     13  C   UNL     1     -12.431  24.637  17.252  1.00  0.00    -0.080 C 
ATOM     14  C   UNL     1     -10.969  24.281  17.184  1.00  0.00     0.039 C 
ATOM     15  C   UNL     1     -13.035  25.531  16.195  1.00  0.00     0.039 C 
ENDBRANCH  11  12
ENDBRANCH   1  11
TORSDOF 4
ENDMDL
