MODEL 1
REMARK VINA RESULT:    -4.451      0.000      0.000
REMARK INTER + INTRA:          -6.938
REMARK INTER:                  -6.533
REMARK INTRA:                  -0.405
REMARK UNBOUND:                -0.405
REMARK SMILES O=C([O-])CCCCCCCC(=O)[O-]
REMARK SMILES IDX 7 1 6 2 5 3 4 4 2 5 1 6 3 7 8 8 9 9 10 10 11 11 12 12 13 13
REMARK H PARENT
REMARK Flexibility Score: inf
ROOT
ATOM      1  C   UNL     1       2.810  22.822 -17.642  1.00  0.00     0.000 C 
ENDROOT
BRANCH   1   2
ATOM      2  C   UNL     1       3.612  22.287 -16.446  1.00  0.00     0.000 C 
BRANCH   2   3
ATOM      3  C   UNL     1       2.679  21.677 -15.389  1.00  0.00     0.006 C 
BRANCH   3   4
ATOM      4  C   UNL     1       2.849  22.336 -14.014  1.00  0.00     0.053 C 
BRANCH   4   5
ATOM      5  C   UNL     1       2.455  21.414 -12.901  1.00  0.00     0.041 C 
ATOM      6  O   UNL     1       2.334  21.855 -11.728  1.00  0.00    -0.550 OA
ATOM      7  O   UNL     1       2.256  20.063 -13.154  1.00  0.00    -0.550 OA
ENDBRANCH   4   5
ENDBRANCH   3   4
ENDBRANCH   2   3
ENDBRANCH   1   2
BRANCH   1   8
ATOM      8  C   UNL     1       1.429  22.162 -17.774  1.00  0.00     0.000 C 
BRANCH   8   9
ATOM      9  C   UNL     1       1.310  21.283 -19.028  1.00  0.00     0.006 C 
BRANCH   9  10
ATOM     10  C   UNL     1       2.546  21.434 -19.921  1.00  0.00     0.053 C 
BRANCH  10  11
ATOM     11  C   UNL     1       2.877  20.134 -20.582  1.00  0.00     0.041 C 
ATOM     12  O   UNL     1       2.146  19.125 -20.397  1.00  0.00    -0.550 OA
ATOM     13  O   UNL     1       3.963  20.048 -21.444  1.00  0.00    -0.550 OA
ENDBRANCH  10  11
ENDBRANCH   9  10
ENDBRANCH   8   9
ENDBRANCH   1   8
TORSDOF 8
ENDMDL
MODEL 2
REMARK VINA RESULT:    -4.363      8.117     10.134
REMARK INTER + INTRA:          -6.809
REMARK INTER:                  -6.193
REMARK INTRA:                  -0.616
REMARK UNBOUND:                -0.405
REMARK SMILES O=C([O-])CCCCCCCC(=O)[O-]
REMARK SMILES IDX 7 1 6 2 5 3 4 4 2 5 1 6 3 7 8 8 9 9 10 10 11 11 12 12 13 13
REMARK H PARENT
REMARK Flexibility Score: inf
ROOT
ATOM      1  C   UNL     1       9.750  26.881 -13.122  1.00  0.00     0.000 C 
ENDROOT
BRANCH   1   2
ATOM      2  C   UNL     1       9.399  28.368 -12.962  1.00  0.00     0.000 C 
BRANCH   2   3
ATOM      3  C   UNL     1       7.898  28.553 -12.696  1.00  0.00     0.006 C 
BRANCH   3   4
ATOM      4  C   UNL     1       7.040  28.138 -13.898  1.00  0.00     0.053 C 
BRANCH   4   5
ATOM      5  C   UNL     1       6.783  29.288 -14.824  1.00  0.00     0.041 C 
ATOM      6  O   UNL     1       6.916  30.471 -14.415  1.00  0.00    -0.550 OA
ATOM      7  O   UNL     1       6.363  29.052 -16.127  1.00  0.00    -0.550 OA
ENDBRANCH   4   5
ENDBRANCH   3   4
ENDBRANCH   2   3
ENDBRANCH   1   2
BRANCH   1   8
ATOM      8  C   UNL     1      10.359  26.275 -11.849  1.00  0.00     0.000 C 
BRANCH   8   9
ATOM      9  C   UNL     1       9.585  25.046 -11.348  1.00  0.00     0.006 C 
BRANCH   9  10
ATOM     10  C   UNL     1       8.619  24.534 -12.422  1.00  0.00     0.053 C 
BRANCH  10  11
ATOM     11  C   UNL     1       7.234  24.418 -11.868  1.00  0.00     0.041 C 
ATOM     12  O   UNL     1       6.248  24.814 -12.541  1.00  0.00    -0.550 OA
ATOM     13  O   UNL     1       7.029  23.824 -10.629  1.00  0.00    -0.550 OA
ENDBRANCH  10  11
ENDBRANCH   9  10
ENDBRANCH   8   9
ENDBRANCH   1   8
TORSDOF 8
ENDMDL
MODEL 3
REMARK VINA RESULT:    -4.360      0.237      6.515
REMARK INTER + INTRA:          -6.804
REMARK INTER:                  -6.407
REMARK INTRA:                  -0.398
REMARK UNBOUND:                -0.405
REMARK SMILES O=C([O-])CCCCCCCC(=O)[O-]
REMARK SMILES IDX 7 1 6 2 5 3 4 4 2 5 1 6 3 7 8 8 9 9 10 10 11 11 12 12 13 13
REMARK H PARENT
REMARK Flexibility Score: inf
ROOT
ATOM      1  C   UNL     1       3.058  22.858 -17.429  1.00  0.00     0.000 C 
ENDROOT
BRANCH   1   2
ATOM      2  C   UNL     1       1.600  22.417 -17.626  1.00  0.00     0.000 C 
BRANCH   2   3
ATOM      3  C   UNL     1       1.497  21.327 -18.703  1.00  0.00     0.006 C 
BRANCH   3   4
ATOM      4  C   UNL     1       2.508  21.535 -19.838  1.00  0.00     0.053 C 
BRANCH   4   5
ATOM      5  C   UNL     1       2.815  20.255 -20.553  1.00  0.00     0.041 C 
ATOM      6  O   UNL     1       2.122  19.226 -20.335  1.00  0.00    -0.550 OA
ATOM      7  O   UNL     1       3.887  20.189 -21.435  1.00  0.00    -0.550 OA
ENDBRANCH   4   5
ENDBRANCH   3   4
ENDBRANCH   2   3
ENDBRANCH   1   2
BRANCH   1   8
ATOM      8  C   UNL     1       3.720  22.194 -16.211  1.00  0.00     0.000 C 
BRANCH   8   9
ATOM      9  C   UNL     1       2.696  21.629 -15.216  1.00  0.00     0.006 C 
BRANCH   9  10
ATOM     10  C   UNL     1       2.830  22.307 -13.849  1.00  0.00     0.053 C 
BRANCH  10  11
ATOM     11  C   UNL     1       2.437  21.365 -12.755  1.00  0.00     0.041 C 
ATOM     12  O   UNL     1       2.353  20.130 -12.983  1.00  0.00    -0.550 OA
ATOM     13  O   UNL     1       2.214  21.845 -11.470  1.00  0.00    -0.550 OA
ENDBRANCH  10  11
ENDBRANCH   9  10
ENDBRANCH   8   9
ENDBRANCH   1   8
TORSDOF 8
ENDMDL
MODEL 4
REMARK VINA RESULT:    -4.358      8.083     10.252
REMARK INTER + INTRA:          -6.802
REMARK INTER:                  -6.183
REMARK INTRA:                  -0.619
REMARK UNBOUND:                -0.405
REMARK SMILES O=C([O-])CCCCCCCC(=O)[O-]
REMARK SMILES IDX 7 1 6 2 5 3 4 4 2 5 1 6 3 7 8 8 9 9 10 10 11 11 12 12 13 13
REMARK H PARENT
REMARK Flexibility Score: inf
ROOT
ATOM      1  C   UNL     1       9.798  27.334 -13.182  1.00  0.00     0.000 C 
ENDROOT
BRANCH   1   2
ATOM      2  C   UNL     1       9.339  28.748 -12.797  1.00  0.00     0.000 C 
BRANCH   2   3
ATOM      3  C   UNL     1       7.807  28.822 -12.706  1.00  0.00     0.006 C 
BRANCH   3   4
ATOM      4  C   UNL     1       7.124  28.317 -13.984  1.00  0.00     0.053 C 
BRANCH   4   5
ATOM      5  C   UNL     1       6.838  29.433 -14.941  1.00  0.00     0.041 C 
ATOM      6  O   UNL     1       6.451  29.178 -16.112  1.00  0.00    -0.550 OA
ATOM      7  O   UNL     1       7.033  30.752 -14.551  1.00  0.00    -0.550 OA
ENDBRANCH   4   5
ENDBRANCH   3   4
ENDBRANCH   2   3
ENDBRANCH   1   2
BRANCH   1   8
ATOM      8  C   UNL     1      10.416  26.569 -12.001  1.00  0.00     0.000 C 
BRANCH   8   9
ATOM      9  C   UNL     1       9.660  25.273 -11.674  1.00  0.00     0.006 C 
BRANCH   9  10
ATOM     10  C   UNL     1       8.531  25.029 -12.682  1.00  0.00     0.053 C 
BRANCH  10  11
ATOM     11  C   UNL     1       7.310  24.515 -11.986  1.00  0.00     0.041 C 
ATOM     12  O   UNL     1       7.414  23.911 -10.887  1.00  0.00    -0.550 OA
ATOM     13  O   UNL     1       6.052  24.749 -12.528  1.00  0.00    -0.550 OA
ENDBRANCH  10  11
ENDBRANCH   9  10
ENDBRANCH   8   9
ENDBRANCH   1   8
TORSDOF 8
ENDMDL
MODEL 5
REMARK VINA RESULT:    -4.300      9.082      9.847
REMARK INTER + INTRA:          -6.716
REMARK INTER:                  -6.416
REMARK INTRA:                  -0.300
REMARK UNBOUND:                -0.405
REMARK SMILES O=C([O-])CCCCCCCC(=O)[O-]
REMARK SMILES IDX 7 1 6 2 5 3 4 4 2 5 1 6 3 7 8 8 9 9 10 10 11 11 12 12 13 13
REMARK H PARENT
REMARK Flexibility Score: inf
ROOT
ATOM      1  C   UNL     1       8.595  27.279 -12.730  1.00  0.00     0.000 C 
ENDROOT
BRANCH   1   2
ATOM      2  C   UNL     1       9.753  26.379 -12.273  1.00  0.00     0.000 C 
BRANCH   2   3
ATOM      3  C   UNL     1       9.280  24.930 -12.084  1.00  0.00     0.006 C 
BRANCH   3   4
ATOM      4  C   UNL     1       9.180  24.540 -10.604  1.00  0.00     0.053 C 
BRANCH   4   5
ATOM      5  C   UNL     1       7.885  23.855 -10.294  1.00  0.00     0.041 C 
ATOM      6  O   UNL     1       7.806  23.061  -9.320  1.00  0.00    -0.550 OA
ATOM      7  O   UNL     1       6.774  24.067 -11.102  1.00  0.00    -0.550 OA
ENDBRANCH   4   5
ENDBRANCH   3   4
ENDBRANCH   2   3
ENDBRANCH   1   2
BRANCH   1   8
ATOM      8  C   UNL     1       8.975  28.767 -12.761  1.00  0.00     0.000 C 
BRANCH   8   9
ATOM      9  C   UNL     1       7.750  29.693 -12.733  1.00  0.00     0.006 C 
BRANCH   9  10
ATOM     10  C   UNL     1       7.707  30.581 -13.981  1.00  0.00     0.053 C 
BRANCH  10  11
ATOM     11  C   UNL     1       6.644  30.110 -14.923  1.00  0.00     0.041 C 
ATOM     12  O   UNL     1       6.162  30.898 -15.778  1.00  0.00    -0.550 OA
ATOM     13  O   UNL     1       6.222  28.787 -14.890  1.00  0.00    -0.550 OA
ENDBRANCH  10  11
ENDBRANCH   9  10
ENDBRANCH   8   9
ENDBRANCH   1   8
TORSDOF 8
ENDMDL
MODEL 6
REMARK VINA RESULT:    -4.265      8.583     10.065
REMARK INTER + INTRA:          -6.665
REMARK INTER:                  -6.190
REMARK INTRA:                  -0.475
REMARK UNBOUND:                -0.405
REMARK SMILES O=C([O-])CCCCCCCC(=O)[O-]
REMARK SMILES IDX 7 1 6 2 5 3 4 4 2 5 1 6 3 7 8 8 9 9 10 10 11 11 12 12 13 13
REMARK H PARENT
REMARK Flexibility Score: inf
ROOT
ATOM      1  C   UNL     1       8.795  27.951 -12.883  1.00  0.00     0.000 C 
ENDROOT
BRANCH   1   2
ATOM      2  C   UNL     1       7.355  27.446 -13.054  1.00  0.00     0.000 C 
BRANCH   2   3
ATOM      3  C   UNL     1       7.259  25.945 -12.743  1.00  0.00     0.006 C 
BRANCH   3   4
ATOM      4  C   UNL     1       8.581  25.212 -13.003  1.00  0.00     0.053 C 
BRANCH   4   5
ATOM      5  C   UNL     1       9.053  24.466 -11.793  1.00  0.00     0.041 C 
ATOM      6  O   UNL     1       8.569  23.337 -11.518  1.00  0.00    -0.550 OA
ATOM      7  O   UNL     1      10.000  25.034 -10.951  1.00  0.00    -0.550 OA
ENDBRANCH   4   5
ENDBRANCH   3   4
ENDBRANCH   2   3
ENDBRANCH   1   2
BRANCH   1   8
ATOM      8  C   UNL     1       8.878  29.481 -12.759  1.00  0.00     0.000 C 
BRANCH   8   9
ATOM      9  C   UNL     1       7.495  30.149 -12.738  1.00  0.00     0.006 C 
BRANCH   9  10
ATOM     10  C   UNL     1       7.319  31.079 -13.943  1.00  0.00     0.053 C 
BRANCH  10  11
ATOM     11  C   UNL     1       6.250  30.561 -14.853  1.00  0.00     0.041 C 
ATOM     12  O   UNL     1       5.119  31.112 -14.879  1.00  0.00    -0.550 OA
ATOM     13  O   UNL     1       6.520  29.501 -15.710  1.00  0.00    -0.550 OA
ENDBRANCH  10  11
ENDBRANCH   9  10
ENDBRANCH   8   9
ENDBRANCH   1   8
TORSDOF 8
ENDMDL
MODEL 7
REMARK VINA RESULT:    -4.254      8.516     10.471
REMARK INTER + INTRA:          -6.649
REMARK INTER:                  -6.258
REMARK INTRA:                  -0.390
REMARK UNBOUND:                -0.405
REMARK SMILES O=C([O-])CCCCCCCC(=O)[O-]
REMARK SMILES IDX 7 1 6 2 5 3 4 4 2 5 1 6 3 7 8 8 9 9 10 10 11 11 12 12 13 13
REMARK H PARENT
REMARK Flexibility Score: inf
ROOT
ATOM      1  C   UNL     1       8.775  28.367 -12.749  1.00  0.00     0.000 C 
ENDROOT
BRANCH   1   2
ATOM      2  C   UNL     1       8.767  29.902 -12.695  1.00  0.00     0.000 C 
BRANCH   2   3
ATOM      3  C   UNL     1       7.383  30.457 -13.063  1.00  0.00     0.006 C 
BRANCH   3   4
ATOM      4  C   UNL     1       7.418  31.305 -14.341  1.00  0.00     0.053 C 
BRANCH   4   5
ATOM      5  C   UNL     1       6.178  31.125 -15.164  1.00  0.00     0.041 C 
ATOM      6  O   UNL     1       5.096  30.794 -14.613  1.00  0.00    -0.550 OA
ATOM      7  O   UNL     1       6.228  31.290 -16.543  1.00  0.00    -0.550 OA
ENDBRANCH   4   5
ENDBRANCH   3   4
ENDBRANCH   2   3
ENDBRANCH   1   2
BRANCH   1   8
ATOM      8  C   UNL     1       7.389  27.777 -13.052  1.00  0.00     0.000 C 
BRANCH   8   9
ATOM      9  C   UNL     1       7.326  26.261 -12.813  1.00  0.00     0.006 C 
BRANCH   9  10
ATOM     10  C   UNL     1       8.640  25.746 -12.217  1.00  0.00     0.053 C 
BRANCH  10  11
ATOM     11  C   UNL     1       8.876  24.324 -12.618  1.00  0.00     0.041 C 
ATOM     12  O   UNL     1       9.249  24.050 -13.788  1.00  0.00    -0.550 OA
ATOM     13  O   UNL     1       8.732  23.305 -11.684  1.00  0.00    -0.550 OA
ENDBRANCH  10  11
ENDBRANCH   9  10
ENDBRANCH   8   9
ENDBRANCH   1   8
TORSDOF 8
ENDMDL
MODEL 8
REMARK VINA RESULT:    -4.210      7.480     10.356
REMARK INTER + INTRA:          -6.584
REMARK INTER:                  -5.651
REMARK INTRA:                  -0.933
REMARK UNBOUND:                -0.405
REMARK SMILES O=C([O-])CCCCCCCC(=O)[O-]
REMARK SMILES IDX 7 1 6 2 5 3 4 4 2 5 1 6 3 7 8 8 9 9 10 10 11 11 12 12 13 13
REMARK H PARENT
REMARK Flexibility Score: inf
ROOT
ATOM      1  C   UNL     1       0.929  21.304  -6.093  1.00  0.00     0.000 C 
ENDROOT
BRANCH   1   2
ATOM      2  C   UNL     1       2.399  20.982  -6.402  1.00  0.00     0.000 C 
BRANCH   2   3
ATOM      3  C   UNL     1       2.763  21.403  -7.834  1.00  0.00     0.006 C 
BRANCH   3   4
ATOM      4  C   UNL     1       1.526  21.539  -8.732  1.00  0.00     0.053 C 
BRANCH   4   5
ATOM      5  C   UNL     1       1.779  21.016 -10.113  1.00  0.00     0.041 C 
ATOM      6  O   UNL     1       2.691  20.172 -10.312  1.00  0.00    -0.550 OA
ATOM      7  O   UNL     1       1.030  21.488 -11.184  1.00  0.00    -0.550 OA
ENDBRANCH   4   5
ENDBRANCH   3   4
ENDBRANCH   2   3
ENDBRANCH   1   2
BRANCH   1   8
ATOM      8  C   UNL     1       0.247  20.214  -5.251  1.00  0.00     0.000 C 
BRANCH   8   9
ATOM      9  C   UNL     1       0.775  18.807  -5.564  1.00  0.00     0.006 C 
BRANCH   9  10
ATOM     10  C   UNL     1      -0.090  18.122  -6.627  1.00  0.00     0.053 C 
BRANCH  10  11
ATOM     11  C   UNL     1       0.647  18.036  -7.926  1.00  0.00     0.041 C 
ATOM     12  O   UNL     1       1.900  17.908  -7.937  1.00  0.00    -0.550 OA
ATOM     13  O   UNL     1      -0.054  18.045  -9.125  1.00  0.00    -0.550 OA
ENDBRANCH  10  11
ENDBRANCH   9  10
ENDBRANCH   8   9
ENDBRANCH   1   8
TORSDOF 8
ENDMDL
MODEL 9
REMARK VINA RESULT:    -4.181      8.673      9.950
REMARK INTER + INTRA:          -6.542
REMARK INTER:                  -6.081
REMARK INTRA:                  -0.461
REMARK UNBOUND:                -0.405
REMARK SMILES O=C([O-])CCCCCCCC(=O)[O-]
REMARK SMILES IDX 7 1 6 2 5 3 4 4 2 5 1 6 3 7 8 8 9 9 10 10 11 11 12 12 13 13
REMARK H PARENT
REMARK Flexibility Score: inf
ROOT
ATOM      1  C   UNL     1       7.012  27.041 -13.074  1.00  0.00     0.000 C 
ENDROOT
BRANCH   1   2
ATOM      2  C   UNL     1       7.029  25.538 -12.758  1.00  0.00     0.000 C 
BRANCH   2   3
ATOM      3  C   UNL     1       8.427  24.944 -12.993  1.00  0.00     0.006 C 
BRANCH   3   4
ATOM      4  C   UNL     1       8.717  23.757 -12.065  1.00  0.00     0.053 C 
BRANCH   4   5
ATOM      5  C   UNL     1       8.865  24.189 -10.638  1.00  0.00     0.041 C 
ATOM      6  O   UNL     1       9.738  25.037 -10.321  1.00  0.00    -0.550 OA
ATOM      7  O   UNL     1       8.060  23.626  -9.655  1.00  0.00    -0.550 OA
ENDBRANCH   4   5
ENDBRANCH   3   4
ENDBRANCH   2   3
ENDBRANCH   1   2
BRANCH   1   8
ATOM      8  C   UNL     1       8.353  27.727 -12.769  1.00  0.00     0.000 C 
BRANCH   8   9
ATOM      9  C   UNL     1       8.326  29.235 -13.062  1.00  0.00     0.006 C 
BRANCH   9  10
ATOM     10  C   UNL     1       7.785  29.509 -14.469  1.00  0.00     0.053 C 
BRANCH  10  11
ATOM     11  C   UNL     1       6.884  30.703 -14.460  1.00  0.00     0.041 C 
ATOM     12  O   UNL     1       6.281  31.049 -15.510  1.00  0.00    -0.550 OA
ATOM     13  O   UNL     1       6.671  31.405 -13.280  1.00  0.00    -0.550 OA
ENDBRANCH  10  11
ENDBRANCH   9  10
ENDBRANCH   8   9
ENDBRANCH   1   8
TORSDOF 8
ENDMDL
