MODEL 1
REMARK VINA RESULT:    -5.045      0.000      0.000
REMARK INTER + INTRA:         -10.880
REMARK INTER:                  -8.879
REMARK INTRA:                  -2.001
REMARK UNBOUND:                -2.001
REMARK SMILES CCCCCCCCCCCCCCC(=O)[O-]
REMARK SMILES IDX 9 1 10 2 11 3 12 4 13 5 14 6 15 7 16 8 17 9 8 10 7 11 6 12
REMARK SMILES IDX 5 13 4 14 3 15 2 16 1 17
REMARK H PARENT
REMARK Flexibility Score: inf
ROOT
ATOM      1  C   UNL     1      16.935  22.514   6.585  1.00  0.00     0.000 C 
ENDROOT
BRANCH   1   2
ATOM      2  C   UNL     1      18.052  21.657   5.950  1.00  0.00     0.000 C 
BRANCH   2   3
ATOM      3  C   UNL     1      19.295  22.467   5.536  1.00  0.00     0.000 C 
BRANCH   3   4
ATOM      4  C   UNL     1      20.563  21.633   5.280  1.00  0.00     0.000 C 
BRANCH   4   5
ATOM      5  C   UNL     1      21.519  21.504   6.482  1.00  0.00     0.006 C 
BRANCH   5   6
ATOM      6  C   UNL     1      21.182  22.445   7.655  1.00  0.00     0.053 C 
BRANCH   6   7
ATOM      7  C   UNL     1      22.113  22.276   8.817  1.00  0.00     0.041 C 
ATOM      8  O   UNL     1      22.021  23.032   9.821  1.00  0.00    -0.550 OA
ATOM      9  O   UNL     1      23.058  21.258   8.810  1.00  0.00    -0.550 OA
ENDBRANCH   6   7
ENDBRANCH   5   6
ENDBRANCH   4   5
ENDBRANCH   3   4
ENDBRANCH   2   3
ENDBRANCH   1   2
BRANCH   1  10
ATOM     10  C   UNL     1      17.291  24.010   6.617  1.00  0.00     0.000 C 
BRANCH  10  11
ATOM     11  C   UNL     1      17.197  24.611   8.028  1.00  0.00    -0.000 C 
BRANCH  11  12
ATOM     12  C   UNL     1      18.547  25.142   8.533  1.00  0.00    -0.000 C 
BRANCH  12  13
ATOM     13  C   UNL     1      18.883  24.565   9.914  1.00  0.00    -0.000 C 
BRANCH  13  14
ATOM     14  C   UNL     1      17.609  24.145  10.661  1.00  0.00    -0.000 C 
BRANCH  14  15
ATOM     15  C   UNL     1      17.711  22.713  11.229  1.00  0.00    -0.000 C 
BRANCH  15  16
ATOM     16  C   UNL     1      18.746  21.837  10.504  1.00  0.00    -0.003 C 
ATOM     17  C   UNL     1      18.109  20.770   9.617  1.00  0.00     0.004 C 
ENDBRANCH  15  16
ENDBRANCH  14  15
ENDBRANCH  13  14
ENDBRANCH  12  13
ENDBRANCH  11  12
ENDBRANCH  10  11
ENDBRANCH   1  10
TORSDOF 13
ENDMDL
MODEL 2
REMARK VINA RESULT:    -5.031      2.277      5.507
REMARK INTER + INTRA:         -10.855
REMARK INTER:                  -8.842
REMARK INTRA:                  -2.013
REMARK UNBOUND:                -2.001
REMARK SMILES CCCCCCCCCCCCCCC(=O)[O-]
REMARK SMILES IDX 9 1 10 2 11 3 12 4 13 5 14 6 15 7 16 8 17 9 8 10 7 11 6 12
REMARK SMILES IDX 5 13 4 14 3 15 2 16 1 17
REMARK H PARENT
REMARK Flexibility Score: inf
ROOT
ATOM      1  C   UNL     1      20.909  23.150  10.373  1.00  0.00     0.000 C 
ENDROOT
BRANCH   1   2
ATOM      2  C   UNL     1      19.541  22.775  10.983  1.00  0.00     0.000 C 
BRANCH   2   3
ATOM      3  C   UNL     1      18.462  22.449   9.934  1.00  0.00     0.000 C 
BRANCH   3   4
ATOM      4  C   UNL     1      17.102  23.133  10.161  1.00  0.00     0.000 C 
BRANCH   4   5
ATOM      5  C   UNL     1      17.125  24.674  10.123  1.00  0.00     0.006 C 
BRANCH   5   6
ATOM      6  C   UNL     1      17.487  25.260   8.745  1.00  0.00     0.053 C 
BRANCH   6   7
ATOM      7  C   UNL     1      18.045  26.648   8.836  1.00  0.00     0.041 C 
ATOM      8  O   UNL     1      17.294  27.619   9.119  1.00  0.00    -0.550 OA
ATOM      9  O   UNL     1      19.405  26.865   8.649  1.00  0.00    -0.550 OA
ENDBRANCH   6   7
ENDBRANCH   5   6
ENDBRANCH   4   5
ENDBRANCH   3   4
ENDBRANCH   2   3
ENDBRANCH   1   2
BRANCH   1  10
ATOM     10  C   UNL     1      20.795  23.579   8.899  1.00  0.00     0.000 C 
BRANCH  10  11
ATOM     11  C   UNL     1      21.752  22.802   7.981  1.00  0.00    -0.000 C 
BRANCH  11  12
ATOM     12  C   UNL     1      21.549  21.282   8.070  1.00  0.00    -0.000 C 
BRANCH  12  13
ATOM     13  C   UNL     1      20.919  20.736   6.783  1.00  0.00    -0.000 C 
BRANCH  13  14
ATOM     14  C   UNL     1      20.823  21.829   5.708  1.00  0.00    -0.000 C 
BRANCH  14  15
ATOM     15  C   UNL     1      19.392  21.973   5.148  1.00  0.00    -0.000 C 
BRANCH  15  16
ATOM     16  C   UNL     1      18.483  22.868   6.007  1.00  0.00    -0.003 C 
ATOM     17  C   UNL     1      17.258  22.134   6.547  1.00  0.00     0.004 C 
ENDBRANCH  15  16
ENDBRANCH  14  15
ENDBRANCH  13  14
ENDBRANCH  12  13
ENDBRANCH  11  12
ENDBRANCH  10  11
ENDBRANCH   1  10
TORSDOF 13
ENDMDL
MODEL 3
REMARK VINA RESULT:    -4.986      2.210      4.380
REMARK INTER + INTRA:         -10.776
REMARK INTER:                  -8.876
REMARK INTRA:                  -1.900
REMARK UNBOUND:                -2.001
REMARK SMILES CCCCCCCCCCCCCCC(=O)[O-]
REMARK SMILES IDX 9 1 10 2 11 3 12 4 13 5 14 6 15 7 16 8 17 9 8 10 7 11 6 12
REMARK SMILES IDX 5 13 4 14 3 15 2 16 1 17
REMARK H PARENT
REMARK Flexibility Score: inf
ROOT
ATOM      1  C   UNL     1      20.490  21.600   5.397  1.00  0.00     0.000 C 
ENDROOT
BRANCH   1   2
ATOM      2  C   UNL     1      19.189  21.447   6.214  1.00  0.00     0.000 C 
BRANCH   2   3
ATOM      3  C   UNL     1      18.186  22.597   6.006  1.00  0.00     0.000 C 
BRANCH   3   4
ATOM      4  C   UNL     1      17.593  23.189   7.297  1.00  0.00     0.000 C 
BRANCH   4   5
ATOM      5  C   UNL     1      17.453  24.724   7.313  1.00  0.00     0.006 C 
BRANCH   5   6
ATOM      6  C   UNL     1      17.325  25.326   8.725  1.00  0.00     0.053 C 
BRANCH   6   7
ATOM      7  C   UNL     1      18.059  26.624   8.869  1.00  0.00     0.041 C 
ATOM      8  O   UNL     1      19.318  26.645   8.889  1.00  0.00    -0.550 OA
ATOM      9  O   UNL     1      17.353  27.819   8.941  1.00  0.00    -0.550 OA
ENDBRANCH   6   7
ENDBRANCH   5   6
ENDBRANCH   4   5
ENDBRANCH   3   4
ENDBRANCH   2   3
ENDBRANCH   1   2
BRANCH   1  10
ATOM     10  C   UNL     1      21.687  22.008   6.273  1.00  0.00     0.000 C 
BRANCH  10  11
ATOM     11  C   UNL     1      21.815  21.148   7.540  1.00  0.00    -0.000 C 
BRANCH  11  12
ATOM     12  C   UNL     1      21.987  21.994   8.810  1.00  0.00    -0.000 C 
BRANCH  12  13
ATOM     13  C   UNL     1      21.124  23.260   8.749  1.00  0.00    -0.000 C 
BRANCH  13  14
ATOM     14  C   UNL     1      20.158  23.329   9.942  1.00  0.00    -0.000 C 
BRANCH  14  15
ATOM     15  C   UNL     1      19.439  21.986  10.188  1.00  0.00    -0.000 C 
BRANCH  15  16
ATOM     16  C   UNL     1      18.598  21.966  11.476  1.00  0.00    -0.003 C 
ATOM     17  C   UNL     1      17.465  22.990  11.466  1.00  0.00     0.004 C 
ENDBRANCH  15  16
ENDBRANCH  14  15
ENDBRANCH  13  14
ENDBRANCH  12  13
ENDBRANCH  11  12
ENDBRANCH  10  11
ENDBRANCH   1  10
TORSDOF 13
ENDMDL
MODEL 4
REMARK VINA RESULT:    -4.972      2.200      4.979
REMARK INTER + INTRA:         -10.752
REMARK INTER:                  -8.788
REMARK INTRA:                  -1.964
REMARK UNBOUND:                -2.001
REMARK SMILES CCCCCCCCCCCCCCC(=O)[O-]
REMARK SMILES IDX 9 1 10 2 11 3 12 4 13 5 14 6 15 7 16 8 17 9 8 10 7 11 6 12
REMARK SMILES IDX 5 13 4 14 3 15 2 16 1 17
REMARK H PARENT
REMARK Flexibility Score: inf
ROOT
ATOM      1  C   UNL     1      16.917  21.223   9.147  1.00  0.00     0.000 C 
ENDROOT
BRANCH   1   2
ATOM      2  C   UNL     1      18.327  21.440   9.737  1.00  0.00     0.000 C 
BRANCH   2   3
ATOM      3  C   UNL     1      18.334  22.245  11.049  1.00  0.00     0.000 C 
BRANCH   3   4
ATOM      4  C   UNL     1      17.080  23.101  11.298  1.00  0.00     0.000 C 
BRANCH   4   5
ATOM      5  C   UNL     1      17.013  24.418  10.499  1.00  0.00     0.006 C 
BRANCH   5   6
ATOM      6  C   UNL     1      18.377  24.897   9.966  1.00  0.00     0.053 C 
BRANCH   6   7
ATOM      7  C   UNL     1      18.300  26.241   9.308  1.00  0.00     0.041 C 
ATOM      8  O   UNL     1      19.340  26.788   8.853  1.00  0.00    -0.550 OA
ATOM      9  O   UNL     1      17.072  26.875   9.160  1.00  0.00    -0.550 OA
ENDBRANCH   6   7
ENDBRANCH   5   6
ENDBRANCH   4   5
ENDBRANCH   3   4
ENDBRANCH   2   3
ENDBRANCH   1   2
BRANCH   1  10
ATOM     10  C   UNL     1      16.890  21.390   7.617  1.00  0.00     0.000 C 
BRANCH  10  11
ATOM     11  C   UNL     1      16.875  22.864   7.183  1.00  0.00    -0.000 C 
BRANCH  11  12
ATOM     12  C   UNL     1      18.192  23.296   6.521  1.00  0.00    -0.000 C 
BRANCH  12  13
ATOM     13  C   UNL     1      18.960  22.082   5.982  1.00  0.00    -0.000 C 
BRANCH  13  14
ATOM     14  C   UNL     1      20.477  22.320   6.035  1.00  0.00    -0.000 C 
BRANCH  14  15
ATOM     15  C   UNL     1      21.062  22.043   7.436  1.00  0.00    -0.000 C 
BRANCH  15  16
ATOM     16  C   UNL     1      21.302  23.317   8.264  1.00  0.00    -0.003 C 
ATOM     17  C   UNL     1      21.779  23.025   9.685  1.00  0.00     0.004 C 
ENDBRANCH  15  16
ENDBRANCH  14  15
ENDBRANCH  13  14
ENDBRANCH  12  13
ENDBRANCH  11  12
ENDBRANCH  10  11
ENDBRANCH   1  10
TORSDOF 13
ENDMDL
MODEL 5
REMARK VINA RESULT:    -4.971      1.163      2.914
REMARK INTER + INTRA:         -10.750
REMARK INTER:                  -8.611
REMARK INTRA:                  -2.139
REMARK UNBOUND:                -2.001
REMARK SMILES CCCCCCCCCCCCCCC(=O)[O-]
REMARK SMILES IDX 9 1 10 2 11 3 12 4 13 5 14 6 15 7 16 8 17 9 8 10 7 11 6 12
REMARK SMILES IDX 5 13 4 14 3 15 2 16 1 17
REMARK H PARENT
REMARK Flexibility Score: inf
ROOT
ATOM      1  C   UNL     1      17.066  21.482   7.422  1.00  0.00     0.000 C 
ENDROOT
BRANCH   1   2
ATOM      2  C   UNL     1      17.218  22.966   7.027  1.00  0.00     0.000 C 
BRANCH   2   3
ATOM      3  C   UNL     1      18.619  23.328   6.499  1.00  0.00     0.000 C 
BRANCH   3   4
ATOM      4  C   UNL     1      19.177  22.380   5.422  1.00  0.00     0.000 C 
BRANCH   4   5
ATOM      5  C   UNL     1      20.522  21.711   5.767  1.00  0.00     0.006 C 
BRANCH   5   6
ATOM      6  C   UNL     1      21.175  22.246   7.055  1.00  0.00     0.053 C 
BRANCH   6   7
ATOM      7  C   UNL     1      22.134  21.269   7.665  1.00  0.00     0.041 C 
ATOM      8  O   UNL     1      22.400  20.187   7.078  1.00  0.00    -0.550 OA
ATOM      9  O   UNL     1      22.767  21.571   8.865  1.00  0.00    -0.550 OA
ENDBRANCH   6   7
ENDBRANCH   5   6
ENDBRANCH   4   5
ENDBRANCH   3   4
ENDBRANCH   2   3
ENDBRANCH   1   2
BRANCH   1  10
ATOM     10  C   UNL     1      16.949  21.289   8.944  1.00  0.00     0.000 C 
BRANCH  10  11
ATOM     11  C   UNL     1      18.316  21.143   9.630  1.00  0.00    -0.000 C 
BRANCH  11  12
ATOM     12  C   UNL     1      18.589  22.263  10.645  1.00  0.00    -0.000 C 
BRANCH  12  13
ATOM     13  C   UNL     1      19.880  23.015  10.300  1.00  0.00    -0.000 C 
BRANCH  13  14
ATOM     14  C   UNL     1      19.598  24.501  10.025  1.00  0.00    -0.000 C 
BRANCH  14  15
ATOM     15  C   UNL     1      18.091  24.827  10.076  1.00  0.00    -0.000 C 
BRANCH  15  16
ATOM     16  C   UNL     1      17.672  25.951   9.113  1.00  0.00    -0.003 C 
ATOM     17  C   UNL     1      18.826  26.878   8.738  1.00  0.00     0.004 C 
ENDBRANCH  15  16
ENDBRANCH  14  15
ENDBRANCH  13  14
ENDBRANCH  12  13
ENDBRANCH  11  12
ENDBRANCH  10  11
ENDBRANCH   1  10
TORSDOF 13
ENDMDL
MODEL 6
REMARK VINA RESULT:    -4.946      1.663      3.260
REMARK INTER + INTRA:         -10.705
REMARK INTER:                  -8.603
REMARK INTRA:                  -2.102
REMARK UNBOUND:                -2.001
REMARK SMILES CCCCCCCCCCCCCCC(=O)[O-]
REMARK SMILES IDX 9 1 10 2 11 3 12 4 13 5 14 6 15 7 16 8 17 9 8 10 7 11 6 12
REMARK SMILES IDX 5 13 4 14 3 15 2 16 1 17
REMARK H PARENT
REMARK Flexibility Score: inf
ROOT
ATOM      1  C   UNL     1      18.389  25.123   8.306  1.00  0.00     0.000 C 
ENDROOT
BRANCH   1   2
ATOM      2  C   UNL     1      17.215  24.598   7.451  1.00  0.00     0.000 C 
BRANCH   2   3
ATOM      3  C   UNL     1      17.565  23.353   6.614  1.00  0.00     0.000 C 
BRANCH   3   4
ATOM      4  C   UNL     1      19.070  23.104   6.411  1.00  0.00     0.000 C 
BRANCH   4   5
ATOM      5  C   UNL     1      19.422  21.942   5.461  1.00  0.00     0.006 C 
BRANCH   5   6
ATOM      6  C   UNL     1      20.928  21.628   5.387  1.00  0.00     0.053 C 
BRANCH   6   7
ATOM      7  C   UNL     1      21.237  20.199   5.715  1.00  0.00     0.041 C 
ATOM      8  O   UNL     1      20.355  19.310   5.580  1.00  0.00    -0.550 OA
ATOM      9  O   UNL     1      22.513  19.840   6.133  1.00  0.00    -0.550 OA
ENDBRANCH   6   7
ENDBRANCH   5   6
ENDBRANCH   4   5
ENDBRANCH   3   4
ENDBRANCH   2   3
ENDBRANCH   1   2
BRANCH   1  10
ATOM     10  C   UNL     1      17.980  25.381   9.767  1.00  0.00     0.000 C 
BRANCH  10  11
ATOM     11  C   UNL     1      16.889  24.415  10.256  1.00  0.00    -0.000 C 
BRANCH  11  12
ATOM     12  C   UNL     1      17.458  23.257  11.089  1.00  0.00    -0.000 C 
BRANCH  12  13
ATOM     13  C   UNL     1      17.663  22.007  10.225  1.00  0.00    -0.000 C 
BRANCH  13  14
ATOM     14  C   UNL     1      19.147  21.814   9.875  1.00  0.00    -0.000 C 
BRANCH  14  15
ATOM     15  C   UNL     1      20.071  22.682  10.755  1.00  0.00    -0.000 C 
BRANCH  15  16
ATOM     16  C   UNL     1      21.266  23.278   9.990  1.00  0.00    -0.003 C 
ATOM     17  C   UNL     1      21.788  22.359   8.888  1.00  0.00     0.004 C 
ENDBRANCH  15  16
ENDBRANCH  14  15
ENDBRANCH  13  14
ENDBRANCH  12  13
ENDBRANCH  11  12
ENDBRANCH  10  11
ENDBRANCH   1  10
TORSDOF 13
ENDMDL
MODEL 7
REMARK VINA RESULT:    -4.938      2.332      4.286
REMARK INTER + INTRA:         -10.691
REMARK INTER:                  -8.624
REMARK INTRA:                  -2.068
REMARK UNBOUND:                -2.001
REMARK SMILES CCCCCCCCCCCCCCC(=O)[O-]
REMARK SMILES IDX 9 1 10 2 11 3 12 4 13 5 14 6 15 7 16 8 17 9 8 10 7 11 6 12
REMARK SMILES IDX 5 13 4 14 3 15 2 16 1 17
REMARK H PARENT
REMARK Flexibility Score: inf
ROOT
ATOM      1  C   UNL     1      20.587  23.234  10.537  1.00  0.00     0.000 C 
ENDROOT
BRANCH   1   2
ATOM      2  C   UNL     1      21.649  23.120   9.423  1.00  0.00     0.000 C 
BRANCH   2   3
ATOM      3  C   UNL     1      21.054  22.980   8.009  1.00  0.00     0.000 C 
BRANCH   3   4
ATOM      4  C   UNL     1      21.750  21.946   7.107  1.00  0.00     0.000 C 
BRANCH   4   5
ATOM      5  C   UNL     1      21.116  21.755   5.715  1.00  0.00     0.006 C 
BRANCH   5   6
ATOM      6  C   UNL     1      19.625  22.138   5.648  1.00  0.00     0.053 C 
BRANCH   6   7
ATOM      7  C   UNL     1      18.733  20.952   5.434  1.00  0.00     0.041 C 
ATOM      8  O   UNL     1      18.486  20.544   4.268  1.00  0.00    -0.550 OA
ATOM      9  O   UNL     1      18.204  20.273   6.524  1.00  0.00    -0.550 OA
ENDBRANCH   6   7
ENDBRANCH   5   6
ENDBRANCH   4   5
ENDBRANCH   3   4
ENDBRANCH   2   3
ENDBRANCH   1   2
BRANCH   1  10
ATOM     10  C   UNL     1      19.434  22.231  10.352  1.00  0.00     0.000 C 
BRANCH  10  11
ATOM     11  C   UNL     1      18.214  22.563  11.226  1.00  0.00    -0.000 C 
BRANCH  11  12
ATOM     12  C   UNL     1      16.979  22.937  10.393  1.00  0.00    -0.000 C 
BRANCH  12  13
ATOM     13  C   UNL     1      17.115  22.433   8.951  1.00  0.00    -0.000 C 
BRANCH  13  14
ATOM     14  C   UNL     1      17.039  23.596   7.950  1.00  0.00    -0.000 C 
BRANCH  14  15
ATOM     15  C   UNL     1      17.237  24.966   8.631  1.00  0.00    -0.000 C 
BRANCH  15  16
ATOM     16  C   UNL     1      18.582  25.631   8.295  1.00  0.00    -0.003 C 
ATOM     17  C   UNL     1      19.100  26.532   9.414  1.00  0.00     0.004 C 
ENDBRANCH  15  16
ENDBRANCH  14  15
ENDBRANCH  13  14
ENDBRANCH  12  13
ENDBRANCH  11  12
ENDBRANCH  10  11
ENDBRANCH   1  10
TORSDOF 13
ENDMDL
MODEL 8
REMARK VINA RESULT:    -4.905      1.898      3.754
REMARK INTER + INTRA:         -10.634
REMARK INTER:                  -8.590
REMARK INTRA:                  -2.044
REMARK UNBOUND:                -2.001
REMARK SMILES CCCCCCCCCCCCCCC(=O)[O-]
REMARK SMILES IDX 9 1 10 2 11 3 12 4 13 5 14 6 15 7 16 8 17 9 8 10 7 11 6 12
REMARK SMILES IDX 5 13 4 14 3 15 2 16 1 17
REMARK H PARENT
REMARK Flexibility Score: inf
ROOT
ATOM      1  C   UNL     1      19.504  22.436  10.861  1.00  0.00     0.000 C 
ENDROOT
BRANCH   1   2
ATOM      2  C   UNL     1      20.698  23.391  10.647  1.00  0.00     0.000 C 
BRANCH   2   3
ATOM      3  C   UNL     1      21.683  22.921   9.560  1.00  0.00     0.000 C 
BRANCH   3   4
ATOM      4  C   UNL     1      21.235  23.188   8.113  1.00  0.00     0.000 C 
BRANCH   4   5
ATOM      5  C   UNL     1      21.799  22.214   7.059  1.00  0.00     0.006 C 
BRANCH   5   6
ATOM      6  C   UNL     1      22.199  20.840   7.627  1.00  0.00     0.053 C 
BRANCH   6   7
ATOM      7  C   UNL     1      22.349  19.796   6.563  1.00  0.00     0.041 C 
ATOM      8  O   UNL     1      21.360  19.457   5.860  1.00  0.00    -0.550 OA
ATOM      9  O   UNL     1      23.591  19.224   6.318  1.00  0.00    -0.550 OA
ENDBRANCH   6   7
ENDBRANCH   5   6
ENDBRANCH   4   5
ENDBRANCH   3   4
ENDBRANCH   2   3
ENDBRANCH   1   2
BRANCH   1  10
ATOM     10  C   UNL     1      18.154  23.109  10.562  1.00  0.00     0.000 C 
BRANCH  10  11
ATOM     11  C   UNL     1      18.290  24.615  10.290  1.00  0.00    -0.000 C 
BRANCH  11  12
ATOM     12  C   UNL     1      17.244  25.131   9.291  1.00  0.00    -0.000 C 
BRANCH  12  13
ATOM     13  C   UNL     1      17.788  25.093   7.857  1.00  0.00    -0.000 C 
BRANCH  13  14
ATOM     14  C   UNL     1      17.181  23.924   7.067  1.00  0.00    -0.000 C 
BRANCH  14  15
ATOM     15  C   UNL     1      18.234  23.190   6.211  1.00  0.00    -0.000 C 
BRANCH  15  16
ATOM     16  C   UNL     1      18.032  21.666   6.160  1.00  0.00    -0.003 C 
ATOM     17  C   UNL     1      18.284  20.984   7.503  1.00  0.00     0.004 C 
ENDBRANCH  15  16
ENDBRANCH  14  15
ENDBRANCH  13  14
ENDBRANCH  12  13
ENDBRANCH  11  12
ENDBRANCH  10  11
ENDBRANCH   1  10
TORSDOF 13
ENDMDL
MODEL 9
REMARK VINA RESULT:    -4.773      1.881      2.360
REMARK INTER + INTRA:         -10.401
REMARK INTER:                  -8.574
REMARK INTRA:                  -1.827
REMARK UNBOUND:                -2.001
REMARK SMILES CCCCCCCCCCCCCCC(=O)[O-]
REMARK SMILES IDX 9 1 10 2 11 3 12 4 13 5 14 6 15 7 16 8 17 9 8 10 7 11 6 12
REMARK SMILES IDX 5 13 4 14 3 15 2 16 1 17
REMARK H PARENT
REMARK Flexibility Score: inf
ROOT
ATOM      1  C   UNL     1      17.560  23.539   6.709  1.00  0.00     0.000 C 
ENDROOT
BRANCH   1   2
ATOM      2  C   UNL     1      19.037  23.142   6.497  1.00  0.00     0.000 C 
BRANCH   2   3
ATOM      3  C   UNL     1      19.223  21.714   5.951  1.00  0.00     0.000 C 
BRANCH   3   4
ATOM      4  C   UNL     1      19.977  21.618   4.613  1.00  0.00     0.000 C 
BRANCH   4   5
ATOM      5  C   UNL     1      21.478  21.289   4.726  1.00  0.00     0.006 C 
BRANCH   5   6
ATOM      6  C   UNL     1      21.933  20.918   6.151  1.00  0.00     0.053 C 
BRANCH   6   7
ATOM      7  C   UNL     1      22.359  19.486   6.267  1.00  0.00     0.041 C 
ATOM      8  O   UNL     1      23.560  19.197   6.514  1.00  0.00    -0.550 OA
ATOM      9  O   UNL     1      21.421  18.468   6.143  1.00  0.00    -0.550 OA
ENDBRANCH   6   7
ENDBRANCH   5   6
ENDBRANCH   4   5
ENDBRANCH   3   4
ENDBRANCH   2   3
ENDBRANCH   1   2
BRANCH   1  10
ATOM     10  C   UNL     1      17.361  24.409   7.963  1.00  0.00     0.000 C 
BRANCH  10  11
ATOM     11  C   UNL     1      18.648  25.131   8.392  1.00  0.00    -0.000 C 
BRANCH  11  12
ATOM     12  C   UNL     1      19.045  24.814   9.841  1.00  0.00    -0.000 C 
BRANCH  12  13
ATOM     13  C   UNL     1      20.270  23.892   9.886  1.00  0.00    -0.000 C 
BRANCH  13  14
ATOM     14  C   UNL     1      19.855  22.435  10.138  1.00  0.00    -0.000 C 
BRANCH  14  15
ATOM     15  C   UNL     1      18.565  22.332  10.978  1.00  0.00    -0.000 C 
BRANCH  15  16
ATOM     16  C   UNL     1      17.555  21.308  10.432  1.00  0.00    -0.003 C 
ATOM     17  C   UNL     1      18.062  20.570   9.195  1.00  0.00     0.004 C 
ENDBRANCH  15  16
ENDBRANCH  14  15
ENDBRANCH  13  14
ENDBRANCH  12  13
ENDBRANCH  11  12
ENDBRANCH  10  11
ENDBRANCH   1  10
TORSDOF 13
ENDMDL
