MODEL 1
REMARK VINA RESULT:    -4.255      0.000      0.000
REMARK INTER + INTRA:          -4.647
REMARK INTER:                  -4.628
REMARK INTRA:                  -0.019
REMARK UNBOUND:                -0.019
REMARK SMILES OCc1ccccc1
REMARK SMILES IDX 2 1 3 2 6 3 5 4 7 5 4 6 8 7 1 8
REMARK H PARENT 1 9
REMARK Flexibility Score: inf
ROOT
ATOM      1  C   UNL     1     -43.888 -70.489 161.457  1.00  0.00     0.191 C 
ENDROOT
BRANCH   1   2
ATOM      2  C   UNL     1     -42.679 -70.491 160.563  1.00  0.00    -0.023 A 
ATOM      3  C   UNL     1     -40.470 -70.495 158.831  1.00  0.00     0.000 A 
ATOM      4  C   UNL     1     -41.010 -69.283 159.272  1.00  0.00     0.000 A 
ATOM      5  C   UNL     1     -41.037 -71.704 159.245  1.00  0.00     0.000 A 
ATOM      6  C   UNL     1     -42.114 -69.279 160.131  1.00  0.00     0.006 A 
ATOM      7  C   UNL     1     -42.141 -71.704 160.103  1.00  0.00     0.006 A 
ENDBRANCH   1   2
BRANCH   1   8
ATOM      8  O   UNL     1     -44.040 -69.232 162.057  1.00  0.00    -0.392 OA
ATOM      9  H   UNL     1     -44.498 -68.654 161.391  1.00  0.00     0.211 HD
ENDBRANCH   1   8
TORSDOF 2
ENDMDL
MODEL 2
REMARK VINA RESULT:    -4.230      0.048      1.714
REMARK INTER + INTRA:          -4.619
REMARK INTER:                  -4.600
REMARK INTRA:                  -0.019
REMARK UNBOUND:                -0.019
REMARK SMILES OCc1ccccc1
REMARK SMILES IDX 2 1 3 2 6 3 5 4 7 5 4 6 8 7 1 8
REMARK H PARENT 1 9
REMARK Flexibility Score: inf
ROOT
ATOM      1  C   UNL     1     -43.882 -70.484 161.458  1.00  0.00     0.191 C 
ENDROOT
BRANCH   1   2
ATOM      2  C   UNL     1     -42.701 -70.466 160.528  1.00  0.00    -0.023 A 
ATOM      3  C   UNL     1     -40.449 -70.430 158.854  1.00  0.00     0.000 A 
ATOM      4  C   UNL     1     -41.001 -71.650 159.257  1.00  0.00     0.000 A 
ATOM      5  C   UNL     1     -41.013 -69.229 159.293  1.00  0.00     0.000 A 
ATOM      6  C   UNL     1     -42.120 -71.670 160.095  1.00  0.00     0.006 A 
ATOM      7  C   UNL     1     -42.131 -69.245 160.131  1.00  0.00     0.006 A 
ENDBRANCH   1   2
BRANCH   1   8
ATOM      8  O   UNL     1     -44.049 -69.223 162.046  1.00  0.00    -0.392 OA
ATOM      9  H   UNL     1     -44.597 -68.686 161.415  1.00  0.00     0.211 HD
ENDBRANCH   1   8
TORSDOF 2
ENDMDL
MODEL 3
REMARK VINA RESULT:    -3.864      2.648      3.952
REMARK INTER + INTRA:          -4.222
REMARK INTER:                  -4.203
REMARK INTRA:                  -0.019
REMARK UNBOUND:                -0.019
REMARK SMILES OCc1ccccc1
REMARK SMILES IDX 2 1 3 2 6 3 5 4 7 5 4 6 8 7 1 8
REMARK H PARENT 1 9
REMARK Flexibility Score: inf
ROOT
ATOM      1  C   UNL     1     -39.976 -72.441 157.796  1.00  0.00     0.191 C 
ENDROOT
BRANCH   1   2
ATOM      2  C   UNL     1     -40.696 -71.532 158.751  1.00  0.00    -0.023 A 
ATOM      3  C   UNL     1     -42.098 -69.822 160.480  1.00  0.00     0.000 A 
ATOM      4  C   UNL     1     -42.339 -71.199 160.512  1.00  0.00     0.000 A 
ATOM      5  C   UNL     1     -41.166 -69.296 159.581  1.00  0.00     0.000 A 
ATOM      6  C   UNL     1     -41.645 -72.052 159.647  1.00  0.00     0.006 A 
ATOM      7  C   UNL     1     -40.471 -70.145 158.714  1.00  0.00     0.006 A 
ENDBRANCH   1   2
BRANCH   1   8
ATOM      8  O   UNL     1     -40.672 -73.650 157.665  1.00  0.00    -0.392 OA
ATOM      9  H   UNL     1     -41.612 -73.467 157.932  1.00  0.00     0.211 HD
ENDBRANCH   1   8
TORSDOF 2
ENDMDL
MODEL 4
REMARK VINA RESULT:    -3.810     10.718     11.836
REMARK INTER + INTRA:          -4.163
REMARK INTER:                  -4.148
REMARK INTRA:                  -0.014
REMARK UNBOUND:                -0.019
REMARK SMILES OCc1ccccc1
REMARK SMILES IDX 2 1 3 2 6 3 5 4 7 5 4 6 8 7 1 8
REMARK H PARENT 1 9
REMARK Flexibility Score: inf
ROOT
ATOM      1  C   UNL     1     -44.070 -81.936 155.685  1.00  0.00     0.191 C 
ENDROOT
BRANCH   1   2
ATOM      2  C   UNL     1     -42.922 -81.050 155.291  1.00  0.00    -0.023 A 
ATOM      3  C   UNL     1     -40.732 -79.433 154.607  1.00  0.00     0.000 A 
ATOM      4  C   UNL     1     -41.000 -80.594 153.875  1.00  0.00     0.000 A 
ATOM      5  C   UNL     1     -41.550 -79.083 155.685  1.00  0.00     0.000 A 
ATOM      6  C   UNL     1     -42.087 -81.404 154.218  1.00  0.00     0.006 A 
ATOM      7  C   UNL     1     -42.638 -79.890 156.031  1.00  0.00     0.006 A 
ENDBRANCH   1   2
BRANCH   1   8
ATOM      8  O   UNL     1     -44.775 -82.345 154.544  1.00  0.00    -0.392 OA
ATOM      9  H   UNL     1     -44.953 -81.526 154.011  1.00  0.00     0.211 HD
ENDBRANCH   1   8
TORSDOF 2
ENDMDL
MODEL 5
REMARK VINA RESULT:    -3.743     10.248     11.457
REMARK INTER + INTRA:          -4.089
REMARK INTER:                  -4.079
REMARK INTRA:                  -0.010
REMARK UNBOUND:                -0.019
REMARK SMILES OCc1ccccc1
REMARK SMILES IDX 2 1 3 2 6 3 5 4 7 5 4 6 8 7 1 8
REMARK H PARENT 1 9
REMARK Flexibility Score: inf
ROOT
ATOM      1  C   UNL     1     -41.875 -78.864 156.763  1.00  0.00     0.191 C 
ENDROOT
BRANCH   1   2
ATOM      2  C   UNL     1     -42.134 -79.934 155.739  1.00  0.00    -0.023 A 
ATOM      3  C   UNL     1     -42.586 -81.983 153.875  1.00  0.00     0.000 A 
ATOM      4  C   UNL     1     -43.575 -81.655 154.807  1.00  0.00     0.000 A 
ATOM      5  C   UNL     1     -41.368 -81.297 153.878  1.00  0.00     0.000 A 
ATOM      6  C   UNL     1     -43.350 -80.638 155.740  1.00  0.00     0.006 A 
ATOM      7  C   UNL     1     -41.139 -80.279 154.810  1.00  0.00     0.006 A 
ENDBRANCH   1   2
BRANCH   1   8
ATOM      8  O   UNL     1     -41.520 -79.447 157.987  1.00  0.00    -0.392 OA
ATOM      9  H   UNL     1     -42.070 -79.001 158.684  1.00  0.00     0.211 HD
ENDBRANCH   1   8
TORSDOF 2
ENDMDL
MODEL 6
REMARK VINA RESULT:    -3.445      2.124      3.365
REMARK INTER + INTRA:          -3.765
REMARK INTER:                  -3.750
REMARK INTRA:                  -0.015
REMARK UNBOUND:                -0.019
REMARK SMILES OCc1ccccc1
REMARK SMILES IDX 2 1 3 2 6 3 5 4 7 5 4 6 8 7 1 8
REMARK H PARENT 1 9
REMARK Flexibility Score: inf
ROOT
ATOM      1  C   UNL     1     -40.594 -69.954 159.143  1.00  0.00     0.191 C 
ENDROOT
BRANCH   1   2
ATOM      2  C   UNL     1     -41.845 -70.025 159.974  1.00  0.00    -0.023 A 
ATOM      3  C   UNL     1     -44.137 -70.141 161.589  1.00  0.00     0.000 A 
ATOM      4  C   UNL     1     -43.770 -68.936 160.982  1.00  0.00     0.000 A 
ATOM      5  C   UNL     1     -43.357 -71.285 161.400  1.00  0.00     0.000 A 
ATOM      6  C   UNL     1     -42.625 -68.875 160.181  1.00  0.00     0.006 A 
ATOM      7  C   UNL     1     -42.211 -71.228 160.600  1.00  0.00     0.006 A 
ENDBRANCH   1   2
BRANCH   1   8
ATOM      8  O   UNL     1     -40.450 -71.127 158.390  1.00  0.00    -0.392 OA
ATOM      9  H   UNL     1     -41.261 -71.676 158.562  1.00  0.00     0.211 HD
ENDBRANCH   1   8
TORSDOF 2
ENDMDL
MODEL 7
REMARK VINA RESULT:    -3.269     10.736     11.958
REMARK INTER + INTRA:          -3.574
REMARK INTER:                  -3.557
REMARK INTRA:                  -0.017
REMARK UNBOUND:                -0.019
REMARK SMILES OCc1ccccc1
REMARK SMILES IDX 2 1 3 2 6 3 5 4 7 5 4 6 8 7 1 8
REMARK H PARENT 1 9
REMARK Flexibility Score: inf
ROOT
ATOM      1  C   UNL     1     -40.902 -78.883 154.944  1.00  0.00     0.191 C 
ENDROOT
BRANCH   1   2
ATOM      2  C   UNL     1     -41.945 -79.952 154.772  1.00  0.00    -0.023 A 
ATOM      3  C   UNL     1     -43.864 -81.983 154.514  1.00  0.00     0.000 A 
ATOM      4  C   UNL     1     -44.158 -80.834 155.254  1.00  0.00     0.000 A 
ATOM      5  C   UNL     1     -42.612 -82.124 153.910  1.00  0.00     0.000 A 
ATOM      6  C   UNL     1     -43.201 -79.823 155.389  1.00  0.00     0.006 A 
ATOM      7  C   UNL     1     -41.652 -81.116 154.042  1.00  0.00     0.006 A 
ENDBRANCH   1   2
BRANCH   1   8
ATOM      8  O   UNL     1     -39.997 -78.919 153.875  1.00  0.00    -0.392 OA
ATOM      9  H   UNL     1     -40.073 -79.823 153.468  1.00  0.00     0.211 HD
ENDBRANCH   1   8
TORSDOF 2
ENDMDL
MODEL 8
REMARK VINA RESULT:    -2.669     10.675     11.911
REMARK INTER + INTRA:          -2.921
REMARK INTER:                  -2.911
REMARK INTRA:                  -0.010
REMARK UNBOUND:                -0.019
REMARK SMILES OCc1ccccc1
REMARK SMILES IDX 2 1 3 2 6 3 5 4 7 5 4 6 8 7 1 8
REMARK H PARENT 1 9
REMARK Flexibility Score: inf
ROOT
ATOM      1  C   UNL     1     -41.940 -82.334 153.875  1.00  0.00     0.191 C 
ENDROOT
BRANCH   1   2
ATOM      2  C   UNL     1     -41.819 -81.048 154.645  1.00  0.00    -0.023 A 
ATOM      3  C   UNL     1     -41.640 -78.614 156.029  1.00  0.00     0.000 A 
ATOM      4  C   UNL     1     -42.611 -79.553 156.390  1.00  0.00     0.000 A 
ATOM      5  C   UNL     1     -40.765 -78.883 154.973  1.00  0.00     0.000 A 
ATOM      6  C   UNL     1     -42.705 -80.765 155.697  1.00  0.00     0.006 A 
ATOM      7  C   UNL     1     -40.856 -80.093 154.279  1.00  0.00     0.006 A 
ENDBRANCH   1   2
BRANCH   1   8
ATOM      8  O   UNL     1     -40.832 -83.153 154.130  1.00  0.00    -0.392 OA
ATOM      9  H   UNL     1     -40.174 -82.595 154.623  1.00  0.00     0.211 HD
ENDBRANCH   1   8
TORSDOF 2
ENDMDL
MODEL 9
REMARK VINA RESULT:    -2.632      2.091      2.882
REMARK INTER + INTRA:          -2.881
REMARK INTER:                  -2.869
REMARK INTRA:                  -0.012
REMARK UNBOUND:                -0.019
REMARK SMILES OCc1ccccc1
REMARK SMILES IDX 2 1 3 2 6 3 5 4 7 5 4 6 8 7 1 8
REMARK H PARENT 1 9
REMARK Flexibility Score: inf
ROOT
ATOM      1  C   UNL     1     -41.953 -71.491 160.279  1.00  0.00     0.191 C 
ENDROOT
BRANCH   1   2
ATOM      2  C   UNL     1     -41.116 -71.948 159.116  1.00  0.00    -0.023 A 
ATOM      3  C   UNL     1     -39.617 -72.794 156.899  1.00  0.00     0.000 A 
ATOM      4  C   UNL     1     -39.654 -71.439 157.243  1.00  0.00     0.000 A 
ATOM      5  C   UNL     1     -40.335 -73.725 157.655  1.00  0.00     0.000 A 
ATOM      6  C   UNL     1     -40.405 -71.015 158.344  1.00  0.00     0.006 A 
ATOM      7  C   UNL     1     -41.087 -73.305 158.756  1.00  0.00     0.006 A 
ENDBRANCH   1   2
BRANCH   1   8
ATOM      8  O   UNL     1     -41.151 -70.826 161.216  1.00  0.00    -0.392 OA
ATOM      9  H   UNL     1     -41.457 -69.881 161.232  1.00  0.00     0.211 HD
ENDBRANCH   1   8
TORSDOF 2
ENDMDL
