MODEL 1
REMARK VINA RESULT:    -5.086      0.000      0.000
REMARK INTER + INTRA:         -11.484
REMARK INTER:                  -9.545
REMARK INTRA:                  -1.939
REMARK UNBOUND:                -1.939
REMARK SMILES CCCCCCCCC=CCCCCCCCC(=O)[O-]
REMARK SMILES IDX 10 1 9 2 11 3 12 4 13 5 14 6 15 7 16 8 17 9 18 10 19 11
REMARK SMILES IDX 20 12 8 13 7 14 6 15 5 16 4 17 3 18 2 19 1 20
REMARK H PARENT
REMARK Flexibility Score: inf
ROOT
ATOM      1  C   UNL     1      15.913  28.047  -3.130  1.00  0.00    -0.031 C 
ATOM      2  C   UNL     1      15.305  27.995  -1.927  1.00  0.00    -0.031 C 
ENDROOT
BRANCH   1   3
ATOM      3  C   UNL     1      15.229  28.240  -4.464  1.00  0.00     0.027 C 
BRANCH   3   4
ATOM      4  C   UNL     1      16.137  28.924  -5.494  1.00  0.00     0.004 C 
BRANCH   4   5
ATOM      5  C   UNL     1      16.536  27.992  -6.649  1.00  0.00     0.000 C 
BRANCH   5   6
ATOM      6  C   UNL     1      16.277  28.633  -8.029  1.00  0.00     0.000 C 
BRANCH   6   7
ATOM      7  C   UNL     1      14.781  28.825  -8.347  1.00  0.00     0.000 C 
BRANCH   7   8
ATOM      8  C   UNL     1      14.494  29.569  -9.662  1.00  0.00     0.006 C 
BRANCH   8   9
ATOM      9  C   UNL     1      14.414  28.628 -10.871  1.00  0.00     0.053 C 
BRANCH   9  10
ATOM     10  C   UNL     1      15.748  28.526 -11.540  1.00  0.00     0.041 C 
ATOM     11  O   UNL     1      16.101  27.450 -12.091  1.00  0.00    -0.550 OA
ATOM     12  O   UNL     1      16.627  29.602 -11.506  1.00  0.00    -0.550 OA
ENDBRANCH   9  10
ENDBRANCH   8   9
ENDBRANCH   7   8
ENDBRANCH   6   7
ENDBRANCH   5   6
ENDBRANCH   4   5
ENDBRANCH   3   4
ENDBRANCH   1   3
BRANCH   2  13
ATOM     13  C   UNL     1      13.817  28.082  -1.686  1.00  0.00     0.027 C 
BRANCH  13  14
ATOM     14  C   UNL     1      13.375  29.513  -1.339  1.00  0.00     0.004 C 
BRANCH  14  15
ATOM     15  C   UNL     1      12.745  30.296  -2.511  1.00  0.00     0.000 C 
BRANCH  15  16
ATOM     16  C   UNL     1      13.329  31.700  -2.749  1.00  0.00     0.000 C 
BRANCH  16  17
ATOM     17  C   UNL     1      14.189  31.788  -4.022  1.00  0.00    -0.000 C 
BRANCH  17  18
ATOM     18  C   UNL     1      15.650  32.162  -3.721  1.00  0.00    -0.000 C 
BRANCH  18  19
ATOM     19  C   UNL     1      16.109  31.676  -2.337  1.00  0.00    -0.003 C 
ATOM     20  C   UNL     1      17.378  32.395  -1.889  1.00  0.00     0.004 C 
ENDBRANCH  18  19
ENDBRANCH  17  18
ENDBRANCH  16  17
ENDBRANCH  15  16
ENDBRANCH  14  15
ENDBRANCH  13  14
ENDBRANCH   2  13
TORSDOF 15
ENDMDL
MODEL 2
REMARK VINA RESULT:    -5.036      3.692      7.358
REMARK INTER + INTRA:         -11.392
REMARK INTER:                  -9.094
REMARK INTRA:                  -2.298
REMARK UNBOUND:                -1.939
REMARK SMILES CCCCCCCCC=CCCCCCCCC(=O)[O-]
REMARK SMILES IDX 10 1 9 2 11 3 12 4 13 5 14 6 15 7 16 8 17 9 18 10 19 11
REMARK SMILES IDX 20 12 8 13 7 14 6 15 5 16 4 17 3 18 2 19 1 20
REMARK H PARENT
REMARK Flexibility Score: inf
ROOT
ATOM      1  C   UNL     1      13.954  30.350  -5.785  1.00  0.00    -0.031 C 
ATOM      2  C   UNL     1      14.469  29.123  -6.004  1.00  0.00    -0.031 C 
ENDROOT
BRANCH   1   3
ATOM      3  C   UNL     1      14.733  31.581  -5.381  1.00  0.00     0.027 C 
BRANCH   3   4
ATOM      4  C   UNL     1      14.005  32.411  -4.317  1.00  0.00     0.004 C 
BRANCH   4   5
ATOM      5  C   UNL     1      14.508  32.128  -2.893  1.00  0.00     0.000 C 
BRANCH   5   6
ATOM      6  C   UNL     1      16.012  31.785  -2.866  1.00  0.00     0.000 C 
BRANCH   6   7
ATOM      7  C   UNL     1      16.361  30.617  -1.922  1.00  0.00     0.000 C 
BRANCH   7   8
ATOM      8  C   UNL     1      15.986  29.224  -2.456  1.00  0.00     0.006 C 
BRANCH   8   9
ATOM      9  C   UNL     1      14.754  28.632  -1.759  1.00  0.00     0.053 C 
BRANCH   9  10
ATOM     10  C   UNL     1      15.010  27.211  -1.369  1.00  0.00     0.041 C 
ATOM     11  O   UNL     1      16.133  26.871  -0.913  1.00  0.00    -0.550 OA
ATOM     12  O   UNL     1      14.025  26.250  -1.562  1.00  0.00    -0.550 OA
ENDBRANCH   9  10
ENDBRANCH   8   9
ENDBRANCH   7   8
ENDBRANCH   6   7
ENDBRANCH   5   6
ENDBRANCH   4   5
ENDBRANCH   3   4
ENDBRANCH   1   3
BRANCH   2  13
ATOM     13  C   UNL     1      15.919  28.733  -5.852  1.00  0.00     0.027 C 
BRANCH  13  14
ATOM     14  C   UNL     1      16.706  28.933  -7.157  1.00  0.00     0.004 C 
BRANCH  14  15
ATOM     15  C   UNL     1      16.169  28.135  -8.364  1.00  0.00     0.000 C 
BRANCH  15  16
ATOM     16  C   UNL     1      15.835  28.976  -9.609  1.00  0.00     0.000 C 
BRANCH  16  17
ATOM     17  C   UNL     1      14.490  28.595 -10.253  1.00  0.00    -0.000 C 
BRANCH  17  18
ATOM     18  C   UNL     1      13.287  29.175  -9.492  1.00  0.00    -0.000 C 
BRANCH  18  19
ATOM     19  C   UNL     1      13.285  30.712  -9.476  1.00  0.00    -0.003 C 
ATOM     20  C   UNL     1      12.030  31.258  -8.801  1.00  0.00     0.004 C 
ENDBRANCH  18  19
ENDBRANCH  17  18
ENDBRANCH  16  17
ENDBRANCH  15  16
ENDBRANCH  14  15
ENDBRANCH  13  14
ENDBRANCH   2  13
TORSDOF 15
ENDMDL
MODEL 3
REMARK VINA RESULT:    -5.036      3.599      6.525
REMARK INTER + INTRA:         -11.391
REMARK INTER:                  -8.332
REMARK INTRA:                  -3.059
REMARK UNBOUND:                -1.939
REMARK SMILES CCCCCCCCC=CCCCCCCCC(=O)[O-]
REMARK SMILES IDX 10 1 9 2 11 3 12 4 13 5 14 6 15 7 16 8 17 9 18 10 19 11
REMARK SMILES IDX 20 12 8 13 7 14 6 15 5 16 4 17 3 18 2 19 1 20
REMARK H PARENT
REMARK Flexibility Score: inf
ROOT
ATOM      1  C   UNL     1      12.700  31.837  -2.776  1.00  0.00    -0.031 C 
ATOM      2  C   UNL     1      12.121  30.620  -2.748  1.00  0.00    -0.031 C 
ENDROOT
BRANCH   1   3
ATOM      3  C   UNL     1      12.637  32.825  -3.918  1.00  0.00     0.027 C 
BRANCH   3   4
ATOM      4  C   UNL     1      13.869  32.746  -4.829  1.00  0.00     0.004 C 
BRANCH   4   5
ATOM      5  C   UNL     1      15.149  32.365  -4.069  1.00  0.00     0.000 C 
BRANCH   5   6
ATOM      6  C   UNL     1      15.892  31.188  -4.737  1.00  0.00     0.000 C 
BRANCH   6   7
ATOM      7  C   UNL     1      15.734  29.853  -3.984  1.00  0.00     0.000 C 
BRANCH   7   8
ATOM      8  C   UNL     1      15.958  29.941  -2.465  1.00  0.00     0.006 C 
BRANCH   8   9
ATOM      9  C   UNL     1      15.080  28.960  -1.677  1.00  0.00     0.053 C 
BRANCH   9  10
ATOM     10  C   UNL     1      15.692  27.595  -1.682  1.00  0.00     0.041 C 
ATOM     11  O   UNL     1      16.880  27.432  -1.299  1.00  0.00    -0.550 OA
ATOM     12  O   UNL     1      14.968  26.510  -2.164  1.00  0.00    -0.550 OA
ENDBRANCH   9  10
ENDBRANCH   8   9
ENDBRANCH   7   8
ENDBRANCH   6   7
ENDBRANCH   5   6
ENDBRANCH   4   5
ENDBRANCH   3   4
ENDBRANCH   1   3
BRANCH   2  13
ATOM     13  C   UNL     1      11.328  29.993  -3.869  1.00  0.00     0.027 C 
BRANCH  13  14
ATOM     14  C   UNL     1      11.928  28.650  -4.314  1.00  0.00     0.004 C 
BRANCH  14  15
ATOM     15  C   UNL     1      12.743  28.708  -5.624  1.00  0.00     0.000 C 
BRANCH  15  16
ATOM     16  C   UNL     1      12.400  29.884  -6.556  1.00  0.00     0.000 C 
BRANCH  16  17
ATOM     17  C   UNL     1      13.552  30.255  -7.508  1.00  0.00    -0.000 C 
BRANCH  17  18
ATOM     18  C   UNL     1      14.617  29.151  -7.603  1.00  0.00    -0.000 C 
BRANCH  18  19
ATOM     19  C   UNL     1      15.134  28.952  -9.036  1.00  0.00    -0.003 C 
ATOM     20  C   UNL     1      13.983  28.881 -10.036  1.00  0.00     0.004 C 
ENDBRANCH  18  19
ENDBRANCH  17  18
ENDBRANCH  16  17
ENDBRANCH  15  16
ENDBRANCH  14  15
ENDBRANCH  13  14
ENDBRANCH   2  13
TORSDOF 15
ENDMDL
MODEL 4
REMARK VINA RESULT:    -5.008      3.721      7.153
REMARK INTER + INTRA:         -11.339
REMARK INTER:                  -8.376
REMARK INTRA:                  -2.963
REMARK UNBOUND:                -1.939
REMARK SMILES CCCCCCCCC=CCCCCCCCC(=O)[O-]
REMARK SMILES IDX 10 1 9 2 11 3 12 4 13 5 14 6 15 7 16 8 17 9 18 10 19 11
REMARK SMILES IDX 20 12 8 13 7 14 6 15 5 16 4 17 3 18 2 19 1 20
REMARK H PARENT
REMARK Flexibility Score: inf
ROOT
ATOM      1  C   UNL     1      15.954  29.271  -5.813  1.00  0.00    -0.031 C 
ATOM      2  C   UNL     1      16.656  28.866  -6.890  1.00  0.00    -0.031 C 
ENDROOT
BRANCH   1   3
ATOM      3  C   UNL     1      14.482  29.031  -5.569  1.00  0.00     0.027 C 
BRANCH   3   4
ATOM      4  C   UNL     1      13.735  30.314  -5.183  1.00  0.00     0.004 C 
BRANCH   4   5
ATOM      5  C   UNL     1      14.586  31.578  -5.371  1.00  0.00     0.000 C 
BRANCH   5   6
ATOM      6  C   UNL     1      14.836  32.314  -4.037  1.00  0.00     0.000 C 
BRANCH   6   7
ATOM      7  C   UNL     1      16.220  32.022  -3.423  1.00  0.00     0.000 C 
BRANCH   7   8
ATOM      8  C   UNL     1      16.182  31.309  -2.061  1.00  0.00     0.006 C 
BRANCH   8   9
ATOM      9  C   UNL     1      16.355  29.790  -2.182  1.00  0.00     0.053 C 
BRANCH   9  10
ATOM     10  C   UNL     1      15.080  29.091  -1.828  1.00  0.00     0.041 C 
ATOM     11  O   UNL     1      14.037  29.756  -1.592  1.00  0.00    -0.550 OA
ATOM     12  O   UNL     1      15.057  27.707  -1.705  1.00  0.00    -0.550 OA
ENDBRANCH   9  10
ENDBRANCH   8   9
ENDBRANCH   7   8
ENDBRANCH   6   7
ENDBRANCH   5   6
ENDBRANCH   4   5
ENDBRANCH   3   4
ENDBRANCH   1   3
BRANCH   2  13
ATOM     13  C   UNL     1      16.097  28.125  -8.081  1.00  0.00     0.027 C 
BRANCH  13  14
ATOM     14  C   UNL     1      15.877  29.056  -9.284  1.00  0.00     0.004 C 
BRANCH  14  15
ATOM     15  C   UNL     1      14.409  29.182  -9.744  1.00  0.00     0.000 C 
BRANCH  15  16
ATOM     16  C   UNL     1      13.608  30.315  -9.078  1.00  0.00     0.000 C 
BRANCH  16  17
ATOM     17  C   UNL     1      12.213  29.871  -8.604  1.00  0.00    -0.000 C 
BRANCH  17  18
ATOM     18  C   UNL     1      12.155  28.373  -8.263  1.00  0.00    -0.000 C 
BRANCH  18  19
ATOM     19  C   UNL     1      11.224  28.074  -7.078  1.00  0.00    -0.003 C 
ATOM     20  C   UNL     1      10.443  29.316  -6.659  1.00  0.00     0.004 C 
ENDBRANCH  18  19
ENDBRANCH  17  18
ENDBRANCH  16  17
ENDBRANCH  15  16
ENDBRANCH  14  15
ENDBRANCH  13  14
ENDBRANCH   2  13
TORSDOF 15
ENDMDL
MODEL 5
REMARK VINA RESULT:    -5.000      2.151      3.795
REMARK INTER + INTRA:         -11.324
REMARK INTER:                  -8.123
REMARK INTRA:                  -3.201
REMARK UNBOUND:                -1.939
REMARK SMILES CCCCCCCCC=CCCCCCCCC(=O)[O-]
REMARK SMILES IDX 10 1 9 2 11 3 12 4 13 5 14 6 15 7 16 8 17 9 18 10 19 11
REMARK SMILES IDX 20 12 8 13 7 14 6 15 5 16 4 17 3 18 2 19 1 20
REMARK H PARENT
REMARK Flexibility Score: inf
ROOT
ATOM      1  C   UNL     1      12.666  32.490  -3.161  1.00  0.00    -0.031 C 
ATOM      2  C   UNL     1      12.685  31.188  -2.813  1.00  0.00    -0.031 C 
ENDROOT
BRANCH   1   3
ATOM      3  C   UNL     1      12.116  33.059  -4.449  1.00  0.00     0.027 C 
BRANCH   3   4
ATOM      4  C   UNL     1      13.222  33.526  -5.404  1.00  0.00     0.004 C 
BRANCH   4   5
ATOM      5  C   UNL     1      13.164  32.825  -6.770  1.00  0.00     0.000 C 
BRANCH   5   6
ATOM      6  C   UNL     1      11.906  31.944  -6.919  1.00  0.00     0.000 C 
BRANCH   6   7
ATOM      7  C   UNL     1      11.850  31.170  -8.251  1.00  0.00     0.000 C 
BRANCH   7   8
ATOM      8  C   UNL     1      12.877  31.624  -9.302  1.00  0.00     0.006 C 
BRANCH   8   9
ATOM      9  C   UNL     1      13.131  30.564 -10.381  1.00  0.00     0.053 C 
BRANCH   9  10
ATOM     10  C   UNL     1      14.267  29.677  -9.981  1.00  0.00     0.041 C 
ATOM     11  O   UNL     1      15.406  29.834 -10.496  1.00  0.00    -0.550 OA
ATOM     12  O   UNL     1      14.056  28.638  -9.082  1.00  0.00    -0.550 OA
ENDBRANCH   9  10
ENDBRANCH   8   9
ENDBRANCH   7   8
ENDBRANCH   6   7
ENDBRANCH   5   6
ENDBRANCH   4   5
ENDBRANCH   3   4
ENDBRANCH   1   3
BRANCH   2  13
ATOM     13  C   UNL     1      12.192  30.040  -3.661  1.00  0.00     0.027 C 
BRANCH  13  14
ATOM     14  C   UNL     1      13.329  29.078  -4.040  1.00  0.00     0.004 C 
BRANCH  14  15
ATOM     15  C   UNL     1      13.696  29.069  -5.540  1.00  0.00     0.000 C 
BRANCH  15  16
ATOM     16  C   UNL     1      14.957  29.871  -5.911  1.00  0.00     0.000 C 
BRANCH  16  17
ATOM     17  C   UNL     1      15.852  30.183  -4.698  1.00  0.00    -0.000 C 
BRANCH  17  18
ATOM     18  C   UNL     1      16.067  31.692  -4.499  1.00  0.00    -0.000 C 
BRANCH  18  19
ATOM     19  C   UNL     1      16.334  32.060  -3.030  1.00  0.00    -0.003 C 
ATOM     20  C   UNL     1      16.356  30.818  -2.143  1.00  0.00     0.004 C 
ENDBRANCH  18  19
ENDBRANCH  17  18
ENDBRANCH  16  17
ENDBRANCH  15  16
ENDBRANCH  14  15
ENDBRANCH  13  14
ENDBRANCH   2  13
TORSDOF 15
ENDMDL
MODEL 6
REMARK VINA RESULT:    -4.979      1.362      3.322
REMARK INTER + INTRA:         -11.285
REMARK INTER:                  -8.677
REMARK INTRA:                  -2.608
REMARK UNBOUND:                -1.939
REMARK SMILES CCCCCCCCC=CCCCCCCCC(=O)[O-]
REMARK SMILES IDX 10 1 9 2 11 3 12 4 13 5 14 6 15 7 16 8 17 9 18 10 19 11
REMARK SMILES IDX 20 12 8 13 7 14 6 15 5 16 4 17 3 18 2 19 1 20
REMARK H PARENT
REMARK Flexibility Score: inf
ROOT
ATOM      1  C   UNL     1      15.909  31.239  -4.157  1.00  0.00    -0.031 C 
ATOM      2  C   UNL     1      15.164  32.287  -3.753  1.00  0.00    -0.031 C 
ENDROOT
BRANCH   1   3
ATOM      3  C   UNL     1      15.730  30.464  -5.443  1.00  0.00     0.027 C 
BRANCH   3   4
ATOM      4  C   UNL     1      14.889  29.195  -5.251  1.00  0.00     0.004 C 
BRANCH   4   5
ATOM      5  C   UNL     1      13.599  29.203  -6.085  1.00  0.00     0.000 C 
BRANCH   5   6
ATOM      6  C   UNL     1      13.597  30.329  -7.141  1.00  0.00     0.000 C 
BRANCH   6   7
ATOM      7  C   UNL     1      13.175  29.855  -8.546  1.00  0.00     0.000 C 
BRANCH   7   8
ATOM      8  C   UNL     1      13.952  28.637  -9.074  1.00  0.00     0.006 C 
BRANCH   8   9
ATOM      9  C   UNL     1      15.461  28.894  -9.175  1.00  0.00     0.053 C 
BRANCH   9  10
ATOM     10  C   UNL     1      15.930  28.692 -10.581  1.00  0.00     0.041 C 
ATOM     11  O   UNL     1      16.304  29.676 -11.273  1.00  0.00    -0.550 OA
ATOM     12  O   UNL     1      15.902  27.423 -11.148  1.00  0.00    -0.550 OA
ENDBRANCH   9  10
ENDBRANCH   8   9
ENDBRANCH   7   8
ENDBRANCH   6   7
ENDBRANCH   5   6
ENDBRANCH   4   5
ENDBRANCH   3   4
ENDBRANCH   1   3
BRANCH   2  13
ATOM     13  C   UNL     1      13.981  32.866  -4.491  1.00  0.00     0.027 C 
BRANCH  13  14
ATOM     14  C   UNL     1      12.662  32.195  -4.074  1.00  0.00     0.004 C 
BRANCH  14  15
ATOM     15  C   UNL     1      12.673  31.569  -2.663  1.00  0.00     0.000 C 
BRANCH  15  16
ATOM     16  C   UNL     1      12.402  30.054  -2.617  1.00  0.00     0.000 C 
BRANCH  16  17
ATOM     17  C   UNL     1      13.066  29.358  -1.415  1.00  0.00    -0.000 C 
BRANCH  17  18
ATOM     18  C   UNL     1      14.597  29.297  -1.543  1.00  0.00    -0.000 C 
BRANCH  18  19
ATOM     19  C   UNL     1      15.118  27.859  -1.704  1.00  0.00    -0.003 C 
ATOM     20  C   UNL     1      14.065  26.838  -1.282  1.00  0.00     0.004 C 
ENDBRANCH  18  19
ENDBRANCH  17  18
ENDBRANCH  16  17
ENDBRANCH  15  16
ENDBRANCH  14  15
ENDBRANCH  13  14
ENDBRANCH   2  13
TORSDOF 15
ENDMDL
MODEL 7
REMARK VINA RESULT:    -4.967      2.447      4.789
REMARK INTER + INTRA:         -11.261
REMARK INTER:                  -8.451
REMARK INTRA:                  -2.810
REMARK UNBOUND:                -1.939
REMARK SMILES CCCCCCCCC=CCCCCCCCC(=O)[O-]
REMARK SMILES IDX 10 1 9 2 11 3 12 4 13 5 14 6 15 7 16 8 17 9 18 10 19 11
REMARK SMILES IDX 20 12 8 13 7 14 6 15 5 16 4 17 3 18 2 19 1 20
REMARK H PARENT
REMARK Flexibility Score: inf
ROOT
ATOM      1  C   UNL     1      15.083  32.039  -4.576  1.00  0.00    -0.031 C 
ATOM      2  C   UNL     1      16.227  31.747  -3.925  1.00  0.00    -0.031 C 
ENDROOT
BRANCH   1   3
ATOM      3  C   UNL     1      13.858  32.688  -3.973  1.00  0.00     0.027 C 
BRANCH   3   4
ATOM      4  C   UNL     1      12.582  32.387  -4.770  1.00  0.00     0.004 C 
BRANCH   4   5
ATOM      5  C   UNL     1      12.814  32.394  -6.289  1.00  0.00     0.000 C 
BRANCH   5   6
ATOM      6  C   UNL     1      12.412  31.055  -6.944  1.00  0.00     0.000 C 
BRANCH   6   7
ATOM      7  C   UNL     1      13.595  30.303  -7.585  1.00  0.00     0.000 C 
BRANCH   7   8
ATOM      8  C   UNL     1      13.832  28.887  -7.032  1.00  0.00     0.006 C 
BRANCH   8   9
ATOM      9  C   UNL     1      14.784  28.871  -5.829  1.00  0.00     0.053 C 
BRANCH   9  10
ATOM     10  C   UNL     1      16.105  28.287  -6.219  1.00  0.00     0.041 C 
ATOM     11  O   UNL     1      16.646  28.613  -7.308  1.00  0.00    -0.550 OA
ATOM     12  O   UNL     1      16.712  27.339  -5.404  1.00  0.00    -0.550 OA
ENDBRANCH   9  10
ENDBRANCH   8   9
ENDBRANCH   7   8
ENDBRANCH   6   7
ENDBRANCH   5   6
ENDBRANCH   4   5
ENDBRANCH   3   4
ENDBRANCH   1   3
BRANCH   2  13
ATOM     13  C   UNL     1      16.491  31.979  -2.457  1.00  0.00     0.027 C 
BRANCH  13  14
ATOM     14  C   UNL     1      16.716  30.660  -1.700  1.00  0.00     0.004 C 
BRANCH  14  15
ATOM     15  C   UNL     1      15.839  29.483  -2.179  1.00  0.00     0.000 C 
BRANCH  15  16
ATOM     16  C   UNL     1      14.441  29.406  -1.538  1.00  0.00     0.000 C 
BRANCH  16  17
ATOM     17  C   UNL     1      13.430  28.617  -2.389  1.00  0.00    -0.000 C 
BRANCH  17  18
ATOM     18  C   UNL     1      12.195  29.454  -2.763  1.00  0.00    -0.000 C 
BRANCH  18  19
ATOM     19  C   UNL     1      11.476  28.918  -4.011  1.00  0.00    -0.003 C 
ATOM     20  C   UNL     1      10.095  29.547  -4.168  1.00  0.00     0.004 C 
ENDBRANCH  18  19
ENDBRANCH  17  18
ENDBRANCH  16  17
ENDBRANCH  15  16
ENDBRANCH  14  15
ENDBRANCH  13  14
ENDBRANCH   2  13
TORSDOF 15
ENDMDL
MODEL 8
REMARK VINA RESULT:    -4.925      1.627      3.152
REMARK INTER + INTRA:         -11.182
REMARK INTER:                  -8.609
REMARK INTRA:                  -2.573
REMARK UNBOUND:                -1.939
REMARK SMILES CCCCCCCCC=CCCCCCCCC(=O)[O-]
REMARK SMILES IDX 10 1 9 2 11 3 12 4 13 5 14 6 15 7 16 8 17 9 18 10 19 11
REMARK SMILES IDX 20 12 8 13 7 14 6 15 5 16 4 17 3 18 2 19 1 20
REMARK H PARENT
REMARK Flexibility Score: inf
ROOT
ATOM      1  C   UNL     1      12.605  29.701  -2.349  1.00  0.00    -0.031 C 
ATOM      2  C   UNL     1      13.590  29.424  -1.472  1.00  0.00    -0.031 C 
ENDROOT
BRANCH   1   3
ATOM      3  C   UNL     1      12.433  29.082  -3.717  1.00  0.00     0.027 C 
BRANCH   3   4
ATOM      4  C   UNL     1      11.139  29.534  -4.406  1.00  0.00     0.004 C 
BRANCH   4   5
ATOM      5  C   UNL     1      11.344  29.886  -5.888  1.00  0.00     0.000 C 
BRANCH   5   6
ATOM      6  C   UNL     1      12.575  29.174  -6.489  1.00  0.00     0.000 C 
BRANCH   6   7
ATOM      7  C   UNL     1      13.087  29.823  -7.790  1.00  0.00     0.000 C 
BRANCH   7   8
ATOM      8  C   UNL     1      14.330  29.152  -8.398  1.00  0.00     0.006 C 
BRANCH   8   9
ATOM      9  C   UNL     1      14.170  28.850  -9.893  1.00  0.00     0.053 C 
BRANCH   9  10
ATOM     10  C   UNL     1      15.510  28.713 -10.543  1.00  0.00     0.041 C 
ATOM     11  O   UNL     1      16.280  29.706 -10.624  1.00  0.00    -0.550 OA
ATOM     12  O   UNL     1      15.888  27.501 -11.110  1.00  0.00    -0.550 OA
ENDBRANCH   9  10
ENDBRANCH   8   9
ENDBRANCH   7   8
ENDBRANCH   6   7
ENDBRANCH   5   6
ENDBRANCH   4   5
ENDBRANCH   3   4
ENDBRANCH   1   3
BRANCH   2  13
ATOM     13  C   UNL     1      14.737  28.470  -1.704  1.00  0.00     0.027 C 
BRANCH  13  14
ATOM     14  C   UNL     1      15.889  29.135  -2.474  1.00  0.00     0.004 C 
BRANCH  14  15
ATOM     15  C   UNL     1      16.274  30.543  -1.971  1.00  0.00     0.000 C 
BRANCH  15  16
ATOM     16  C   UNL     1      16.248  31.650  -3.040  1.00  0.00     0.000 C 
BRANCH  16  17
ATOM     17  C   UNL     1      15.875  31.129  -4.440  1.00  0.00    -0.000 C 
BRANCH  17  18
ATOM     18  C   UNL     1      14.653  31.851  -5.031  1.00  0.00    -0.000 C 
BRANCH  18  19
ATOM     19  C   UNL     1      13.943  32.746  -4.002  1.00  0.00    -0.003 C 
ATOM     20  C   UNL     1      12.498  33.018  -4.408  1.00  0.00     0.004 C 
ENDBRANCH  18  19
ENDBRANCH  17  18
ENDBRANCH  16  17
ENDBRANCH  15  16
ENDBRANCH  14  15
ENDBRANCH  13  14
ENDBRANCH   2  13
TORSDOF 15
ENDMDL
MODEL 9
REMARK VINA RESULT:    -4.888      3.743      7.138
REMARK INTER + INTRA:         -11.114
REMARK INTER:                  -8.264
REMARK INTRA:                  -2.849
REMARK UNBOUND:                -1.939
REMARK SMILES CCCCCCCCC=CCCCCCCCC(=O)[O-]
REMARK SMILES IDX 10 1 9 2 11 3 12 4 13 5 14 6 15 7 16 8 17 9 18 10 19 11
REMARK SMILES IDX 20 12 8 13 7 14 6 15 5 16 4 17 3 18 2 19 1 20
REMARK H PARENT
REMARK Flexibility Score: inf
ROOT
ATOM      1  C   UNL     1      13.300  33.053  -6.096  1.00  0.00    -0.031 C 
ATOM      2  C   UNL     1      12.799  32.636  -7.276  1.00  0.00    -0.031 C 
ENDROOT
BRANCH   1   3
ATOM      3  C   UNL     1      12.719  32.761  -4.731  1.00  0.00     0.027 C 
BRANCH   3   4
ATOM      4  C   UNL     1      13.794  32.368  -3.709  1.00  0.00     0.004 C 
BRANCH   4   5
ATOM      5  C   UNL     1      15.215  32.722  -4.173  1.00  0.00     0.000 C 
BRANCH   5   6
ATOM      6  C   UNL     1      16.257  31.688  -3.694  1.00  0.00     0.000 C 
BRANCH   6   7
ATOM      7  C   UNL     1      16.346  31.571  -2.159  1.00  0.00     0.000 C 
BRANCH   7   8
ATOM      8  C   UNL     1      16.422  30.130  -1.627  1.00  0.00     0.006 C 
BRANCH   8   9
ATOM      9  C   UNL     1      15.839  29.104  -2.607  1.00  0.00     0.053 C 
BRANCH   9  10
ATOM     10  C   UNL     1      14.504  28.627  -2.129  1.00  0.00     0.041 C 
ATOM     11  O   UNL     1      13.999  27.576  -2.605  1.00  0.00    -0.550 OA
ATOM     12  O   UNL     1      13.792  29.373  -1.198  1.00  0.00    -0.550 OA
ENDBRANCH   9  10
ENDBRANCH   8   9
ENDBRANCH   7   8
ENDBRANCH   6   7
ENDBRANCH   5   6
ENDBRANCH   4   5
ENDBRANCH   3   4
ENDBRANCH   1   3
BRANCH   2  13
ATOM     13  C   UNL     1      11.537  31.828  -7.464  1.00  0.00     0.027 C 
BRANCH  13  14
ATOM     14  C   UNL     1      11.657  30.845  -8.639  1.00  0.00     0.004 C 
BRANCH  14  15
ATOM     15  C   UNL     1      12.872  31.085  -9.562  1.00  0.00     0.000 C 
BRANCH  15  16
ATOM     16  C   UNL     1      13.834  29.892  -9.700  1.00  0.00     0.000 C 
BRANCH  16  17
ATOM     17  C   UNL     1      13.778  28.928  -8.501  1.00  0.00    -0.000 C 
BRANCH  17  18
ATOM     18  C   UNL     1      15.070  28.949  -7.668  1.00  0.00    -0.000 C 
BRANCH  18  19
ATOM     19  C   UNL     1      14.845  29.485  -6.245  1.00  0.00    -0.003 C 
ATOM     20  C   UNL     1      13.440  29.160  -5.746  1.00  0.00     0.004 C 
ENDBRANCH  18  19
ENDBRANCH  17  18
ENDBRANCH  16  17
ENDBRANCH  15  16
ENDBRANCH  14  15
ENDBRANCH  13  14
ENDBRANCH   2  13
TORSDOF 15
ENDMDL
