MODEL 1
REMARK VINA RESULT:    -4.827      0.000      0.000
REMARK INTER + INTRA:          -6.744
REMARK INTER:                  -6.662
REMARK INTRA:                  -0.082
REMARK UNBOUND:                -0.082
REMARK SMILES OC[C@@H](O)C(O)[C@H](O)CO
REMARK SMILES IDX 5 1 7 2 9 3 10 4 8 6 3 8 2 9 1 10 4 12 6 14
REMARK H PARENT 10 5 8 7 1 11 4 13 6 15
REMARK Flexibility Score: inf
ROOT
ATOM      1  C   UNL     1      17.233  -3.437   4.318  1.00  0.00     0.176 C 
ENDROOT
BRANCH   1   2
ATOM      2  C   UNL     1      17.187  -4.346   3.055  1.00  0.00     0.171 C 
BRANCH   2   3
ATOM      3  C   UNL     1      15.934  -5.237   3.049  1.00  0.00     0.190 C 
BRANCH   3   4
ATOM      4  O   UNL     1      15.777  -5.824   1.786  1.00  0.00    -0.394 OA
ATOM      5  H   UNL     1      15.341  -6.702   1.942  1.00  0.00     0.210 HD
ENDBRANCH   3   4
ENDBRANCH   2   3
BRANCH   2   6
ATOM      6  O   UNL     1      17.239  -3.580   1.876  1.00  0.00    -0.388 OA
ATOM      7  H   UNL     1      16.318  -3.260   1.686  1.00  0.00     0.211 HD
ENDBRANCH   2   6
ENDBRANCH   1   2
BRANCH   1   8
ATOM      8  C   UNL     1      18.645  -2.908   4.692  1.00  0.00     0.171 C 
BRANCH   8   9
ATOM      9  C   UNL     1      18.845  -1.394   4.470  1.00  0.00     0.190 C 
BRANCH   9  10
ATOM     10  O   UNL     1      18.807  -0.702   5.687  1.00  0.00    -0.394 OA
ATOM     11  H   UNL     1      18.082  -0.029   5.600  1.00  0.00     0.210 HD
ENDBRANCH   9  10
ENDBRANCH   8   9
BRANCH   8  12
ATOM     12  O   UNL     1      18.942  -3.244   6.024  1.00  0.00    -0.388 OA
ATOM     13  H   UNL     1      18.094  -3.547   6.442  1.00  0.00     0.211 HD
ENDBRANCH   8  12
ENDBRANCH   1   8
BRANCH   1  14
ATOM     14  O   UNL     1      16.639  -4.069   5.426  1.00  0.00    -0.388 OA
ATOM     15  H   UNL     1      17.230  -3.934   6.211  1.00  0.00     0.211 HD
ENDBRANCH   1  14
TORSDOF 9
ENDMDL
MODEL 2
REMARK VINA RESULT:    -4.800      1.033      4.390
REMARK INTER + INTRA:          -6.706
REMARK INTER:                  -6.184
REMARK INTRA:                  -0.522
REMARK UNBOUND:                -0.082
REMARK SMILES OC[C@@H](O)C(O)[C@H](O)CO
REMARK SMILES IDX 5 1 7 2 9 3 10 4 8 6 3 8 2 9 1 10 4 12 6 14
REMARK H PARENT 10 5 8 7 1 11 4 13 6 15
REMARK Flexibility Score: inf
ROOT
ATOM      1  C   UNL     1      17.822  -2.748   4.139  1.00  0.00     0.176 C 
ENDROOT
BRANCH   1   2
ATOM      2  C   UNL     1      19.148  -2.843   4.950  1.00  0.00     0.171 C 
BRANCH   2   3
ATOM      3  C   UNL     1      19.767  -1.455   5.182  1.00  0.00     0.190 C 
BRANCH   3   4
ATOM      4  O   UNL     1      18.794  -0.582   5.688  1.00  0.00    -0.394 OA
ATOM      5  H   UNL     1      17.917  -0.975   5.442  1.00  0.00     0.210 HD
ENDBRANCH   3   4
ENDBRANCH   2   3
BRANCH   2   6
ATOM      6  O   UNL     1      18.944  -3.492   6.180  1.00  0.00    -0.388 OA
ATOM      7  H   UNL     1      19.205  -2.858   6.900  1.00  0.00     0.211 HD
ENDBRANCH   2   6
ENDBRANCH   1   2
BRANCH   1   8
ATOM      8  C   UNL     1      17.365  -4.074   3.472  1.00  0.00     0.171 C 
BRANCH   8   9
ATOM      9  C   UNL     1      16.186  -4.776   4.178  1.00  0.00     0.190 C 
BRANCH   9  10
ATOM     10  O   UNL     1      16.140  -4.430   5.535  1.00  0.00    -0.394 OA
ATOM     11  H   UNL     1      16.241  -5.279   6.040  1.00  0.00     0.210 HD
ENDBRANCH   9  10
ENDBRANCH   8   9
BRANCH   8  12
ATOM     12  O   UNL     1      17.052  -3.845   2.121  1.00  0.00    -0.388 OA
ATOM     13  H   UNL     1      17.608  -3.079   1.822  1.00  0.00     0.211 HD
ENDBRANCH   8  12
ENDBRANCH   1   8
BRANCH   1  14
ATOM     14  O   UNL     1      17.879  -1.716   3.184  1.00  0.00    -0.388 OA
ATOM     15  H   UNL     1      18.199  -2.104   2.329  1.00  0.00     0.211 HD
ENDBRANCH   1  14
TORSDOF 9
ENDMDL
MODEL 3
REMARK VINA RESULT:    -4.656      1.131      1.929
REMARK INTER + INTRA:          -6.507
REMARK INTER:                  -5.872
REMARK INTRA:                  -0.636
REMARK UNBOUND:                -0.082
REMARK SMILES OC[C@@H](O)C(O)[C@H](O)CO
REMARK SMILES IDX 5 1 7 2 9 3 10 4 8 6 3 8 2 9 1 10 4 12 6 14
REMARK H PARENT 10 5 8 7 1 11 4 13 6 15
REMARK Flexibility Score: inf
ROOT
ATOM      1  C   UNL     1      17.869  -2.921   4.383  1.00  0.00     0.176 C 
ENDROOT
BRANCH   1   2
ATOM      2  C   UNL     1      17.373  -4.139   3.548  1.00  0.00     0.171 C 
BRANCH   2   3
ATOM      3  C   UNL     1      16.122  -4.778   4.175  1.00  0.00     0.190 C 
BRANCH   3   4
ATOM      4  O   UNL     1      16.042  -4.432   5.531  1.00  0.00    -0.394 OA
ATOM      5  H   UNL     1      15.606  -3.542   5.562  1.00  0.00     0.210 HD
ENDBRANCH   3   4
ENDBRANCH   2   3
BRANCH   2   6
ATOM      6  O   UNL     1      17.109  -3.768   2.218  1.00  0.00    -0.388 OA
ATOM      7  H   UNL     1      17.823  -3.138   1.935  1.00  0.00     0.211 HD
ENDBRANCH   2   6
ENDBRANCH   1   2
BRANCH   1   8
ATOM      8  C   UNL     1      18.767  -1.919   3.607  1.00  0.00     0.171 C 
BRANCH   8   9
ATOM      9  C   UNL     1      19.568  -0.949   4.501  1.00  0.00     0.190 C 
BRANCH   9  10
ATOM     10  O   UNL     1      18.834  -0.602   5.643  1.00  0.00    -0.394 OA
ATOM     11  H   UNL     1      17.942  -0.311   5.320  1.00  0.00     0.210 HD
ENDBRANCH   9  10
ENDBRANCH   8   9
BRANCH   8  12
ATOM     12  O   UNL     1      19.637  -2.620   2.755  1.00  0.00    -0.388 OA
ATOM     13  H   UNL     1      19.595  -2.174   1.869  1.00  0.00     0.211 HD
ENDBRANCH   8  12
ENDBRANCH   1   8
BRANCH   1  14
ATOM     14  O   UNL     1      18.509  -3.338   5.565  1.00  0.00    -0.388 OA
ATOM     15  H   UNL     1      18.374  -2.636   6.252  1.00  0.00     0.211 HD
ENDBRANCH   1  14
TORSDOF 9
ENDMDL
MODEL 4
REMARK VINA RESULT:    -4.494      1.349      3.429
REMARK INTER + INTRA:          -6.284
REMARK INTER:                  -5.709
REMARK INTRA:                  -0.575
REMARK UNBOUND:                -0.082
REMARK SMILES OC[C@@H](O)C(O)[C@H](O)CO
REMARK SMILES IDX 5 1 7 2 9 3 10 4 8 6 3 8 2 9 1 10 4 12 6 14
REMARK H PARENT 10 5 8 7 1 11 4 13 6 15
REMARK Flexibility Score: inf
ROOT
ATOM      1  C   UNL     1      18.047  -3.625   4.246  1.00  0.00     0.176 C 
ENDROOT
BRANCH   1   2
ATOM      2  C   UNL     1      18.381  -2.529   3.191  1.00  0.00     0.171 C 
BRANCH   2   3
ATOM      3  C   UNL     1      19.213  -3.100   2.030  1.00  0.00     0.190 C 
BRANCH   3   4
ATOM      4  O   UNL     1      18.361  -3.523   1.001  1.00  0.00    -0.394 OA
ATOM      5  H   UNL     1      18.950  -3.839   0.268  1.00  0.00     0.210 HD
ENDBRANCH   3   4
ENDBRANCH   2   3
BRANCH   2   6
ATOM      6  O   UNL     1      17.210  -1.930   2.695  1.00  0.00    -0.388 OA
ATOM      7  H   UNL     1      17.056  -1.096   3.214  1.00  0.00     0.211 HD
ENDBRANCH   2   6
ENDBRANCH   1   2
BRANCH   1   8
ATOM      8  C   UNL     1      16.556  -4.059   4.290  1.00  0.00     0.171 C 
BRANCH   8   9
ATOM      9  C   UNL     1      16.211  -5.265   3.391  1.00  0.00     0.190 C 
BRANCH   9  10
ATOM     10  O   UNL     1      16.146  -4.881   2.045  1.00  0.00    -0.394 OA
ATOM     11  H   UNL     1      15.183  -4.748   1.842  1.00  0.00     0.210 HD
ENDBRANCH   9  10
ENDBRANCH   8   9
BRANCH   8  12
ATOM     12  O   UNL     1      16.175  -4.320   5.617  1.00  0.00    -0.388 OA
ATOM     13  H   UNL     1      16.885  -4.888   6.016  1.00  0.00     0.211 HD
ENDBRANCH   8  12
ENDBRANCH   1   8
BRANCH   1  14
ATOM     14  O   UNL     1      18.484  -3.249   5.530  1.00  0.00    -0.388 OA
ATOM     15  H   UNL     1      18.095  -2.360   5.740  1.00  0.00     0.211 HD
ENDBRANCH   1  14
TORSDOF 9
ENDMDL
MODEL 5
REMARK VINA RESULT:    -4.480      1.269      2.393
REMARK INTER + INTRA:          -6.264
REMARK INTER:                  -5.935
REMARK INTRA:                  -0.329
REMARK UNBOUND:                -0.082
REMARK SMILES OC[C@@H](O)C(O)[C@H](O)CO
REMARK SMILES IDX 5 1 7 2 9 3 10 4 8 6 3 8 2 9 1 10 4 12 6 14
REMARK H PARENT 10 5 8 7 1 11 4 13 6 15
REMARK Flexibility Score: inf
ROOT
ATOM      1  C   UNL     1      17.607  -3.968   3.083  1.00  0.00     0.176 C 
ENDROOT
BRANCH   1   2
ATOM      2  C   UNL     1      16.229  -4.536   3.534  1.00  0.00     0.171 C 
BRANCH   2   3
ATOM      3  C   UNL     1      15.857  -5.803   2.745  1.00  0.00     0.190 C 
BRANCH   3   4
ATOM      4  O   UNL     1      14.463  -5.945   2.709  1.00  0.00    -0.394 OA
ATOM      5  H   UNL     1      14.286  -6.921   2.698  1.00  0.00     0.210 HD
ENDBRANCH   3   4
ENDBRANCH   2   3
BRANCH   2   6
ATOM      6  O   UNL     1      16.220  -4.808   4.914  1.00  0.00    -0.388 OA
ATOM      7  H   UNL     1      16.216  -5.796   5.025  1.00  0.00     0.211 HD
ENDBRANCH   2   6
ENDBRANCH   1   2
BRANCH   1   8
ATOM      8  C   UNL     1      18.016  -2.629   3.756  1.00  0.00     0.171 C 
BRANCH   8   9
ATOM      9  C   UNL     1      19.154  -2.750   4.791  1.00  0.00     0.190 C 
BRANCH   9  10
ATOM     10  O   UNL     1      18.715  -3.425   5.938  1.00  0.00    -0.394 OA
ATOM     11  H   UNL     1      18.068  -2.819   6.384  1.00  0.00     0.210 HD
ENDBRANCH   9  10
ENDBRANCH   8   9
BRANCH   8  12
ATOM     12  O   UNL     1      18.355  -1.685   2.772  1.00  0.00    -0.388 OA
ATOM     13  H   UNL     1      17.944  -0.823   3.044  1.00  0.00     0.211 HD
ENDBRANCH   8  12
ENDBRANCH   1   8
BRANCH   1  14
ATOM     14  O   UNL     1      17.678  -3.852   1.682  1.00  0.00    -0.388 OA
ATOM     15  H   UNL     1      18.404  -3.212   1.462  1.00  0.00     0.211 HD
ENDBRANCH   1  14
TORSDOF 9
ENDMDL
MODEL 6
REMARK VINA RESULT:    -4.442      1.465      4.147
REMARK INTER + INTRA:          -6.212
REMARK INTER:                  -5.901
REMARK INTRA:                  -0.312
REMARK UNBOUND:                -0.082
REMARK SMILES OC[C@@H](O)C(O)[C@H](O)CO
REMARK SMILES IDX 5 1 7 2 9 3 10 4 8 6 3 8 2 9 1 10 4 12 6 14
REMARK H PARENT 10 5 8 7 1 11 4 13 6 15
REMARK Flexibility Score: inf
ROOT
ATOM      1  C   UNL     1      17.669  -4.000   3.058  1.00  0.00     0.176 C 
ENDROOT
BRANCH   1   2
ATOM      2  C   UNL     1      17.650  -2.583   2.412  1.00  0.00     0.171 C 
BRANCH   2   3
ATOM      3  C   UNL     1      18.447  -1.571   3.252  1.00  0.00     0.190 C 
BRANCH   3   4
ATOM      4  O   UNL     1      17.819  -1.385   4.491  1.00  0.00    -0.394 OA
ATOM      5  H   UNL     1      17.679  -0.407   4.585  1.00  0.00     0.210 HD
ENDBRANCH   3   4
ENDBRANCH   2   3
BRANCH   2   6
ATOM      6  O   UNL     1      18.149  -2.618   1.098  1.00  0.00    -0.388 OA
ATOM      7  H   UNL     1      17.627  -1.965   0.561  1.00  0.00     0.211 HD
ENDBRANCH   2   6
ENDBRANCH   1   2
BRANCH   1   8
ATOM      8  C   UNL     1      16.277  -4.544   3.483  1.00  0.00     0.171 C 
BRANCH   8   9
ATOM      9  C   UNL     1      15.836  -5.826   2.747  1.00  0.00     0.190 C 
BRANCH   9  10
ATOM     10  O   UNL     1      14.441  -5.876   2.626  1.00  0.00    -0.394 OA
ATOM     11  H   UNL     1      14.161  -6.749   3.008  1.00  0.00     0.210 HD
ENDBRANCH   9  10
ENDBRANCH   8   9
BRANCH   8  12
ATOM     12  O   UNL     1      16.251  -4.752   4.873  1.00  0.00    -0.388 OA
ATOM     13  H   UNL     1      17.165  -5.031   5.141  1.00  0.00     0.211 HD
ENDBRANCH   8  12
ENDBRANCH   1   8
BRANCH   1  14
ATOM     14  O   UNL     1      18.566  -4.056   4.141  1.00  0.00    -0.388 OA
ATOM     15  H   UNL     1      18.733  -5.011   4.353  1.00  0.00     0.211 HD
ENDBRANCH   1  14
TORSDOF 9
ENDMDL
MODEL 7
REMARK VINA RESULT:    -4.424      1.582      4.439
REMARK INTER + INTRA:          -6.187
REMARK INTER:                  -5.483
REMARK INTRA:                  -0.704
REMARK UNBOUND:                -0.082
REMARK SMILES OC[C@@H](O)C(O)[C@H](O)CO
REMARK SMILES IDX 5 1 7 2 9 3 10 4 8 6 3 8 2 9 1 10 4 12 6 14
REMARK H PARENT 10 5 8 7 1 11 4 13 6 15
REMARK Flexibility Score: inf
ROOT
ATOM      1  C   UNL     1      17.891  -2.209   3.942  1.00  0.00     0.176 C 
ENDROOT
BRANCH   1   2
ATOM      2  C   UNL     1      19.164  -2.457   4.804  1.00  0.00     0.171 C 
BRANCH   2   3
ATOM      3  C   UNL     1      19.818  -1.133   5.235  1.00  0.00     0.190 C 
BRANCH   3   4
ATOM      4  O   UNL     1      18.892  -0.358   5.946  1.00  0.00    -0.394 OA
ATOM      5  H   UNL     1      19.128  -0.457   6.905  1.00  0.00     0.210 HD
ENDBRANCH   3   4
ENDBRANCH   2   3
BRANCH   2   6
ATOM      6  O   UNL     1      18.868  -3.238   5.935  1.00  0.00    -0.388 OA
ATOM      7  H   UNL     1      19.066  -4.184   5.706  1.00  0.00     0.211 HD
ENDBRANCH   2   6
ENDBRANCH   1   2
BRANCH   1   8
ATOM      8  C   UNL     1      17.505  -3.377   2.994  1.00  0.00     0.171 C 
BRANCH   8   9
ATOM      9  C   UNL     1      18.485  -3.607   1.824  1.00  0.00     0.190 C 
BRANCH   9  10
ATOM     10  O   UNL     1      18.136  -2.818   0.720  1.00  0.00    -0.394 OA
ATOM     11  H   UNL     1      17.624  -2.048   1.081  1.00  0.00     0.210 HD
ENDBRANCH   9  10
ENDBRANCH   8   9
BRANCH   8  12
ATOM     12  O   UNL     1      17.350  -4.561   3.734  1.00  0.00    -0.388 OA
ATOM     13  H   UNL     1      17.628  -4.359   4.666  1.00  0.00     0.211 HD
ENDBRANCH   8  12
ENDBRANCH   1   8
BRANCH   1  14
ATOM     14  O   UNL     1      17.989  -1.005   3.220  1.00  0.00    -0.388 OA
ATOM     15  H   UNL     1      17.178  -0.918   2.655  1.00  0.00     0.211 HD
ENDBRANCH   1  14
TORSDOF 9
ENDMDL
MODEL 8
REMARK VINA RESULT:    -4.247      1.619      2.883
REMARK INTER + INTRA:          -5.943
REMARK INTER:                  -4.967
REMARK INTRA:                  -0.976
REMARK UNBOUND:                -0.082
REMARK SMILES OC[C@@H](O)C(O)[C@H](O)CO
REMARK SMILES IDX 5 1 7 2 9 3 10 4 8 6 3 8 2 9 1 10 4 12 6 14
REMARK H PARENT 10 5 8 7 1 11 4 13 6 15
REMARK Flexibility Score: inf
ROOT
ATOM      1  C   UNL     1      18.447  -3.211   4.210  1.00  0.00     0.176 C 
ENDROOT
BRANCH   1   2
ATOM      2  C   UNL     1      16.952  -3.641   4.261  1.00  0.00     0.171 C 
BRANCH   2   3
ATOM      3  C   UNL     1      16.673  -4.821   3.314  1.00  0.00     0.190 C 
BRANCH   3   4
ATOM      4  O   UNL     1      16.806  -4.401   1.983  1.00  0.00    -0.394 OA
ATOM      5  H   UNL     1      15.887  -4.206   1.663  1.00  0.00     0.210 HD
ENDBRANCH   3   4
ENDBRANCH   2   3
BRANCH   2   6
ATOM      6  O   UNL     1      16.564  -3.974   5.571  1.00  0.00    -0.388 OA
ATOM      7  H   UNL     1      16.122  -4.863   5.536  1.00  0.00     0.211 HD
ENDBRANCH   2   6
ENDBRANCH   1   2
BRANCH   1   8
ATOM      8  C   UNL     1      18.750  -2.006   3.278  1.00  0.00     0.171 C 
BRANCH   8   9
ATOM      9  C   UNL     1      19.764  -2.300   2.153  1.00  0.00     0.190 C 
BRANCH   9  10
ATOM     10  O   UNL     1      19.216  -3.174   1.205  1.00  0.00    -0.394 OA
ATOM     11  H   UNL     1      19.982  -3.534   0.686  1.00  0.00     0.210 HD
ENDBRANCH   9  10
ENDBRANCH   8   9
BRANCH   8  12
ATOM     12  O   UNL     1      17.553  -1.512   2.732  1.00  0.00    -0.388 OA
ATOM     13  H   UNL     1      17.502  -0.549   2.967  1.00  0.00     0.211 HD
ENDBRANCH   8  12
ENDBRANCH   1   8
BRANCH   1  14
ATOM     14  O   UNL     1      19.282  -4.298   3.888  1.00  0.00    -0.388 OA
ATOM     15  H   UNL     1      18.941  -5.100   4.363  1.00  0.00     0.211 HD
ENDBRANCH   1  14
TORSDOF 9
ENDMDL
MODEL 9
REMARK VINA RESULT:    -4.195      1.956      3.700
REMARK INTER + INTRA:          -5.871
REMARK INTER:                  -5.154
REMARK INTRA:                  -0.717
REMARK UNBOUND:                -0.082
REMARK SMILES OC[C@@H](O)C(O)[C@H](O)CO
REMARK SMILES IDX 5 1 7 2 9 3 10 4 8 6 3 8 2 9 1 10 4 12 6 14
REMARK H PARENT 10 5 8 7 1 11 4 13 6 15
REMARK Flexibility Score: inf
ROOT
ATOM      1  C   UNL     1      18.042  -3.623   3.501  1.00  0.00     0.176 C 
ENDROOT
BRANCH   1   2
ATOM      2  C   UNL     1      19.258  -3.662   2.530  1.00  0.00     0.171 C 
BRANCH   2   3
ATOM      3  C   UNL     1      19.221  -2.491   1.533  1.00  0.00     0.190 C 
BRANCH   3   4
ATOM      4  O   UNL     1      18.262  -2.743   0.543  1.00  0.00    -0.394 OA
ATOM      5  H   UNL     1      18.313  -3.715   0.351  1.00  0.00     0.210 HD
ENDBRANCH   3   4
ENDBRANCH   2   3
BRANCH   2   6
ATOM      6  O   UNL     1      20.473  -3.653   3.238  1.00  0.00    -0.388 OA
ATOM      7  H   UNL     1      20.888  -2.759   3.112  1.00  0.00     0.211 HD
ENDBRANCH   2   6
ENDBRANCH   1   2
BRANCH   1   8
ATOM      8  C   UNL     1      16.990  -4.743   3.278  1.00  0.00     0.171 C 
BRANCH   8   9
ATOM      9  C   UNL     1      15.807  -4.722   4.268  1.00  0.00     0.190 C 
BRANCH   9  10
ATOM     10  O   UNL     1      16.240  -4.370   5.553  1.00  0.00    -0.394 OA
ATOM     11  H   UNL     1      15.579  -4.758   6.184  1.00  0.00     0.210 HD
ENDBRANCH   9  10
ENDBRANCH   8   9
BRANCH   8  12
ATOM     12  O   UNL     1      16.514  -4.694   1.956  1.00  0.00    -0.388 OA
ATOM     13  H   UNL     1      17.226  -4.273   1.407  1.00  0.00     0.211 HD
ENDBRANCH   8  12
ENDBRANCH   1   8
BRANCH   1  14
ATOM     14  O   UNL     1      17.420  -2.360   3.491  1.00  0.00    -0.388 OA
ATOM     15  H   UNL     1      17.694  -1.875   4.312  1.00  0.00     0.211 HD
ENDBRANCH   1  14
TORSDOF 9
ENDMDL
