MODEL 1
REMARK VINA RESULT:    -3.254      0.000      0.000
REMARK INTER + INTRA:          -9.326
REMARK INTER:                  -7.438
REMARK INTRA:                  -1.888
REMARK UNBOUND:                -1.888
REMARK SMILES CCCCCCCCCCCCCCCCCCCCCCCC(=O)[O-]
REMARK SMILES IDX 13 1 14 2 15 3 16 4 17 5 18 6 19 7 20 8 21 9 22 10 23 11
REMARK SMILES IDX 24 12 25 13 26 14 12 15 11 16 10 17 9 18 8 19 7 20 6 21 5 22
REMARK SMILES IDX 4 23 3 24 2 25 1 26
REMARK H PARENT
REMARK Flexibility Score: inf
ROOT
ATOM      1  C   UNL     1     -43.964 -28.575  -0.847  1.00  0.00     0.000 C 
ENDROOT
BRANCH   1   2
ATOM      2  C   UNL     1     -43.544 -27.491   0.159  1.00  0.00     0.000 C 
BRANCH   2   3
ATOM      3  C   UNL     1     -44.634 -26.425   0.368  1.00  0.00     0.000 C 
BRANCH   3   4
ATOM      4  C   UNL     1     -45.136 -26.370   1.828  1.00  0.00     0.000 C 
BRANCH   4   5
ATOM      5  C   UNL     1     -46.645 -26.642   1.976  1.00  0.00     0.000 C 
BRANCH   5   6
ATOM      6  C   UNL     1     -47.123 -27.988   1.402  1.00  0.00     0.000 C 
BRANCH   6   7
ATOM      7  C   UNL     1     -47.021 -29.188   2.368  1.00  0.00     0.000 C 
BRANCH   7   8
ATOM      8  C   UNL     1     -45.678 -29.318   3.108  1.00  0.00     0.000 C 
BRANCH   8   9
ATOM      9  C   UNL     1     -45.763 -29.975   4.498  1.00  0.00     0.000 C 
BRANCH   9  10
ATOM     10  C   UNL     1     -46.474 -29.100   5.555  1.00  0.00     0.006 C 
BRANCH  10  11
ATOM     11  C   UNL     1     -45.487 -28.290   6.405  1.00  0.00     0.053 C 
BRANCH  11  12
ATOM     12  C   UNL     1     -45.870 -26.844   6.415  1.00  0.00     0.041 C 
ATOM     13  O   UNL     1     -46.342 -26.306   5.379  1.00  0.00    -0.550 OA
ATOM     14  O   UNL     1     -45.754 -26.102   7.584  1.00  0.00    -0.550 OA
ENDBRANCH  11  12
ENDBRANCH  10  11
ENDBRANCH   9  10
ENDBRANCH   8   9
ENDBRANCH   7   8
ENDBRANCH   6   7
ENDBRANCH   5   6
ENDBRANCH   4   5
ENDBRANCH   3   4
ENDBRANCH   2   3
ENDBRANCH   1   2
BRANCH   1  15
ATOM     15  C   UNL     1     -45.317 -28.272  -1.509  1.00  0.00     0.000 C 
BRANCH  15  16
ATOM     16  C   UNL     1     -45.954 -29.551  -2.064  1.00  0.00     0.000 C 
BRANCH  16  17
ATOM     17  C   UNL     1     -45.535 -29.788  -3.523  1.00  0.00     0.000 C 
BRANCH  17  18
ATOM     18  C   UNL     1     -45.956 -28.639  -4.452  1.00  0.00    -0.000 C 
BRANCH  18  19
ATOM     19  C   UNL     1     -46.206 -29.105  -5.896  1.00  0.00    -0.000 C 
BRANCH  19  20
ATOM     20  C   UNL     1     -45.807 -28.036  -6.937  1.00  0.00    -0.000 C 
BRANCH  20  21
ATOM     21  C   UNL     1     -46.678 -28.055  -8.208  1.00  0.00    -0.000 C 
BRANCH  21  22
ATOM     22  C   UNL     1     -46.049 -28.779  -9.412  1.00  0.00    -0.000 C 
BRANCH  22  23
ATOM     23  C   UNL     1     -44.607 -28.350  -9.751  1.00  0.00    -0.000 C 
BRANCH  23  24
ATOM     24  C   UNL     1     -43.612 -29.507  -9.968  1.00  0.00    -0.000 C 
BRANCH  24  25
ATOM     25  C   UNL     1     -42.265 -29.349  -9.243  1.00  0.00    -0.003 C 
ATOM     26  C   UNL     1     -42.388 -28.608  -7.913  1.00  0.00     0.004 C 
ENDBRANCH  24  25
ENDBRANCH  23  24
ENDBRANCH  22  23
ENDBRANCH  21  22
ENDBRANCH  20  21
ENDBRANCH  19  20
ENDBRANCH  18  19
ENDBRANCH  17  18
ENDBRANCH  16  17
ENDBRANCH  15  16
ENDBRANCH   1  15
TORSDOF 22
ENDMDL
MODEL 2
REMARK VINA RESULT:    -3.199      4.299     10.885
REMARK INTER + INTRA:          -9.201
REMARK INTER:                  -7.360
REMARK INTRA:                  -1.841
REMARK UNBOUND:                -1.888
REMARK SMILES CCCCCCCCCCCCCCCCCCCCCCCC(=O)[O-]
REMARK SMILES IDX 13 1 14 2 15 3 16 4 17 5 18 6 19 7 20 8 21 9 22 10 23 11
REMARK SMILES IDX 24 12 25 13 26 14 12 15 11 16 10 17 9 18 8 19 7 20 6 21 5 22
REMARK SMILES IDX 4 23 3 24 2 25 1 26
REMARK H PARENT
REMARK Flexibility Score: inf
ROOT
ATOM      1  C   UNL     1     -42.805 -27.076  -1.252  1.00  0.00     0.000 C 
ENDROOT
BRANCH   1   2
ATOM      2  C   UNL     1     -44.335 -27.026  -1.390  1.00  0.00     0.000 C 
BRANCH   2   3
ATOM      3  C   UNL     1     -44.828 -27.640  -2.713  1.00  0.00     0.000 C 
BRANCH   3   4
ATOM      4  C   UNL     1     -46.211 -28.313  -2.573  1.00  0.00     0.000 C 
BRANCH   4   5
ATOM      5  C   UNL     1     -46.342 -29.631  -3.360  1.00  0.00     0.000 C 
BRANCH   5   6
ATOM      6  C   UNL     1     -45.622 -29.650  -4.721  1.00  0.00     0.000 C 
BRANCH   6   7
ATOM      7  C   UNL     1     -46.487 -29.227  -5.928  1.00  0.00     0.000 C 
BRANCH   7   8
ATOM      8  C   UNL     1     -45.969 -28.003  -6.705  1.00  0.00     0.000 C 
BRANCH   8   9
ATOM      9  C   UNL     1     -46.284 -28.011  -8.212  1.00  0.00     0.000 C 
BRANCH   9  10
ATOM     10  C   UNL     1     -45.143 -28.584  -9.080  1.00  0.00     0.006 C 
BRANCH  10  11
ATOM     11  C   UNL     1     -43.823 -27.826  -8.891  1.00  0.00     0.053 C 
BRANCH  11  12
ATOM     12  C   UNL     1     -42.709 -28.780  -8.599  1.00  0.00     0.041 C 
ATOM     13  O   UNL     1     -42.085 -28.711  -7.507  1.00  0.00    -0.550 OA
ATOM     14  O   UNL     1     -42.391 -29.778  -9.511  1.00  0.00    -0.550 OA
ENDBRANCH  11  12
ENDBRANCH  10  11
ENDBRANCH   9  10
ENDBRANCH   8   9
ENDBRANCH   7   8
ENDBRANCH   6   7
ENDBRANCH   5   6
ENDBRANCH   4   5
ENDBRANCH   3   4
ENDBRANCH   2   3
ENDBRANCH   1   2
BRANCH   1  15
ATOM     15  C   UNL     1     -42.350 -27.872  -0.019  1.00  0.00     0.000 C 
BRANCH  15  16
ATOM     16  C   UNL     1     -42.193 -29.360  -0.355  1.00  0.00     0.000 C 
BRANCH  16  17
ATOM     17  C   UNL     1     -43.501 -30.124  -0.101  1.00  0.00     0.000 C 
BRANCH  17  18
ATOM     18  C   UNL     1     -44.466 -29.353   0.813  1.00  0.00    -0.000 C 
BRANCH  18  19
ATOM     19  C   UNL     1     -45.920 -29.837   0.684  1.00  0.00    -0.000 C 
BRANCH  19  20
ATOM     20  C   UNL     1     -46.930 -28.837   1.290  1.00  0.00    -0.000 C 
BRANCH  20  21
ATOM     21  C   UNL     1     -46.694 -28.550   2.785  1.00  0.00    -0.000 C 
BRANCH  21  22
ATOM     22  C   UNL     1     -46.307 -27.095   3.111  1.00  0.00    -0.000 C 
BRANCH  22  23
ATOM     23  C   UNL     1     -46.111 -26.793   4.610  1.00  0.00    -0.000 C 
BRANCH  23  24
ATOM     24  C   UNL     1     -46.378 -27.979   5.559  1.00  0.00    -0.000 C 
BRANCH  24  25
ATOM     25  C   UNL     1     -45.460 -28.043   6.791  1.00  0.00    -0.003 C 
ATOM     26  C   UNL     1     -44.731 -29.379   6.921  1.00  0.00     0.004 C 
ENDBRANCH  24  25
ENDBRANCH  23  24
ENDBRANCH  22  23
ENDBRANCH  21  22
ENDBRANCH  20  21
ENDBRANCH  19  20
ENDBRANCH  18  19
ENDBRANCH  17  18
ENDBRANCH  16  17
ENDBRANCH  15  16
ENDBRANCH   1  15
TORSDOF 22
ENDMDL
MODEL 3
REMARK VINA RESULT:    -2.857      1.361      2.834
REMARK INTER + INTRA:          -8.420
REMARK INTER:                  -6.225
REMARK INTRA:                  -2.195
REMARK UNBOUND:                -1.888
REMARK SMILES CCCCCCCCCCCCCCCCCCCCCCCC(=O)[O-]
REMARK SMILES IDX 13 1 14 2 15 3 16 4 17 5 18 6 19 7 20 8 21 9 22 10 23 11
REMARK SMILES IDX 24 12 25 13 26 14 12 15 11 16 10 17 9 18 8 19 7 20 6 21 5 22
REMARK SMILES IDX 4 23 3 24 2 25 1 26
REMARK H PARENT
REMARK Flexibility Score: inf
ROOT
ATOM      1  C   UNL     1     -46.114 -29.353  -3.160  1.00  0.00     0.000 C 
ENDROOT
BRANCH   1   2
ATOM      2  C   UNL     1     -47.121 -28.762  -2.160  1.00  0.00     0.000 C 
BRANCH   2   3
ATOM      3  C   UNL     1     -47.028 -29.418  -0.771  1.00  0.00     0.000 C 
BRANCH   3   4
ATOM      4  C   UNL     1     -45.594 -29.393  -0.199  1.00  0.00     0.000 C 
BRANCH   4   5
ATOM      5  C   UNL     1     -45.425 -28.460   1.015  1.00  0.00     0.000 C 
BRANCH   5   6
ATOM      6  C   UNL     1     -44.764 -27.103   0.706  1.00  0.00     0.000 C 
BRANCH   6   7
ATOM      7  C   UNL     1     -45.313 -25.906   1.511  1.00  0.00     0.000 C 
BRANCH   7   8
ATOM      8  C   UNL     1     -46.812 -25.984   1.856  1.00  0.00     0.000 C 
BRANCH   8   9
ATOM      9  C   UNL     1     -47.125 -26.147   3.355  1.00  0.00     0.000 C 
BRANCH   9  10
ATOM     10  C   UNL     1     -46.002 -26.850   4.150  1.00  0.00     0.006 C 
BRANCH  10  11
ATOM     11  C   UNL     1     -46.541 -27.927   5.099  1.00  0.00     0.053 C 
BRANCH  11  12
ATOM     12  C   UNL     1     -45.748 -27.953   6.367  1.00  0.00     0.041 C 
ATOM     13  O   UNL     1     -45.910 -27.054   7.234  1.00  0.00    -0.550 OA
ATOM     14  O   UNL     1     -44.865 -28.996   6.614  1.00  0.00    -0.550 OA
ENDBRANCH  11  12
ENDBRANCH  10  11
ENDBRANCH   9  10
ENDBRANCH   8   9
ENDBRANCH   7   8
ENDBRANCH   6   7
ENDBRANCH   5   6
ENDBRANCH   4   5
ENDBRANCH   3   4
ENDBRANCH   2   3
ENDBRANCH   1   2
BRANCH   1  15
ATOM     15  C   UNL     1     -45.037 -28.341  -3.581  1.00  0.00     0.000 C 
BRANCH  15  16
ATOM     16  C   UNL     1     -45.619 -27.284  -4.527  1.00  0.00     0.000 C 
BRANCH  16  17
ATOM     17  C   UNL     1     -46.606 -27.916  -5.519  1.00  0.00     0.000 C 
BRANCH  17  18
ATOM     18  C   UNL     1     -46.300 -27.540  -6.977  1.00  0.00    -0.000 C 
BRANCH  18  19
ATOM     19  C   UNL     1     -47.098 -28.382  -7.987  1.00  0.00    -0.000 C 
BRANCH  19  20
ATOM     20  C   UNL     1     -46.404 -29.724  -8.312  1.00  0.00    -0.000 C 
BRANCH  20  21
ATOM     21  C   UNL     1     -45.782 -29.773  -9.720  1.00  0.00    -0.000 C 
BRANCH  21  22
ATOM     22  C   UNL     1     -44.649 -28.759  -9.962  1.00  0.00    -0.000 C 
BRANCH  22  23
ATOM     23  C   UNL     1     -43.245 -29.377 -10.124  1.00  0.00    -0.000 C 
BRANCH  23  24
ATOM     24  C   UNL     1     -42.347 -29.302  -8.873  1.00  0.00    -0.000 C 
BRANCH  24  25
ATOM     25  C   UNL     1     -43.005 -28.661  -7.640  1.00  0.00    -0.003 C 
ATOM     26  C   UNL     1     -43.356 -29.678  -6.555  1.00  0.00     0.004 C 
ENDBRANCH  24  25
ENDBRANCH  23  24
ENDBRANCH  22  23
ENDBRANCH  21  22
ENDBRANCH  20  21
ENDBRANCH  19  20
ENDBRANCH  18  19
ENDBRANCH  17  18
ENDBRANCH  16  17
ENDBRANCH  15  16
ENDBRANCH   1  15
TORSDOF 22
ENDMDL
MODEL 4
REMARK VINA RESULT:    -2.830      4.861     11.052
REMARK INTER + INTRA:          -8.357
REMARK INTER:                  -6.496
REMARK INTRA:                  -1.861
REMARK UNBOUND:                -1.888
REMARK SMILES CCCCCCCCCCCCCCCCCCCCCCCC(=O)[O-]
REMARK SMILES IDX 13 1 14 2 15 3 16 4 17 5 18 6 19 7 20 8 21 9 22 10 23 11
REMARK SMILES IDX 24 12 25 13 26 14 12 15 11 16 10 17 9 18 8 19 7 20 6 21 5 22
REMARK SMILES IDX 4 23 3 24 2 25 1 26
REMARK H PARENT
REMARK Flexibility Score: inf
ROOT
ATOM      1  C   UNL     1     -43.095 -28.509   0.157  1.00  0.00     0.000 C 
ENDROOT
BRANCH   1   2
ATOM      2  C   UNL     1     -42.833 -27.951  -1.251  1.00  0.00     0.000 C 
BRANCH   2   3
ATOM      3  C   UNL     1     -43.935 -26.983  -1.717  1.00  0.00     0.000 C 
BRANCH   3   4
ATOM      4  C   UNL     1     -45.285 -27.694  -1.957  1.00  0.00     0.000 C 
BRANCH   4   5
ATOM      5  C   UNL     1     -45.536 -28.066  -3.431  1.00  0.00     0.000 C 
BRANCH   5   6
ATOM      6  C   UNL     1     -45.563 -29.578  -3.724  1.00  0.00     0.000 C 
BRANCH   6   7
ATOM      7  C   UNL     1     -46.675 -30.040  -4.690  1.00  0.00     0.000 C 
BRANCH   7   8
ATOM      8  C   UNL     1     -46.268 -30.101  -6.173  1.00  0.00     0.000 C 
BRANCH   8   9
ATOM      9  C   UNL     1     -45.161 -29.112  -6.583  1.00  0.00     0.000 C 
BRANCH   9  10
ATOM     10  C   UNL     1     -43.869 -29.798  -7.079  1.00  0.00     0.006 C 
BRANCH  10  11
ATOM     11  C   UNL     1     -42.872 -28.804  -7.687  1.00  0.00     0.053 C 
BRANCH  11  12
ATOM     12  C   UNL     1     -42.292 -29.352  -8.952  1.00  0.00     0.041 C 
ATOM     13  O   UNL     1     -41.109 -29.784  -8.972  1.00  0.00    -0.550 OA
ATOM     14  O   UNL     1     -43.073 -29.432 -10.098  1.00  0.00    -0.550 OA
ENDBRANCH  11  12
ENDBRANCH  10  11
ENDBRANCH   9  10
ENDBRANCH   8   9
ENDBRANCH   7   8
ENDBRANCH   6   7
ENDBRANCH   5   6
ENDBRANCH   4   5
ENDBRANCH   3   4
ENDBRANCH   2   3
ENDBRANCH   1   2
BRANCH   1  15
ATOM     15  C   UNL     1     -43.629 -29.950   0.131  1.00  0.00     0.000 C 
BRANCH  15  16
ATOM     16  C   UNL     1     -44.783 -30.125   1.125  1.00  0.00     0.000 C 
BRANCH  16  17
ATOM     17  C   UNL     1     -46.140 -30.077   0.407  1.00  0.00     0.000 C 
BRANCH  17  18
ATOM     18  C   UNL     1     -47.108 -29.067   1.043  1.00  0.00    -0.000 C 
BRANCH  18  19
ATOM     19  C   UNL     1     -46.533 -27.641   1.088  1.00  0.00    -0.000 C 
BRANCH  19  20
ATOM     20  C   UNL     1     -46.703 -26.982   2.475  1.00  0.00    -0.000 C 
BRANCH  20  21
ATOM     21  C   UNL     1     -46.203 -27.857   3.640  1.00  0.00    -0.000 C 
BRANCH  21  22
ATOM     22  C   UNL     1     -46.857 -27.556   5.002  1.00  0.00    -0.000 C 
BRANCH  22  23
ATOM     23  C   UNL     1     -46.079 -26.567   5.894  1.00  0.00    -0.000 C 
BRANCH  23  24
ATOM     24  C   UNL     1     -45.190 -27.216   6.973  1.00  0.00    -0.000 C 
BRANCH  24  25
ATOM     25  C   UNL     1     -45.646 -28.610   7.436  1.00  0.00    -0.003 C 
ATOM     26  C   UNL     1     -44.775 -29.736   6.880  1.00  0.00     0.004 C 
ENDBRANCH  24  25
ENDBRANCH  23  24
ENDBRANCH  22  23
ENDBRANCH  21  22
ENDBRANCH  20  21
ENDBRANCH  19  20
ENDBRANCH  18  19
ENDBRANCH  17  18
ENDBRANCH  16  17
ENDBRANCH  15  16
ENDBRANCH   1  15
TORSDOF 22
ENDMDL
MODEL 5
REMARK VINA RESULT:    -2.621      1.300      1.970
REMARK INTER + INTRA:          -7.880
REMARK INTER:                  -6.178
REMARK INTRA:                  -1.701
REMARK UNBOUND:                -1.888
REMARK SMILES CCCCCCCCCCCCCCCCCCCCCCCC(=O)[O-]
REMARK SMILES IDX 13 1 14 2 15 3 16 4 17 5 18 6 19 7 20 8 21 9 22 10 23 11
REMARK SMILES IDX 24 12 25 13 26 14 12 15 11 16 10 17 9 18 8 19 7 20 6 21 5 22
REMARK SMILES IDX 4 23 3 24 2 25 1 26
REMARK H PARENT
REMARK Flexibility Score: inf
ROOT
ATOM      1  C   UNL     1     -43.770 -27.567  -1.853  1.00  0.00     0.000 C 
ENDROOT
BRANCH   1   2
ATOM      2  C   UNL     1     -43.575 -27.583  -0.329  1.00  0.00     0.000 C 
BRANCH   2   3
ATOM      3  C   UNL     1     -43.275 -28.992   0.214  1.00  0.00     0.000 C 
BRANCH   3   4
ATOM      4  C   UNL     1     -44.376 -30.013  -0.148  1.00  0.00     0.000 C 
BRANCH   4   5
ATOM      5  C   UNL     1     -45.721 -29.751   0.555  1.00  0.00     0.000 C 
BRANCH   5   6
ATOM      6  C   UNL     1     -45.626 -28.930   1.855  1.00  0.00     0.000 C 
BRANCH   6   7
ATOM      7  C   UNL     1     -46.357 -27.570   1.828  1.00  0.00     0.000 C 
BRANCH   7   8
ATOM      8  C   UNL     1     -45.979 -26.604   2.965  1.00  0.00     0.000 C 
BRANCH   8   9
ATOM      9  C   UNL     1     -46.982 -26.550   4.132  1.00  0.00     0.000 C 
BRANCH   9  10
ATOM     10  C   UNL     1     -47.122 -27.887   4.891  1.00  0.00     0.006 C 
BRANCH  10  11
ATOM     11  C   UNL     1     -45.908 -28.188   5.778  1.00  0.00     0.053 C 
BRANCH  11  12
ATOM     12  C   UNL     1     -46.099 -27.605   7.142  1.00  0.00     0.041 C 
ATOM     13  O   UNL     1     -45.716 -26.430   7.389  1.00  0.00    -0.550 OA
ATOM     14  O   UNL     1     -46.745 -28.339   8.128  1.00  0.00    -0.550 OA
ENDBRANCH  11  12
ENDBRANCH  10  11
ENDBRANCH   9  10
ENDBRANCH   8   9
ENDBRANCH   7   8
ENDBRANCH   6   7
ENDBRANCH   5   6
ENDBRANCH   4   5
ENDBRANCH   3   4
ENDBRANCH   2   3
ENDBRANCH   1   2
BRANCH   1  15
ATOM     15  C   UNL     1     -45.251 -27.533  -2.258  1.00  0.00     0.000 C 
BRANCH  15  16
ATOM     16  C   UNL     1     -45.508 -28.430  -3.475  1.00  0.00     0.000 C 
BRANCH  16  17
ATOM     17  C   UNL     1     -46.859 -29.150  -3.353  1.00  0.00     0.000 C 
BRANCH  17  18
ATOM     18  C   UNL     1     -47.125 -30.109  -4.524  1.00  0.00    -0.000 C 
BRANCH  18  19
ATOM     19  C   UNL     1     -45.979 -30.124  -5.550  1.00  0.00    -0.000 C 
BRANCH  19  20
ATOM     20  C   UNL     1     -46.432 -29.641  -6.945  1.00  0.00    -0.000 C 
BRANCH  20  21
ATOM     21  C   UNL     1     -45.665 -28.403  -7.450  1.00  0.00    -0.000 C 
BRANCH  21  22
ATOM     22  C   UNL     1     -45.952 -28.017  -8.913  1.00  0.00    -0.000 C 
BRANCH  22  23
ATOM     23  C   UNL     1     -44.766 -28.204  -9.880  1.00  0.00    -0.000 C 
BRANCH  23  24
ATOM     24  C   UNL     1     -43.996 -29.531  -9.726  1.00  0.00    -0.000 C 
BRANCH  24  25
ATOM     25  C   UNL     1     -42.482 -29.381  -9.501  1.00  0.00    -0.003 C 
ATOM     26  C   UNL     1     -42.141 -28.712  -8.171  1.00  0.00     0.004 C 
ENDBRANCH  24  25
ENDBRANCH  23  24
ENDBRANCH  22  23
ENDBRANCH  21  22
ENDBRANCH  20  21
ENDBRANCH  19  20
ENDBRANCH  18  19
ENDBRANCH  17  18
ENDBRANCH  16  17
ENDBRANCH  15  16
ENDBRANCH   1  15
TORSDOF 22
ENDMDL
MODEL 6
REMARK VINA RESULT:    -2.563      4.089     11.110
REMARK INTER + INTRA:          -7.746
REMARK INTER:                  -5.708
REMARK INTRA:                  -2.038
REMARK UNBOUND:                -1.888
REMARK SMILES CCCCCCCCCCCCCCCCCCCCCCCC(=O)[O-]
REMARK SMILES IDX 13 1 14 2 15 3 16 4 17 5 18 6 19 7 20 8 21 9 22 10 23 11
REMARK SMILES IDX 24 12 25 13 26 14 12 15 11 16 10 17 9 18 8 19 7 20 6 21 5 22
REMARK SMILES IDX 4 23 3 24 2 25 1 26
REMARK H PARENT
REMARK Flexibility Score: inf
ROOT
ATOM      1  C   UNL     1     -43.045 -27.682  -0.519  1.00  0.00     0.000 C 
ENDROOT
BRANCH   1   2
ATOM      2  C   UNL     1     -43.279 -28.867   0.433  1.00  0.00     0.000 C 
BRANCH   2   3
ATOM      3  C   UNL     1     -43.834 -30.106  -0.292  1.00  0.00     0.000 C 
BRANCH   3   4
ATOM      4  C   UNL     1     -43.737 -29.987  -1.829  1.00  0.00     0.000 C 
BRANCH   4   5
ATOM      5  C   UNL     1     -45.096 -30.094  -2.546  1.00  0.00     0.000 C 
BRANCH   5   6
ATOM      6  C   UNL     1     -46.200 -29.175  -1.990  1.00  0.00     0.000 C 
BRANCH   6   7
ATOM      7  C   UNL     1     -46.833 -28.213  -3.018  1.00  0.00     0.000 C 
BRANCH   7   8
ATOM      8  C   UNL     1     -47.124 -28.831  -4.397  1.00  0.00     0.000 C 
BRANCH   8   9
ATOM      9  C   UNL     1     -46.059 -28.546  -5.473  1.00  0.00     0.000 C 
BRANCH   9  10
ATOM     10  C   UNL     1     -46.438 -29.072  -6.875  1.00  0.00     0.006 C 
BRANCH  10  11
ATOM     11  C   UNL     1     -45.983 -28.131  -7.997  1.00  0.00     0.053 C 
BRANCH  11  12
ATOM     12  C   UNL     1     -44.491 -28.135  -8.109  1.00  0.00     0.041 C 
ATOM     13  O   UNL     1     -43.790 -27.537  -7.251  1.00  0.00    -0.550 OA
ATOM     14  O   UNL     1     -43.872 -28.840  -9.133  1.00  0.00    -0.550 OA
ENDBRANCH  11  12
ENDBRANCH  10  11
ENDBRANCH   9  10
ENDBRANCH   8   9
ENDBRANCH   7   8
ENDBRANCH   6   7
ENDBRANCH   5   6
ENDBRANCH   4   5
ENDBRANCH   3   4
ENDBRANCH   2   3
ENDBRANCH   1   2
BRANCH   1  15
ATOM     15  C   UNL     1     -44.013 -26.517  -0.259  1.00  0.00     0.000 C 
BRANCH  15  16
ATOM     16  C   UNL     1     -44.721 -26.684   1.090  1.00  0.00     0.000 C 
BRANCH  16  17
ATOM     17  C   UNL     1     -46.226 -26.926   0.896  1.00  0.00     0.000 C 
BRANCH  17  18
ATOM     18  C   UNL     1     -46.694 -28.251   1.517  1.00  0.00    -0.000 C 
BRANCH  18  19
ATOM     19  C   UNL     1     -47.023 -28.122   3.014  1.00  0.00    -0.000 C 
BRANCH  19  20
ATOM     20  C   UNL     1     -46.102 -28.994   3.896  1.00  0.00    -0.000 C 
BRANCH  20  21
ATOM     21  C   UNL     1     -46.848 -29.745   5.015  1.00  0.00    -0.000 C 
BRANCH  21  22
ATOM     22  C   UNL     1     -46.675 -29.145   6.423  1.00  0.00    -0.000 C 
BRANCH  22  23
ATOM     23  C   UNL     1     -45.333 -28.424   6.664  1.00  0.00    -0.000 C 
BRANCH  23  24
ATOM     24  C   UNL     1     -45.448 -26.933   7.039  1.00  0.00    -0.000 C 
BRANCH  24  25
ATOM     25  C   UNL     1     -46.869 -26.461   7.392  1.00  0.00    -0.003 C 
ATOM     26  C   UNL     1     -46.880 -25.230   8.297  1.00  0.00     0.004 C 
ENDBRANCH  24  25
ENDBRANCH  23  24
ENDBRANCH  22  23
ENDBRANCH  21  22
ENDBRANCH  20  21
ENDBRANCH  19  20
ENDBRANCH  18  19
ENDBRANCH  17  18
ENDBRANCH  16  17
ENDBRANCH  15  16
ENDBRANCH   1  15
TORSDOF 22
ENDMDL
MODEL 7
REMARK VINA RESULT:    -2.226      1.613      3.028
REMARK INTER + INTRA:          -6.978
REMARK INTER:                  -5.865
REMARK INTRA:                  -1.112
REMARK UNBOUND:                -1.888
REMARK SMILES CCCCCCCCCCCCCCCCCCCCCCCC(=O)[O-]
REMARK SMILES IDX 13 1 14 2 15 3 16 4 17 5 18 6 19 7 20 8 21 9 22 10 23 11
REMARK SMILES IDX 24 12 25 13 26 14 12 15 11 16 10 17 9 18 8 19 7 20 6 21 5 22
REMARK SMILES IDX 4 23 3 24 2 25 1 26
REMARK H PARENT
REMARK Flexibility Score: inf
ROOT
ATOM      1  C   UNL     1     -41.577 -29.799  -0.117  1.00  0.00     0.000 C 
ENDROOT
BRANCH   1   2
ATOM      2  C   UNL     1     -43.079 -30.123  -0.146  1.00  0.00     0.000 C 
BRANCH   2   3
ATOM      3  C   UNL     1     -43.738 -29.993   1.239  1.00  0.00     0.000 C 
BRANCH   3   4
ATOM      4  C   UNL     1     -45.280 -30.064   1.170  1.00  0.00     0.000 C 
BRANCH   4   5
ATOM      5  C   UNL     1     -45.944 -28.735   0.761  1.00  0.00     0.000 C 
BRANCH   5   6
ATOM      6  C   UNL     1     -46.940 -28.162   1.788  1.00  0.00     0.000 C 
BRANCH   6   7
ATOM      7  C   UNL     1     -46.362 -27.919   3.198  1.00  0.00     0.000 C 
BRANCH   7   8
ATOM      8  C   UNL     1     -46.540 -29.085   4.187  1.00  0.00     0.000 C 
BRANCH   8   9
ATOM      9  C   UNL     1     -45.801 -28.917   5.528  1.00  0.00     0.000 C 
BRANCH   9  10
ATOM     10  C   UNL     1     -45.739 -27.455   6.022  1.00  0.00     0.006 C 
BRANCH  10  11
ATOM     11  C   UNL     1     -46.109 -27.320   7.504  1.00  0.00     0.053 C 
BRANCH  11  12
ATOM     12  C   UNL     1     -46.686 -25.968   7.778  1.00  0.00     0.041 C 
ATOM     13  O   UNL     1     -46.983 -25.200   6.825  1.00  0.00    -0.550 OA
ATOM     14  O   UNL     1     -46.943 -25.573   9.085  1.00  0.00    -0.550 OA
ENDBRANCH  11  12
ENDBRANCH  10  11
ENDBRANCH   9  10
ENDBRANCH   8   9
ENDBRANCH   7   8
ENDBRANCH   6   7
ENDBRANCH   5   6
ENDBRANCH   4   5
ENDBRANCH   3   4
ENDBRANCH   2   3
ENDBRANCH   1   2
BRANCH   1  15
ATOM     15  C   UNL     1     -41.300 -28.309   0.133  1.00  0.00     0.000 C 
BRANCH  15  16
ATOM     16  C   UNL     1     -42.523 -27.456  -0.225  1.00  0.00     0.000 C 
BRANCH  16  17
ATOM     17  C   UNL     1     -42.678 -27.327  -1.747  1.00  0.00     0.000 C 
BRANCH  17  18
ATOM     18  C   UNL     1     -44.018 -26.695  -2.153  1.00  0.00    -0.000 C 
BRANCH  18  19
ATOM     19  C   UNL     1     -45.211 -27.642  -1.936  1.00  0.00    -0.000 C 
BRANCH  19  20
ATOM     20  C   UNL     1     -45.285 -28.750  -3.009  1.00  0.00    -0.000 C 
BRANCH  20  21
ATOM     21  C   UNL     1     -46.176 -28.386  -4.213  1.00  0.00    -0.000 C 
BRANCH  21  22
ATOM     22  C   UNL     1     -45.494 -27.508  -5.278  1.00  0.00    -0.000 C 
BRANCH  22  23
ATOM     23  C   UNL     1     -45.217 -28.211  -6.622  1.00  0.00    -0.000 C 
BRANCH  23  24
ATOM     24  C   UNL     1     -44.187 -27.509  -7.530  1.00  0.00    -0.000 C 
BRANCH  24  25
ATOM     25  C   UNL     1     -43.019 -28.396  -7.994  1.00  0.00    -0.003 C 
ATOM     26  C   UNL     1     -43.105 -29.823  -7.454  1.00  0.00     0.004 C 
ENDBRANCH  24  25
ENDBRANCH  23  24
ENDBRANCH  22  23
ENDBRANCH  21  22
ENDBRANCH  20  21
ENDBRANCH  19  20
ENDBRANCH  18  19
ENDBRANCH  17  18
ENDBRANCH  16  17
ENDBRANCH  15  16
ENDBRANCH   1  15
TORSDOF 22
ENDMDL
MODEL 8
REMARK VINA RESULT:    -2.121      1.391      2.422
REMARK INTER + INTRA:          -6.736
REMARK INTER:                  -5.013
REMARK INTRA:                  -1.722
REMARK UNBOUND:                -1.888
REMARK SMILES CCCCCCCCCCCCCCCCCCCCCCCC(=O)[O-]
REMARK SMILES IDX 13 1 14 2 15 3 16 4 17 5 18 6 19 7 20 8 21 9 22 10 23 11
REMARK SMILES IDX 24 12 25 13 26 14 12 15 11 16 10 17 9 18 8 19 7 20 6 21 5 22
REMARK SMILES IDX 4 23 3 24 2 25 1 26
REMARK H PARENT
REMARK Flexibility Score: inf
ROOT
ATOM      1  C   UNL     1     -43.215 -27.015  -1.355  1.00  0.00     0.000 C 
ENDROOT
BRANCH   1   2
ATOM      2  C   UNL     1     -42.385 -28.279  -1.080  1.00  0.00     0.000 C 
BRANCH   2   3
ATOM      3  C   UNL     1     -42.527 -28.775   0.370  1.00  0.00     0.000 C 
BRANCH   3   4
ATOM      4  C   UNL     1     -43.395 -30.047   0.479  1.00  0.00     0.000 C 
BRANCH   4   5
ATOM      5  C   UNL     1     -44.880 -29.816   0.141  1.00  0.00     0.000 C 
BRANCH   5   6
ATOM      6  C   UNL     1     -45.863 -30.125   1.285  1.00  0.00     0.000 C 
BRANCH   6   7
ATOM      7  C   UNL     1     -47.044 -29.139   1.421  1.00  0.00     0.000 C 
BRANCH   7   8
ATOM      8  C   UNL     1     -46.769 -27.716   0.901  1.00  0.00     0.000 C 
BRANCH   8   9
ATOM      9  C   UNL     1     -45.574 -27.004   1.562  1.00  0.00     0.000 C 
BRANCH   9  10
ATOM     10  C   UNL     1     -45.982 -26.013   2.675  1.00  0.00     0.006 C 
BRANCH  10  11
ATOM     11  C   UNL     1     -46.901 -26.654   3.723  1.00  0.00     0.053 C 
BRANCH  11  12
ATOM     12  C   UNL     1     -46.098 -27.184   4.868  1.00  0.00     0.041 C 
ATOM     13  O   UNL     1     -45.798 -28.406   4.921  1.00  0.00    -0.550 OA
ATOM     14  O   UNL     1     -45.637 -26.320   5.853  1.00  0.00    -0.550 OA
ENDBRANCH  11  12
ENDBRANCH  10  11
ENDBRANCH   9  10
ENDBRANCH   8   9
ENDBRANCH   7   8
ENDBRANCH   6   7
ENDBRANCH   5   6
ENDBRANCH   4   5
ENDBRANCH   3   4
ENDBRANCH   2   3
ENDBRANCH   1   2
BRANCH   1  15
ATOM     15  C   UNL     1     -44.143 -27.171  -2.569  1.00  0.00     0.000 C 
BRANCH  15  16
ATOM     16  C   UNL     1     -45.259 -28.182  -2.279  1.00  0.00     0.000 C 
BRANCH  16  17
ATOM     17  C   UNL     1     -46.321 -28.164  -3.389  1.00  0.00     0.000 C 
BRANCH  17  18
ATOM     18  C   UNL     1     -46.233 -29.390  -4.311  1.00  0.00    -0.000 C 
BRANCH  18  19
ATOM     19  C   UNL     1     -46.151 -29.009  -5.799  1.00  0.00    -0.000 C 
BRANCH  19  20
ATOM     20  C   UNL     1     -46.859 -30.036  -6.710  1.00  0.00    -0.000 C 
BRANCH  20  21
ATOM     21  C   UNL     1     -46.815 -29.670  -8.205  1.00  0.00    -0.000 C 
BRANCH  21  22
ATOM     22  C   UNL     1     -46.571 -28.178  -8.499  1.00  0.00    -0.000 C 
BRANCH  22  23
ATOM     23  C   UNL     1     -45.704 -27.892  -9.742  1.00  0.00    -0.000 C 
BRANCH  23  24
ATOM     24  C   UNL     1     -44.199 -27.705  -9.462  1.00  0.00    -0.000 C 
BRANCH  24  25
ATOM     25  C   UNL     1     -43.395 -29.011  -9.343  1.00  0.00    -0.003 C 
ATOM     26  C   UNL     1     -43.154 -29.432  -7.895  1.00  0.00     0.004 C 
ENDBRANCH  24  25
ENDBRANCH  23  24
ENDBRANCH  22  23
ENDBRANCH  21  22
ENDBRANCH  20  21
ENDBRANCH  19  20
ENDBRANCH  18  19
ENDBRANCH  17  18
ENDBRANCH  16  17
ENDBRANCH  15  16
ENDBRANCH   1  15
TORSDOF 22
ENDMDL
MODEL 9
REMARK VINA RESULT:    -2.121      1.362      2.199
REMARK INTER + INTRA:          -6.736
REMARK INTER:                  -6.241
REMARK INTRA:                  -0.495
REMARK UNBOUND:                -1.888
REMARK SMILES CCCCCCCCCCCCCCCCCCCCCCCC(=O)[O-]
REMARK SMILES IDX 13 1 14 2 15 3 16 4 17 5 18 6 19 7 20 8 21 9 22 10 23 11
REMARK SMILES IDX 24 12 25 13 26 14 12 15 11 16 10 17 9 18 8 19 7 20 6 21 5 22
REMARK SMILES IDX 4 23 3 24 2 25 1 26
REMARK H PARENT
REMARK Flexibility Score: inf
ROOT
ATOM      1  C   UNL     1     -43.514 -30.114  -1.443  1.00  0.00     0.000 C 
ENDROOT
BRANCH   1   2
ATOM      2  C   UNL     1     -42.605 -29.619  -0.307  1.00  0.00     0.000 C 
BRANCH   2   3
ATOM      3  C   UNL     1     -42.560 -28.083  -0.213  1.00  0.00     0.000 C 
BRANCH   3   4
ATOM      4  C   UNL     1     -43.669 -27.512   0.698  1.00  0.00     0.000 C 
BRANCH   4   5
ATOM      5  C   UNL     1     -44.727 -26.685  -0.056  1.00  0.00     0.000 C 
BRANCH   5   6
ATOM      6  C   UNL     1     -46.157 -27.256  -0.004  1.00  0.00     0.000 C 
BRANCH   6   7
ATOM      7  C   UNL     1     -46.841 -27.188   1.378  1.00  0.00     0.000 C 
BRANCH   7   8
ATOM      8  C   UNL     1     -46.369 -28.245   2.392  1.00  0.00     0.000 C 
BRANCH   8   9
ATOM      9  C   UNL     1     -46.904 -28.054   3.824  1.00  0.00     0.000 C 
BRANCH   9  10
ATOM     10  C   UNL     1     -46.146 -26.975   4.629  1.00  0.00     0.006 C 
BRANCH  10  11
ATOM     11  C   UNL     1     -47.015 -26.340   5.722  1.00  0.00     0.053 C 
BRANCH  11  12
ATOM     12  C   UNL     1     -46.448 -26.629   7.075  1.00  0.00     0.041 C 
ATOM     13  O   UNL     1     -46.147 -27.808   7.398  1.00  0.00    -0.550 OA
ATOM     14  O   UNL     1     -46.203 -25.589   7.963  1.00  0.00    -0.550 OA
ENDBRANCH  11  12
ENDBRANCH  10  11
ENDBRANCH   9  10
ENDBRANCH   8   9
ENDBRANCH   7   8
ENDBRANCH   6   7
ENDBRANCH   5   6
ENDBRANCH   4   5
ENDBRANCH   3   4
ENDBRANCH   2   3
ENDBRANCH   1   2
BRANCH   1  15
ATOM     15  C   UNL     1     -44.951 -29.583  -1.322  1.00  0.00     0.000 C 
BRANCH  15  16
ATOM     16  C   UNL     1     -45.831 -30.124  -2.455  1.00  0.00     0.000 C 
BRANCH  16  17
ATOM     17  C   UNL     1     -45.744 -29.225  -3.698  1.00  0.00     0.000 C 
BRANCH  17  18
ATOM     18  C   UNL     1     -46.993 -29.325  -4.587  1.00  0.00    -0.000 C 
BRANCH  18  19
ATOM     19  C   UNL     1     -46.650 -29.429  -6.083  1.00  0.00    -0.000 C 
BRANCH  19  20
ATOM     20  C   UNL     1     -45.150 -29.183  -6.361  1.00  0.00    -0.000 C 
BRANCH  20  21
ATOM     21  C   UNL     1     -44.814 -27.715  -6.682  1.00  0.00    -0.000 C 
BRANCH  21  22
ATOM     22  C   UNL     1     -43.593 -27.517  -7.600  1.00  0.00    -0.000 C 
BRANCH  22  23
ATOM     23  C   UNL     1     -43.371 -28.635  -8.639  1.00  0.00    -0.000 C 
BRANCH  23  24
ATOM     24  C   UNL     1     -43.945 -28.350 -10.041  1.00  0.00    -0.000 C 
BRANCH  24  25
ATOM     25  C   UNL     1     -45.381 -27.799 -10.056  1.00  0.00    -0.003 C 
ATOM     26  C   UNL     1     -46.440 -28.896  -9.964  1.00  0.00     0.004 C 
ENDBRANCH  24  25
ENDBRANCH  23  24
ENDBRANCH  22  23
ENDBRANCH  21  22
ENDBRANCH  20  21
ENDBRANCH  19  20
ENDBRANCH  18  19
ENDBRANCH  17  18
ENDBRANCH  16  17
ENDBRANCH  15  16
ENDBRANCH   1  15
TORSDOF 22
ENDMDL
