MODEL 1
REMARK VINA RESULT:    -5.673      0.000      0.000
REMARK INTER + INTRA:          -6.989
REMARK INTER:                  -6.668
REMARK INTRA:                  -0.321
REMARK UNBOUND:                -0.321
REMARK SMILES O=c1c(O)c(-c2ccc(O)c(O)c2)oc2cc(O)ccc12
REMARK SMILES IDX 5 1 3 2 2 3 1 4 21 5 15 6 14 7 16 8 17 9 19 10 20 11 6 12
REMARK SMILES IDX 7 13 8 14 9 15 13 16 11 17 10 18 12 20 4 22 18 24
REMARK H PARENT 10 19 12 21 4 23 18 25
REMARK Flexibility Score: inf
ROOT
ATOM      1  C   UNL     1     -39.621  31.610  14.762  1.00  0.00     0.180 A 
ATOM      2  C   UNL     1     -38.336  32.109  14.465  1.00  0.00     0.208 A 
ATOM      3  C   UNL     1     -37.238  31.237  14.534  1.00  0.00     0.235 A 
ATOM      4  O   UNL     1     -36.079  31.657  14.263  1.00  0.00    -0.285 OA
ATOM      5  C   UNL     1     -37.441  29.901  14.916  1.00  0.00     0.069 A 
ATOM      6  C   UNL     1     -38.755  29.484  15.220  1.00  0.00     0.142 A 
ATOM      7  O   UNL     1     -39.767  30.340  15.134  1.00  0.00    -0.452 OA
ATOM      8  C   UNL     1     -38.996  28.164  15.614  1.00  0.00     0.094 A 
ATOM      9  C   UNL     1     -37.938  27.250  15.706  1.00  0.00     0.119 A 
ATOM     10  C   UNL     1     -36.635  27.660  15.403  1.00  0.00     0.047 A 
ATOM     11  C   UNL     1     -36.383  28.978  15.010  1.00  0.00     0.020 A 
ENDROOT
BRANCH   1  12
ATOM     12  C   UNL     1     -40.830  32.460  14.693  1.00  0.00     0.025 A 
ATOM     13  C   UNL     1     -41.247  33.163  15.835  1.00  0.00     0.016 A 
ATOM     14  C   UNL     1     -42.396  33.955  15.798  1.00  0.00     0.051 A 
ATOM     15  C   UNL     1     -43.154  34.045  14.624  1.00  0.00     0.157 A 
ATOM     16  C   UNL     1     -41.606  32.538  13.521  1.00  0.00     0.062 A 
ATOM     17  C   UNL     1     -42.761  33.332  13.485  1.00  0.00     0.158 A 
BRANCH  15  18
ATOM     18  O   UNL     1     -44.301  34.837  14.583  1.00  0.00    -0.504 OA
ATOM     19  H   UNL     1     -45.180  34.517  14.972  1.00  0.00     0.293 HD
ENDBRANCH  15  18
BRANCH  17  20
ATOM     20  O   UNL     1     -43.525  33.413  12.322  1.00  0.00    -0.504 OA
ATOM     21  H   UNL     1     -43.150  33.812  11.469  1.00  0.00     0.293 HD
ENDBRANCH  17  20
ENDBRANCH   1  12
BRANCH   2  22
ATOM     22  O   UNL     1     -38.158  33.455  14.136  1.00  0.00    -0.502 OA
ATOM     23  H   UNL     1     -38.518  33.855  13.277  1.00  0.00     0.293 HD
ENDBRANCH   2  22
BRANCH   9  24
ATOM     24  O   UNL     1     -38.169  25.933  16.095  1.00  0.00    -0.508 OA
ATOM     25  H   UNL     1     -37.406  25.280  16.236  1.00  0.00     0.293 HD
ENDBRANCH   9  24
TORSDOF 5
ENDMDL
MODEL 2
REMARK VINA RESULT:    -5.069      1.571      6.686
REMARK INTER + INTRA:          -6.279
REMARK INTER:                  -5.987
REMARK INTRA:                  -0.291
REMARK UNBOUND:                -0.321
REMARK SMILES O=c1c(O)c(-c2ccc(O)c(O)c2)oc2cc(O)ccc12
REMARK SMILES IDX 5 1 3 2 2 3 1 4 21 5 15 6 14 7 16 8 17 9 19 10 20 11 6 12
REMARK SMILES IDX 7 13 8 14 9 15 13 16 11 17 10 18 12 20 4 22 18 24
REMARK H PARENT 10 19 12 21 4 23 18 25
REMARK Flexibility Score: inf
ROOT
ATOM      1  C   UNL     1     -38.559  31.369  14.869  1.00  0.00     0.180 A 
ATOM      2  C   UNL     1     -38.102  32.570  15.451  1.00  0.00     0.208 A 
ATOM      3  C   UNL     1     -38.884  33.728  15.314  1.00  0.00     0.235 A 
ATOM      4  O   UNL     1     -38.502  34.812  15.834  1.00  0.00    -0.285 OA
ATOM      5  C   UNL     1     -40.084  33.669  14.588  1.00  0.00     0.069 A 
ATOM      6  C   UNL     1     -40.461  32.434  14.016  1.00  0.00     0.142 A 
ATOM      7  O   UNL     1     -39.696  31.360  14.177  1.00  0.00    -0.452 OA
ATOM      8  C   UNL     1     -41.645  32.337  13.278  1.00  0.00     0.094 A 
ATOM      9  C   UNL     1     -42.462  33.462  13.103  1.00  0.00     0.119 A 
ATOM     10  C   UNL     1     -42.092  34.686  13.670  1.00  0.00     0.047 A 
ATOM     11  C   UNL     1     -40.910  34.794  14.410  1.00  0.00     0.020 A 
ENDROOT
BRANCH   1  12
ATOM     12  C   UNL     1     -37.804  30.102  14.986  1.00  0.00     0.025 A 
ATOM     13  C   UNL     1     -38.155  29.177  15.983  1.00  0.00     0.016 A 
ATOM     14  C   UNL     1     -37.442  27.984  16.124  1.00  0.00     0.051 A 
ATOM     15  C   UNL     1     -36.359  27.705  15.281  1.00  0.00     0.157 A 
ATOM     16  C   UNL     1     -36.702  29.826  14.155  1.00  0.00     0.062 A 
ATOM     17  C   UNL     1     -35.985  28.629  14.298  1.00  0.00     0.158 A 
BRANCH  15  18
ATOM     18  O   UNL     1     -35.647  26.514  15.418  1.00  0.00    -0.504 OA
ATOM     19  H   UNL     1     -34.634  26.494  15.379  1.00  0.00     0.293 HD
ENDBRANCH  15  18
BRANCH  17  20
ATOM     20  O   UNL     1     -34.899  28.354  13.470  1.00  0.00    -0.504 OA
ATOM     21  H   UNL     1     -33.976  28.727  13.664  1.00  0.00     0.293 HD
ENDBRANCH  17  20
ENDBRANCH   1  12
BRANCH   2  22
ATOM     22  O   UNL     1     -36.879  32.609  16.125  1.00  0.00    -0.502 OA
ATOM     23  H   UNL     1     -36.000  32.754  15.643  1.00  0.00     0.293 HD
ENDBRANCH   2  22
BRANCH   9  24
ATOM     24  O   UNL     1     -43.643  33.375  12.371  1.00  0.00    -0.508 OA
ATOM     25  H   UNL     1     -43.635  33.225  11.368  1.00  0.00     0.293 HD
ENDBRANCH   9  24
TORSDOF 5
ENDMDL
MODEL 3
REMARK VINA RESULT:    -5.043      1.914      2.883
REMARK INTER + INTRA:          -6.249
REMARK INTER:                  -6.050
REMARK INTRA:                  -0.199
REMARK UNBOUND:                -0.321
REMARK SMILES O=c1c(O)c(-c2ccc(O)c(O)c2)oc2cc(O)ccc12
REMARK SMILES IDX 5 1 3 2 2 3 1 4 21 5 15 6 14 7 16 8 17 9 19 10 20 11 6 12
REMARK SMILES IDX 7 13 8 14 9 15 13 16 11 17 10 18 12 20 4 22 18 24
REMARK H PARENT 10 19 12 21 4 23 18 25
REMARK Flexibility Score: inf
ROOT
ATOM      1  C   UNL     1     -39.505  31.414  13.901  1.00  0.00     0.180 A 
ATOM      2  C   UNL     1     -39.343  30.621  15.056  1.00  0.00     0.208 A 
ATOM      3  C   UNL     1     -38.289  29.695  15.099  1.00  0.00     0.235 A 
ATOM      4  O   UNL     1     -38.117  28.981  16.125  1.00  0.00    -0.285 OA
ATOM      5  C   UNL     1     -37.438  29.566  13.990  1.00  0.00     0.069 A 
ATOM      6  C   UNL     1     -37.681  30.380  12.862  1.00  0.00     0.142 A 
ATOM      7  O   UNL     1     -38.684  31.250  12.866  1.00  0.00    -0.452 OA
ATOM      8  C   UNL     1     -36.861  30.274  11.733  1.00  0.00     0.094 A 
ATOM      9  C   UNL     1     -35.797  29.363  11.717  1.00  0.00     0.119 A 
ATOM     10  C   UNL     1     -35.553  28.556  12.834  1.00  0.00     0.047 A 
ATOM     11  C   UNL     1     -36.368  28.654  13.966  1.00  0.00     0.020 A 
ENDROOT
BRANCH   1  12
ATOM     12  C   UNL     1     -40.579  32.426  13.787  1.00  0.00     0.025 A 
ATOM     13  C   UNL     1     -40.536  33.574  14.595  1.00  0.00     0.016 A 
ATOM     14  C   UNL     1     -41.549  34.532  14.518  1.00  0.00     0.051 A 
ATOM     15  C   UNL     1     -42.628  34.350  13.644  1.00  0.00     0.157 A 
ATOM     16  C   UNL     1     -41.675  32.238  12.924  1.00  0.00     0.062 A 
ATOM     17  C   UNL     1     -42.693  33.199  12.849  1.00  0.00     0.158 A 
BRANCH  15  18
ATOM     18  O   UNL     1     -43.640  35.305  13.563  1.00  0.00    -0.504 OA
ATOM     19  H   UNL     1     -43.856  35.916  14.342  1.00  0.00     0.293 HD
ENDBRANCH  15  18
BRANCH  17  20
ATOM     20  O   UNL     1     -43.775  33.015  11.989  1.00  0.00    -0.504 OA
ATOM     21  H   UNL     1     -43.682  33.135  10.987  1.00  0.00     0.293 HD
ENDBRANCH  17  20
ENDBRANCH   1  12
BRANCH   2  22
ATOM     22  O   UNL     1     -40.236  30.737  16.124  1.00  0.00    -0.502 OA
ATOM     23  H   UNL     1     -41.065  31.319  16.077  1.00  0.00     0.293 HD
ENDBRANCH   2  22
BRANCH   9  24
ATOM     24  O   UNL     1     -34.974  29.251  10.598  1.00  0.00    -0.508 OA
ATOM     25  H   UNL     1     -34.000  29.528  10.628  1.00  0.00     0.293 HD
ENDBRANCH   9  24
TORSDOF 5
ENDMDL
MODEL 4
REMARK VINA RESULT:    -4.609      1.718      6.928
REMARK INTER + INTRA:          -5.738
REMARK INTER:                  -5.580
REMARK INTRA:                  -0.159
REMARK UNBOUND:                -0.321
REMARK SMILES O=c1c(O)c(-c2ccc(O)c(O)c2)oc2cc(O)ccc12
REMARK SMILES IDX 5 1 3 2 2 3 1 4 21 5 15 6 14 7 16 8 17 9 19 10 20 11 6 12
REMARK SMILES IDX 7 13 8 14 9 15 13 16 11 17 10 18 12 20 4 22 18 24
REMARK H PARENT 10 19 12 21 4 23 18 25
REMARK Flexibility Score: inf
ROOT
ATOM      1  C   UNL     1     -39.480  30.985  14.259  1.00  0.00     0.180 A 
ATOM      2  C   UNL     1     -40.429  30.877  13.221  1.00  0.00     0.208 A 
ATOM      3  C   UNL     1     -41.261  31.974  12.948  1.00  0.00     0.235 A 
ATOM      4  O   UNL     1     -42.111  31.906  12.018  1.00  0.00    -0.285 OA
ATOM      5  C   UNL     1     -41.143  33.140  13.722  1.00  0.00     0.069 A 
ATOM      6  C   UNL     1     -40.184  33.160  14.758  1.00  0.00     0.142 A 
ATOM      7  O   UNL     1     -39.411  32.103  14.978  1.00  0.00    -0.452 OA
ATOM      8  C   UNL     1     -40.043  34.300  15.558  1.00  0.00     0.094 A 
ATOM      9  C   UNL     1     -40.850  35.423  15.335  1.00  0.00     0.119 A 
ATOM     10  C   UNL     1     -41.800  35.405  14.308  1.00  0.00     0.047 A 
ATOM     11  C   UNL     1     -41.949  34.271  13.503  1.00  0.00     0.020 A 
ENDROOT
BRANCH   1  12
ATOM     12  C   UNL     1     -38.555  29.881  14.595  1.00  0.00     0.025 A 
ATOM     13  C   UNL     1     -37.179  30.036  14.359  1.00  0.00     0.016 A 
ATOM     14  C   UNL     1     -36.289  28.998  14.650  1.00  0.00     0.051 A 
ATOM     15  C   UNL     1     -36.763  27.786  15.167  1.00  0.00     0.157 A 
ATOM     16  C   UNL     1     -39.028  28.653  15.096  1.00  0.00     0.062 A 
ATOM     17  C   UNL     1     -38.135  27.612  15.387  1.00  0.00     0.158 A 
BRANCH  15  18
ATOM     18  O   UNL     1     -35.878  26.750  15.461  1.00  0.00    -0.504 OA
ATOM     19  H   UNL     1     -35.877  25.887  14.929  1.00  0.00     0.293 HD
ENDBRANCH  15  18
BRANCH  17  20
ATOM     20  O   UNL     1     -38.605  26.400  15.890  1.00  0.00    -0.504 OA
ATOM     21  H   UNL     1     -39.476  26.342  16.404  1.00  0.00     0.293 HD
ENDBRANCH  17  20
ENDBRANCH   1  12
BRANCH   2  22
ATOM     22  O   UNL     1     -40.557  29.687  12.501  1.00  0.00    -0.502 OA
ATOM     23  H   UNL     1     -40.970  29.656  11.575  1.00  0.00     0.293 HD
ENDBRANCH   2  22
BRANCH   9  24
ATOM     24  O   UNL     1     -40.716  36.562  16.125  1.00  0.00    -0.508 OA
ATOM     25  H   UNL     1     -41.471  37.231  16.222  1.00  0.00     0.293 HD
ENDBRANCH   9  24
TORSDOF 5
ENDMDL
MODEL 5
REMARK VINA RESULT:    -4.550     14.164     16.696
REMARK INTER + INTRA:          -5.669
REMARK INTER:                  -5.346
REMARK INTRA:                  -0.324
REMARK UNBOUND:                -0.321
REMARK SMILES O=c1c(O)c(-c2ccc(O)c(O)c2)oc2cc(O)ccc12
REMARK SMILES IDX 5 1 3 2 2 3 1 4 21 5 15 6 14 7 16 8 17 9 19 10 20 11 6 12
REMARK SMILES IDX 7 13 8 14 9 15 13 16 11 17 10 18 12 20 4 22 18 24
REMARK H PARENT 10 19 12 21 4 23 18 25
REMARK Flexibility Score: inf
ROOT
ATOM      1  C   UNL     1     -48.569  32.376   2.623  1.00  0.00     0.180 A 
ATOM      2  C   UNL     1     -47.706  33.160   3.417  1.00  0.00     0.208 A 
ATOM      3  C   UNL     1     -48.096  34.466   3.752  1.00  0.00     0.235 A 
ATOM      4  O   UNL     1     -47.346  35.184   4.470  1.00  0.00    -0.285 OA
ATOM      5  C   UNL     1     -49.318  34.966   3.276  1.00  0.00     0.069 A 
ATOM      6  C   UNL     1     -50.115  34.126   2.467  1.00  0.00     0.142 A 
ATOM      7  O   UNL     1     -49.713  32.893   2.181  1.00  0.00    -0.452 OA
ATOM      8  C   UNL     1     -51.335  34.591   1.966  1.00  0.00     0.094 A 
ATOM      9  C   UNL     1     -51.773  35.889   2.263  1.00  0.00     0.119 A 
ATOM     10  C   UNL     1     -50.986  36.721   3.066  1.00  0.00     0.047 A 
ATOM     11  C   UNL     1     -49.764  36.267   3.571  1.00  0.00     0.020 A 
ENDROOT
BRANCH   1  12
ATOM     12  C   UNL     1     -48.239  30.984   2.243  1.00  0.00     0.025 A 
ATOM     13  C   UNL     1     -47.578  30.738   1.029  1.00  0.00     0.016 A 
ATOM     14  C   UNL     1     -47.275  29.431   0.641  1.00  0.00     0.051 A 
ATOM     15  C   UNL     1     -47.642  28.350   1.453  1.00  0.00     0.157 A 
ATOM     16  C   UNL     1     -48.624  29.894   3.046  1.00  0.00     0.062 A 
ATOM     17  C   UNL     1     -48.321  28.582   2.655  1.00  0.00     0.158 A 
BRANCH  15  18
ATOM     18  O   UNL     1     -47.339  27.044   1.069  1.00  0.00    -0.504 OA
ATOM     19  H   UNL     1     -46.790  26.432   1.661  1.00  0.00     0.293 HD
ENDBRANCH  15  18
BRANCH  17  20
ATOM     20  O   UNL     1     -48.697  27.503   3.454  1.00  0.00    -0.504 OA
ATOM     21  H   UNL     1     -48.249  27.322   4.345  1.00  0.00     0.293 HD
ENDBRANCH  17  20
ENDBRANCH   1  12
BRANCH   2  22
ATOM     22  O   UNL     1     -46.473  32.653   3.835  1.00  0.00    -0.502 OA
ATOM     23  H   UNL     1     -45.717  32.464   3.186  1.00  0.00     0.293 HD
ENDBRANCH   2  22
BRANCH   9  24
ATOM     24  O   UNL     1     -52.987  36.359   1.769  1.00  0.00    -0.508 OA
ATOM     25  H   UNL     1     -53.729  36.662   2.390  1.00  0.00     0.293 HD
ENDBRANCH   9  24
TORSDOF 5
ENDMDL
MODEL 6
REMARK VINA RESULT:    -4.517      3.158      7.904
REMARK INTER + INTRA:          -5.630
REMARK INTER:                  -5.354
REMARK INTRA:                  -0.275
REMARK UNBOUND:                -0.321
REMARK SMILES O=c1c(O)c(-c2ccc(O)c(O)c2)oc2cc(O)ccc12
REMARK SMILES IDX 5 1 3 2 2 3 1 4 21 5 15 6 14 7 16 8 17 9 19 10 20 11 6 12
REMARK SMILES IDX 7 13 8 14 9 15 13 16 11 17 10 18 12 20 4 22 18 24
REMARK H PARENT 10 19 12 21 4 23 18 25
REMARK Flexibility Score: inf
ROOT
ATOM      1  C   UNL     1     -42.399  34.778  14.491  1.00  0.00     0.180 A 
ATOM      2  C   UNL     1     -41.617  35.951  14.546  1.00  0.00     0.208 A 
ATOM      3  C   UNL     1     -42.227  37.153  14.939  1.00  0.00     0.235 A 
ATOM      4  O   UNL     1     -41.547  38.214  15.006  1.00  0.00    -0.285 OA
ATOM      5  C   UNL     1     -43.597  37.164  15.245  1.00  0.00     0.069 A 
ATOM      6  C   UNL     1     -44.316  35.953  15.143  1.00  0.00     0.142 A 
ATOM      7  O   UNL     1     -43.698  34.835  14.776  1.00  0.00    -0.452 OA
ATOM      8  C   UNL     1     -45.684  35.925  15.431  1.00  0.00     0.094 A 
ATOM      9  C   UNL     1     -46.348  37.096  15.822  1.00  0.00     0.119 A 
ATOM     10  C   UNL     1     -45.637  38.296  15.926  1.00  0.00     0.047 A 
ATOM     11  C   UNL     1     -44.269  38.335  15.640  1.00  0.00     0.020 A 
ENDROOT
BRANCH   1  12
ATOM     12  C   UNL     1     -41.826  33.470  14.105  1.00  0.00     0.025 A 
ATOM     13  C   UNL     1     -41.062  32.748  15.037  1.00  0.00     0.016 A 
ATOM     14  C   UNL     1     -40.495  31.520  14.688  1.00  0.00     0.051 A 
ATOM     15  C   UNL     1     -40.670  31.002  13.399  1.00  0.00     0.157 A 
ATOM     16  C   UNL     1     -41.983  32.955  12.804  1.00  0.00     0.062 A 
ATOM     17  C   UNL     1     -41.412  31.723  12.454  1.00  0.00     0.158 A 
BRANCH  15  18
ATOM     18  O   UNL     1     -40.107  29.776  13.048  1.00  0.00    -0.504 OA
ATOM     19  H   UNL     1     -40.110  29.446  12.090  1.00  0.00     0.293 HD
ENDBRANCH  15  18
BRANCH  17  20
ATOM     20  O   UNL     1     -41.573  31.211  11.168  1.00  0.00    -0.504 OA
ATOM     21  H   UNL     1     -40.810  31.206  10.500  1.00  0.00     0.293 HD
ENDBRANCH  17  20
ENDBRANCH   1  12
BRANCH   2  22
ATOM     22  O   UNL     1     -40.268  35.919  14.188  1.00  0.00    -0.502 OA
ATOM     23  H   UNL     1     -39.535  35.701  14.854  1.00  0.00     0.293 HD
ENDBRANCH   2  22
BRANCH   9  24
ATOM     24  O   UNL     1     -47.710  37.077  16.112  1.00  0.00    -0.508 OA
ATOM     25  H   UNL     1     -48.399  37.389  15.438  1.00  0.00     0.293 HD
ENDBRANCH   9  24
TORSDOF 5
ENDMDL
MODEL 7
REMARK VINA RESULT:    -4.514     14.308     16.032
REMARK INTER + INTRA:          -5.626
REMARK INTER:                  -5.380
REMARK INTRA:                  -0.246
REMARK UNBOUND:                -0.321
REMARK SMILES O=c1c(O)c(-c2ccc(O)c(O)c2)oc2cc(O)ccc12
REMARK SMILES IDX 5 1 3 2 2 3 1 4 21 5 15 6 14 7 16 8 17 9 19 10 20 11 6 12
REMARK SMILES IDX 7 13 8 14 9 15 13 16 11 17 10 18 12 20 4 22 18 24
REMARK H PARENT 10 19 12 21 4 23 18 25
REMARK Flexibility Score: inf
ROOT
ATOM      1  C   UNL     1     -48.643  32.300   2.595  1.00  0.00     0.180 A 
ATOM      2  C   UNL     1     -47.856  32.778   1.525  1.00  0.00     0.208 A 
ATOM      3  C   UNL     1     -47.380  34.098   1.573  1.00  0.00     0.235 A 
ATOM      4  O   UNL     1     -46.666  34.545   0.634  1.00  0.00    -0.285 OA
ATOM      5  C   UNL     1     -47.713  34.913   2.667  1.00  0.00     0.069 A 
ATOM      6  C   UNL     1     -48.524  34.368   3.685  1.00  0.00     0.142 A 
ATOM      7  O   UNL     1     -48.947  33.111   3.606  1.00  0.00    -0.452 OA
ATOM      8  C   UNL     1     -48.885  35.151   4.786  1.00  0.00     0.094 A 
ATOM      9  C   UNL     1     -48.444  36.477   4.885  1.00  0.00     0.119 A 
ATOM     10  C   UNL     1     -47.638  37.019   3.878  1.00  0.00     0.047 A 
ATOM     11  C   UNL     1     -47.272  36.244   2.772  1.00  0.00     0.020 A 
ENDROOT
BRANCH   1  12
ATOM     12  C   UNL     1     -49.166  30.917   2.628  1.00  0.00     0.025 A 
ATOM     13  C   UNL     1     -50.547  30.696   2.493  1.00  0.00     0.016 A 
ATOM     14  C   UNL     1     -51.065  29.400   2.542  1.00  0.00     0.051 A 
ATOM     15  C   UNL     1     -50.213  28.306   2.742  1.00  0.00     0.157 A 
ATOM     16  C   UNL     1     -48.317  29.816   2.848  1.00  0.00     0.062 A 
ATOM     17  C   UNL     1     -48.837  28.515   2.899  1.00  0.00     0.158 A 
BRANCH  15  18
ATOM     18  O   UNL     1     -50.726  27.011   2.789  1.00  0.00    -0.504 OA
ATOM     19  H   UNL     1     -50.559  26.403   3.582  1.00  0.00     0.293 HD
ENDBRANCH  15  18
BRANCH  17  20
ATOM     20  O   UNL     1     -47.994  27.426   3.111  1.00  0.00    -0.504 OA
ATOM     21  H   UNL     1     -48.344  26.548   3.477  1.00  0.00     0.293 HD
ENDBRANCH  17  20
ENDBRANCH   1  12
BRANCH   2  22
ATOM     22  O   UNL     1     -47.583  31.959   0.427  1.00  0.00    -0.502 OA
ATOM     23  H   UNL     1     -48.085  32.044  -0.450  1.00  0.00     0.293 HD
ENDBRANCH   2  22
BRANCH   9  24
ATOM     24  O   UNL     1     -48.797  37.264   5.978  1.00  0.00    -0.508 OA
ATOM     25  H   UNL     1     -48.868  36.873   6.911  1.00  0.00     0.293 HD
ENDBRANCH   9  24
TORSDOF 5
ENDMDL
MODEL 8
REMARK VINA RESULT:    -4.449     14.004     15.380
REMARK INTER + INTRA:          -5.550
REMARK INTER:                  -5.287
REMARK INTRA:                  -0.263
REMARK UNBOUND:                -0.321
REMARK SMILES O=c1c(O)c(-c2ccc(O)c(O)c2)oc2cc(O)ccc12
REMARK SMILES IDX 5 1 3 2 2 3 1 4 21 5 15 6 14 7 16 8 17 9 19 10 20 11 6 12
REMARK SMILES IDX 7 13 8 14 9 15 13 16 11 17 10 18 12 20 4 22 18 24
REMARK H PARENT 10 19 12 21 4 23 18 25
REMARK Flexibility Score: inf
ROOT
ATOM      1  C   UNL     1     -48.174  31.281   2.123  1.00  0.00     0.180 A 
ATOM      2  C   UNL     1     -47.512  31.265   0.877  1.00  0.00     0.208 A 
ATOM      3  C   UNL     1     -47.238  30.028   0.273  1.00  0.00     0.235 A 
ATOM      4  O   UNL     1     -46.657  29.987  -0.847  1.00  0.00    -0.285 OA
ATOM      5  C   UNL     1     -47.608  28.842   0.928  1.00  0.00     0.069 A 
ATOM      6  C   UNL     1     -48.245  28.943   2.184  1.00  0.00     0.142 A 
ATOM      7  O   UNL     1     -48.494  30.134   2.717  1.00  0.00    -0.452 OA
ATOM      8  C   UNL     1     -48.620  27.784   2.872  1.00  0.00     0.094 A 
ATOM      9  C   UNL     1     -48.367  26.521   2.320  1.00  0.00     0.119 A 
ATOM     10  C   UNL     1     -47.737  26.420   1.075  1.00  0.00     0.047 A 
ATOM     11  C   UNL     1     -47.358  27.572   0.379  1.00  0.00     0.020 A 
ENDROOT
BRANCH   1  12
ATOM     12  C   UNL     1     -48.515  32.544   2.815  1.00  0.00     0.025 A 
ATOM     13  C   UNL     1     -49.833  33.028   2.760  1.00  0.00     0.016 A 
ATOM     14  C   UNL     1     -50.173  34.228   3.388  1.00  0.00     0.051 A 
ATOM     15  C   UNL     1     -49.199  34.969   4.068  1.00  0.00     0.157 A 
ATOM     16  C   UNL     1     -47.535  33.303   3.482  1.00  0.00     0.062 A 
ATOM     17  C   UNL     1     -47.877  34.508   4.111  1.00  0.00     0.158 A 
BRANCH  15  18
ATOM     18  O   UNL     1     -49.535  36.166   4.698  1.00  0.00    -0.504 OA
ATOM     19  H   UNL     1     -49.259  36.358   5.655  1.00  0.00     0.293 HD
ENDBRANCH  15  18
BRANCH  17  20
ATOM     20  O   UNL     1     -46.907  35.256   4.778  1.00  0.00    -0.504 OA
ATOM     21  H   UNL     1     -46.270  34.827   5.440  1.00  0.00     0.293 HD
ENDBRANCH  17  20
ENDBRANCH   1  12
BRANCH   2  22
ATOM     22  O   UNL     1     -47.113  32.459   0.273  1.00  0.00    -0.502 OA
ATOM     23  H   UNL     1     -46.862  32.513  -0.708  1.00  0.00     0.293 HD
ENDBRANCH   2  22
BRANCH   9  24
ATOM     24  O   UNL     1     -48.738  25.363   2.997  1.00  0.00    -0.508 OA
ATOM     25  H   UNL     1     -49.515  24.791   2.683  1.00  0.00     0.293 HD
ENDBRANCH   9  24
TORSDOF 5
ENDMDL
MODEL 9
REMARK VINA RESULT:    -4.416     13.885     16.898
REMARK INTER + INTRA:          -5.511
REMARK INTER:                  -5.209
REMARK INTRA:                  -0.302
REMARK UNBOUND:                -0.321
REMARK SMILES O=c1c(O)c(-c2ccc(O)c(O)c2)oc2cc(O)ccc12
REMARK SMILES IDX 5 1 3 2 2 3 1 4 21 5 15 6 14 7 16 8 17 9 19 10 20 11 6 12
REMARK SMILES IDX 7 13 8 14 9 15 13 16 11 17 10 18 12 20 4 22 18 24
REMARK H PARENT 10 19 12 21 4 23 18 25
REMARK Flexibility Score: inf
ROOT
ATOM      1  C   UNL     1     -47.993  30.778   1.250  1.00  0.00     0.180 A 
ATOM      2  C   UNL     1     -49.392  30.691   1.415  1.00  0.00     0.208 A 
ATOM      3  C   UNL     1     -50.033  31.619   2.252  1.00  0.00     0.235 A 
ATOM      4  O   UNL     1     -51.284  31.569   2.408  1.00  0.00    -0.285 OA
ATOM      5  C   UNL     1     -49.270  32.592   2.917  1.00  0.00     0.069 A 
ATOM      6  C   UNL     1     -47.872  32.597   2.717  1.00  0.00     0.142 A 
ATOM      7  O   UNL     1     -47.306  31.707   1.910  1.00  0.00    -0.452 OA
ATOM      8  C   UNL     1     -47.076  33.545   3.370  1.00  0.00     0.094 A 
ATOM      9  C   UNL     1     -47.661  34.492   4.221  1.00  0.00     0.119 A 
ATOM     10  C   UNL     1     -49.045  34.490   4.418  1.00  0.00     0.047 A 
ATOM     11  C   UNL     1     -49.850  33.546   3.772  1.00  0.00     0.020 A 
ENDROOT
BRANCH   1  12
ATOM     12  C   UNL     1     -47.247  29.850   0.372  1.00  0.00     0.025 A 
ATOM     13  C   UNL     1     -46.975  30.224  -0.955  1.00  0.00     0.016 A 
ATOM     14  C   UNL     1     -46.290  29.355  -1.808  1.00  0.00     0.051 A 
ATOM     15  C   UNL     1     -45.880  28.096  -1.353  1.00  0.00     0.157 A 
ATOM     16  C   UNL     1     -46.851  28.575   0.818  1.00  0.00     0.062 A 
ATOM     17  C   UNL     1     -46.166  27.703  -0.040  1.00  0.00     0.158 A 
BRANCH  15  18
ATOM     18  O   UNL     1     -45.194  27.228  -2.201  1.00  0.00    -0.504 OA
ATOM     19  H   UNL     1     -45.346  27.235  -3.203  1.00  0.00     0.293 HD
ENDBRANCH  15  18
BRANCH  17  20
ATOM     20  O   UNL     1     -45.768  26.444   0.406  1.00  0.00    -0.504 OA
ATOM     21  H   UNL     1     -46.180  25.596   0.033  1.00  0.00     0.293 HD
ENDBRANCH  17  20
ENDBRANCH   1  12
BRANCH   2  22
ATOM     22  O   UNL     1     -50.118  29.681   0.780  1.00  0.00    -0.502 OA
ATOM     23  H   UNL     1     -51.020  29.851   0.350  1.00  0.00     0.293 HD
ENDBRANCH   2  22
BRANCH   9  24
ATOM     24  O   UNL     1     -46.876  35.441   4.873  1.00  0.00    -0.508 OA
ATOM     25  H   UNL     1     -45.937  35.657   4.559  1.00  0.00     0.293 HD
ENDBRANCH   9  24
TORSDOF 5
ENDMDL
