MODEL 1
REMARK VINA RESULT:    -6.207      0.000      0.000
REMARK INTER + INTRA:          -6.207
REMARK INTER:                  -6.207
REMARK INTRA:                   0.000
REMARK UNBOUND:                 0.000
REMARK SMILES Cc1cc2cc3c(C)cc(=O)oc3c(C)c2o1
REMARK SMILES IDX 8 1 7 2 9 3 10 4 11 5 12 6 13 7 6 8 5 9 4 10 3 11 2 12 17 13
REMARK SMILES IDX 16 14 14 15 15 16 1 17
REMARK H PARENT
REMARK Flexibility Score: inf
ROOT
ATOM      1  C   UNL     1      -4.625  37.982  -2.375  1.00  0.00     0.045 C 
ATOM      2  C   UNL     1      -5.664  37.273  -1.546  1.00  0.00    -0.033 A 
ATOM      3  C   UNL     1      -5.301  36.749  -0.298  1.00  0.00     0.098 A 
ATOM      4  C   UNL     1      -6.257  36.092   0.478  1.00  0.00     0.336 A 
ATOM      5  O   UNL     1      -5.937  35.620   1.600  1.00  0.00    -0.246 OA
ATOM      6  O   UNL     1      -7.504  35.958   0.043  1.00  0.00    -0.422 OA
ATOM      7  C   UNL     1      -7.915  36.430  -1.131  1.00  0.00     0.145 A 
ATOM      8  C   UNL     1      -6.997  37.119  -1.985  1.00  0.00     0.022 A 
ATOM      9  C   UNL     1      -7.447  37.626  -3.230  1.00  0.00     0.024 A 
ATOM     10  C   UNL     1      -8.780  37.434  -3.572  1.00  0.00     0.022 A 
ATOM     11  C   UNL     1      -9.480  37.823  -4.691  1.00  0.00     0.054 A 
ATOM     12  C   UNL     1     -10.770  37.356  -4.466  1.00  0.00     0.102 A 
ATOM     13  O   UNL     1     -10.848  36.737  -3.303  1.00  0.00    -0.461 OA
ATOM     14  C   UNL     1      -9.656  36.774  -2.755  1.00  0.00     0.140 A 
ATOM     15  C   UNL     1      -9.263  36.243  -1.524  1.00  0.00     0.036 A 
ATOM     16  C   UNL     1     -10.247  35.547  -0.627  1.00  0.00     0.052 C 
ATOM     17  C   UNL     1     -11.924  37.540  -5.391  1.00  0.00     0.087 C 
ENDROOT
TORSDOF 0
ENDMDL
MODEL 2
REMARK VINA RESULT:    -6.031      1.654      5.957
REMARK INTER + INTRA:          -6.031
REMARK INTER:                  -6.031
REMARK INTRA:                   0.000
REMARK UNBOUND:                 0.000
REMARK SMILES Cc1cc2cc3c(C)cc(=O)oc3c(C)c2o1
REMARK SMILES IDX 8 1 7 2 9 3 10 4 11 5 12 6 13 7 6 8 5 9 4 10 3 11 2 12 17 13
REMARK SMILES IDX 16 14 14 15 15 16 1 17
REMARK H PARENT
REMARK Flexibility Score: inf
ROOT
ATOM      1  C   UNL     1     -10.836  36.321  -1.369  1.00  0.00     0.045 C 
ATOM      2  C   UNL     1      -9.608  36.739  -2.136  1.00  0.00    -0.033 A 
ATOM      3  C   UNL     1      -9.740  37.137  -3.473  1.00  0.00     0.098 A 
ATOM      4  C   UNL     1      -8.608  37.528  -4.191  1.00  0.00     0.336 A 
ATOM      5  O   UNL     1      -8.721  37.888  -5.392  1.00  0.00    -0.246 OA
ATOM      6  O   UNL     1      -7.411  37.522  -3.619  1.00  0.00    -0.422 OA
ATOM      7  C   UNL     1      -7.215  37.155  -2.355  1.00  0.00     0.145 A 
ATOM      8  C   UNL     1      -8.324  36.744  -1.549  1.00  0.00     0.022 A 
ATOM      9  C   UNL     1      -8.106  36.363  -0.202  1.00  0.00     0.024 A 
ATOM     10  C   UNL     1      -6.807  36.410   0.289  1.00  0.00     0.022 A 
ATOM     11  C   UNL     1      -6.314  36.114   1.539  1.00  0.00     0.054 A 
ATOM     12  C   UNL     1      -4.949  36.355   1.433  1.00  0.00     0.102 A 
ATOM     13  O   UNL     1      -4.638  36.767   0.218  1.00  0.00    -0.461 OA
ATOM     14  C   UNL     1      -5.747  36.802  -0.482  1.00  0.00     0.140 A 
ATOM     15  C   UNL     1      -5.904  37.176  -1.819  1.00  0.00     0.036 A 
ATOM     16  C   UNL     1      -4.732  37.631  -2.642  1.00  0.00     0.052 C 
ATOM     17  C   UNL     1      -3.959  36.196   2.537  1.00  0.00     0.087 C 
ENDROOT
TORSDOF 0
ENDMDL
MODEL 3
REMARK VINA RESULT:    -6.026      1.937      4.886
REMARK INTER + INTRA:          -6.026
REMARK INTER:                  -6.026
REMARK INTRA:                   0.000
REMARK UNBOUND:                 0.000
REMARK SMILES Cc1cc2cc3c(C)cc(=O)oc3c(C)c2o1
REMARK SMILES IDX 8 1 7 2 9 3 10 4 11 5 12 6 13 7 6 8 5 9 4 10 3 11 2 12 17 13
REMARK SMILES IDX 16 14 14 15 15 16 1 17
REMARK H PARENT
REMARK Flexibility Score: inf
ROOT
ATOM      1  C   UNL     1      -5.032  37.357  -2.577  1.00  0.00     0.045 C 
ATOM      2  C   UNL     1      -6.534  37.284  -2.669  1.00  0.00    -0.033 A 
ATOM      3  C   UNL     1      -7.158  37.563  -3.893  1.00  0.00     0.098 A 
ATOM      4  C   UNL     1      -8.549  37.496  -3.988  1.00  0.00     0.336 A 
ATOM      5  O   UNL     1      -9.114  37.744  -5.085  1.00  0.00    -0.246 OA
ATOM      6  O   UNL     1      -9.284  37.174  -2.931  1.00  0.00    -0.422 OA
ATOM      7  C   UNL     1      -8.757  36.899  -1.741  1.00  0.00     0.145 A 
ATOM      8  C   UNL     1      -7.338  36.941  -1.560  1.00  0.00     0.022 A 
ATOM      9  C   UNL     1      -6.786  36.638  -0.290  1.00  0.00     0.024 A 
ATOM     10  C   UNL     1      -7.657  36.303   0.739  1.00  0.00     0.022 A 
ATOM     11  C   UNL     1      -7.404  35.956   2.046  1.00  0.00     0.054 A 
ATOM     12  C   UNL     1      -8.662  35.725   2.588  1.00  0.00     0.102 A 
ATOM     13  O   UNL     1      -9.605  35.912   1.683  1.00  0.00    -0.461 OA
ATOM     14  C   UNL     1      -9.013  36.263   0.565  1.00  0.00     0.140 A 
ATOM     15  C   UNL     1      -9.611  36.565  -0.661  1.00  0.00     0.036 A 
ATOM     16  C   UNL     1     -11.100  36.487  -0.841  1.00  0.00     0.052 C 
ATOM     17  C   UNL     1      -8.930  35.301   3.992  1.00  0.00     0.087 C 
ENDROOT
TORSDOF 0
ENDMDL
MODEL 4
REMARK VINA RESULT:    -5.907      1.092      1.326
REMARK INTER + INTRA:          -5.907
REMARK INTER:                  -5.907
REMARK INTRA:                   0.000
REMARK UNBOUND:                 0.000
REMARK SMILES Cc1cc2cc3c(C)cc(=O)oc3c(C)c2o1
REMARK SMILES IDX 8 1 7 2 9 3 10 4 11 5 12 6 13 7 6 8 5 9 4 10 3 11 2 12 17 13
REMARK SMILES IDX 16 14 14 15 15 16 1 17
REMARK H PARENT
REMARK Flexibility Score: inf
ROOT
ATOM      1  C   UNL     1      -4.402  37.794  -0.517  1.00  0.00     0.045 C 
ATOM      2  C   UNL     1      -5.591  37.095   0.091  1.00  0.00    -0.033 A 
ATOM      3  C   UNL     1      -5.502  36.614   1.404  1.00  0.00     0.098 A 
ATOM      4  C   UNL     1      -6.599  35.967   1.976  1.00  0.00     0.336 A 
ATOM      5  O   UNL     1      -6.525  35.534   3.155  1.00  0.00    -0.246 OA
ATOM      6  O   UNL     1      -7.721  35.803   1.287  1.00  0.00    -0.422 OA
ATOM      7  C   UNL     1      -7.872  36.235   0.038  1.00  0.00     0.145 A 
ATOM      8  C   UNL     1      -6.796  36.911  -0.621  1.00  0.00     0.022 A 
ATOM      9  C   UNL     1      -6.970  37.374  -1.948  1.00  0.00     0.024 A 
ATOM     10  C   UNL     1      -8.197  37.154  -2.563  1.00  0.00     0.022 A 
ATOM     11  C   UNL     1      -8.641  37.500  -3.819  1.00  0.00     0.054 A 
ATOM     12  C   UNL     1      -9.946  37.022  -3.862  1.00  0.00     0.102 A 
ATOM     13  O   UNL     1     -10.270  36.437  -2.724  1.00  0.00    -0.461 OA
ATOM     14  C   UNL     1      -9.224  36.507  -1.933  1.00  0.00     0.140 A 
ATOM     15  C   UNL     1      -9.103  36.018  -0.630  1.00  0.00     0.036 A 
ATOM     16  C   UNL     1     -10.252  35.336   0.055  1.00  0.00     0.052 C 
ATOM     17  C   UNL     1     -10.876  37.163  -5.019  1.00  0.00     0.087 C 
ENDROOT
TORSDOF 0
ENDMDL
MODEL 5
REMARK VINA RESULT:    -5.865      2.002      5.732
REMARK INTER + INTRA:          -5.865
REMARK INTER:                  -5.865
REMARK INTRA:                   0.000
REMARK UNBOUND:                 0.000
REMARK SMILES Cc1cc2cc3c(C)cc(=O)oc3c(C)c2o1
REMARK SMILES IDX 8 1 7 2 9 3 10 4 11 5 12 6 13 7 6 8 5 9 4 10 3 11 2 12 17 13
REMARK SMILES IDX 16 14 14 15 15 16 1 17
REMARK H PARENT
REMARK Flexibility Score: inf
ROOT
ATOM      1  C   UNL     1     -12.819  37.328  -2.862  1.00  0.00     0.045 C 
ATOM      2  C   UNL     1     -11.319  37.261  -2.985  1.00  0.00    -0.033 A 
ATOM      3  C   UNL     1     -10.721  37.560  -4.216  1.00  0.00     0.098 A 
ATOM      4  C   UNL     1      -9.332  37.502  -4.339  1.00  0.00     0.336 A 
ATOM      5  O   UNL     1      -8.788  37.771  -5.442  1.00  0.00    -0.246 OA
ATOM      6  O   UNL     1      -8.575  37.164  -3.302  1.00  0.00    -0.422 OA
ATOM      7  C   UNL     1      -9.078  36.868  -2.107  1.00  0.00     0.145 A 
ATOM      8  C   UNL     1     -10.493  36.907  -1.896  1.00  0.00     0.022 A 
ATOM      9  C   UNL     1     -11.017  36.597  -0.617  1.00  0.00     0.024 A 
ATOM     10  C   UNL     1     -10.124  36.269   0.396  1.00  0.00     0.022 A 
ATOM     11  C   UNL     1     -10.348  35.943   1.714  1.00  0.00     0.054 A 
ATOM     12  C   UNL     1      -9.077  35.724   2.232  1.00  0.00     0.102 A 
ATOM     13  O   UNL     1      -8.155  35.905   1.305  1.00  0.00    -0.461 OA
ATOM     14  C   UNL     1      -8.772  36.231   0.193  1.00  0.00     0.140 A 
ATOM     15  C   UNL     1      -8.202  36.515  -1.051  1.00  0.00     0.036 A 
ATOM     16  C   UNL     1      -6.713  36.496  -1.246  1.00  0.00     0.052 C 
ATOM     17  C   UNL     1      -8.776  35.355   3.644  1.00  0.00     0.087 C 
ENDROOT
TORSDOF 0
ENDMDL
MODEL 6
REMARK VINA RESULT:    -5.854      1.414      5.503
REMARK INTER + INTRA:          -5.854
REMARK INTER:                  -5.854
REMARK INTRA:                   0.000
REMARK UNBOUND:                 0.000
REMARK SMILES Cc1cc2cc3c(C)cc(=O)oc3c(C)c2o1
REMARK SMILES IDX 8 1 7 2 9 3 10 4 11 5 12 6 13 7 6 8 5 9 4 10 3 11 2 12 17 13
REMARK SMILES IDX 16 14 14 15 15 16 1 17
REMARK H PARENT
REMARK Flexibility Score: inf
ROOT
ATOM      1  C   UNL     1     -11.400  38.628  -6.058  1.00  0.00     0.045 C 
ATOM      2  C   UNL     1     -11.661  37.860  -4.788  1.00  0.00    -0.033 A 
ATOM      3  C   UNL     1     -12.964  37.427  -4.508  1.00  0.00     0.098 A 
ATOM      4  C   UNL     1     -13.216  36.713  -3.335  1.00  0.00     0.336 A 
ATOM      5  O   UNL     1     -14.384  36.321  -3.078  1.00  0.00    -0.246 OA
ATOM      6  O   UNL     1     -12.233  36.444  -2.484  1.00  0.00    -0.422 OA
ATOM      7  C   UNL     1     -10.975  36.825  -2.689  1.00  0.00     0.145 A 
ATOM      8  C   UNL     1     -10.633  37.558  -3.869  1.00  0.00     0.022 A 
ATOM      9  C   UNL     1      -9.288  37.953  -4.081  1.00  0.00     0.024 A 
ATOM     10  C   UNL     1      -8.344  37.602  -3.124  1.00  0.00     0.022 A 
ATOM     11  C   UNL     1      -6.989  37.837  -3.078  1.00  0.00     0.054 A 
ATOM     12  C   UNL     1      -6.581  37.245  -1.889  1.00  0.00     0.102 A 
ATOM     13  O   UNL     1      -7.603  36.692  -1.264  1.00  0.00    -0.461 OA
ATOM     14  C   UNL     1      -8.673  36.902  -1.996  1.00  0.00     0.140 A 
ATOM     15  C   UNL     1      -9.984  36.500  -1.731  1.00  0.00     0.036 A 
ATOM     16  C   UNL     1     -10.320  35.706  -0.500  1.00  0.00     0.052 C 
ATOM     17  C   UNL     1      -5.179  37.211  -1.382  1.00  0.00     0.087 C 
ENDROOT
TORSDOF 0
ENDMDL
MODEL 7
REMARK VINA RESULT:    -5.850      1.378      5.262
REMARK INTER + INTRA:          -5.850
REMARK INTER:                  -5.850
REMARK INTRA:                   0.000
REMARK UNBOUND:                 0.000
REMARK SMILES Cc1cc2cc3c(C)cc(=O)oc3c(C)c2o1
REMARK SMILES IDX 8 1 7 2 9 3 10 4 11 5 12 6 13 7 6 8 5 9 4 10 3 11 2 12 17 13
REMARK SMILES IDX 16 14 14 15 15 16 1 17
REMARK H PARENT
REMARK Flexibility Score: inf
ROOT
ATOM      1  C   UNL     1      -7.047  37.685  -4.293  1.00  0.00     0.045 C 
ATOM      2  C   UNL     1      -8.216  37.275  -3.435  1.00  0.00    -0.033 A 
ATOM      3  C   UNL     1      -9.502  37.270  -3.989  1.00  0.00     0.098 A 
ATOM      4  C   UNL     1     -10.590  36.890  -3.202  1.00  0.00     0.336 A 
ATOM      5  O   UNL     1     -11.748  36.883  -3.695  1.00  0.00    -0.246 OA
ATOM      6  O   UNL     1     -10.417  36.537  -1.935  1.00  0.00    -0.422 OA
ATOM      7  C   UNL     1      -9.224  36.520  -1.346  1.00  0.00     0.145 A 
ATOM      8  C   UNL     1      -8.056  36.892  -2.085  1.00  0.00     0.022 A 
ATOM      9  C   UNL     1      -6.789  36.863  -1.451  1.00  0.00     0.024 A 
ATOM     10  C   UNL     1      -6.731  36.463  -0.121  1.00  0.00     0.022 A 
ATOM     11  C   UNL     1      -5.655  36.331   0.726  1.00  0.00     0.054 A 
ATOM     12  C   UNL     1      -6.213  35.892   1.920  1.00  0.00     0.102 A 
ATOM     13  O   UNL     1      -7.522  35.765   1.808  1.00  0.00    -0.461 OA
ATOM     14  C   UNL     1      -7.848  36.108   0.584  1.00  0.00     0.140 A 
ATOM     15  C   UNL     1      -9.123  36.131   0.012  1.00  0.00     0.036 A 
ATOM     16  C   UNL     1     -10.334  35.710   0.795  1.00  0.00     0.052 C 
ATOM     17  C   UNL     1      -5.450  35.581   3.163  1.00  0.00     0.087 C 
ENDROOT
TORSDOF 0
ENDMDL
MODEL 8
REMARK VINA RESULT:    -5.828      1.716      3.077
REMARK INTER + INTRA:          -5.828
REMARK INTER:                  -5.828
REMARK INTRA:                   0.000
REMARK UNBOUND:                 0.000
REMARK SMILES Cc1cc2cc3c(C)cc(=O)oc3c(C)c2o1
REMARK SMILES IDX 8 1 7 2 9 3 10 4 11 5 12 6 13 7 6 8 5 9 4 10 3 11 2 12 17 13
REMARK SMILES IDX 16 14 14 15 15 16 1 17
REMARK H PARENT
REMARK Flexibility Score: inf
ROOT
ATOM      1  C   UNL     1      -9.125  35.622   1.960  1.00  0.00     0.045 C 
ATOM      2  C   UNL     1      -8.436  36.025   0.682  1.00  0.00    -0.033 A 
ATOM      3  C   UNL     1      -7.036  36.030   0.634  1.00  0.00     0.098 A 
ATOM      4  C   UNL     1      -6.389  36.400  -0.546  1.00  0.00     0.336 A 
ATOM      5  O   UNL     1      -5.131  36.405  -0.596  1.00  0.00    -0.246 OA
ATOM      6  O   UNL     1      -7.088  36.749  -1.619  1.00  0.00    -0.422 OA
ATOM      7  C   UNL     1      -8.418  36.767  -1.641  1.00  0.00     0.145 A 
ATOM      8  C   UNL     1      -9.157  36.398  -0.473  1.00  0.00     0.022 A 
ATOM      9  C   UNL     1     -10.574  36.413  -0.509  1.00  0.00     0.024 A 
ATOM     10  C   UNL     1     -11.195  36.785  -1.695  1.00  0.00     0.022 A 
ATOM     11  C   UNL     1     -12.530  36.875  -2.014  1.00  0.00     0.054 A 
ATOM     12  C   UNL     1     -12.537  37.290  -3.341  1.00  0.00     0.102 A 
ATOM     13  O   UNL     1     -11.305  37.437  -3.793  1.00  0.00    -0.461 OA
ATOM     14  C   UNL     1     -10.487  37.139  -2.811  1.00  0.00     0.140 A 
ATOM     15  C   UNL     1      -9.090  37.154  -2.826  1.00  0.00     0.036 A 
ATOM     16  C   UNL     1      -8.330  37.518  -4.070  1.00  0.00     0.052 C 
ATOM     17  C   UNL     1     -13.758  37.521  -4.164  1.00  0.00     0.087 C 
ENDROOT
TORSDOF 0
ENDMDL
MODEL 9
REMARK VINA RESULT:    -5.741      2.592      4.262
REMARK INTER + INTRA:          -5.741
REMARK INTER:                  -5.741
REMARK INTRA:                   0.000
REMARK UNBOUND:                 0.000
REMARK SMILES Cc1cc2cc3c(C)cc(=O)oc3c(C)c2o1
REMARK SMILES IDX 8 1 7 2 9 3 10 4 11 5 12 6 13 7 6 8 5 9 4 10 3 11 2 12 17 13
REMARK SMILES IDX 16 14 14 15 15 16 1 17
REMARK H PARENT
REMARK Flexibility Score: inf
ROOT
ATOM      1  C   UNL     1     -11.923  36.848   3.410  1.00  0.00     0.045 C 
ATOM      2  C   UNL     1     -10.535  36.447   2.980  1.00  0.00    -0.033 A 
ATOM      3  C   UNL     1      -9.613  36.031   3.950  1.00  0.00     0.098 A 
ATOM      4  C   UNL     1      -8.327  35.656   3.561  1.00  0.00     0.336 A 
ATOM      5  O   UNL     1      -7.494  35.280   4.427  1.00  0.00    -0.246 OA
ATOM      6  O   UNL     1      -7.969  35.692   2.283  1.00  0.00    -0.422 OA
ATOM      7  C   UNL     1      -8.794  36.076   1.312  1.00  0.00     0.145 A 
ATOM      8  C   UNL     1     -10.133  36.474   1.627  1.00  0.00     0.022 A 
ATOM      9  C   UNL     1     -11.006  36.874   0.585  1.00  0.00     0.024 A 
ATOM     10  C   UNL     1     -10.521  36.859  -0.717  1.00  0.00     0.022 A 
ATOM     11  C   UNL     1     -11.140  37.178  -1.904  1.00  0.00     0.054 A 
ATOM     12  C   UNL     1     -10.161  36.964  -2.868  1.00  0.00     0.102 A 
ATOM     13  O   UNL     1      -9.039  36.545  -2.312  1.00  0.00    -0.461 OA
ATOM     14  C   UNL     1      -9.242  36.479  -1.016  1.00  0.00     0.140 A 
ATOM     15  C   UNL     1      -8.336  36.088  -0.028  1.00  0.00     0.036 A 
ATOM     16  C   UNL     1      -6.943  35.647  -0.379  1.00  0.00     0.052 C 
ATOM     17  C   UNL     1     -10.342  37.155  -4.335  1.00  0.00     0.087 C 
ENDROOT
TORSDOF 0
ENDMDL
