MODEL 1
REMARK VINA RESULT:    -3.398      0.000      0.000
REMARK INTER + INTRA:          -4.066
REMARK INTER:                  -3.894
REMARK INTRA:                  -0.172
REMARK UNBOUND:                -0.172
REMARK SMILES CC=Cc1ccc(O)c(OC)c1
REMARK SMILES IDX 4 1 12 2 9 3 7 4 6 5 5 6 3 7 1 8 2 9 10 10 11 11 8 12
REMARK H PARENT 8 13
REMARK Flexibility Score: inf
ROOT
ATOM      1  C   UNL     1     156.143 154.259 138.572  1.00  0.00    -0.022 A 
ATOM      2  C   UNL     1     157.531 154.407 138.768  1.00  0.00     0.058 A 
ATOM      3  C   UNL     1     158.309 153.333 139.247  1.00  0.00     0.161 A 
ATOM      4  C   UNL     1     157.682 152.108 139.540  1.00  0.00     0.157 A 
ATOM      5  C   UNL     1     156.304 151.966 139.363  1.00  0.00     0.051 A 
ATOM      6  C   UNL     1     155.539 153.033 138.888  1.00  0.00     0.012 A 
ENDROOT
BRANCH   1   7
ATOM      7  C   UNL     1     155.284 155.365 138.080  1.00  0.00     0.003 C 
ATOM      8  C   UNL     1     153.802 157.320 138.307  1.00  0.00     0.035 C 
ATOM      9  C   UNL     1     154.636 156.220 138.881  1.00  0.00    -0.030 C 
ENDBRANCH   1   7
BRANCH   3  10
ATOM     10  O   UNL     1     159.694 153.448 139.446  1.00  0.00    -0.493 OA
ATOM     11  C   UNL     1     160.302 153.978 140.620  1.00  0.00     0.278 C 
ENDBRANCH   3  10
BRANCH   4  12
ATOM     12  O   UNL     1     158.415 151.019 140.013  1.00  0.00    -0.504 OA
ATOM     13  H   UNL     1     158.654 150.232 139.424  1.00  0.00     0.293 HD
ENDBRANCH   4  12
TORSDOF 3
ENDMDL
MODEL 2
REMARK VINA RESULT:    -3.378     13.287     15.113
REMARK INTER + INTRA:          -4.043
REMARK INTER:                  -3.866
REMARK INTRA:                  -0.177
REMARK UNBOUND:                -0.172
REMARK SMILES CC=Cc1ccc(O)c(OC)c1
REMARK SMILES IDX 4 1 12 2 9 3 7 4 6 5 5 6 3 7 1 8 2 9 10 10 11 11 8 12
REMARK H PARENT 8 13
REMARK Flexibility Score: inf
ROOT
ATOM      1  C   UNL     1     145.105 147.025 138.467  1.00  0.00    -0.022 A 
ATOM      2  C   UNL     1     143.712 146.904 138.653  1.00  0.00     0.058 A 
ATOM      3  C   UNL     1     142.962 147.974 139.182  1.00  0.00     0.161 A 
ATOM      4  C   UNL     1     143.619 149.167 139.534  1.00  0.00     0.157 A 
ATOM      5  C   UNL     1     145.001 149.281 139.366  1.00  0.00     0.051 A 
ATOM      6  C   UNL     1     145.739 148.218 138.842  1.00  0.00     0.012 A 
ENDROOT
BRANCH   1   7
ATOM      7  C   UNL     1     145.936 145.922 137.923  1.00  0.00     0.003 C 
ATOM      8  C   UNL     1     147.555 144.068 138.046  1.00  0.00     0.035 C 
ATOM      9  C   UNL     1     146.762 145.175 138.666  1.00  0.00    -0.030 C 
ENDBRANCH   1   7
BRANCH   3  10
ATOM     10  O   UNL     1     141.573 147.885 139.373  1.00  0.00    -0.493 OA
ATOM     11  C   UNL     1     140.948 147.302 140.512  1.00  0.00     0.278 C 
ENDBRANCH   3  10
BRANCH   4  12
ATOM     12  O   UNL     1     142.913 150.250 140.058  1.00  0.00    -0.504 OA
ATOM     13  H   UNL     1     143.293 150.841 140.787  1.00  0.00     0.293 HD
ENDBRANCH   4  12
TORSDOF 3
ENDMDL
MODEL 3
REMARK VINA RESULT:    -3.373      8.534     10.713
REMARK INTER + INTRA:          -4.038
REMARK INTER:                  -3.855
REMARK INTRA:                  -0.183
REMARK UNBOUND:                -0.172
REMARK SMILES CC=Cc1ccc(O)c(OC)c1
REMARK SMILES IDX 4 1 12 2 9 3 7 4 6 5 5 6 3 7 1 8 2 9 10 10 11 11 8 12
REMARK H PARENT 8 13
REMARK Flexibility Score: inf
ROOT
ATOM      1  C   UNL     1     154.303 145.038 138.492  1.00  0.00    -0.022 A 
ATOM      2  C   UNL     1     154.370 143.644 138.695  1.00  0.00     0.058 A 
ATOM      3  C   UNL     1     153.269 142.941 139.226  1.00  0.00     0.161 A 
ATOM      4  C   UNL     1     152.101 143.647 139.564  1.00  0.00     0.157 A 
ATOM      5  C   UNL     1     152.041 145.031 139.380  1.00  0.00     0.051 A 
ATOM      6  C   UNL     1     153.133 145.722 138.854  1.00  0.00     0.012 A 
ENDROOT
BRANCH   1   7
ATOM      7  C   UNL     1     155.440 145.820 137.945  1.00  0.00     0.003 C 
ATOM      8  C   UNL     1     157.192 147.552 137.986  1.00  0.00     0.035 C 
ATOM      9  C   UNL     1     156.039 146.822 138.599  1.00  0.00    -0.030 C 
ENDBRANCH   1   7
BRANCH   3  10
ATOM     10  O   UNL     1     153.303 141.553 139.433  1.00  0.00    -0.493 OA
ATOM     11  C   UNL     1     153.961 140.912 140.521  1.00  0.00     0.278 C 
ENDBRANCH   3  10
BRANCH   4  12
ATOM     12  O   UNL     1     150.988 142.990 140.090  1.00  0.00    -0.504 OA
ATOM     13  H   UNL     1     151.001 142.004 140.317  1.00  0.00     0.293 HD
ENDBRANCH   4  12
TORSDOF 3
ENDMDL
MODEL 4
REMARK VINA RESULT:    -3.361      8.453     10.617
REMARK INTER + INTRA:          -4.024
REMARK INTER:                  -3.850
REMARK INTRA:                  -0.174
REMARK UNBOUND:                -0.172
REMARK SMILES CC=Cc1ccc(O)c(OC)c1
REMARK SMILES IDX 4 1 12 2 9 3 7 4 6 5 5 6 3 7 1 8 2 9 10 10 11 11 8 12
REMARK H PARENT 8 13
REMARK Flexibility Score: inf
ROOT
ATOM      1  C   UNL     1     147.160 156.182 138.486  1.00  0.00    -0.022 A 
ATOM      2  C   UNL     1     147.000 157.570 138.668  1.00  0.00     0.058 A 
ATOM      3  C   UNL     1     148.047 158.352 139.199  1.00  0.00     0.161 A 
ATOM      4  C   UNL     1     149.256 157.729 139.557  1.00  0.00     0.157 A 
ATOM      5  C   UNL     1     149.409 156.350 139.393  1.00  0.00     0.051 A 
ATOM      6  C   UNL     1     148.370 155.581 138.867  1.00  0.00     0.012 A 
ENDROOT
BRANCH   1   7
ATOM      7  C   UNL     1     146.083 155.319 137.940  1.00  0.00     0.003 C 
ATOM      8  C   UNL     1     144.163 153.781 138.073  1.00  0.00     0.035 C 
ATOM      9  C   UNL     1     145.235 154.615 138.699  1.00  0.00    -0.030 C 
ENDBRANCH   1   7
BRANCH   3  10
ATOM     10  O   UNL     1     147.919 159.737 139.387  1.00  0.00    -0.493 OA
ATOM     11  C   UNL     1     147.321 160.349 140.525  1.00  0.00     0.278 C 
ENDBRANCH   3  10
BRANCH   4  12
ATOM     12  O   UNL     1     150.318 158.466 140.083  1.00  0.00    -0.504 OA
ATOM     13  H   UNL     1     150.470 158.557 141.080  1.00  0.00     0.293 HD
ENDBRANCH   4  12
TORSDOF 3
ENDMDL
MODEL 5
REMARK VINA RESULT:    -3.303      1.315      2.850
REMARK INTER + INTRA:          -3.957
REMARK INTER:                  -3.799
REMARK INTRA:                  -0.158
REMARK UNBOUND:                -0.172
REMARK SMILES CC=Cc1ccc(O)c(OC)c1
REMARK SMILES IDX 4 1 12 2 9 3 7 4 6 5 5 6 3 7 1 8 2 9 10 10 11 11 8 12
REMARK H PARENT 8 13
REMARK Flexibility Score: inf
ROOT
ATOM      1  C   UNL     1     157.127 153.876 139.174  1.00  0.00    -0.022 A 
ATOM      2  C   UNL     1     156.592 152.584 139.358  1.00  0.00     0.058 A 
ATOM      3  C   UNL     1     157.441 151.466 139.487  1.00  0.00     0.161 A 
ATOM      4  C   UNL     1     158.834 151.649 139.419  1.00  0.00     0.157 A 
ATOM      5  C   UNL     1     159.363 152.926 139.218  1.00  0.00     0.051 A 
ATOM      6  C   UNL     1     158.519 154.030 139.091  1.00  0.00     0.012 A 
ENDROOT
BRANCH   1   7
ATOM      7  C   UNL     1     156.271 155.080 139.024  1.00  0.00     0.003 C 
ATOM      8  C   UNL     1     154.290 156.340 138.278  1.00  0.00     0.035 C 
ATOM      9  C   UNL     1     155.103 155.088 138.371  1.00  0.00    -0.030 C 
ENDBRANCH   1   7
BRANCH   3  10
ATOM     10  O   UNL     1     156.938 150.169 139.677  1.00  0.00    -0.493 OA
ATOM     11  C   UNL     1     156.565 149.282 138.627  1.00  0.00     0.278 C 
ENDBRANCH   3  10
BRANCH   4  12
ATOM     12  O   UNL     1     159.709 150.570 139.543  1.00  0.00    -0.504 OA
ATOM     13  H   UNL     1     160.706 150.662 139.394  1.00  0.00     0.293 HD
ENDBRANCH   4  12
TORSDOF 3
ENDMDL
MODEL 6
REMARK VINA RESULT:    -3.302     13.060     14.703
REMARK INTER + INTRA:          -3.957
REMARK INTER:                  -3.799
REMARK INTRA:                  -0.158
REMARK UNBOUND:                -0.172
REMARK SMILES CC=Cc1ccc(O)c(OC)c1
REMARK SMILES IDX 4 1 12 2 9 3 7 4 6 5 5 6 3 7 1 8 2 9 10 10 11 11 8 12
REMARK H PARENT 8 13
REMARK Flexibility Score: inf
ROOT
ATOM      1  C   UNL     1     144.174 147.451 139.197  1.00  0.00    -0.022 A 
ATOM      2  C   UNL     1     144.711 148.746 139.345  1.00  0.00     0.058 A 
ATOM      3  C   UNL     1     143.864 149.868 139.457  1.00  0.00     0.161 A 
ATOM      4  C   UNL     1     142.470 149.684 139.409  1.00  0.00     0.157 A 
ATOM      5  C   UNL     1     141.938 148.404 139.244  1.00  0.00     0.051 A 
ATOM      6  C   UNL     1     142.781 147.296 139.134  1.00  0.00     0.012 A 
ENDROOT
BRANCH   1   7
ATOM      7  C   UNL     1     145.027 146.244 139.065  1.00  0.00     0.003 C 
ATOM      8  C   UNL     1     146.980 144.956 138.292  1.00  0.00     0.035 C 
ATOM      9  C   UNL     1     146.166 146.209 138.363  1.00  0.00    -0.030 C 
ENDBRANCH   1   7
BRANCH   3  10
ATOM     10  O   UNL     1     144.369 151.169 139.612  1.00  0.00    -0.493 OA
ATOM     11  C   UNL     1     144.733 152.030 138.538  1.00  0.00     0.278 C 
ENDBRANCH   3  10
BRANCH   4  12
ATOM     12  O   UNL     1     141.597 150.767 139.519  1.00  0.00    -0.504 OA
ATOM     13  H   UNL     1     141.890 151.718 139.335  1.00  0.00     0.293 HD
ENDBRANCH   4  12
TORSDOF 3
ENDMDL
MODEL 7
REMARK VINA RESULT:    -3.296      7.158      9.748
REMARK INTER + INTRA:          -3.950
REMARK INTER:                  -3.789
REMARK INTRA:                  -0.161
REMARK UNBOUND:                -0.172
REMARK SMILES CC=Cc1ccc(O)c(OC)c1
REMARK SMILES IDX 4 1 12 2 9 3 7 4 6 5 5 6 3 7 1 8 2 9 10 10 11 11 8 12
REMARK H PARENT 8 13
REMARK Flexibility Score: inf
ROOT
ATOM      1  C   UNL     1     147.352 157.139 139.182  1.00  0.00    -0.022 A 
ATOM      2  C   UNL     1     148.645 156.602 139.346  1.00  0.00     0.058 A 
ATOM      3  C   UNL     1     149.762 157.449 139.500  1.00  0.00     0.161 A 
ATOM      4  C   UNL     1     149.576 158.842 139.478  1.00  0.00     0.157 A 
ATOM      5  C   UNL     1     148.298 159.375 139.298  1.00  0.00     0.051 A 
ATOM      6  C   UNL     1     147.195 158.533 139.146  1.00  0.00     0.012 A 
ENDROOT
BRANCH   1   7
ATOM      7  C   UNL     1     146.150 156.287 139.006  1.00  0.00     0.003 C 
ATOM      8  C   UNL     1     144.913 154.282 138.285  1.00  0.00     0.035 C 
ATOM      9  C   UNL     1     146.166 155.089 138.409  1.00  0.00    -0.030 C 
ENDBRANCH   1   7
BRANCH   3  10
ATOM     10  O   UNL     1     151.061 156.943 139.672  1.00  0.00    -0.493 OA
ATOM     11  C   UNL     1     151.939 156.589 138.608  1.00  0.00     0.278 C 
ENDBRANCH   3  10
BRANCH   4  12
ATOM     12  O   UNL     1     150.654 159.715 139.630  1.00  0.00    -0.504 OA
ATOM     13  H   UNL     1     150.971 160.030 140.538  1.00  0.00     0.293 HD
ENDBRANCH   4  12
TORSDOF 3
ENDMDL
MODEL 8
REMARK VINA RESULT:    -3.255      1.162      2.768
REMARK INTER + INTRA:          -3.902
REMARK INTER:                  -3.726
REMARK INTRA:                  -0.176
REMARK UNBOUND:                -0.172
REMARK SMILES CC=Cc1ccc(O)c(OC)c1
REMARK SMILES IDX 4 1 12 2 9 3 7 4 6 5 5 6 3 7 1 8 2 9 10 10 11 11 8 12
REMARK H PARENT 8 13
REMARK Flexibility Score: inf
ROOT
ATOM      1  C   UNL     1     155.873 154.385 138.600  1.00  0.00    -0.022 A 
ATOM      2  C   UNL     1     155.435 153.045 138.553  1.00  0.00     0.058 A 
ATOM      3  C   UNL     1     156.254 152.003 139.032  1.00  0.00     0.161 A 
ATOM      4  C   UNL     1     157.525 152.311 139.550  1.00  0.00     0.157 A 
ATOM      5  C   UNL     1     157.966 153.636 139.581  1.00  0.00     0.051 A 
ATOM      6  C   UNL     1     157.151 154.664 139.106  1.00  0.00     0.012 A 
ENDROOT
BRANCH   1   7
ATOM      7  C   UNL     1     155.048 155.512 138.098  1.00  0.00     0.003 C 
ATOM      8  C   UNL     1     153.719 157.577 138.299  1.00  0.00     0.035 C 
ATOM      9  C   UNL     1     154.527 156.462 138.883  1.00  0.00    -0.030 C 
ENDBRANCH   1   7
BRANCH   3  10
ATOM     10  O   UNL     1     155.843 150.661 139.003  1.00  0.00    -0.493 OA
ATOM     11  C   UNL     1     155.748 149.867 137.824  1.00  0.00     0.278 C 
ENDBRANCH   3  10
BRANCH   4  12
ATOM     12  O   UNL     1     158.366 151.310 140.037  1.00  0.00    -0.504 OA
ATOM     13  H   UNL     1     159.285 151.140 139.648  1.00  0.00     0.293 HD
ENDBRANCH   4  12
TORSDOF 3
ENDMDL
MODEL 9
REMARK VINA RESULT:    -3.211      8.952     11.197
REMARK INTER + INTRA:          -3.852
REMARK INTER:                  -3.689
REMARK INTRA:                  -0.163
REMARK UNBOUND:                -0.172
REMARK SMILES CC=Cc1ccc(O)c(OC)c1
REMARK SMILES IDX 4 1 12 2 9 3 7 4 6 5 5 6 3 7 1 8 2 9 10 10 11 11 8 12
REMARK H PARENT 8 13
REMARK Flexibility Score: inf
ROOT
ATOM      1  C   UNL     1     153.923 144.448 139.140  1.00  0.00    -0.022 A 
ATOM      2  C   UNL     1     152.617 144.976 139.200  1.00  0.00     0.058 A 
ATOM      3  C   UNL     1     151.501 144.123 139.323  1.00  0.00     0.161 A 
ATOM      4  C   UNL     1     151.702 142.732 139.375  1.00  0.00     0.157 A 
ATOM      5  C   UNL     1     152.994 142.207 139.298  1.00  0.00     0.051 A 
ATOM      6  C   UNL     1     154.095 143.056 139.176  1.00  0.00     0.012 A 
ENDROOT
BRANCH   1   7
ATOM      7  C   UNL     1     155.125 145.307 139.000  1.00  0.00     0.003 C 
ATOM      8  C   UNL     1     156.414 147.237 138.174  1.00  0.00     0.035 C 
ATOM      9  C   UNL     1     155.167 146.414 138.250  1.00  0.00    -0.030 C 
ENDBRANCH   1   7
BRANCH   3  10
ATOM     10  O   UNL     1     150.189 144.619 139.392  1.00  0.00    -0.493 OA
ATOM     11  C   UNL     1     149.386 144.945 138.262  1.00  0.00     0.278 C 
ENDBRANCH   3  10
BRANCH   4  12
ATOM     12  O   UNL     1     150.625 141.853 139.499  1.00  0.00    -0.504 OA
ATOM     13  H   UNL     1     150.407 141.385 140.370  1.00  0.00     0.293 HD
ENDBRANCH   4  12
TORSDOF 3
ENDMDL
