MODEL 1
REMARK VINA RESULT:    37.986      0.000      0.000
REMARK INTER + INTRA:          59.524
REMARK INTER:                  55.751
REMARK INTRA:                   3.773
REMARK UNBOUND:                 3.773
REMARK SMILES Cc1cc2c(C(C)C)c(O)c(O)c(C=O)c2c(O)c1-c1c(C)cc2c(C(C)C)c(O)c(O)c(C=O)c2c1O
REMARK SMILES IDX 1 1 2 2 3 3 4 4 16 5 13 6 11 7 9 8 5 9 17 10 19 11 20 12
REMARK SMILES IDX 37 13 21 14 36 15 23 16 22 17 24 18 33 19 25 20 31 21 29 22
REMARK SMILES IDX 38 23 34 25 35 26 26 27 27 28 28 29 32 30 30 32 18 34 6 36
REMARK SMILES IDX 7 37 8 38 14 39 15 40 10 41 12 43
REMARK H PARENT 38 24 32 31 30 33 18 35 10 42 12 44
REMARK Flexibility Score: inf
ROOT
ATOM      1  C   UNL     1      10.808 -32.187  18.623  1.00  0.00     0.045 C 
ATOM      2  C   UNL     1      10.055 -32.678  17.411  1.00  0.00    -0.039 A 
ATOM      3  C   UNL     1       9.091 -33.676  17.562  1.00  0.00     0.013 A 
ATOM      4  C   UNL     1       8.307 -34.126  16.473  1.00  0.00    -0.006 A 
ATOM      5  C   UNL     1       8.566 -33.585  15.176  1.00  0.00     0.039 A 
ATOM      6  C   UNL     1       7.704 -33.934  14.098  1.00  0.00     0.072 A 
ATOM      7  C   UNL     1       6.794 -35.002  14.254  1.00  0.00     0.169 A 
ATOM      8  C   UNL     1       6.662 -35.638  15.493  1.00  0.00     0.162 A 
ATOM      9  C   UNL     1       7.289 -35.117  16.644  1.00  0.00     0.008 A 
ATOM     10  C   UNL     1       9.688 -32.716  15.007  1.00  0.00     0.132 A 
ATOM     11  C   UNL     1      10.374 -32.217  16.125  1.00  0.00     0.031 A 
ENDROOT
BRANCH  11  12
ATOM     12  C   UNL     1      11.504 -31.274  15.930  1.00  0.00     0.031 A 
ATOM     13  C   UNL     1      12.557 -31.600  15.052  1.00  0.00     0.132 A 
ATOM     14  C   UNL     1      11.512 -30.046  16.609  1.00  0.00    -0.039 A 
ATOM     15  C   UNL     1      13.581 -30.647  14.761  1.00  0.00     0.039 A 
ATOM     16  C   UNL     1      12.541 -29.135  16.371  1.00  0.00     0.013 A 
ATOM     17  C   UNL     1      10.426 -29.692  17.598  1.00  0.00     0.045 C 
ATOM     18  C   UNL     1      13.564 -29.385  15.434  1.00  0.00    -0.006 A 
ATOM     19  C   UNL     1      14.636 -30.927  13.845  1.00  0.00     0.072 A 
ATOM     20  C   UNL     1      14.582 -28.416  15.169  1.00  0.00     0.008 A 
ATOM     21  C   UNL     1      15.704 -30.022  13.704  1.00  0.00     0.169 A 
ATOM     22  C   UNL     1      15.682 -28.791  14.365  1.00  0.00     0.162 A 
BRANCH  13  23
ATOM     23  O   UNL     1      12.598 -32.881  14.487  1.00  0.00    -0.507 OA
ATOM     24  H   UNL     1      12.732 -33.063  13.501  1.00  0.00     0.293 HD
ENDBRANCH  13  23
BRANCH  19  25
ATOM     25  C   UNL     1      14.641 -32.126  12.983  1.00  0.00     0.264 C 
ATOM     26  O   UNL     1      15.678 -32.833  12.884  1.00  0.00    -0.298 OA
ENDBRANCH  19  25
BRANCH  20  27
ATOM     27  C   UNL     1      14.560 -26.969  15.705  1.00  0.00     0.017 C 
ATOM     28  C   UNL     1      15.221 -25.979  14.736  1.00  0.00     0.012 C 
ATOM     29  C   UNL     1      15.060 -26.819  17.158  1.00  0.00     0.012 C 
ENDBRANCH  20  27
BRANCH  21  30
ATOM     30  O   UNL     1      16.801 -30.307  12.879  1.00  0.00    -0.504 OA
ATOM     31  H   UNL     1      17.468 -29.614  12.564  1.00  0.00     0.293 HD
ENDBRANCH  21  30
BRANCH  22  32
ATOM     32  O   UNL     1      16.765 -27.917  14.215  1.00  0.00    -0.504 OA
ATOM     33  H   UNL     1      16.819 -27.225  13.478  1.00  0.00     0.293 HD
ENDBRANCH  22  32
ENDBRANCH  11  12
BRANCH  10  34
ATOM     34  O   UNL     1      10.204 -32.385  13.749  1.00  0.00    -0.507 OA
ATOM     35  H   UNL     1       9.636 -32.002  13.006  1.00  0.00     0.293 HD
ENDBRANCH  10  34
BRANCH   9  36
ATOM     36  C   UNL     1       6.903 -35.654  18.035  1.00  0.00     0.017 C 
ATOM     37  C   UNL     1       8.154 -35.902  18.884  1.00  0.00     0.012 C 
ATOM     38  C   UNL     1       5.992 -36.898  18.013  1.00  0.00     0.012 C 
ENDBRANCH   9  36
BRANCH   6  39
ATOM     39  C   UNL     1       7.651 -33.096  12.878  1.00  0.00     0.264 C 
ATOM     40  O   UNL     1       7.298 -31.890  12.922  1.00  0.00    -0.298 OA
ENDBRANCH   6  39
BRANCH   8  41
ATOM     41  O   UNL     1       5.875 -36.789  15.587  1.00  0.00    -0.504 OA
ATOM     42  H   UNL     1       5.795 -37.464  14.837  1.00  0.00     0.293 HD
ENDBRANCH   8  41
BRANCH   7  43
ATOM     43  O   UNL     1       5.963 -35.435  13.215  1.00  0.00    -0.504 OA
ATOM     44  H   UNL     1       6.034 -36.327  12.752  1.00  0.00     0.293 HD
ENDBRANCH   7  43
TORSDOF 11
ENDMDL
