MODEL 1
REMARK VINA RESULT:    -3.321      0.000      0.000
REMARK INTER + INTRA:          -4.522
REMARK INTER:                  -4.292
REMARK INTRA:                  -0.230
REMARK UNBOUND:                -0.230
REMARK SMILES CCCCCCC(=O)[O-]
REMARK SMILES IDX 5 1 6 2 7 3 8 4 9 5 4 6 3 7 2 8 1 9
REMARK H PARENT
REMARK Flexibility Score: inf
ROOT
ATOM      1  C   UNL     1       3.604   0.201 400.592  1.00  0.00     0.006 C 
ENDROOT
BRANCH   1   2
ATOM      2  C   UNL     1       3.808   0.832 401.976  1.00  0.00     0.053 C 
BRANCH   2   3
ATOM      3  C   UNL     1       4.089   2.301 401.884  1.00  0.00     0.041 C 
ATOM      4  O   UNL     1       4.789   2.869 402.763  1.00  0.00    -0.550 OA
ATOM      5  O   UNL     1       3.553   3.048 400.843  1.00  0.00    -0.550 OA
ENDBRANCH   2   3
ENDBRANCH   1   2
BRANCH   1   6
ATOM      6  C   UNL     1       4.474  -1.051 400.392  1.00  0.00     0.000 C 
BRANCH   6   7
ATOM      7  C   UNL     1       3.673  -2.258 399.870  1.00  0.00    -0.000 C 
BRANCH   7   8
ATOM      8  C   UNL     1       3.209  -3.247 400.955  1.00  0.00    -0.003 C 
ATOM      9  C   UNL     1       3.943  -3.067 402.283  1.00  0.00     0.004 C 
ENDBRANCH   7   8
ENDBRANCH   6   7
ENDBRANCH   1   6
TORSDOF 5
ENDMDL
MODEL 2
REMARK VINA RESULT:    -3.299      2.711      4.416
REMARK INTER + INTRA:          -4.494
REMARK INTER:                  -4.190
REMARK INTRA:                  -0.303
REMARK UNBOUND:                -0.230
REMARK SMILES CCCCCCC(=O)[O-]
REMARK SMILES IDX 5 1 6 2 7 3 8 4 9 5 4 6 3 7 2 8 1 9
REMARK H PARENT
REMARK Flexibility Score: inf
ROOT
ATOM      1  C   UNL     1       4.573   0.558 400.215  1.00  0.00     0.006 C 
ENDROOT
BRANCH   1   2
ATOM      2  C   UNL     1       3.953  -0.797 399.849  1.00  0.00     0.053 C 
BRANCH   2   3
ATOM      3  C   UNL     1       3.951  -1.742 401.012  1.00  0.00     0.041 C 
ATOM      4  O   UNL     1       4.631  -1.484 402.040  1.00  0.00    -0.550 OA
ATOM      5  O   UNL     1       3.220  -2.922 400.948  1.00  0.00    -0.550 OA
ENDBRANCH   2   3
ENDBRANCH   1   2
BRANCH   1   6
ATOM      6  C   UNL     1       3.505   1.623 400.512  1.00  0.00     0.000 C 
BRANCH   6   7
ATOM      7  C   UNL     1       3.975   2.674 401.534  1.00  0.00    -0.000 C 
BRANCH   7   8
ATOM      8  C   UNL     1       5.057   2.186 402.516  1.00  0.00    -0.003 C 
ATOM      9  C   UNL     1       4.475   1.568 403.787  1.00  0.00     0.004 C 
ENDBRANCH   7   8
ENDBRANCH   6   7
ENDBRANCH   1   6
TORSDOF 5
ENDMDL
MODEL 3
REMARK VINA RESULT:    -3.235      1.097      1.563
REMARK INTER + INTRA:          -4.411
REMARK INTER:                  -4.169
REMARK INTRA:                  -0.243
REMARK UNBOUND:                -0.230
REMARK SMILES CCCCCCC(=O)[O-]
REMARK SMILES IDX 5 1 6 2 7 3 8 4 9 5 4 6 3 7 2 8 1 9
REMARK H PARENT
REMARK Flexibility Score: inf
ROOT
ATOM      1  C   UNL     1       3.642   0.519 400.163  1.00  0.00     0.006 C 
ENDROOT
BRANCH   1   2
ATOM      2  C   UNL     1       3.627   1.906 400.820  1.00  0.00     0.053 C 
BRANCH   2   3
ATOM      3  C   UNL     1       4.094   1.855 402.243  1.00  0.00     0.041 C 
ATOM      4  O   UNL     1       3.528   1.093 403.069  1.00  0.00    -0.550 OA
ATOM      5  O   UNL     1       5.137   2.672 402.662  1.00  0.00    -0.550 OA
ENDBRANCH   2   3
ENDBRANCH   1   2
BRANCH   1   6
ATOM      6  C   UNL     1       5.048  -0.103 400.157  1.00  0.00     0.000 C 
BRANCH   6   7
ATOM      7  C   UNL     1       5.025  -1.636 400.296  1.00  0.00    -0.000 C 
BRANCH   7   8
ATOM      8  C   UNL     1       3.680  -2.299 399.945  1.00  0.00    -0.003 C 
ATOM      9  C   UNL     1       3.209  -3.293 401.007  1.00  0.00     0.004 C 
ENDBRANCH   7   8
ENDBRANCH   6   7
ENDBRANCH   1   6
TORSDOF 5
ENDMDL
MODEL 4
REMARK VINA RESULT:    -3.231      1.244      1.589
REMARK INTER + INTRA:          -4.406
REMARK INTER:                  -4.316
REMARK INTRA:                  -0.090
REMARK UNBOUND:                -0.230
REMARK SMILES CCCCCCC(=O)[O-]
REMARK SMILES IDX 5 1 6 2 7 3 8 4 9 5 4 6 3 7 2 8 1 9
REMARK H PARENT
REMARK Flexibility Score: inf
ROOT
ATOM      1  C   UNL     1       4.177  -0.846 400.849  1.00  0.00     0.006 C 
ENDROOT
BRANCH   1   2
ATOM      2  C   UNL     1       3.616   0.450 400.248  1.00  0.00     0.053 C 
BRANCH   2   3
ATOM      3  C   UNL     1       3.602   1.568 401.246  1.00  0.00     0.041 C 
ATOM      4  O   UNL     1       3.582   1.316 402.479  1.00  0.00    -0.550 OA
ATOM      5  O   UNL     1       3.583   2.888 400.812  1.00  0.00    -0.550 OA
ENDBRANCH   2   3
ENDBRANCH   1   2
BRANCH   1   6
ATOM      6  C   UNL     1       3.736  -2.090 400.059  1.00  0.00     0.000 C 
BRANCH   6   7
ATOM      7  C   UNL     1       3.343  -3.268 400.969  1.00  0.00    -0.000 C 
BRANCH   7   8
ATOM      8  C   UNL     1       4.520  -4.133 401.455  1.00  0.00    -0.003 C 
ATOM      9  C   UNL     1       4.082  -5.507 401.962  1.00  0.00     0.004 C 
ENDBRANCH   7   8
ENDBRANCH   6   7
ENDBRANCH   1   6
TORSDOF 5
ENDMDL
MODEL 5
REMARK VINA RESULT:    -3.219      3.736      4.869
REMARK INTER + INTRA:          -4.391
REMARK INTER:                  -4.254
REMARK INTRA:                  -0.136
REMARK UNBOUND:                -0.230
REMARK SMILES CCCCCCC(=O)[O-]
REMARK SMILES IDX 5 1 6 2 7 3 8 4 9 5 4 6 3 7 2 8 1 9
REMARK H PARENT
REMARK Flexibility Score: inf
ROOT
ATOM      1  C   UNL     1       5.911   0.419 399.651  1.00  0.00     0.006 C 
ENDROOT
BRANCH   1   2
ATOM      2  C   UNL     1       5.502   1.453 400.709  1.00  0.00     0.053 C 
BRANCH   2   3
ATOM      3  C   UNL     1       4.034   1.748 400.663  1.00  0.00     0.041 C 
ATOM      4  O   UNL     1       3.217   0.848 400.336  1.00  0.00    -0.550 OA
ATOM      5  O   UNL     1       3.571   3.025 400.956  1.00  0.00    -0.550 OA
ENDBRANCH   2   3
ENDBRANCH   1   2
BRANCH   1   6
ATOM      6  C   UNL     1       7.416   0.471 399.341  1.00  0.00     0.000 C 
BRANCH   6   7
ATOM      7  C   UNL     1       7.712   0.763 397.859  1.00  0.00    -0.000 C 
BRANCH   7   8
ATOM      8  C   UNL     1       8.378   2.124 397.586  1.00  0.00    -0.003 C 
ATOM      9  C   UNL     1       9.805   2.211 398.127  1.00  0.00     0.004 C 
ENDBRANCH   7   8
ENDBRANCH   6   7
ENDBRANCH   1   6
TORSDOF 5
ENDMDL
MODEL 6
REMARK VINA RESULT:    -3.209      8.344      9.918
REMARK INTER + INTRA:          -4.377
REMARK INTER:                  -4.285
REMARK INTRA:                  -0.093
REMARK UNBOUND:                -0.230
REMARK SMILES CCCCCCC(=O)[O-]
REMARK SMILES IDX 5 1 6 2 7 3 8 4 9 5 4 6 3 7 2 8 1 9
REMARK H PARENT
REMARK Flexibility Score: inf
ROOT
ATOM      1  C   UNL     1       5.649   8.255 402.883  1.00  0.00     0.006 C 
ENDROOT
BRANCH   1   2
ATOM      2  C   UNL     1       4.270   7.638 402.614  1.00  0.00     0.053 C 
BRANCH   2   3
ATOM      3  C   UNL     1       3.304   7.927 403.723  1.00  0.00     0.041 C 
ATOM      4  O   UNL     1       2.110   8.228 403.461  1.00  0.00    -0.550 OA
ATOM      5  O   UNL     1       3.731   7.891 405.045  1.00  0.00    -0.550 OA
ENDBRANCH   2   3
ENDBRANCH   1   2
BRANCH   1   6
ATOM      6  C   UNL     1       6.300   8.800 401.601  1.00  0.00     0.000 C 
BRANCH   6   7
ATOM      7  C   UNL     1       7.295   9.943 401.874  1.00  0.00    -0.000 C 
BRANCH   7   8
ATOM      8  C   UNL     1       8.778   9.531 401.854  1.00  0.00    -0.003 C 
ATOM      9  C   UNL     1       9.343   9.399 400.440  1.00  0.00     0.004 C 
ENDBRANCH   7   8
ENDBRANCH   6   7
ENDBRANCH   1   6
TORSDOF 5
ENDMDL
MODEL 7
REMARK VINA RESULT:    -3.198      8.392      9.624
REMARK INTER + INTRA:          -4.363
REMARK INTER:                  -4.042
REMARK INTRA:                  -0.320
REMARK UNBOUND:                -0.230
REMARK SMILES CCCCCCC(=O)[O-]
REMARK SMILES IDX 5 1 6 2 7 3 8 4 9 5 4 6 3 7 2 8 1 9
REMARK H PARENT
REMARK Flexibility Score: inf
ROOT
ATOM      1  C   UNL     1       4.734   7.950 402.354  1.00  0.00     0.006 C 
ENDROOT
BRANCH   1   2
ATOM      2  C   UNL     1       6.037   7.965 403.164  1.00  0.00     0.053 C 
BRANCH   2   3
ATOM      3  C   UNL     1       6.737   9.287 403.071  1.00  0.00     0.041 C 
ATOM      4  O   UNL     1       6.981   9.797 401.946  1.00  0.00    -0.550 OA
ATOM      5  O   UNL     1       7.144   9.942 404.227  1.00  0.00    -0.550 OA
ENDBRANCH   2   3
ENDBRANCH   1   2
BRANCH   1   6
ATOM      6  C   UNL     1       3.598   7.226 403.096  1.00  0.00     0.000 C 
BRANCH   6   7
ATOM      7  C   UNL     1       2.648   8.192 403.826  1.00  0.00    -0.000 C 
BRANCH   7   8
ATOM      8  C   UNL     1       2.931   8.370 405.329  1.00  0.00    -0.003 C 
ATOM      9  C   UNL     1       3.726   9.637 405.642  1.00  0.00     0.004 C 
ENDBRANCH   7   8
ENDBRANCH   6   7
ENDBRANCH   1   6
TORSDOF 5
ENDMDL
MODEL 8
REMARK VINA RESULT:    -3.172      3.216      4.837
REMARK INTER + INTRA:          -4.330
REMARK INTER:                  -4.082
REMARK INTRA:                  -0.248
REMARK UNBOUND:                -0.230
REMARK SMILES CCCCCCC(=O)[O-]
REMARK SMILES IDX 5 1 6 2 7 3 8 4 9 5 4 6 3 7 2 8 1 9
REMARK H PARENT
REMARK Flexibility Score: inf
ROOT
ATOM      1  C   UNL     1       4.022  -0.946 400.230  1.00  0.00     0.006 C 
ENDROOT
BRANCH   1   2
ATOM      2  C   UNL     1       4.205  -1.504 401.647  1.00  0.00     0.053 C 
BRANCH   2   3
ATOM      3  C   UNL     1       3.642  -2.887 401.780  1.00  0.00     0.041 C 
ATOM      4  O   UNL     1       2.963  -3.387 400.845  1.00  0.00    -0.550 OA
ATOM      5  O   UNL     1       3.845  -3.612 402.948  1.00  0.00    -0.550 OA
ENDBRANCH   2   3
ENDBRANCH   1   2
BRANCH   1   6
ATOM      6  C   UNL     1       4.556   0.490 400.099  1.00  0.00     0.000 C 
BRANCH   6   7
ATOM      7  C   UNL     1       3.476   1.556 400.356  1.00  0.00    -0.000 C 
BRANCH   7   8
ATOM      8  C   UNL     1       3.816   2.572 401.461  1.00  0.00    -0.003 C 
ATOM      9  C   UNL     1       5.091   2.220 402.226  1.00  0.00     0.004 C 
ENDBRANCH   7   8
ENDBRANCH   6   7
ENDBRANCH   1   6
TORSDOF 5
ENDMDL
MODEL 9
REMARK VINA RESULT:    -3.147      2.393      3.287
REMARK INTER + INTRA:          -4.298
REMARK INTER:                  -3.904
REMARK INTRA:                  -0.394
REMARK UNBOUND:                -0.230
REMARK SMILES CCCCCCC(=O)[O-]
REMARK SMILES IDX 5 1 6 2 7 3 8 4 9 5 4 6 3 7 2 8 1 9
REMARK H PARENT
REMARK Flexibility Score: inf
ROOT
ATOM      1  C   UNL     1       4.877   2.058 402.048  1.00  0.00     0.006 C 
ENDROOT
BRANCH   1   2
ATOM      2  C   UNL     1       4.285   1.548 403.369  1.00  0.00     0.053 C 
BRANCH   2   3
ATOM      3  C   UNL     1       4.688   0.134 403.652  1.00  0.00     0.041 C 
ATOM      4  O   UNL     1       5.897  -0.209 403.573  1.00  0.00    -0.550 OA
ATOM      5  O   UNL     1       3.725  -0.813 403.978  1.00  0.00    -0.550 OA
ENDBRANCH   2   3
ENDBRANCH   1   2
BRANCH   1   6
ATOM      6  C   UNL     1       3.793   2.321 400.989  1.00  0.00     0.000 C 
BRANCH   6   7
ATOM      7  C   UNL     1       3.318   1.037 400.287  1.00  0.00    -0.000 C 
BRANCH   7   8
ATOM      8  C   UNL     1       4.427   0.011 399.990  1.00  0.00    -0.003 C 
ATOM      9  C   UNL     1       4.006  -1.428 400.289  1.00  0.00     0.004 C 
ENDBRANCH   7   8
ENDBRANCH   6   7
ENDBRANCH   1   6
TORSDOF 5
ENDMDL
