MODEL 1
REMARK VINA RESULT:    -1.908      0.000      0.000
REMARK INTER + INTRA:          -3.310
REMARK INTER:                  -2.912
REMARK INTRA:                  -0.398
REMARK UNBOUND:                -0.398
REMARK SMILES CCCCCCCCCCC(=O)[O-]
REMARK SMILES IDX 7 1 8 2 9 3 10 4 11 5 12 6 13 7 6 8 5 9 4 10 3 11 2 12 1 13
REMARK H PARENT
REMARK Flexibility Score: inf
ROOT
ATOM      1  C   UNL     1       5.876  40.439  14.409  1.00  0.00     0.000 C 
ENDROOT
BRANCH   1   2
ATOM      2  C   UNL     1       4.439  39.897  14.476  1.00  0.00     0.000 C 
BRANCH   2   3
ATOM      3  C   UNL     1       4.091  39.303  15.853  1.00  0.00     0.006 C 
BRANCH   3   4
ATOM      4  C   UNL     1       3.532  37.878  15.742  1.00  0.00     0.053 C 
BRANCH   4   5
ATOM      5  C   UNL     1       2.112  37.875  15.264  1.00  0.00     0.041 C 
ATOM      6  O   UNL     1       1.164  37.888  16.092  1.00  0.00    -0.550 OA
ATOM      7  O   UNL     1       1.838  37.893  13.902  1.00  0.00    -0.550 OA
ENDBRANCH   4   5
ENDBRANCH   3   4
ENDBRANCH   2   3
ENDBRANCH   1   2
BRANCH   1   8
ATOM      8  C   UNL     1       6.530  40.548  15.798  1.00  0.00     0.000 C 
BRANCH   8   9
ATOM      9  C   UNL     1       8.023  40.902  15.721  1.00  0.00    -0.000 C 
BRANCH   9  10
ATOM     10  C   UNL     1       8.935  39.707  16.039  1.00  0.00    -0.000 C 
BRANCH  10  11
ATOM     11  C   UNL     1       9.069  38.780  14.822  1.00  0.00    -0.000 C 
BRANCH  11  12
ATOM     12  C   UNL     1      10.309  37.875  14.903  1.00  0.00    -0.003 C 
ATOM     13  C   UNL     1      11.334  38.365  15.926  1.00  0.00     0.004 C 
ENDBRANCH  11  12
ENDBRANCH  10  11
ENDBRANCH   9  10
ENDBRANCH   8   9
ENDBRANCH   1   8
TORSDOF 9
ENDMDL
