MODEL 1
REMARK VINA RESULT:    -5.063      0.000      0.000
REMARK INTER + INTRA:          -5.730
REMARK INTER:                  -5.507
REMARK INTRA:                  -0.223
REMARK UNBOUND:                -0.223
REMARK SMILES O=C([O-])c1ccccc1O
REMARK SMILES IDX 4 1 9 2 5 3 8 4 6 5 7 6 2 7 1 8 3 9 10 10
REMARK H PARENT 10 11
REMARK Flexibility Score: inf
ROOT
ATOM      1  C   UNL     1     -10.976 -19.654  -6.298  1.00  0.00     0.039 A 
ATOM      2  C   UNL     1     -11.164 -18.377  -6.886  1.00  0.00     0.124 A 
ATOM      3  C   UNL     1      -9.707 -20.259  -6.375  1.00  0.00     0.014 A 
ATOM      4  C   UNL     1     -10.076 -17.718  -7.473  1.00  0.00     0.047 A 
ATOM      5  C   UNL     1      -8.638 -19.597  -6.982  1.00  0.00     0.001 A 
ATOM      6  C   UNL     1      -8.820 -18.324  -7.522  1.00  0.00     0.004 A 
ENDROOT
BRANCH   1   7
ATOM      7  C   UNL     1     -12.055 -20.360  -5.572  1.00  0.00     0.075 C 
ATOM      8  O   UNL     1     -11.771 -21.238  -4.716  1.00  0.00    -0.545 OA
ATOM      9  O   UNL     1     -13.388 -20.020  -5.773  1.00  0.00    -0.545 OA
ENDBRANCH   1   7
BRANCH   2  10
ATOM     10  O   UNL     1     -12.410 -17.750  -6.941  1.00  0.00    -0.507 OA
ATOM     11  H   UNL     1     -12.602 -16.948  -7.526  1.00  0.00     0.293 HD
ENDBRANCH   2  10
TORSDOF 2
ENDMDL
MODEL 2
REMARK VINA RESULT:    -4.934     12.597     13.576
REMARK INTER + INTRA:          -5.590
REMARK INTER:                  -5.354
REMARK INTRA:                  -0.236
REMARK UNBOUND:                -0.223
REMARK SMILES O=C([O-])c1ccccc1O
REMARK SMILES IDX 4 1 9 2 5 3 8 4 6 5 7 6 2 7 1 8 3 9 10 10
REMARK H PARENT 10 11
REMARK Flexibility Score: inf
ROOT
ATOM      1  C   UNL     1     -15.012 -10.132 -14.899  1.00  0.00     0.039 A 
ATOM      2  C   UNL     1     -15.936 -10.392 -13.856  1.00  0.00     0.124 A 
ATOM      3  C   UNL     1     -15.371 -10.451 -16.223  1.00  0.00     0.014 A 
ATOM      4  C   UNL     1     -17.205 -10.899 -14.165  1.00  0.00     0.047 A 
ATOM      5  C   UNL     1     -16.632 -10.976 -16.511  1.00  0.00     0.001 A 
ATOM      6  C   UNL     1     -17.551 -11.191 -15.485  1.00  0.00     0.004 A 
ENDROOT
BRANCH   1   7
ATOM      7  C   UNL     1     -13.696  -9.501 -14.654  1.00  0.00     0.075 C 
ATOM      8  O   UNL     1     -13.534  -8.741 -13.663  1.00  0.00    -0.545 OA
ATOM      9  O   UNL     1     -12.607  -9.788 -15.468  1.00  0.00    -0.545 OA
ENDBRANCH   1   7
BRANCH   2  10
ATOM     10  O   UNL     1     -15.626 -10.197 -12.509  1.00  0.00    -0.507 OA
ATOM     11  H   UNL     1     -16.302 -10.290 -11.764  1.00  0.00     0.293 HD
ENDBRANCH   2  10
TORSDOF 2
ENDMDL
MODEL 3
REMARK VINA RESULT:    -4.872      1.846      3.530
REMARK INTER + INTRA:          -5.522
REMARK INTER:                  -5.298
REMARK INTRA:                  -0.223
REMARK UNBOUND:                -0.223
REMARK SMILES O=C([O-])c1ccccc1O
REMARK SMILES IDX 4 1 9 2 5 3 8 4 6 5 7 6 2 7 1 8 3 9 10 10
REMARK H PARENT 10 11
REMARK Flexibility Score: inf
ROOT
ATOM      1  C   UNL     1     -10.665 -19.242  -6.482  1.00  0.00     0.039 A 
ATOM      2  C   UNL     1     -12.041 -18.923  -6.609  1.00  0.00     0.124 A 
ATOM      3  C   UNL     1     -10.289 -20.325  -5.666  1.00  0.00     0.014 A 
ATOM      4  C   UNL     1     -12.999 -19.725  -5.976  1.00  0.00     0.047 A 
ATOM      5  C   UNL     1     -11.256 -21.102  -5.024  1.00  0.00     0.001 A 
ATOM      6  C   UNL     1     -12.609 -20.808  -5.187  1.00  0.00     0.004 A 
ENDROOT
BRANCH   1   7
ATOM      7  C   UNL     1      -9.609 -18.500  -7.207  1.00  0.00     0.075 C 
ATOM      8  O   UNL     1      -9.802 -17.306  -7.557  1.00  0.00    -0.545 OA
ATOM      9  O   UNL     1      -8.371 -19.082  -7.451  1.00  0.00    -0.545 OA
ENDBRANCH   1   7
BRANCH   2  10
ATOM     10  O   UNL     1     -12.493 -17.808  -7.318  1.00  0.00    -0.507 OA
ATOM     11  H   UNL     1     -13.291 -17.256  -7.034  1.00  0.00     0.293 HD
ENDBRANCH   2  10
TORSDOF 2
ENDMDL
MODEL 4
REMARK VINA RESULT:    -4.787      1.914      3.094
REMARK INTER + INTRA:          -5.429
REMARK INTER:                  -5.192
REMARK INTRA:                  -0.238
REMARK UNBOUND:                -0.223
REMARK SMILES O=C([O-])c1ccccc1O
REMARK SMILES IDX 4 1 9 2 5 3 8 4 6 5 7 6 2 7 1 8 3 9 10 10
REMARK H PARENT 10 11
REMARK Flexibility Score: inf
ROOT
ATOM      1  C   UNL     1     -12.658 -20.250  -7.186  1.00  0.00     0.039 A 
ATOM      2  C   UNL     1     -12.480 -20.523  -5.806  1.00  0.00     0.124 A 
ATOM      3  C   UNL     1     -11.537 -19.897  -7.961  1.00  0.00     0.014 A 
ATOM      4  C   UNL     1     -11.192 -20.498  -5.256  1.00  0.00     0.047 A 
ATOM      5  C   UNL     1     -10.262 -19.856  -7.392  1.00  0.00     0.001 A 
ATOM      6  C   UNL     1     -10.089 -20.166  -6.044  1.00  0.00     0.004 A 
ENDROOT
BRANCH   1   7
ATOM      7  C   UNL     1     -13.975 -20.360  -7.853  1.00  0.00     0.075 C 
ATOM      8  O   UNL     1     -15.027 -20.068  -7.226  1.00  0.00    -0.545 OA
ATOM      9  O   UNL     1     -14.066 -20.717  -9.193  1.00  0.00    -0.545 OA
ENDBRANCH   1   7
BRANCH   2  10
ATOM     10  O   UNL     1     -13.548 -20.785  -4.947  1.00  0.00    -0.507 OA
ATOM     11  H   UNL     1     -13.486 -21.416  -4.160  1.00  0.00     0.293 HD
ENDBRANCH   2  10
TORSDOF 2
ENDMDL
MODEL 5
REMARK VINA RESULT:    -4.737      2.363      3.760
REMARK INTER + INTRA:          -5.375
REMARK INTER:                  -5.127
REMARK INTRA:                  -0.248
REMARK UNBOUND:                -0.223
REMARK SMILES O=C([O-])c1ccccc1O
REMARK SMILES IDX 4 1 9 2 5 3 8 4 6 5 7 6 2 7 1 8 3 9 10 10
REMARK H PARENT 10 11
REMARK Flexibility Score: inf
ROOT
ATOM      1  C   UNL     1     -11.217 -19.329  -7.638  1.00  0.00     0.039 A 
ATOM      2  C   UNL     1     -12.334 -18.907  -6.874  1.00  0.00     0.124 A 
ATOM      3  C   UNL     1     -11.341 -20.471  -8.453  1.00  0.00     0.014 A 
ATOM      4  C   UNL     1     -13.551 -19.590  -6.991  1.00  0.00     0.047 A 
ATOM      5  C   UNL     1     -12.556 -21.153  -8.541  1.00  0.00     0.001 A 
ATOM      6  C   UNL     1     -13.662 -20.707  -7.819  1.00  0.00     0.004 A 
ENDROOT
BRANCH   1   7
ATOM      7  C   UNL     1      -9.933 -18.593  -7.641  1.00  0.00     0.075 C 
ATOM      8  O   UNL     1      -9.926 -17.335  -7.566  1.00  0.00    -0.545 OA
ATOM      9  O   UNL     1      -8.722 -19.274  -7.659  1.00  0.00    -0.545 OA
ENDBRANCH   1   7
BRANCH   2  10
ATOM     10  O   UNL     1     -12.269 -17.846  -5.969  1.00  0.00    -0.507 OA
ATOM     11  H   UNL     1     -12.070 -16.894  -6.243  1.00  0.00     0.293 HD
ENDBRANCH   2  10
TORSDOF 2
ENDMDL
MODEL 6
REMARK VINA RESULT:    -4.737      2.559      3.976
REMARK INTER + INTRA:          -5.375
REMARK INTER:                  -5.127
REMARK INTRA:                  -0.248
REMARK UNBOUND:                -0.223
REMARK SMILES O=C([O-])c1ccccc1O
REMARK SMILES IDX 4 1 9 2 5 3 8 4 6 5 7 6 2 7 1 8 3 9 10 10
REMARK H PARENT 10 11
REMARK Flexibility Score: inf
ROOT
ATOM      1  C   UNL     1     -11.354 -19.518  -7.311  1.00  0.00     0.039 A 
ATOM      2  C   UNL     1     -11.777 -20.495  -8.247  1.00  0.00     0.124 A 
ATOM      3  C   UNL     1     -12.230 -19.142  -6.275  1.00  0.00     0.014 A 
ATOM      4  C   UNL     1     -13.025 -21.111  -8.088  1.00  0.00     0.047 A 
ATOM      5  C   UNL     1     -13.480 -19.751  -6.144  1.00  0.00     0.001 A 
ATOM      6  C   UNL     1     -13.872 -20.741  -7.044  1.00  0.00     0.004 A 
ENDROOT
BRANCH   1   7
ATOM      7  C   UNL     1     -10.008 -18.903  -7.360  1.00  0.00     0.075 C 
ATOM      8  O   UNL     1      -8.989 -19.625  -7.518  1.00  0.00    -0.545 OA
ATOM      9  O   UNL     1      -9.854 -17.523  -7.300  1.00  0.00    -0.545 OA
ENDBRANCH   1   7
BRANCH   2  10
ATOM     10  O   UNL     1     -11.012 -20.854  -9.358  1.00  0.00    -0.507 OA
ATOM     11  H   UNL     1     -10.424 -20.204  -9.861  1.00  0.00     0.293 HD
ENDBRANCH   2  10
TORSDOF 2
ENDMDL
MODEL 7
REMARK VINA RESULT:    -4.686     13.304     13.694
REMARK INTER + INTRA:          -5.319
REMARK INTER:                  -5.102
REMARK INTRA:                  -0.217
REMARK UNBOUND:                -0.223
REMARK SMILES O=C([O-])c1ccccc1O
REMARK SMILES IDX 4 1 9 2 5 3 8 4 6 5 7 6 2 7 1 8 3 9 10 10
REMARK H PARENT 10 11
REMARK Flexibility Score: inf
ROOT
ATOM      1  C   UNL     1     -16.183 -10.354 -15.366  1.00  0.00     0.039 A 
ATOM      2  C   UNL     1     -15.903  -9.619 -14.186  1.00  0.00     0.124 A 
ATOM      3  C   UNL     1     -15.146 -10.581 -16.290  1.00  0.00     0.014 A 
ATOM      4  C   UNL     1     -14.594  -9.188 -13.933  1.00  0.00     0.047 A 
ATOM      5  C   UNL     1     -13.851 -10.126 -16.032  1.00  0.00     0.001 A 
ATOM      6  C   UNL     1     -13.574  -9.440 -14.851  1.00  0.00     0.004 A 
ENDROOT
BRANCH   1   7
ATOM      7  C   UNL     1     -17.519 -10.927 -15.645  1.00  0.00     0.075 C 
ATOM      8  O   UNL     1     -17.761 -11.448 -16.766  1.00  0.00    -0.545 OA
ATOM      9  O   UNL     1     -18.500 -10.959 -14.661  1.00  0.00    -0.545 OA
ENDBRANCH   1   7
BRANCH   2  10
ATOM     10  O   UNL     1     -16.892  -9.266 -13.266  1.00  0.00    -0.507 OA
ATOM     11  H   UNL     1     -17.826  -8.988 -13.535  1.00  0.00     0.293 HD
ENDBRANCH   2  10
TORSDOF 2
ENDMDL
MODEL 8
REMARK VINA RESULT:    -4.665      8.642      9.055
REMARK INTER + INTRA:          -5.297
REMARK INTER:                  -5.120
REMARK INTRA:                  -0.177
REMARK UNBOUND:                -0.223
REMARK SMILES O=C([O-])c1ccccc1O
REMARK SMILES IDX 4 1 9 2 5 3 8 4 6 5 7 6 2 7 1 8 3 9 10 10
REMARK H PARENT 10 11
REMARK Flexibility Score: inf
ROOT
ATOM      1  C   UNL     1     -11.192 -24.734 -12.780  1.00  0.00     0.039 A 
ATOM      2  C   UNL     1     -12.027 -25.261 -13.797  1.00  0.00     0.124 A 
ATOM      3  C   UNL     1     -10.036 -25.447 -12.410  1.00  0.00     0.014 A 
ATOM      4  C   UNL     1     -11.657 -26.441 -14.455  1.00  0.00     0.047 A 
ATOM      5  C   UNL     1      -9.693 -26.634 -13.061  1.00  0.00     0.001 A 
ATOM      6  C   UNL     1     -10.497 -27.125 -14.089  1.00  0.00     0.004 A 
ENDROOT
BRANCH   1   7
ATOM      7  C   UNL     1     -11.470 -23.440 -12.117  1.00  0.00     0.075 C 
ATOM      8  O   UNL     1     -11.612 -23.389 -10.867  1.00  0.00    -0.545 OA
ATOM      9  O   UNL     1     -11.510 -22.260 -12.849  1.00  0.00    -0.545 OA
ENDBRANCH   1   7
BRANCH   2  10
ATOM     10  O   UNL     1     -13.240 -24.671 -14.158  1.00  0.00    -0.507 OA
ATOM     11  H   UNL     1     -13.443 -24.346 -15.093  1.00  0.00     0.293 HD
ENDBRANCH   2  10
TORSDOF 2
ENDMDL
MODEL 9
REMARK VINA RESULT:    -4.583     12.556     13.325
REMARK INTER + INTRA:          -5.207
REMARK INTER:                  -4.968
REMARK INTRA:                  -0.240
REMARK UNBOUND:                -0.223
REMARK SMILES O=C([O-])c1ccccc1O
REMARK SMILES IDX 4 1 9 2 5 3 8 4 6 5 7 6 2 7 1 8 3 9 10 10
REMARK H PARENT 10 11
REMARK Flexibility Score: inf
ROOT
ATOM      1  C   UNL     1     -15.471 -10.257 -14.859  1.00  0.00     0.039 A 
ATOM      2  C   UNL     1     -14.304  -9.555 -14.463  1.00  0.00     0.124 A 
ATOM      3  C   UNL     1     -15.641 -10.586 -16.218  1.00  0.00     0.014 A 
ATOM      4  C   UNL     1     -13.318  -9.261 -15.413  1.00  0.00     0.047 A 
ATOM      5  C   UNL     1     -14.657 -10.266 -17.156  1.00  0.00     0.001 A 
ATOM      6  C   UNL     1     -13.493  -9.612 -16.752  1.00  0.00     0.004 A 
ENDROOT
BRANCH   1   7
ATOM      7  C   UNL     1     -16.503 -10.691 -13.891  1.00  0.00     0.075 C 
ATOM      8  O   UNL     1     -17.669 -10.958 -14.287  1.00  0.00    -0.545 OA
ATOM      9  O   UNL     1     -16.188 -10.875 -12.550  1.00  0.00    -0.545 OA
ENDBRANCH   1   7
BRANCH   2  10
ATOM     10  O   UNL     1     -14.103  -9.106 -13.157  1.00  0.00    -0.507 OA
ATOM     11  H   UNL     1     -14.551  -8.282 -12.779  1.00  0.00     0.293 HD
ENDBRANCH   2  10
TORSDOF 2
ENDMDL
