MODEL 1
REMARK VINA RESULT:    -3.601      0.000      0.000
REMARK INTER + INTRA:         -15.986
REMARK INTER:                  -9.494
REMARK INTRA:                  -6.492
REMARK UNBOUND:                -6.492
REMARK SMILES CCCCCCCCCCCCCCCCCCCCCCCCCCCCCC(=O)[O-]
REMARK SMILES IDX 16 1 17 2 18 3 19 4 20 5 21 6 22 7 23 8 24 9 25 10 26 11
REMARK SMILES IDX 27 12 28 13 29 14 30 15 31 16 32 17 15 18 14 19 13 20 12 21
REMARK SMILES IDX 11 22 10 23 9 24 8 25 7 26 6 27 5 28 4 29 3 30 2 31 1 32
REMARK H PARENT
REMARK Flexibility Score: inf
ROOT
ATOM      1  C   UNL     1     174.329 167.358 151.713  1.00  0.00     0.000 C 
ENDROOT
BRANCH   1   2
ATOM      2  C   UNL     1     174.014 166.465 150.498  1.00  0.00     0.000 C 
BRANCH   2   3
ATOM      3  C   UNL     1     174.234 167.191 149.159  1.00  0.00     0.000 C 
BRANCH   3   4
ATOM      4  C   UNL     1     172.950 167.847 148.629  1.00  0.00     0.000 C 
BRANCH   4   5
ATOM      5  C   UNL     1     171.712 167.479 149.468  1.00  0.00     0.000 C 
BRANCH   5   6
ATOM      6  C   UNL     1     171.184 168.665 150.289  1.00  0.00     0.000 C 
BRANCH   6   7
ATOM      7  C   UNL     1     170.651 168.239 151.667  1.00  0.00     0.000 C 
BRANCH   7   8
ATOM      8  C   UNL     1     171.243 169.081 152.810  1.00  0.00     0.000 C 
BRANCH   8   9
ATOM      9  C   UNL     1     171.550 168.244 154.061  1.00  0.00     0.000 C 
BRANCH   9  10
ATOM     10  C   UNL     1     172.265 169.083 155.127  1.00  0.00     0.000 C 
BRANCH  10  11
ATOM     11  C   UNL     1     173.673 168.532 155.398  1.00  0.00     0.000 C 
BRANCH  11  12
ATOM     12  C   UNL     1     174.785 169.478 154.921  1.00  0.00     0.000 C 
BRANCH  12  13
ATOM     13  C   UNL     1     175.794 169.813 156.035  1.00  0.00     0.006 C 
BRANCH  13  14
ATOM     14  C   UNL     1     175.654 171.261 156.524  1.00  0.00     0.053 C 
BRANCH  14  15
ATOM     15  C   UNL     1     175.277 171.326 157.973  1.00  0.00     0.041 C 
ATOM     16  O   UNL     1     174.987 172.430 158.504  1.00  0.00    -0.550 OA
ATOM     17  O   UNL     1     175.277 170.170 158.745  1.00  0.00    -0.550 OA
ENDBRANCH  14  15
ENDBRANCH  13  14
ENDBRANCH  12  13
ENDBRANCH  11  12
ENDBRANCH  10  11
ENDBRANCH   9  10
ENDBRANCH   8   9
ENDBRANCH   7   8
ENDBRANCH   6   7
ENDBRANCH   5   6
ENDBRANCH   4   5
ENDBRANCH   3   4
ENDBRANCH   2   3
ENDBRANCH   1   2
BRANCH   1  18
ATOM     18  C   UNL     1     175.232 168.571 151.413  1.00  0.00     0.000 C 
BRANCH  18  19
ATOM     19  C   UNL     1     174.540 169.947 151.499  1.00  0.00     0.000 C 
BRANCH  19  20
ATOM     20  C   UNL     1     174.647 170.806 150.228  1.00  0.00     0.000 C 
BRANCH  20  21
ATOM     21  C   UNL     1     173.360 171.596 149.932  1.00  0.00     0.000 C 
BRANCH  21  22
ATOM     22  C   UNL     1     173.608 173.104 149.748  1.00  0.00     0.000 C 
BRANCH  22  23
ATOM     23  C   UNL     1     174.962 173.614 150.272  1.00  0.00     0.000 C 
BRANCH  23  24
ATOM     24  C   UNL     1     174.855 174.301 151.644  1.00  0.00    -0.000 C 
BRANCH  24  25
ATOM     25  C   UNL     1     175.061 173.311 152.804  1.00  0.00    -0.000 C 
BRANCH  25  26
ATOM     26  C   UNL     1     173.908 173.356 153.823  1.00  0.00    -0.000 C 
BRANCH  26  27
ATOM     27  C   UNL     1     172.798 172.343 153.495  1.00  0.00    -0.000 C 
BRANCH  27  28
ATOM     28  C   UNL     1     171.506 172.627 154.282  1.00  0.00    -0.000 C 
BRANCH  28  29
ATOM     29  C   UNL     1     170.265 172.756 153.381  1.00  0.00    -0.000 C 
BRANCH  29  30
ATOM     30  C   UNL     1     170.531 172.582 151.875  1.00  0.00    -0.000 C 
BRANCH  30  31
ATOM     31  C   UNL     1     170.301 173.870 151.069  1.00  0.00    -0.003 C 
ATOM     32  C   UNL     1     171.212 174.993 151.556  1.00  0.00     0.004 C 
ENDBRANCH  30  31
ENDBRANCH  29  30
ENDBRANCH  28  29
ENDBRANCH  27  28
ENDBRANCH  26  27
ENDBRANCH  25  26
ENDBRANCH  24  25
ENDBRANCH  23  24
ENDBRANCH  22  23
ENDBRANCH  21  22
ENDBRANCH  20  21
ENDBRANCH  19  20
ENDBRANCH  18  19
ENDBRANCH   1  18
TORSDOF 28
ENDMDL
MODEL 2
REMARK VINA RESULT:    -3.552      4.421      8.958
REMARK INTER + INTRA:         -15.857
REMARK INTER:                 -11.792
REMARK INTRA:                  -4.065
REMARK UNBOUND:                -6.492
REMARK SMILES CCCCCCCCCCCCCCCCCCCCCCCCCCCCCC(=O)[O-]
REMARK SMILES IDX 16 1 17 2 18 3 19 4 20 5 21 6 22 7 23 8 24 9 25 10 26 11
REMARK SMILES IDX 27 12 28 13 29 14 30 15 31 16 32 17 15 18 14 19 13 20 12 21
REMARK SMILES IDX 11 22 10 23 9 24 8 25 7 26 6 27 5 28 4 29 3 30 2 31 1 32
REMARK H PARENT
REMARK Flexibility Score: inf
ROOT
ATOM      1  C   UNL     1     172.239 165.759 151.247  1.00  0.00     0.000 C 
ENDROOT
BRANCH   1   2
ATOM      2  C   UNL     1     171.439 166.939 150.666  1.00  0.00     0.000 C 
BRANCH   2   3
ATOM      3  C   UNL     1     172.343 168.006 150.025  1.00  0.00     0.000 C 
BRANCH   3   4
ATOM      4  C   UNL     1     173.161 167.454 148.848  1.00  0.00     0.000 C 
BRANCH   4   5
ATOM      5  C   UNL     1     174.654 167.817 148.948  1.00  0.00     0.000 C 
BRANCH   5   6
ATOM      6  C   UNL     1     174.986 168.590 150.233  1.00  0.00     0.000 C 
BRANCH   6   7
ATOM      7  C   UNL     1     175.598 169.972 149.951  1.00  0.00     0.000 C 
BRANCH   7   8
ATOM      8  C   UNL     1     174.963 171.081 150.808  1.00  0.00     0.000 C 
BRANCH   8   9
ATOM      9  C   UNL     1     173.990 171.959 150.008  1.00  0.00     0.000 C 
BRANCH   9  10
ATOM     10  C   UNL     1     174.505 173.399 149.899  1.00  0.00     0.000 C 
BRANCH  10  11
ATOM     11  C   UNL     1     174.836 173.965 151.288  1.00  0.00     0.000 C 
BRANCH  11  12
ATOM     12  C   UNL     1     173.588 174.170 152.160  1.00  0.00     0.000 C 
BRANCH  12  13
ATOM     13  C   UNL     1     173.641 173.359 153.468  1.00  0.00     0.006 C 
BRANCH  13  14
ATOM     14  C   UNL     1     175.077 173.162 153.970  1.00  0.00     0.053 C 
BRANCH  14  15
ATOM     15  C   UNL     1     175.227 171.891 154.749  1.00  0.00     0.041 C 
ATOM     16  O   UNL     1     175.493 170.812 154.157  1.00  0.00    -0.550 OA
ATOM     17  O   UNL     1     175.039 171.892 156.126  1.00  0.00    -0.550 OA
ENDBRANCH  14  15
ENDBRANCH  13  14
ENDBRANCH  12  13
ENDBRANCH  11  12
ENDBRANCH  10  11
ENDBRANCH   9  10
ENDBRANCH   8   9
ENDBRANCH   7   8
ENDBRANCH   6   7
ENDBRANCH   5   6
ENDBRANCH   4   5
ENDBRANCH   3   4
ENDBRANCH   2   3
ENDBRANCH   1   2
BRANCH   1  18
ATOM     18  C   UNL     1     173.169 166.119 152.423  1.00  0.00     0.000 C 
BRANCH  18  19
ATOM     19  C   UNL     1     174.630 165.644 152.278  1.00  0.00     0.000 C 
BRANCH  19  20
ATOM     20  C   UNL     1     174.924 164.834 151.003  1.00  0.00     0.000 C 
BRANCH  20  21
ATOM     21  C   UNL     1     175.934 163.698 151.239  1.00  0.00     0.000 C 
BRANCH  21  22
ATOM     22  C   UNL     1     175.343 162.302 150.971  1.00  0.00     0.000 C 
BRANCH  22  23
ATOM     23  C   UNL     1     173.819 162.266 150.761  1.00  0.00     0.000 C 
BRANCH  23  24
ATOM     24  C   UNL     1     173.362 161.086 149.886  1.00  0.00    -0.000 C 
BRANCH  24  25
ATOM     25  C   UNL     1     174.247 159.843 150.085  1.00  0.00    -0.000 C 
BRANCH  25  26
ATOM     26  C   UNL     1     173.420 158.553 150.234  1.00  0.00    -0.000 C 
BRANCH  26  27
ATOM     27  C   UNL     1     172.014 158.821 150.797  1.00  0.00    -0.000 C 
BRANCH  27  28
ATOM     28  C   UNL     1     171.661 157.865 151.950  1.00  0.00    -0.000 C 
BRANCH  28  29
ATOM     29  C   UNL     1     171.974 158.450 153.339  1.00  0.00    -0.000 C 
BRANCH  29  30
ATOM     30  C   UNL     1     172.429 159.921 153.340  1.00  0.00    -0.000 C 
BRANCH  30  31
ATOM     31  C   UNL     1     173.528 160.211 154.375  1.00  0.00    -0.003 C 
ATOM     32  C   UNL     1     174.915 159.994 153.780  1.00  0.00     0.004 C 
ENDBRANCH  30  31
ENDBRANCH  29  30
ENDBRANCH  28  29
ENDBRANCH  27  28
ENDBRANCH  26  27
ENDBRANCH  25  26
ENDBRANCH  24  25
ENDBRANCH  23  24
ENDBRANCH  22  23
ENDBRANCH  21  22
ENDBRANCH  20  21
ENDBRANCH  19  20
ENDBRANCH  18  19
ENDBRANCH   1  18
TORSDOF 28
ENDMDL
MODEL 3
REMARK VINA RESULT:    -3.531      5.475      8.130
REMARK INTER + INTRA:         -15.802
REMARK INTER:                 -12.551
REMARK INTRA:                  -3.250
REMARK UNBOUND:                -6.492
REMARK SMILES CCCCCCCCCCCCCCCCCCCCCCCCCCCCCC(=O)[O-]
REMARK SMILES IDX 16 1 17 2 18 3 19 4 20 5 21 6 22 7 23 8 24 9 25 10 26 11
REMARK SMILES IDX 27 12 28 13 29 14 30 15 31 16 32 17 15 18 14 19 13 20 12 21
REMARK SMILES IDX 11 22 10 23 9 24 8 25 7 26 6 27 5 28 4 29 3 30 2 31 1 32
REMARK H PARENT
REMARK Flexibility Score: inf
ROOT
ATOM      1  C   UNL     1     171.607 166.185 150.327  1.00  0.00     0.000 C 
ENDROOT
BRANCH   1   2
ATOM      2  C   UNL     1     172.342 165.600 151.547  1.00  0.00     0.000 C 
BRANCH   2   3
ATOM      3  C   UNL     1     173.141 164.331 151.202  1.00  0.00     0.000 C 
BRANCH   3   4
ATOM      4  C   UNL     1     174.660 164.556 151.272  1.00  0.00     0.000 C 
BRANCH   4   5
ATOM      5  C   UNL     1     175.455 163.249 151.098  1.00  0.00     0.000 C 
BRANCH   5   6
ATOM      6  C   UNL     1     174.596 162.108 150.534  1.00  0.00     0.000 C 
BRANCH   6   7
ATOM      7  C   UNL     1     175.421 161.088 149.732  1.00  0.00     0.000 C 
BRANCH   7   8
ATOM      8  C   UNL     1     175.104 159.636 150.128  1.00  0.00     0.000 C 
BRANCH   8   9
ATOM      9  C   UNL     1     173.645 159.449 150.570  1.00  0.00     0.000 C 
BRANCH   9  10
ATOM     10  C   UNL     1     173.126 158.056 150.194  1.00  0.00     0.000 C 
BRANCH  10  11
ATOM     11  C   UNL     1     171.603 158.080 149.997  1.00  0.00     0.000 C 
BRANCH  11  12
ATOM     12  C   UNL     1     171.049 159.499 149.800  1.00  0.00     0.000 C 
BRANCH  12  13
ATOM     13  C   UNL     1     169.707 159.511 149.045  1.00  0.00     0.006 C 
BRANCH  13  14
ATOM     14  C   UNL     1     168.670 160.417 149.723  1.00  0.00     0.053 C 
BRANCH  14  15
ATOM     15  C   UNL     1     168.766 161.833 149.240  1.00  0.00     0.041 C 
ATOM     16  O   UNL     1     169.295 162.715 149.965  1.00  0.00    -0.550 OA
ATOM     17  O   UNL     1     168.242 162.184 148.002  1.00  0.00    -0.550 OA
ENDBRANCH  14  15
ENDBRANCH  13  14
ENDBRANCH  12  13
ENDBRANCH  11  12
ENDBRANCH  10  11
ENDBRANCH   9  10
ENDBRANCH   8   9
ENDBRANCH   7   8
ENDBRANCH   6   7
ENDBRANCH   5   6
ENDBRANCH   4   5
ENDBRANCH   3   4
ENDBRANCH   2   3
ENDBRANCH   1   2
BRANCH   1  18
ATOM     18  C   UNL     1     172.081 167.586 149.892  1.00  0.00     0.000 C 
BRANCH  18  19
ATOM     19  C   UNL     1     173.236 167.605 148.869  1.00  0.00     0.000 C 
BRANCH  19  20
ATOM     20  C   UNL     1     174.634 167.819 149.475  1.00  0.00     0.000 C 
BRANCH  20  21
ATOM     21  C   UNL     1     174.583 168.408 150.895  1.00  0.00     0.000 C 
BRANCH  21  22
ATOM     22  C   UNL     1     175.409 169.698 151.041  1.00  0.00     0.000 C 
BRANCH  22  23
ATOM     23  C   UNL     1     175.030 170.832 150.072  1.00  0.00     0.000 C 
BRANCH  23  24
ATOM     24  C   UNL     1     173.550 171.240 150.174  1.00  0.00    -0.000 C 
BRANCH  24  25
ATOM     25  C   UNL     1     173.352 172.751 149.963  1.00  0.00    -0.000 C 
BRANCH  25  26
ATOM     26  C   UNL     1     174.531 173.578 150.507  1.00  0.00    -0.000 C 
BRANCH  26  27
ATOM     27  C   UNL     1     174.221 174.211 151.873  1.00  0.00    -0.000 C 
BRANCH  27  28
ATOM     28  C   UNL     1     175.438 174.179 152.815  1.00  0.00    -0.000 C 
BRANCH  28  29
ATOM     29  C   UNL     1     175.433 172.971 153.768  1.00  0.00    -0.000 C 
BRANCH  29  30
ATOM     30  C   UNL     1     174.168 172.097 153.708  1.00  0.00    -0.000 C 
BRANCH  30  31
ATOM     31  C   UNL     1     173.178 172.390 154.847  1.00  0.00    -0.003 C 
ATOM     32  C   UNL     1     171.736 172.217 154.381  1.00  0.00     0.004 C 
ENDBRANCH  30  31
ENDBRANCH  29  30
ENDBRANCH  28  29
ENDBRANCH  27  28
ENDBRANCH  26  27
ENDBRANCH  25  26
ENDBRANCH  24  25
ENDBRANCH  23  24
ENDBRANCH  22  23
ENDBRANCH  21  22
ENDBRANCH  20  21
ENDBRANCH  19  20
ENDBRANCH  18  19
ENDBRANCH   1  18
TORSDOF 28
ENDMDL
MODEL 4
REMARK VINA RESULT:    -3.526      3.005      5.174
REMARK INTER + INTRA:         -15.790
REMARK INTER:                 -10.649
REMARK INTRA:                  -5.141
REMARK UNBOUND:                -6.492
REMARK SMILES CCCCCCCCCCCCCCCCCCCCCCCCCCCCCC(=O)[O-]
REMARK SMILES IDX 16 1 17 2 18 3 19 4 20 5 21 6 22 7 23 8 24 9 25 10 26 11
REMARK SMILES IDX 27 12 28 13 29 14 30 15 31 16 32 17 15 18 14 19 13 20 12 21
REMARK SMILES IDX 11 22 10 23 9 24 8 25 7 26 6 27 5 28 4 29 3 30 2 31 1 32
REMARK H PARENT
REMARK Flexibility Score: inf
ROOT
ATOM      1  C   UNL     1     174.813 168.297 151.152  1.00  0.00     0.000 C 
ENDROOT
BRANCH   1   2
ATOM      2  C   UNL     1     174.240 167.126 150.333  1.00  0.00     0.000 C 
BRANCH   2   3
ATOM      3  C   UNL     1     173.899 167.528 148.887  1.00  0.00     0.000 C 
BRANCH   3   4
ATOM      4  C   UNL     1     172.430 167.947 148.725  1.00  0.00     0.000 C 
BRANCH   4   5
ATOM      5  C   UNL     1     171.458 166.950 149.383  1.00  0.00     0.000 C 
BRANCH   5   6
ATOM      6  C   UNL     1     170.499 167.628 150.371  1.00  0.00     0.000 C 
BRANCH   6   7
ATOM      7  C   UNL     1     171.137 168.832 151.084  1.00  0.00     0.000 C 
BRANCH   7   8
ATOM      8  C   UNL     1     171.094 168.698 152.615  1.00  0.00     0.000 C 
BRANCH   8   9
ATOM      9  C   UNL     1     172.169 169.545 153.312  1.00  0.00     0.000 C 
BRANCH   9  10
ATOM     10  C   UNL     1     171.934 171.042 153.076  1.00  0.00     0.000 C 
BRANCH  10  11
ATOM     11  C   UNL     1     171.095 171.646 154.212  1.00  0.00     0.000 C 
BRANCH  11  12
ATOM     12  C   UNL     1     170.594 173.063 153.894  1.00  0.00     0.000 C 
BRANCH  12  13
ATOM     13  C   UNL     1     170.281 173.258 152.399  1.00  0.00     0.006 C 
BRANCH  13  14
ATOM     14  C   UNL     1     168.815 172.944 152.068  1.00  0.00     0.053 C 
BRANCH  14  15
ATOM     15  C   UNL     1     168.194 174.013 151.221  1.00  0.00     0.041 C 
ATOM     16  O   UNL     1     168.867 174.576 150.318  1.00  0.00    -0.550 OA
ATOM     17  O   UNL     1     166.882 174.409 151.450  1.00  0.00    -0.550 OA
ENDBRANCH  14  15
ENDBRANCH  13  14
ENDBRANCH  12  13
ENDBRANCH  11  12
ENDBRANCH  10  11
ENDBRANCH   9  10
ENDBRANCH   8   9
ENDBRANCH   7   8
ENDBRANCH   6   7
ENDBRANCH   5   6
ENDBRANCH   4   5
ENDBRANCH   3   4
ENDBRANCH   2   3
ENDBRANCH   1   2
BRANCH   1  18
ATOM     18  C   UNL     1     175.474 169.413 150.319  1.00  0.00     0.000 C 
BRANCH  18  19
ATOM     19  C   UNL     1     174.978 170.843 150.618  1.00  0.00     0.000 C 
BRANCH  19  20
ATOM     20  C   UNL     1     173.593 171.183 150.038  1.00  0.00     0.000 C 
BRANCH  20  21
ATOM     21  C   UNL     1     173.333 172.697 149.966  1.00  0.00     0.000 C 
BRANCH  21  22
ATOM     22  C   UNL     1     174.627 173.530 149.946  1.00  0.00     0.000 C 
BRANCH  22  23
ATOM     23  C   UNL     1     174.963 174.250 151.264  1.00  0.00     0.000 C 
BRANCH  23  24
ATOM     24  C   UNL     1     173.814 174.201 152.285  1.00  0.00    -0.000 C 
BRANCH  24  25
ATOM     25  C   UNL     1     174.317 173.894 153.707  1.00  0.00    -0.000 C 
BRANCH  25  26
ATOM     26  C   UNL     1     175.382 172.783 153.723  1.00  0.00    -0.000 C 
BRANCH  26  27
ATOM     27  C   UNL     1     175.106 171.724 154.804  1.00  0.00    -0.000 C 
BRANCH  27  28
ATOM     28  C   UNL     1     174.300 172.298 155.983  1.00  0.00    -0.000 C 
BRANCH  28  29
ATOM     29  C   UNL     1     174.764 171.764 157.349  1.00  0.00    -0.000 C 
BRANCH  29  30
ATOM     30  C   UNL     1     174.231 172.538 158.569  1.00  0.00    -0.000 C 
BRANCH  30  31
ATOM     31  C   UNL     1     175.340 172.962 159.545  1.00  0.00    -0.003 C 
ATOM     32  C   UNL     1     175.212 174.436 159.915  1.00  0.00     0.004 C 
ENDBRANCH  30  31
ENDBRANCH  29  30
ENDBRANCH  28  29
ENDBRANCH  27  28
ENDBRANCH  26  27
ENDBRANCH  25  26
ENDBRANCH  24  25
ENDBRANCH  23  24
ENDBRANCH  22  23
ENDBRANCH  21  22
ENDBRANCH  20  21
ENDBRANCH  19  20
ENDBRANCH  18  19
ENDBRANCH   1  18
TORSDOF 28
ENDMDL
MODEL 5
REMARK VINA RESULT:    -3.522      5.845      7.695
REMARK INTER + INTRA:         -15.780
REMARK INTER:                 -12.014
REMARK INTRA:                  -3.766
REMARK UNBOUND:                -6.492
REMARK SMILES CCCCCCCCCCCCCCCCCCCCCCCCCCCCCC(=O)[O-]
REMARK SMILES IDX 16 1 17 2 18 3 19 4 20 5 21 6 22 7 23 8 24 9 25 10 26 11
REMARK SMILES IDX 27 12 28 13 29 14 30 15 31 16 32 17 15 18 14 19 13 20 12 21
REMARK SMILES IDX 11 22 10 23 9 24 8 25 7 26 6 27 5 28 4 29 3 30 2 31 1 32
REMARK H PARENT
REMARK Flexibility Score: inf
ROOT
ATOM      1  C   UNL     1     172.543 165.357 152.099  1.00  0.00     0.000 C 
ENDROOT
BRANCH   1   2
ATOM      2  C   UNL     1     172.806 163.865 152.375  1.00  0.00     0.000 C 
BRANCH   2   3
ATOM      3  C   UNL     1     173.724 163.222 151.322  1.00  0.00     0.000 C 
BRANCH   3   4
ATOM      4  C   UNL     1     175.213 163.472 151.608  1.00  0.00     0.000 C 
BRANCH   4   5
ATOM      5  C   UNL     1     176.123 162.426 150.937  1.00  0.00     0.000 C 
BRANCH   5   6
ATOM      6  C   UNL     1     175.384 161.597 149.877  1.00  0.00     0.000 C 
BRANCH   6   7
ATOM      7  C   UNL     1     175.566 160.083 150.079  1.00  0.00     0.000 C 
BRANCH   7   8
ATOM      8  C   UNL     1     174.289 159.404 150.602  1.00  0.00     0.000 C 
BRANCH   8   9
ATOM      9  C   UNL     1     174.229 159.363 152.137  1.00  0.00     0.000 C 
BRANCH   9  10
ATOM     10  C   UNL     1     175.633 159.253 152.743  1.00  0.00     0.000 C 
BRANCH  10  11
ATOM     11  C   UNL     1     175.765 160.163 153.975  1.00  0.00     0.000 C 
BRANCH  11  12
ATOM     12  C   UNL     1     174.415 160.447 154.652  1.00  0.00     0.000 C 
BRANCH  12  13
ATOM     13  C   UNL     1     174.214 159.620 155.936  1.00  0.00     0.006 C 
BRANCH  13  14
ATOM     14  C   UNL     1     173.211 158.475 155.735  1.00  0.00     0.053 C 
BRANCH  14  15
ATOM     15  C   UNL     1     173.715 157.187 156.311  1.00  0.00     0.041 C 
ATOM     16  O   UNL     1     173.777 156.154 155.594  1.00  0.00    -0.550 OA
ATOM     17  O   UNL     1     174.085 157.118 157.649  1.00  0.00    -0.550 OA
ENDBRANCH  14  15
ENDBRANCH  13  14
ENDBRANCH  12  13
ENDBRANCH  11  12
ENDBRANCH  10  11
ENDBRANCH   9  10
ENDBRANCH   8   9
ENDBRANCH   7   8
ENDBRANCH   6   7
ENDBRANCH   5   6
ENDBRANCH   4   5
ENDBRANCH   3   4
ENDBRANCH   2   3
ENDBRANCH   1   2
BRANCH   1  18
ATOM     18  C   UNL     1     171.986 165.671 150.695  1.00  0.00     0.000 C 
BRANCH  18  19
ATOM     19  C   UNL     1     172.683 166.828 149.951  1.00  0.00     0.000 C 
BRANCH  19  20
ATOM     20  C   UNL     1     174.217 166.726 149.888  1.00  0.00     0.000 C 
BRANCH  20  21
ATOM     21  C   UNL     1     174.864 167.918 149.162  1.00  0.00     0.000 C 
BRANCH  21  22
ATOM     22  C   UNL     1     175.228 169.075 150.110  1.00  0.00     0.000 C 
BRANCH  22  23
ATOM     23  C   UNL     1     174.156 170.170 150.250  1.00  0.00     0.000 C 
BRANCH  23  24
ATOM     24  C   UNL     1     173.597 170.284 151.678  1.00  0.00    -0.000 C 
BRANCH  24  25
ATOM     25  C   UNL     1     174.715 170.440 152.725  1.00  0.00    -0.000 C 
BRANCH  25  26
ATOM     26  C   UNL     1     174.286 171.322 153.912  1.00  0.00    -0.000 C 
BRANCH  26  27
ATOM     27  C   UNL     1     175.110 172.617 154.006  1.00  0.00    -0.000 C 
BRANCH  27  28
ATOM     28  C   UNL     1     174.246 173.869 153.772  1.00  0.00    -0.000 C 
BRANCH  28  29
ATOM     29  C   UNL     1     173.922 174.111 152.287  1.00  0.00    -0.000 C 
BRANCH  29  30
ATOM     30  C   UNL     1     175.121 173.991 151.329  1.00  0.00    -0.000 C 
BRANCH  30  31
ATOM     31  C   UNL     1     174.703 173.788 149.864  1.00  0.00    -0.003 C 
ATOM     32  C   UNL     1     173.201 173.544 149.749  1.00  0.00     0.004 C 
ENDBRANCH  30  31
ENDBRANCH  29  30
ENDBRANCH  28  29
ENDBRANCH  27  28
ENDBRANCH  26  27
ENDBRANCH  25  26
ENDBRANCH  24  25
ENDBRANCH  23  24
ENDBRANCH  22  23
ENDBRANCH  21  22
ENDBRANCH  20  21
ENDBRANCH  19  20
ENDBRANCH  18  19
ENDBRANCH   1  18
TORSDOF 28
ENDMDL
MODEL 6
REMARK VINA RESULT:    -3.491      4.432      6.940
REMARK INTER + INTRA:         -15.697
REMARK INTER:                 -11.102
REMARK INTRA:                  -4.595
REMARK UNBOUND:                -6.492
REMARK SMILES CCCCCCCCCCCCCCCCCCCCCCCCCCCCCC(=O)[O-]
REMARK SMILES IDX 16 1 17 2 18 3 19 4 20 5 21 6 22 7 23 8 24 9 25 10 26 11
REMARK SMILES IDX 27 12 28 13 29 14 30 15 31 16 32 17 15 18 14 19 13 20 12 21
REMARK SMILES IDX 11 22 10 23 9 24 8 25 7 26 6 27 5 28 4 29 3 30 2 31 1 32
REMARK H PARENT
REMARK Flexibility Score: inf
ROOT
ATOM      1  C   UNL     1     174.579 168.940 154.004  1.00  0.00     0.000 C 
ENDROOT
BRANCH   1   2
ATOM      2  C   UNL     1     175.392 168.526 152.763  1.00  0.00     0.000 C 
BRANCH   2   3
ATOM      3  C   UNL     1     174.976 169.301 151.500  1.00  0.00     0.000 C 
BRANCH   3   4
ATOM      4  C   UNL     1     174.656 168.371 150.320  1.00  0.00     0.000 C 
BRANCH   4   5
ATOM      5  C   UNL     1     173.233 167.788 150.401  1.00  0.00     0.000 C 
BRANCH   5   6
ATOM      6  C   UNL     1     173.228 166.254 150.446  1.00  0.00     0.000 C 
BRANCH   6   7
ATOM      7  C   UNL     1     174.643 165.659 150.530  1.00  0.00     0.000 C 
BRANCH   7   8
ATOM      8  C   UNL     1     174.817 164.727 151.741  1.00  0.00     0.000 C 
BRANCH   8   9
ATOM      9  C   UNL     1     174.496 163.262 151.408  1.00  0.00     0.000 C 
BRANCH   9  10
ATOM     10  C   UNL     1     175.735 162.530 150.879  1.00  0.00     0.000 C 
BRANCH  10  11
ATOM     11  C   UNL     1     175.346 161.528 149.781  1.00  0.00     0.000 C 
BRANCH  11  12
ATOM     12  C   UNL     1     175.772 160.089 150.109  1.00  0.00     0.000 C 
BRANCH  12  13
ATOM     13  C   UNL     1     174.585 159.109 150.126  1.00  0.00     0.006 C 
BRANCH  13  14
ATOM     14  C   UNL     1     173.259 159.813 150.444  1.00  0.00     0.053 C 
BRANCH  14  15
ATOM     15  C   UNL     1     172.747 159.449 151.805  1.00  0.00     0.041 C 
ATOM     16  O   UNL     1     171.576 159.761 152.146  1.00  0.00    -0.550 OA
ATOM     17  O   UNL     1     173.575 158.793 152.708  1.00  0.00    -0.550 OA
ENDBRANCH  14  15
ENDBRANCH  13  14
ENDBRANCH  12  13
ENDBRANCH  11  12
ENDBRANCH  10  11
ENDBRANCH   9  10
ENDBRANCH   8   9
ENDBRANCH   7   8
ENDBRANCH   6   7
ENDBRANCH   5   6
ENDBRANCH   4   5
ENDBRANCH   3   4
ENDBRANCH   2   3
ENDBRANCH   1   2
BRANCH   1  18
ATOM     18  C   UNL     1     173.188 169.532 153.703  1.00  0.00     0.000 C 
BRANCH  18  19
ATOM     19  C   UNL     1     172.545 170.329 154.858  1.00  0.00     0.000 C 
BRANCH  19  20
ATOM     20  C   UNL     1     173.445 170.521 156.091  1.00  0.00     0.000 C 
BRANCH  20  21
ATOM     21  C   UNL     1     173.562 171.994 156.519  1.00  0.00     0.000 C 
BRANCH  21  22
ATOM     22  C   UNL     1     173.900 172.935 155.349  1.00  0.00     0.000 C 
BRANCH  22  23
ATOM     23  C   UNL     1     175.191 172.592 154.584  1.00  0.00     0.000 C 
BRANCH  23  24
ATOM     24  C   UNL     1     175.019 172.656 153.057  1.00  0.00    -0.000 C 
BRANCH  24  25
ATOM     25  C   UNL     1     175.091 174.100 152.528  1.00  0.00    -0.000 C 
BRANCH  25  26
ATOM     26  C   UNL     1     174.832 174.181 151.013  1.00  0.00    -0.000 C 
BRANCH  26  27
ATOM     27  C   UNL     1     174.608 172.797 150.382  1.00  0.00    -0.000 C 
BRANCH  27  28
ATOM     28  C   UNL     1     173.247 172.701 149.669  1.00  0.00    -0.000 C 
BRANCH  28  29
ATOM     29  C   UNL     1     172.458 171.434 150.042  1.00  0.00    -0.000 C 
BRANCH  29  30
ATOM     30  C   UNL     1     171.402 171.623 151.146  1.00  0.00    -0.000 C 
BRANCH  30  31
ATOM     31  C   UNL     1     171.125 173.100 151.468  1.00  0.00    -0.003 C 
ATOM     32  C   UNL     1     171.245 173.367 152.965  1.00  0.00     0.004 C 
ENDBRANCH  30  31
ENDBRANCH  29  30
ENDBRANCH  28  29
ENDBRANCH  27  28
ENDBRANCH  26  27
ENDBRANCH  25  26
ENDBRANCH  24  25
ENDBRANCH  23  24
ENDBRANCH  22  23
ENDBRANCH  21  22
ENDBRANCH  20  21
ENDBRANCH  19  20
ENDBRANCH  18  19
ENDBRANCH   1  18
TORSDOF 28
ENDMDL
MODEL 7
REMARK VINA RESULT:    -3.463      3.847      8.347
REMARK INTER + INTRA:         -15.622
REMARK INTER:                 -11.157
REMARK INTRA:                  -4.465
REMARK UNBOUND:                -6.492
REMARK SMILES CCCCCCCCCCCCCCCCCCCCCCCCCCCCCC(=O)[O-]
REMARK SMILES IDX 16 1 17 2 18 3 19 4 20 5 21 6 22 7 23 8 24 9 25 10 26 11
REMARK SMILES IDX 27 12 28 13 29 14 30 15 31 16 32 17 15 18 14 19 13 20 12 21
REMARK SMILES IDX 11 22 10 23 9 24 8 25 7 26 6 27 5 28 4 29 3 30 2 31 1 32
REMARK H PARENT
REMARK Flexibility Score: inf
ROOT
ATOM      1  C   UNL     1     173.188 169.540 150.191  1.00  0.00     0.000 C 
ENDROOT
BRANCH   1   2
ATOM      2  C   UNL     1     173.162 171.079 150.136  1.00  0.00     0.000 C 
BRANCH   2   3
ATOM      3  C   UNL     1     174.571 171.695 150.162  1.00  0.00     0.000 C 
BRANCH   3   4
ATOM      4  C   UNL     1     174.543 173.230 150.116  1.00  0.00     0.000 C 
BRANCH   4   5
ATOM      5  C   UNL     1     173.110 173.793 150.163  1.00  0.00     0.000 C 
BRANCH   5   6
ATOM      6  C   UNL     1     172.801 174.505 151.487  1.00  0.00     0.000 C 
BRANCH   6   7
ATOM      7  C   UNL     1     171.889 173.675 152.406  1.00  0.00     0.000 C 
BRANCH   7   8
ATOM      8  C   UNL     1     172.574 173.302 153.732  1.00  0.00     0.000 C 
BRANCH   8   9
ATOM      9  C   UNL     1     174.056 173.703 153.763  1.00  0.00     0.000 C 
BRANCH   9  10
ATOM     10  C   UNL     1     174.965 172.467 153.745  1.00  0.00     0.000 C 
BRANCH  10  11
ATOM     11  C   UNL     1     174.140 171.184 153.927  1.00  0.00     0.000 C 
BRANCH  11  12
ATOM     12  C   UNL     1     174.952 169.910 153.651  1.00  0.00     0.000 C 
BRANCH  12  13
ATOM     13  C   UNL     1     174.244 168.638 154.154  1.00  0.00     0.006 C 
BRANCH  13  14
ATOM     14  C   UNL     1     172.815 168.518 153.610  1.00  0.00     0.053 C 
BRANCH  14  15
ATOM     15  C   UNL     1     172.013 167.502 154.367  1.00  0.00     0.041 C 
ATOM     16  O   UNL     1     171.334 166.642 153.748  1.00  0.00    -0.550 OA
ATOM     17  O   UNL     1     171.991 167.527 155.756  1.00  0.00    -0.550 OA
ENDBRANCH  14  15
ENDBRANCH  13  14
ENDBRANCH  12  13
ENDBRANCH  11  12
ENDBRANCH  10  11
ENDBRANCH   9  10
ENDBRANCH   8   9
ENDBRANCH   7   8
ENDBRANCH   6   7
ENDBRANCH   5   6
ENDBRANCH   4   5
ENDBRANCH   3   4
ENDBRANCH   2   3
ENDBRANCH   1   2
BRANCH   1  18
ATOM     18  C   UNL     1     174.593 168.910 150.118  1.00  0.00     0.000 C 
BRANCH  18  19
ATOM     19  C   UNL     1     174.711 167.662 149.218  1.00  0.00     0.000 C 
BRANCH  19  20
ATOM     20  C   UNL     1     174.106 166.377 149.811  1.00  0.00     0.000 C 
BRANCH  20  21
ATOM     21  C   UNL     1     174.467 166.178 151.293  1.00  0.00     0.000 C 
BRANCH  21  22
ATOM     22  C   UNL     1     174.591 164.696 151.688  1.00  0.00     0.000 C 
BRANCH  22  23
ATOM     23  C   UNL     1     175.776 163.946 151.053  1.00  0.00     0.000 C 
BRANCH  23  24
ATOM     24  C   UNL     1     175.731 162.429 151.308  1.00  0.00    -0.000 C 
BRANCH  24  25
ATOM     25  C   UNL     1     175.657 161.626 149.998  1.00  0.00    -0.000 C 
BRANCH  25  26
ATOM     26  C   UNL     1     175.728 160.107 150.238  1.00  0.00    -0.000 C 
BRANCH  26  27
ATOM     27  C   UNL     1     175.373 159.726 151.685  1.00  0.00    -0.000 C 
BRANCH  27  28
ATOM     28  C   UNL     1     173.905 159.288 151.824  1.00  0.00    -0.000 C 
BRANCH  28  29
ATOM     29  C   UNL     1     173.231 158.993 150.472  1.00  0.00    -0.000 C 
BRANCH  29  30
ATOM     30  C   UNL     1     171.938 159.782 150.200  1.00  0.00    -0.000 C 
BRANCH  30  31
ATOM     31  C   UNL     1     172.199 161.208 149.688  1.00  0.00    -0.003 C 
ATOM     32  C   UNL     1     171.868 162.245 150.756  1.00  0.00     0.004 C 
ENDBRANCH  30  31
ENDBRANCH  29  30
ENDBRANCH  28  29
ENDBRANCH  27  28
ENDBRANCH  26  27
ENDBRANCH  25  26
ENDBRANCH  24  25
ENDBRANCH  23  24
ENDBRANCH  22  23
ENDBRANCH  21  22
ENDBRANCH  20  21
ENDBRANCH  19  20
ENDBRANCH  18  19
ENDBRANCH   1  18
TORSDOF 28
ENDMDL
MODEL 8
REMARK VINA RESULT:    -3.462      4.902      7.260
REMARK INTER + INTRA:         -15.621
REMARK INTER:                 -10.884
REMARK INTRA:                  -4.736
REMARK UNBOUND:                -6.492
REMARK SMILES CCCCCCCCCCCCCCCCCCCCCCCCCCCCCC(=O)[O-]
REMARK SMILES IDX 16 1 17 2 18 3 19 4 20 5 21 6 22 7 23 8 24 9 25 10 26 11
REMARK SMILES IDX 27 12 28 13 29 14 30 15 31 16 32 17 15 18 14 19 13 20 12 21
REMARK SMILES IDX 11 22 10 23 9 24 8 25 7 26 6 27 5 28 4 29 3 30 2 31 1 32
REMARK H PARENT
REMARK Flexibility Score: inf
ROOT
ATOM      1  C   UNL     1     172.059 167.114 153.545  1.00  0.00     0.000 C 
ENDROOT
BRANCH   1   2
ATOM      2  C   UNL     1     171.292 166.641 152.297  1.00  0.00     0.000 C 
BRANCH   2   3
ATOM      3  C   UNL     1     171.706 167.402 151.026  1.00  0.00     0.000 C 
BRANCH   3   4
ATOM      4  C   UNL     1     172.488 166.520 150.041  1.00  0.00     0.000 C 
BRANCH   4   5
ATOM      5  C   UNL     1     174.011 166.713 150.162  1.00  0.00     0.000 C 
BRANCH   5   6
ATOM      6  C   UNL     1     174.744 165.407 150.502  1.00  0.00     0.000 C 
BRANCH   6   7
ATOM      7  C   UNL     1     174.627 165.033 151.989  1.00  0.00     0.000 C 
BRANCH   7   8
ATOM      8  C   UNL     1     174.636 163.511 152.213  1.00  0.00     0.000 C 
BRANCH   8   9
ATOM      9  C   UNL     1     174.444 162.721 150.910  1.00  0.00     0.000 C 
BRANCH   9  10
ATOM     10  C   UNL     1     175.710 161.936 150.546  1.00  0.00     0.000 C 
BRANCH  10  11
ATOM     11  C   UNL     1     175.346 160.585 149.910  1.00  0.00     0.000 C 
BRANCH  11  12
ATOM     12  C   UNL     1     173.880 160.191 150.147  1.00  0.00     0.000 C 
BRANCH  12  13
ATOM     13  C   UNL     1     173.684 158.665 150.222  1.00  0.00     0.006 C 
BRANCH  13  14
ATOM     14  C   UNL     1     172.200 158.274 150.261  1.00  0.00     0.053 C 
BRANCH  14  15
ATOM     15  C   UNL     1     171.692 158.153 151.666  1.00  0.00     0.041 C 
ATOM     16  O   UNL     1     171.911 157.107 152.331  1.00  0.00    -0.550 OA
ATOM     17  O   UNL     1     170.949 159.183 152.229  1.00  0.00    -0.550 OA
ENDBRANCH  14  15
ENDBRANCH  13  14
ENDBRANCH  12  13
ENDBRANCH  11  12
ENDBRANCH  10  11
ENDBRANCH   9  10
ENDBRANCH   8   9
ENDBRANCH   7   8
ENDBRANCH   6   7
ENDBRANCH   5   6
ENDBRANCH   4   5
ENDBRANCH   3   4
ENDBRANCH   2   3
ENDBRANCH   1   2
BRANCH   1  18
ATOM     18  C   UNL     1     172.831 168.438 153.372  1.00  0.00     0.000 C 
BRANCH  18  19
ATOM     19  C   UNL     1     174.345 168.362 153.659  1.00  0.00     0.000 C 
BRANCH  19  20
ATOM     20  C   UNL     1     175.246 168.852 152.512  1.00  0.00     0.000 C 
BRANCH  20  21
ATOM     21  C   UNL     1     174.911 170.284 152.061  1.00  0.00     0.000 C 
BRANCH  21  22
ATOM     22  C   UNL     1     174.436 170.360 150.600  1.00  0.00     0.000 C 
BRANCH  22  23
ATOM     23  C   UNL     1     172.985 170.835 150.405  1.00  0.00     0.000 C 
BRANCH  23  24
ATOM     24  C   UNL     1     172.883 172.335 150.084  1.00  0.00    -0.000 C 
BRANCH  24  25
ATOM     25  C   UNL     1     174.245 172.937 149.697  1.00  0.00    -0.000 C 
BRANCH  25  26
ATOM     26  C   UNL     1     174.744 173.967 150.727  1.00  0.00    -0.000 C 
BRANCH  26  27
ATOM     27  C   UNL     1     173.709 174.238 151.832  1.00  0.00    -0.000 C 
BRANCH  27  28
ATOM     28  C   UNL     1     174.247 173.877 153.228  1.00  0.00    -0.000 C 
BRANCH  28  29
ATOM     29  C   UNL     1     173.134 173.543 154.237  1.00  0.00    -0.000 C 
BRANCH  29  30
ATOM     30  C   UNL     1     172.696 172.067 154.260  1.00  0.00    -0.000 C 
BRANCH  30  31
ATOM     31  C   UNL     1     171.338 171.831 153.580  1.00  0.00    -0.003 C 
ATOM     32  C   UNL     1     170.562 173.137 153.433  1.00  0.00     0.004 C 
ENDBRANCH  30  31
ENDBRANCH  29  30
ENDBRANCH  28  29
ENDBRANCH  27  28
ENDBRANCH  26  27
ENDBRANCH  25  26
ENDBRANCH  24  25
ENDBRANCH  23  24
ENDBRANCH  22  23
ENDBRANCH  21  22
ENDBRANCH  20  21
ENDBRANCH  19  20
ENDBRANCH  18  19
ENDBRANCH   1  18
TORSDOF 28
ENDMDL
MODEL 9
REMARK VINA RESULT:    -3.445      4.126      6.507
REMARK INTER + INTRA:         -15.577
REMARK INTER:                 -10.907
REMARK INTRA:                  -4.669
REMARK UNBOUND:                -6.492
REMARK SMILES CCCCCCCCCCCCCCCCCCCCCCCCCCCCCC(=O)[O-]
REMARK SMILES IDX 16 1 17 2 18 3 19 4 20 5 21 6 22 7 23 8 24 9 25 10 26 11
REMARK SMILES IDX 27 12 28 13 29 14 30 15 31 16 32 17 15 18 14 19 13 20 12 21
REMARK SMILES IDX 11 22 10 23 9 24 8 25 7 26 6 27 5 28 4 29 3 30 2 31 1 32
REMARK H PARENT
REMARK Flexibility Score: inf
ROOT
ATOM      1  C   UNL     1     171.315 168.060 149.986  1.00  0.00     0.000 C 
ENDROOT
BRANCH   1   2
ATOM      2  C   UNL     1     172.341 168.586 148.966  1.00  0.00     0.000 C 
BRANCH   2   3
ATOM      3  C   UNL     1     173.398 167.532 148.593  1.00  0.00     0.000 C 
BRANCH   3   4
ATOM      4  C   UNL     1     174.624 167.576 149.519  1.00  0.00     0.000 C 
BRANCH   4   5
ATOM      5  C   UNL     1     174.917 168.995 150.039  1.00  0.00     0.000 C 
BRANCH   5   6
ATOM      6  C   UNL     1     175.178 169.025 151.552  1.00  0.00     0.000 C 
BRANCH   6   7
ATOM      7  C   UNL     1     174.163 168.185 152.344  1.00  0.00     0.000 C 
BRANCH   7   8
ATOM      8  C   UNL     1     174.815 166.975 153.036  1.00  0.00     0.000 C 
BRANCH   8   9
ATOM      9  C   UNL     1     174.123 165.650 152.682  1.00  0.00     0.000 C 
BRANCH   9  10
ATOM     10  C   UNL     1     175.076 164.711 151.933  1.00  0.00     0.000 C 
BRANCH  10  11
ATOM     11  C   UNL     1     174.609 163.252 152.056  1.00  0.00     0.000 C 
BRANCH  11  12
ATOM     12  C   UNL     1     173.811 162.777 150.832  1.00  0.00     0.000 C 
BRANCH  12  13
ATOM     13  C   UNL     1     174.443 161.547 150.155  1.00  0.00     0.006 C 
BRANCH  13  14
ATOM     14  C   UNL     1     173.503 160.334 150.164  1.00  0.00     0.053 C 
BRANCH  14  15
ATOM     15  C   UNL     1     173.886 159.341 151.219  1.00  0.00     0.041 C 
ATOM     16  O   UNL     1     174.823 159.596 152.020  1.00  0.00    -0.550 OA
ATOM     17  O   UNL     1     173.230 158.118 151.296  1.00  0.00    -0.550 OA
ENDBRANCH  14  15
ENDBRANCH  13  14
ENDBRANCH  12  13
ENDBRANCH  11  12
ENDBRANCH  10  11
ENDBRANCH   9  10
ENDBRANCH   8   9
ENDBRANCH   7   8
ENDBRANCH   6   7
ENDBRANCH   5   6
ENDBRANCH   4   5
ENDBRANCH   3   4
ENDBRANCH   2   3
ENDBRANCH   1   2
BRANCH   1  18
ATOM     18  C   UNL     1     170.716 169.131 150.919  1.00  0.00     0.000 C 
BRANCH  18  19
ATOM     19  C   UNL     1     171.626 170.345 151.200  1.00  0.00     0.000 C 
BRANCH  19  20
ATOM     20  C   UNL     1     170.948 171.715 151.023  1.00  0.00     0.000 C 
BRANCH  20  21
ATOM     21  C   UNL     1     171.935 172.817 150.600  1.00  0.00     0.000 C 
BRANCH  21  22
ATOM     22  C   UNL     1     173.161 172.270 149.848  1.00  0.00     0.000 C 
BRANCH  22  23
ATOM     23  C   UNL     1     174.483 173.007 150.126  1.00  0.00     0.000 C 
BRANCH  23  24
ATOM     24  C   UNL     1     174.313 174.206 151.074  1.00  0.00    -0.000 C 
BRANCH  24  25
ATOM     25  C   UNL     1     175.422 174.260 152.141  1.00  0.00    -0.000 C 
BRANCH  25  26
ATOM     26  C   UNL     1     174.926 173.800 153.524  1.00  0.00    -0.000 C 
BRANCH  26  27
ATOM     27  C   UNL     1     175.012 172.274 153.698  1.00  0.00    -0.000 C 
BRANCH  27  28
ATOM     28  C   UNL     1     173.621 171.628 153.834  1.00  0.00    -0.000 C 
BRANCH  28  29
ATOM     29  C   UNL     1     173.490 170.733 155.079  1.00  0.00    -0.000 C 
BRANCH  29  30
ATOM     30  C   UNL     1     174.818 170.378 155.772  1.00  0.00    -0.000 C 
BRANCH  30  31
ATOM     31  C   UNL     1     174.869 170.823 157.242  1.00  0.00    -0.003 C 
ATOM     32  C   UNL     1     174.374 172.257 157.400  1.00  0.00     0.004 C 
ENDBRANCH  30  31
ENDBRANCH  29  30
ENDBRANCH  28  29
ENDBRANCH  27  28
ENDBRANCH  26  27
ENDBRANCH  25  26
ENDBRANCH  24  25
ENDBRANCH  23  24
ENDBRANCH  22  23
ENDBRANCH  21  22
ENDBRANCH  20  21
ENDBRANCH  19  20
ENDBRANCH  18  19
ENDBRANCH   1  18
TORSDOF 28
ENDMDL
