MODEL 1
REMARK VINA RESULT:    -4.372      0.000      0.000
REMARK INTER + INTRA:          -5.735
REMARK INTER:                  -5.267
REMARK INTRA:                  -0.468
REMARK UNBOUND:                -0.468
REMARK SMILES O=c1ccn([C@@H]2O[C@@H](CO)[C@H](O)[C@H]2O)c(=O)[nH]1
REMARK SMILES IDX 6 1 13 2 11 3 8 4 7 5 5 6 3 7 4 8 2 9 17 10 1 11 15 12 16 14
REMARK SMILES IDX 14 15 12 17 9 19 10 20
REMARK H PARENT 17 13 14 16 12 18 10 21
REMARK Flexibility Score: inf
ROOT
ATOM      1  C   UNL     1      -6.161  36.840   0.456  1.00  0.00     0.255 C 
ATOM      2  C   UNL     1      -5.442  37.252  -0.828  1.00  0.00     0.196 C 
ATOM      3  C   UNL     1      -6.554  37.897  -1.620  1.00  0.00     0.179 C 
ATOM      4  C   UNL     1      -7.796  37.151  -1.117  1.00  0.00     0.178 C 
ATOM      5  O   UNL     1      -7.528  36.622   0.167  1.00  0.00    -0.347 OA
ENDROOT
BRANCH   1   6
ATOM      6  N   UNL     1      -5.549  35.633   1.049  1.00  0.00    -0.271 N 
ATOM      7  C   UNL     1      -5.607  33.255   1.368  1.00  0.00     0.090 A 
ATOM      8  C   UNL     1      -6.134  34.419   0.814  1.00  0.00     0.099 A 
ATOM      9  C   UNL     1      -4.478  33.355   2.174  1.00  0.00     0.253 A 
ATOM     10  N   UNL     1      -3.921  34.570   2.410  1.00  0.00    -0.274 N 
ATOM     11  O   UNL     1      -3.977  32.318   2.688  1.00  0.00    -0.269 OA
ATOM     12  C   UNL     1      -4.445  35.703   1.866  1.00  0.00     0.330 A 
ATOM     13  H   UNL     1      -3.077  34.637   3.025  1.00  0.00     0.175 HD
ATOM     14  O   UNL     1      -3.907  36.814   2.127  1.00  0.00    -0.248 OA
ENDBRANCH   1   6
BRANCH   2  15
ATOM     15  O   UNL     1      -4.362  38.125  -0.593  1.00  0.00    -0.386 OA
ATOM     16  H   UNL     1      -3.609  37.858  -1.183  1.00  0.00     0.211 HD
ENDBRANCH   2  15
BRANCH   3  17
ATOM     17  O   UNL     1      -6.370  37.773  -3.011  1.00  0.00    -0.387 OA
ATOM     18  H   UNL     1      -6.757  36.906  -3.301  1.00  0.00     0.211 HD
ENDBRANCH   3  17
BRANCH   4  19
ATOM     19  C   UNL     1      -9.023  38.064  -1.059  1.00  0.00     0.191 C 
BRANCH  19  20
ATOM     20  O   UNL     1     -10.181  37.312  -1.295  1.00  0.00    -0.394 OA
ATOM     21  H   UNL     1     -10.936  37.958  -1.282  1.00  0.00     0.210 HD
ENDBRANCH  19  20
ENDBRANCH   4  19
TORSDOF 5
ENDMDL
MODEL 2
REMARK VINA RESULT:    -3.235      2.448      3.797
REMARK INTER + INTRA:          -4.366
REMARK INTER:                  -3.976
REMARK INTRA:                  -0.389
REMARK UNBOUND:                -0.468
REMARK SMILES O=c1ccn([C@@H]2O[C@@H](CO)[C@H](O)[C@H]2O)c(=O)[nH]1
REMARK SMILES IDX 6 1 13 2 11 3 8 4 7 5 5 6 3 7 4 8 2 9 17 10 1 11 15 12 16 14
REMARK SMILES IDX 14 15 12 17 9 19 10 20
REMARK H PARENT 17 13 14 16 12 18 10 21
REMARK Flexibility Score: inf
ROOT
ATOM      1  C   UNL     1      -4.654  35.005   1.161  1.00  0.00     0.255 C 
ATOM      2  C   UNL     1      -4.846  35.752  -0.159  1.00  0.00     0.196 C 
ATOM      3  C   UNL     1      -4.549  37.177   0.238  1.00  0.00     0.179 C 
ATOM      4  C   UNL     1      -4.966  37.205   1.713  1.00  0.00     0.178 C 
ATOM      5  O   UNL     1      -4.920  35.890   2.232  1.00  0.00    -0.347 OA
ENDROOT
BRANCH   1   6
ATOM      6  N   UNL     1      -5.525  33.814   1.235  1.00  0.00    -0.271 N 
ATOM      7  C   UNL     1      -7.627  32.780   0.715  1.00  0.00     0.090 A 
ATOM      8  C   UNL     1      -6.762  33.870   0.654  1.00  0.00     0.099 A 
ATOM      9  C   UNL     1      -7.210  31.636   1.389  1.00  0.00     0.253 A 
ATOM     10  N   UNL     1      -5.985  31.605   1.973  1.00  0.00    -0.274 N 
ATOM     11  O   UNL     1      -7.970  30.634   1.459  1.00  0.00    -0.269 OA
ATOM     12  C   UNL     1      -5.147  32.677   1.910  1.00  0.00     0.330 A 
ATOM     13  H   UNL     1      -5.682  30.745   2.485  1.00  0.00     0.175 HD
ATOM     14  O   UNL     1      -4.025  32.612   2.484  1.00  0.00    -0.248 OA
ENDBRANCH   1   6
BRANCH   2  15
ATOM     15  O   UNL     1      -3.998  35.281  -1.180  1.00  0.00    -0.386 OA
ATOM     16  H   UNL     1      -3.192  34.881  -0.760  1.00  0.00     0.211 HD
ENDBRANCH   2  15
BRANCH   3  17
ATOM     17  O   UNL     1      -5.251  38.115  -0.545  1.00  0.00    -0.387 OA
ATOM     18  H   UNL     1      -4.591  38.654  -1.054  1.00  0.00     0.211 HD
ENDBRANCH   3  17
BRANCH   4  19
ATOM     19  C   UNL     1      -4.065  38.125   2.542  1.00  0.00     0.191 C 
BRANCH  19  20
ATOM     20  O   UNL     1      -3.890  37.583   3.822  1.00  0.00    -0.394 OA
ATOM     21  H   UNL     1      -4.642  36.949   3.957  1.00  0.00     0.210 HD
ENDBRANCH  19  20
ENDBRANCH   4  19
TORSDOF 5
ENDMDL
MODEL 3
REMARK VINA RESULT:    -2.229      2.176      3.415
REMARK INTER + INTRA:          -3.153
REMARK INTER:                  -2.743
REMARK INTRA:                  -0.410
REMARK UNBOUND:                -0.468
REMARK SMILES O=c1ccn([C@@H]2O[C@@H](CO)[C@H](O)[C@H]2O)c(=O)[nH]1
REMARK SMILES IDX 6 1 13 2 11 3 8 4 7 5 5 6 3 7 4 8 2 9 17 10 1 11 15 12 16 14
REMARK SMILES IDX 14 15 12 17 9 19 10 20
REMARK H PARENT 17 13 14 16 12 18 10 21
REMARK Flexibility Score: inf
ROOT
ATOM      1  C   UNL     1      -6.601  36.713   0.333  1.00  0.00     0.255 C 
ATOM      2  C   UNL     1      -7.487  35.475   0.469  1.00  0.00     0.196 C 
ATOM      3  C   UNL     1      -8.542  35.724  -0.580  1.00  0.00     0.179 C 
ATOM      4  C   UNL     1      -8.606  37.255  -0.631  1.00  0.00     0.178 C 
ATOM      5  O   UNL     1      -7.383  37.785  -0.159  1.00  0.00    -0.347 OA
ENDROOT
BRANCH   1   6
ATOM      6  N   UNL     1      -5.974  37.069   1.622  1.00  0.00    -0.271 N 
ATOM      7  C   UNL     1      -6.174  38.097   3.781  1.00  0.00     0.090 A 
ATOM      8  C   UNL     1      -6.726  37.723   2.559  1.00  0.00     0.099 A 
ATOM      9  C   UNL     1      -4.837  37.800   4.026  1.00  0.00     0.253 A 
ATOM     10  N   UNL     1      -4.101  37.165   3.078  1.00  0.00    -0.274 N 
ATOM     11  O   UNL     1      -4.310  38.125   5.124  1.00  0.00    -0.269 OA
ATOM     12  C   UNL     1      -4.650  36.805   1.884  1.00  0.00     0.330 A 
ATOM     13  H   UNL     1      -3.095  36.953   3.267  1.00  0.00     0.175 HD
ATOM     14  O   UNL     1      -3.924  36.234   1.025  1.00  0.00    -0.248 OA
ENDBRANCH   1   6
BRANCH   2  15
ATOM     15  O   UNL     1      -6.781  34.274   0.260  1.00  0.00    -0.386 OA
ATOM     16  H   UNL     1      -6.078  34.438  -0.421  1.00  0.00     0.211 HD
ENDBRANCH   2  15
BRANCH   3  17
ATOM     17  O   UNL     1      -9.780  35.137  -0.253  1.00  0.00    -0.387 OA
ATOM     18  H   UNL     1      -9.910  34.340  -0.831  1.00  0.00     0.211 HD
ENDBRANCH   3  17
BRANCH   4  19
ATOM     19  C   UNL     1      -8.885  37.767  -2.046  1.00  0.00     0.191 C 
BRANCH  19  20
ATOM     20  O   UNL     1      -7.689  37.811  -2.775  1.00  0.00    -0.394 OA
ATOM     21  H   UNL     1      -7.025  37.299  -2.243  1.00  0.00     0.210 HD
ENDBRANCH  19  20
ENDBRANCH   4  19
TORSDOF 5
ENDMDL
MODEL 4
REMARK VINA RESULT:    -1.703      1.497      2.069
REMARK INTER + INTRA:          -2.520
REMARK INTER:                  -3.330
REMARK INTRA:                   0.810
REMARK UNBOUND:                -0.468
REMARK SMILES O=c1ccn([C@@H]2O[C@@H](CO)[C@H](O)[C@H]2O)c(=O)[nH]1
REMARK SMILES IDX 6 1 13 2 11 3 8 4 7 5 5 6 3 7 4 8 2 9 17 10 1 11 15 12 16 14
REMARK SMILES IDX 14 15 12 17 9 19 10 20
REMARK H PARENT 17 13 14 16 12 18 10 21
REMARK Flexibility Score: inf
ROOT
ATOM      1  C   UNL     1      -7.355  36.331   0.547  1.00  0.00     0.255 C 
ATOM      2  C   UNL     1      -6.640  37.082  -0.576  1.00  0.00     0.196 C 
ATOM      3  C   UNL     1      -7.796  37.582  -1.408  1.00  0.00     0.179 C 
ATOM      4  C   UNL     1      -8.869  36.514  -1.161  1.00  0.00     0.178 C 
ATOM      5  O   UNL     1      -8.602  35.865   0.067  1.00  0.00    -0.347 OA
ENDROOT
BRANCH   1   6
ATOM      6  N   UNL     1      -6.534  35.211   1.050  1.00  0.00    -0.271 N 
ATOM      7  C   UNL     1      -4.402  34.418   1.815  1.00  0.00     0.090 A 
ATOM      8  C   UNL     1      -5.222  35.446   1.357  1.00  0.00     0.099 A 
ATOM      9  C   UNL     1      -4.943  33.143   1.945  1.00  0.00     0.253 A 
ATOM     10  N   UNL     1      -6.243  32.924   1.619  1.00  0.00    -0.274 N 
ATOM     11  O   UNL     1      -4.226  32.193   2.359  1.00  0.00    -0.269 OA
ATOM     12  C   UNL     1      -7.037  33.937   1.169  1.00  0.00     0.330 A 
ATOM     13  H   UNL     1      -6.641  31.961   1.711  1.00  0.00     0.175 HD
ATOM     14  O   UNL     1      -8.234  33.685   0.860  1.00  0.00    -0.248 OA
ENDBRANCH   1   6
BRANCH   2  15
ATOM     15  O   UNL     1      -5.821  38.124  -0.100  1.00  0.00    -0.386 OA
ATOM     16  H   UNL     1      -4.898  37.773   0.008  1.00  0.00     0.211 HD
ENDBRANCH   2  15
BRANCH   3  17
ATOM     17  O   UNL     1      -7.465  37.716  -2.770  1.00  0.00    -0.387 OA
ATOM     18  H   UNL     1      -7.550  36.826  -3.202  1.00  0.00     0.211 HD
ENDBRANCH   3  17
BRANCH   4  19
ATOM     19  C   UNL     1     -10.277  37.116  -1.137  1.00  0.00     0.191 C 
BRANCH  19  20
ATOM     20  O   UNL     1     -11.200  36.175  -1.610  1.00  0.00    -0.394 OA
ATOM     21  H   UNL     1     -10.682  35.345  -1.781  1.00  0.00     0.210 HD
ENDBRANCH  19  20
ENDBRANCH   4  19
TORSDOF 5
ENDMDL
MODEL 5
REMARK VINA RESULT:    -1.611      2.424      3.721
REMARK INTER + INTRA:          -2.409
REMARK INTER:                  -2.558
REMARK INTRA:                   0.149
REMARK UNBOUND:                -0.468
REMARK SMILES O=c1ccn([C@@H]2O[C@@H](CO)[C@H](O)[C@H]2O)c(=O)[nH]1
REMARK SMILES IDX 6 1 13 2 11 3 8 4 7 5 5 6 3 7 4 8 2 9 17 10 1 11 15 12 16 14
REMARK SMILES IDX 14 15 12 17 9 19 10 20
REMARK H PARENT 17 13 14 16 12 18 10 21
REMARK Flexibility Score: inf
ROOT
ATOM      1  C   UNL     1      -5.364  34.880   1.454  1.00  0.00     0.255 C 
ATOM      2  C   UNL     1      -5.366  35.501   0.058  1.00  0.00     0.196 C 
ATOM      3  C   UNL     1      -5.434  36.977   0.368  1.00  0.00     0.179 C 
ATOM      4  C   UNL     1      -6.190  37.001   1.702  1.00  0.00     0.178 C 
ATOM      5  O   UNL     1      -6.033  35.751   2.346  1.00  0.00    -0.347 OA
ENDROOT
BRANCH   1   6
ATOM      6  N   UNL     1      -5.999  33.546   1.448  1.00  0.00    -0.271 N 
ATOM      7  C   UNL     1      -5.816  31.190   1.867  1.00  0.00     0.090 A 
ATOM      8  C   UNL     1      -5.268  32.470   1.873  1.00  0.00     0.099 A 
ATOM      9  C   UNL     1      -7.119  31.026   1.409  1.00  0.00     0.253 A 
ATOM     10  N   UNL     1      -7.824  32.102   0.975  1.00  0.00    -0.274 N 
ATOM     11  O   UNL     1      -7.642  29.879   1.393  1.00  0.00    -0.269 OA
ATOM     12  C   UNL     1      -7.278  33.351   0.983  1.00  0.00     0.330 A 
ATOM     13  H   UNL     1      -8.800  31.969   0.624  1.00  0.00     0.175 HD
ATOM     14  O   UNL     1      -7.962  34.320   0.552  1.00  0.00    -0.248 OA
ENDBRANCH   1   6
BRANCH   2  15
ATOM     15  O   UNL     1      -4.228  35.153  -0.696  1.00  0.00    -0.386 OA
ATOM     16  H   UNL     1      -3.779  34.388  -0.251  1.00  0.00     0.211 HD
ENDBRANCH   2  15
BRANCH   3  17
ATOM     17  O   UNL     1      -6.085  37.713  -0.641  1.00  0.00    -0.387 OA
ATOM     18  H   UNL     1      -5.776  37.376  -1.522  1.00  0.00     0.211 HD
ENDBRANCH   3  17
BRANCH   4  19
ATOM     19  C   UNL     1      -5.694  38.124   2.617  1.00  0.00     0.191 C 
BRANCH  19  20
ATOM     20  O   UNL     1      -5.250  37.582   3.831  1.00  0.00    -0.394 OA
ATOM     21  H   UNL     1      -5.472  38.252   4.528  1.00  0.00     0.210 HD
ENDBRANCH  19  20
ENDBRANCH   4  19
TORSDOF 5
ENDMDL
MODEL 6
REMARK VINA RESULT:    -1.459      2.097      3.730
REMARK INTER + INTRA:          -2.225
REMARK INTER:                  -2.958
REMARK INTRA:                   0.732
REMARK UNBOUND:                -0.468
REMARK SMILES O=c1ccn([C@@H]2O[C@@H](CO)[C@H](O)[C@H]2O)c(=O)[nH]1
REMARK SMILES IDX 6 1 13 2 11 3 8 4 7 5 5 6 3 7 4 8 2 9 17 10 1 11 15 12 16 14
REMARK SMILES IDX 14 15 12 17 9 19 10 20
REMARK H PARENT 17 13 14 16 12 18 10 21
REMARK Flexibility Score: inf
ROOT
ATOM      1  C   UNL     1      -5.938  35.044   0.591  1.00  0.00     0.255 C 
ATOM      2  C   UNL     1      -7.093  35.995   0.900  1.00  0.00     0.196 C 
ATOM      3  C   UNL     1      -6.372  37.294   1.163  1.00  0.00     0.179 C 
ATOM      4  C   UNL     1      -5.019  36.819   1.708  1.00  0.00     0.178 C 
ATOM      5  O   UNL     1      -4.775  35.501   1.255  1.00  0.00    -0.347 OA
ENDROOT
BRANCH   1   6
ATOM      6  N   UNL     1      -6.261  33.659   0.991  1.00  0.00    -0.271 N 
ATOM      7  C   UNL     1      -7.829  31.843   0.996  1.00  0.00     0.090 A 
ATOM      8  C   UNL     1      -7.471  33.136   0.625  1.00  0.00     0.099 A 
ATOM      9  C   UNL     1      -6.935  31.097   1.757  1.00  0.00     0.253 A 
ATOM     10  N   UNL     1      -5.746  31.638   2.126  1.00  0.00    -0.274 N 
ATOM     11  O   UNL     1      -7.232  29.923   2.107  1.00  0.00    -0.269 OA
ATOM     12  C   UNL     1      -5.405  32.906   1.760  1.00  0.00     0.330 A 
ATOM     13  H   UNL     1      -5.083  31.074   2.706  1.00  0.00     0.175 HD
ATOM     14  O   UNL     1      -4.299  33.376   2.142  1.00  0.00    -0.248 OA
ENDBRANCH   1   6
BRANCH   2  15
ATOM     15  O   UNL     1      -8.020  36.089  -0.156  1.00  0.00    -0.386 OA
ATOM     16  H   UNL     1      -7.992  35.243  -0.675  1.00  0.00     0.211 HD
ENDBRANCH   2  15
BRANCH   3  17
ATOM     17  O   UNL     1      -7.063  38.124   2.068  1.00  0.00    -0.387 OA
ATOM     18  H   UNL     1      -6.952  39.066   1.775  1.00  0.00     0.211 HD
ENDBRANCH   3  17
BRANCH   4  19
ATOM     19  C   UNL     1      -3.875  37.740   1.274  1.00  0.00     0.191 C 
BRANCH  19  20
ATOM     20  O   UNL     1      -4.008  38.046  -0.087  1.00  0.00    -0.394 OA
ATOM     21  H   UNL     1      -4.906  37.719  -0.355  1.00  0.00     0.210 HD
ENDBRANCH  19  20
ENDBRANCH   4  19
TORSDOF 5
ENDMDL
MODEL 7
REMARK VINA RESULT:    -1.380     12.512     15.300
REMARK INTER + INTRA:          -2.130
REMARK INTER:                  -2.200
REMARK INTRA:                   0.069
REMARK UNBOUND:                -0.468
REMARK SMILES O=c1ccn([C@@H]2O[C@@H](CO)[C@H](O)[C@H]2O)c(=O)[nH]1
REMARK SMILES IDX 6 1 13 2 11 3 8 4 7 5 5 6 3 7 4 8 2 9 17 10 1 11 15 12 16 14
REMARK SMILES IDX 14 15 12 17 9 19 10 20
REMARK H PARENT 17 13 14 16 12 18 10 21
REMARK Flexibility Score: inf
ROOT
ATOM      1  C   UNL     1     -14.991  33.974 -10.063  1.00  0.00     0.255 C 
ATOM      2  C   UNL     1     -14.001  35.068 -10.462  1.00  0.00     0.196 C 
ATOM      3  C   UNL     1     -13.462  35.510  -9.123  1.00  0.00     0.179 C 
ATOM      4  C   UNL     1     -14.641  35.231  -8.182  1.00  0.00     0.178 C 
ATOM      5  O   UNL     1     -15.468  34.239  -8.758  1.00  0.00    -0.347 OA
ENDROOT
BRANCH   1   6
ATOM      6  N   UNL     1     -16.110  33.888 -11.024  1.00  0.00    -0.271 N 
ATOM      7  C   UNL     1     -18.477  33.904 -11.416  1.00  0.00     0.090 A 
ATOM      8  C   UNL     1     -17.389  33.999 -10.552  1.00  0.00     0.099 A 
ATOM      9  C   UNL     1     -18.236  33.682 -12.768  1.00  0.00     0.253 A 
ATOM     10  N   UNL     1     -16.961  33.557 -13.216  1.00  0.00    -0.274 N 
ATOM     11  O   UNL     1     -19.202  33.593 -13.574  1.00  0.00    -0.269 OA
ATOM     12  C   UNL     1     -15.902  33.649 -12.362  1.00  0.00     0.330 A 
ATOM     13  H   UNL     1     -16.788  33.382 -14.232  1.00  0.00     0.175 HD
ATOM     14  O   UNL     1     -14.735  33.507 -12.818  1.00  0.00    -0.248 OA
ENDBRANCH   1   6
BRANCH   2  15
ATOM     15  O   UNL     1     -12.993  34.603 -11.329  1.00  0.00    -0.386 OA
ATOM     16  H   UNL     1     -12.784  35.321 -11.981  1.00  0.00     0.211 HD
ENDBRANCH   2  15
BRANCH   3  17
ATOM     17  O   UNL     1     -13.068  36.862  -9.117  1.00  0.00    -0.387 OA
ATOM     18  H   UNL     1     -13.368  37.279  -9.966  1.00  0.00     0.211 HD
ENDBRANCH   3  17
BRANCH   4  19
ATOM     19  C   UNL     1     -14.170  34.778  -6.797  1.00  0.00     0.191 C 
BRANCH  19  20
ATOM     20  O   UNL     1     -13.465  35.818  -6.176  1.00  0.00    -0.394 OA
ATOM     21  H   UNL     1     -13.113  35.442  -5.327  1.00  0.00     0.210 HD
ENDBRANCH  19  20
ENDBRANCH   4  19
TORSDOF 5
ENDMDL
