MODEL 1
REMARK VINA RESULT:    -5.102      0.000      0.000
REMARK INTER + INTRA:         -10.160
REMARK INTER:                  -7.787
REMARK INTRA:                  -2.373
REMARK UNBOUND:                -2.373
REMARK SMILES CC(=O)CCC=C(C)CCC=C(C)CCC=C(C)C
REMARK SMILES IDX 10 1 11 2 12 3 13 4 14 5 15 6 16 7 18 8 17 9 19 10 9 11 7 12
REMARK SMILES IDX 6 13 8 14 5 15 4 16 2 17 3 18 1 19
REMARK H PARENT
REMARK Flexibility Score: inf
ROOT
ATOM      1  C   UNL     1       7.737  25.627  55.267  1.00  0.00     0.032 C 
ENDROOT
BRANCH   1   2
ATOM      2  C   UNL     1       6.388  26.258  55.508  1.00  0.00    -0.028 C 
ATOM      3  C   UNL     1       5.375  26.300  54.612  1.00  0.00    -0.077 C 
ATOM      4  C   UNL     1       4.105  27.010  55.008  1.00  0.00     0.039 C 
BRANCH   3   5
ATOM      5  C   UNL     1       5.449  25.643  53.246  1.00  0.00     0.034 C 
BRANCH   5   6
ATOM      6  C   UNL     1       4.528  24.419  53.141  1.00  0.00     0.032 C 
BRANCH   6   7
ATOM      7  C   UNL     1       5.306  23.132  53.292  1.00  0.00    -0.028 C 
ATOM      8  C   UNL     1       4.575  22.757  55.660  1.00  0.00     0.039 C 
ATOM      9  C   UNL     1       5.315  22.363  54.404  1.00  0.00    -0.080 C 
ATOM     10  C   UNL     1       6.091  21.071  54.375  1.00  0.00     0.039 C 
ENDBRANCH   6   7
ENDBRANCH   5   6
ENDBRANCH   3   5
ENDBRANCH   1   2
BRANCH   1  11
ATOM     11  C   UNL     1       7.869  24.306  56.035  1.00  0.00     0.034 C 
BRANCH  11  12
ATOM     12  C   UNL     1       8.798  23.352  55.310  1.00  0.00    -0.077 C 
ATOM     13  C   UNL     1       9.377  22.285  55.907  1.00  0.00    -0.028 C 
ATOM     14  C   UNL     1       9.141  23.633  53.869  1.00  0.00     0.039 C 
BRANCH  13  15
ATOM     15  C   UNL     1       9.126  21.845  57.329  1.00  0.00     0.035 C 
BRANCH  15  16
ATOM     16  C   UNL     1      10.357  21.162  57.940  1.00  0.00     0.079 C 
BRANCH  16  17
ATOM     17  C   UNL     1       9.983  19.898  58.672  1.00  0.00     0.130 C 
ATOM     18  O   UNL     1       8.974  19.876  59.360  1.00  0.00    -0.300 OA
ATOM     19  C   UNL     1      10.826  18.660  58.571  1.00  0.00     0.087 C 
ENDBRANCH  16  17
ENDBRANCH  15  16
ENDBRANCH  13  15
ENDBRANCH  11  12
ENDBRANCH   1  11
TORSDOF 9
ENDMDL
MODEL 2
REMARK VINA RESULT:    -5.099      6.005      8.541
REMARK INTER + INTRA:         -10.155
REMARK INTER:                  -8.396
REMARK INTRA:                  -1.759
REMARK UNBOUND:                -2.373
REMARK SMILES CC(=O)CCC=C(C)CCC=C(C)CCC=C(C)C
REMARK SMILES IDX 10 1 11 2 12 3 13 4 14 5 15 6 16 7 18 8 17 9 19 10 9 11 7 12
REMARK SMILES IDX 6 13 8 14 5 15 4 16 2 17 3 18 1 19
REMARK H PARENT
REMARK Flexibility Score: inf
ROOT
ATOM      1  C   UNL     1      10.570  17.889  56.569  1.00  0.00     0.032 C 
ENDROOT
BRANCH   1   2
ATOM      2  C   UNL     1      10.583  18.236  55.100  1.00  0.00    -0.028 C 
ATOM      3  C   UNL     1      11.577  17.931  54.235  1.00  0.00    -0.077 C 
ATOM      4  C   UNL     1      11.444  18.392  52.807  1.00  0.00     0.039 C 
BRANCH   3   5
ATOM      5  C   UNL     1      12.800  17.122  54.630  1.00  0.00     0.034 C 
BRANCH   5   6
ATOM      6  C   UNL     1      14.071  17.982  54.681  1.00  0.00     0.032 C 
BRANCH   6   7
ATOM      7  C   UNL     1      14.253  18.612  56.043  1.00  0.00    -0.028 C 
ATOM      8  C   UNL     1      16.609  19.337  55.593  1.00  0.00     0.039 C 
ATOM      9  C   UNL     1      15.373  19.246  56.456  1.00  0.00    -0.080 C 
ATOM     10  C   UNL     1      15.375  19.881  57.822  1.00  0.00     0.039 C 
ENDBRANCH   6   7
ENDBRANCH   5   6
ENDBRANCH   3   5
ENDBRANCH   1   2
BRANCH   1  11
ATOM     11  C   UNL     1      10.939  19.108  57.423  1.00  0.00     0.034 C 
BRANCH  11  12
ATOM     12  C   UNL     1      11.112  18.714  58.877  1.00  0.00    -0.077 C 
ATOM     13  C   UNL     1      10.173  18.944  59.823  1.00  0.00    -0.028 C 
ATOM     14  C   UNL     1      12.415  18.087  59.305  1.00  0.00     0.039 C 
BRANCH  13  15
ATOM     15  C   UNL     1       8.809  19.536  59.565  1.00  0.00     0.035 C 
BRANCH  15  16
ATOM     16  C   UNL     1       7.691  18.679  60.173  1.00  0.00     0.079 C 
BRANCH  16  17
ATOM     17  C   UNL     1       6.772  18.132  59.110  1.00  0.00     0.130 C 
ATOM     18  O   UNL     1       5.830  17.426  59.434  1.00  0.00    -0.300 OA
ATOM     19  C   UNL     1       6.990  18.440  57.657  1.00  0.00     0.087 C 
ENDBRANCH  16  17
ENDBRANCH  15  16
ENDBRANCH  13  15
ENDBRANCH  11  12
ENDBRANCH   1  11
TORSDOF 9
ENDMDL
MODEL 3
REMARK VINA RESULT:    -5.040      2.747      7.785
REMARK INTER + INTRA:         -10.065
REMARK INTER:                  -8.609
REMARK INTRA:                  -1.456
REMARK UNBOUND:                -2.373
REMARK SMILES CC(=O)CCC=C(C)CCC=C(C)CCC=C(C)C
REMARK SMILES IDX 10 1 11 2 12 3 13 4 14 5 15 6 16 7 18 8 17 9 19 10 9 11 7 12
REMARK SMILES IDX 6 13 8 14 5 15 4 16 2 17 3 18 1 19
REMARK H PARENT
REMARK Flexibility Score: inf
ROOT
ATOM      1  C   UNL     1      10.010  21.875  57.443  1.00  0.00     0.032 C 
ENDROOT
BRANCH   1   2
ATOM      2  C   UNL     1       9.774  20.937  58.601  1.00  0.00    -0.028 C 
ATOM      3  C   UNL     1       9.652  19.593  58.505  1.00  0.00    -0.077 C 
ATOM      4  C   UNL     1       9.376  18.812  59.765  1.00  0.00     0.039 C 
BRANCH   3   5
ATOM      5  C   UNL     1       9.809  18.839  57.197  1.00  0.00     0.034 C 
BRANCH   5   6
ATOM      6  C   UNL     1      11.083  17.982  57.173  1.00  0.00     0.032 C 
BRANCH   6   7
ATOM      7  C   UNL     1      12.320  18.842  57.046  1.00  0.00    -0.028 C 
ATOM      8  C   UNL     1      13.147  18.310  59.350  1.00  0.00     0.039 C 
ATOM      9  C   UNL     1      13.266  18.977  58.001  1.00  0.00    -0.080 C 
ATOM     10  C   UNL     1      14.477  19.821  57.696  1.00  0.00     0.039 C 
ENDBRANCH   6   7
ENDBRANCH   5   6
ENDBRANCH   3   5
ENDBRANCH   1   2
BRANCH   1  11
ATOM     11  C   UNL     1       8.683  22.407  56.890  1.00  0.00     0.034 C 
BRANCH  11  12
ATOM     12  C   UNL     1       8.871  22.983  55.500  1.00  0.00    -0.077 C 
ATOM     13  C   UNL     1       8.286  24.131  55.089  1.00  0.00    -0.028 C 
ATOM     14  C   UNL     1       9.704  22.214  54.506  1.00  0.00     0.039 C 
BRANCH  13  15
ATOM     15  C   UNL     1       7.445  25.035  55.957  1.00  0.00     0.035 C 
BRANCH  15  16
ATOM     16  C   UNL     1       7.100  26.350  55.245  1.00  0.00     0.079 C 
BRANCH  16  17
ATOM     17  C   UNL     1       5.610  26.582  55.200  1.00  0.00     0.130 C 
ATOM     18  O   UNL     1       5.013  26.862  56.227  1.00  0.00    -0.300 OA
ATOM     19  C   UNL     1       4.844  26.476  53.914  1.00  0.00     0.087 C 
ENDBRANCH  16  17
ENDBRANCH  15  16
ENDBRANCH  13  15
ENDBRANCH  11  12
ENDBRANCH   1  11
TORSDOF 9
ENDMDL
MODEL 4
REMARK VINA RESULT:    -5.004      2.075      6.356
REMARK INTER + INTRA:         -10.011
REMARK INTER:                  -8.422
REMARK INTRA:                  -1.588
REMARK UNBOUND:                -2.373
REMARK SMILES CC(=O)CCC=C(C)CCC=C(C)CCC=C(C)C
REMARK SMILES IDX 10 1 11 2 12 3 13 4 14 5 15 6 16 7 18 8 17 9 19 10 9 11 7 12
REMARK SMILES IDX 6 13 8 14 5 15 4 16 2 17 3 18 1 19
REMARK H PARENT
REMARK Flexibility Score: inf
ROOT
ATOM      1  C   UNL     1       7.498  25.090  56.022  1.00  0.00     0.032 C 
ENDROOT
BRANCH   1   2
ATOM      2  C   UNL     1       8.322  24.247  55.079  1.00  0.00    -0.028 C 
ATOM      3  C   UNL     1       8.850  23.038  55.372  1.00  0.00    -0.077 C 
ATOM      4  C   UNL     1       9.684  22.351  54.320  1.00  0.00     0.039 C 
BRANCH   3   5
ATOM      5  C   UNL     1       8.617  22.330  56.696  1.00  0.00     0.034 C 
BRANCH   5   6
ATOM      6  C   UNL     1       9.869  21.586  57.182  1.00  0.00     0.032 C 
BRANCH   6   7
ATOM      7  C   UNL     1       9.716  21.135  58.617  1.00  0.00    -0.028 C 
ATOM      8  C   UNL     1       8.940  18.833  58.001  1.00  0.00     0.039 C 
ATOM      9  C   UNL     1       9.328  19.899  58.999  1.00  0.00    -0.080 C 
ATOM     10  C   UNL     1       9.287  19.584  60.472  1.00  0.00     0.039 C 
ENDBRANCH   6   7
ENDBRANCH   5   6
ENDBRANCH   3   5
ENDBRANCH   1   2
BRANCH   1  11
ATOM     11  C   UNL     1       6.973  26.347  55.318  1.00  0.00     0.034 C 
BRANCH  11  12
ATOM     12  C   UNL     1       5.459  26.403  55.374  1.00  0.00    -0.077 C 
ATOM     13  C   UNL     1       4.668  26.136  54.309  1.00  0.00    -0.028 C 
ATOM     14  C   UNL     1       4.799  26.832  56.660  1.00  0.00     0.039 C 
BRANCH  13  15
ATOM     15  C   UNL     1       5.159  25.670  52.959  1.00  0.00     0.035 C 
BRANCH  15  16
ATOM     16  C   UNL     1       4.606  24.285  52.598  1.00  0.00     0.079 C 
BRANCH  16  17
ATOM     17  C   UNL     1       5.508  23.182  53.091  1.00  0.00     0.130 C 
ATOM     18  O   UNL     1       6.513  22.898  52.457  1.00  0.00    -0.300 OA
ATOM     19  C   UNL     1       5.198  22.425  54.349  1.00  0.00     0.087 C 
ENDBRANCH  16  17
ENDBRANCH  15  16
ENDBRANCH  13  15
ENDBRANCH  11  12
ENDBRANCH   1  11
TORSDOF 9
ENDMDL
MODEL 5
REMARK VINA RESULT:    -4.966      3.168      6.756
REMARK INTER + INTRA:          -9.952
REMARK INTER:                  -7.114
REMARK INTRA:                  -2.838
REMARK UNBOUND:                -2.373
REMARK SMILES CC(=O)CCC=C(C)CCC=C(C)CCC=C(C)C
REMARK SMILES IDX 10 1 11 2 12 3 13 4 14 5 15 6 16 7 18 8 17 9 19 10 9 11 7 12
REMARK SMILES IDX 6 13 8 14 5 15 4 16 2 17 3 18 1 19
REMARK H PARENT
REMARK Flexibility Score: inf
ROOT
ATOM      1  C   UNL     1       7.427  18.724  59.436  1.00  0.00     0.032 C 
ENDROOT
BRANCH   1   2
ATOM      2  C   UNL     1       8.870  18.285  59.455  1.00  0.00    -0.028 C 
ATOM      3  C   UNL     1       9.932  19.083  59.199  1.00  0.00    -0.077 C 
ATOM      4  C   UNL     1      11.307  18.466  59.222  1.00  0.00     0.039 C 
BRANCH   3   5
ATOM      5  C   UNL     1       9.803  20.570  58.921  1.00  0.00     0.034 C 
BRANCH   5   6
ATOM      6  C   UNL     1      10.285  20.940  57.511  1.00  0.00     0.032 C 
BRANCH   6   7
ATOM      7  C   UNL     1       9.515  22.117  56.959  1.00  0.00    -0.028 C 
ATOM      8  C   UNL     1       9.860  21.453  54.568  1.00  0.00     0.039 C 
ATOM      9  C   UNL     1       9.293  22.345  55.646  1.00  0.00    -0.080 C 
ATOM     10  C   UNL     1       8.448  23.531  55.257  1.00  0.00     0.039 C 
ENDBRANCH   6   7
ENDBRANCH   5   6
ENDBRANCH   3   5
ENDBRANCH   1   2
BRANCH   1  11
ATOM     11  C   UNL     1       6.694  18.145  58.220  1.00  0.00     0.034 C 
BRANCH  11  12
ATOM     12  C   UNL     1       6.879  19.033  57.005  1.00  0.00    -0.077 C 
ATOM     13  C   UNL     1       7.715  18.729  55.986  1.00  0.00    -0.028 C 
ATOM     14  C   UNL     1       6.143  20.348  56.953  1.00  0.00     0.039 C 
BRANCH  13  15
ATOM     15  C   UNL     1       8.507  17.449  55.867  1.00  0.00     0.035 C 
BRANCH  15  16
ATOM     16  C   UNL     1      10.011  17.719  55.729  1.00  0.00     0.079 C 
BRANCH  16  17
ATOM     17  C   UNL     1      10.703  16.622  54.961  1.00  0.00     0.130 C 
ATOM     18  O   UNL     1      11.923  16.584  54.934  1.00  0.00    -0.300 OA
ATOM     19  C   UNL     1       9.922  15.571  54.229  1.00  0.00     0.087 C 
ENDBRANCH  16  17
ENDBRANCH  15  16
ENDBRANCH  13  15
ENDBRANCH  11  12
ENDBRANCH   1  11
TORSDOF 9
ENDMDL
MODEL 6
REMARK VINA RESULT:    -4.922      2.377      5.015
REMARK INTER + INTRA:          -9.884
REMARK INTER:                  -7.375
REMARK INTRA:                  -2.509
REMARK UNBOUND:                -2.373
REMARK SMILES CC(=O)CCC=C(C)CCC=C(C)CCC=C(C)C
REMARK SMILES IDX 10 1 11 2 12 3 13 4 14 5 15 6 16 7 18 8 17 9 19 10 9 11 7 12
REMARK SMILES IDX 6 13 8 14 5 15 4 16 2 17 3 18 1 19
REMARK H PARENT
REMARK Flexibility Score: inf
ROOT
ATOM      1  C   UNL     1       5.230  25.563  52.806  1.00  0.00     0.032 C 
ENDROOT
BRANCH   1   2
ATOM      2  C   UNL     1       4.601  26.125  54.057  1.00  0.00    -0.028 C 
ATOM      3  C   UNL     1       5.279  26.549  55.148  1.00  0.00    -0.077 C 
ATOM      4  C   UNL     1       4.485  27.045  56.330  1.00  0.00     0.039 C 
BRANCH   3   5
ATOM      5  C   UNL     1       6.795  26.575  55.224  1.00  0.00     0.034 C 
BRANCH   5   6
ATOM      6  C   UNL     1       7.363  25.314  55.890  1.00  0.00     0.032 C 
BRANCH   6   7
ATOM      7  C   UNL     1       8.253  24.545  54.940  1.00  0.00    -0.028 C 
ATOM      8  C   UNL     1       8.544  22.604  56.497  1.00  0.00     0.039 C 
ATOM      9  C   UNL     1       8.767  23.320  55.186  1.00  0.00    -0.080 C 
ATOM     10  C   UNL     1       9.585  22.656  54.109  1.00  0.00     0.039 C 
ENDBRANCH   6   7
ENDBRANCH   5   6
ENDBRANCH   3   5
ENDBRANCH   1   2
BRANCH   1  11
ATOM     11  C   UNL     1       4.603  24.213  52.436  1.00  0.00     0.034 C 
BRANCH  11  12
ATOM     12  C   UNL     1       5.544  23.072  52.773  1.00  0.00    -0.077 C 
ATOM     13  C   UNL     1       5.476  22.373  53.929  1.00  0.00    -0.028 C 
ATOM     14  C   UNL     1       6.647  22.735  51.802  1.00  0.00     0.039 C 
BRANCH  13  15
ATOM     15  C   UNL     1       4.424  22.562  54.996  1.00  0.00     0.035 C 
BRANCH  15  16
ATOM     16  C   UNL     1       3.074  21.968  54.577  1.00  0.00     0.079 C 
BRANCH  16  17
ATOM     17  C   UNL     1       3.203  20.517  54.187  1.00  0.00     0.130 C 
ATOM     18  O   UNL     1       3.540  19.695  55.025  1.00  0.00    -0.300 OA
ATOM     19  C   UNL     1       2.925  20.059  52.784  1.00  0.00     0.087 C 
ENDBRANCH  16  17
ENDBRANCH  15  16
ENDBRANCH  13  15
ENDBRANCH  11  12
ENDBRANCH   1  11
TORSDOF 9
ENDMDL
MODEL 7
REMARK VINA RESULT:    -4.879      2.320      5.131
REMARK INTER + INTRA:          -9.820
REMARK INTER:                  -8.878
REMARK INTRA:                  -0.942
REMARK UNBOUND:                -2.373
REMARK SMILES CC(=O)CCC=C(C)CCC=C(C)CCC=C(C)C
REMARK SMILES IDX 10 1 11 2 12 3 13 4 14 5 15 6 16 7 18 8 17 9 19 10 9 11 7 12
REMARK SMILES IDX 6 13 8 14 5 15 4 16 2 17 3 18 1 19
REMARK H PARENT
REMARK Flexibility Score: inf
ROOT
ATOM      1  C   UNL     1       9.445  21.363  57.892  1.00  0.00     0.032 C 
ENDROOT
BRANCH   1   2
ATOM      2  C   UNL     1       9.871  21.793  56.509  1.00  0.00    -0.028 C 
ATOM      3  C   UNL     1       9.169  22.616  55.698  1.00  0.00    -0.077 C 
ATOM      4  C   UNL     1       9.725  22.909  54.328  1.00  0.00     0.039 C 
BRANCH   3   5
ATOM      5  C   UNL     1       7.869  23.280  56.115  1.00  0.00     0.034 C 
BRANCH   5   6
ATOM      6  C   UNL     1       7.888  24.796  55.873  1.00  0.00     0.032 C 
BRANCH   6   7
ATOM      7  C   UNL     1       6.902  25.193  54.800  1.00  0.00    -0.028 C 
ATOM      8  C   UNL     1       5.449  26.503  56.366  1.00  0.00     0.039 C 
ATOM      9  C   UNL     1       5.820  25.979  54.999  1.00  0.00    -0.080 C 
ATOM     10  C   UNL     1       4.966  26.339  53.811  1.00  0.00     0.039 C 
ENDBRANCH   6   7
ENDBRANCH   5   6
ENDBRANCH   3   5
ENDBRANCH   1   2
BRANCH   1  11
ATOM     11  C   UNL     1       8.936  19.916  57.883  1.00  0.00     0.034 C 
BRANCH  11  12
ATOM     12  C   UNL     1       9.639  19.091  58.943  1.00  0.00    -0.077 C 
ATOM     13  C   UNL     1      10.881  18.579  58.780  1.00  0.00    -0.028 C 
ATOM     14  C   UNL     1       8.901  18.774  60.219  1.00  0.00     0.039 C 
BRANCH  13  15
ATOM     15  C   UNL     1      11.766  18.818  57.580  1.00  0.00     0.035 C 
BRANCH  15  16
ATOM     16  C   UNL     1      13.116  19.428  57.981  1.00  0.00     0.079 C 
BRANCH  16  17
ATOM     17  C   UNL     1      14.217  19.001  57.044  1.00  0.00     0.130 C 
ATOM     18  O   UNL     1      15.368  19.337  57.275  1.00  0.00    -0.300 OA
ATOM     19  C   UNL     1      13.928  18.166  55.830  1.00  0.00     0.087 C 
ENDBRANCH  16  17
ENDBRANCH  15  16
ENDBRANCH  13  15
ENDBRANCH  11  12
ENDBRANCH   1  11
TORSDOF 9
ENDMDL
MODEL 8
REMARK VINA RESULT:    -4.878      2.662      6.274
REMARK INTER + INTRA:          -9.817
REMARK INTER:                  -7.122
REMARK INTRA:                  -2.695
REMARK UNBOUND:                -2.373
REMARK SMILES CC(=O)CCC=C(C)CCC=C(C)CCC=C(C)C
REMARK SMILES IDX 10 1 11 2 12 3 13 4 14 5 15 6 16 7 18 8 17 9 19 10 9 11 7 12
REMARK SMILES IDX 6 13 8 14 5 15 4 16 2 17 3 18 1 19
REMARK H PARENT
REMARK Flexibility Score: inf
ROOT
ATOM      1  C   UNL     1       9.989  21.829  57.147  1.00  0.00     0.032 C 
ENDROOT
BRANCH   1   2
ATOM      2  C   UNL     1       9.510  20.901  58.236  1.00  0.00    -0.028 C 
ATOM      3  C   UNL     1       9.119  19.620  58.053  1.00  0.00    -0.077 C 
ATOM      4  C   UNL     1       8.630  18.847  59.251  1.00  0.00     0.039 C 
BRANCH   3   5
ATOM      5  C   UNL     1       9.180  18.919  56.707  1.00  0.00     0.034 C 
BRANCH   5   6
ATOM      6  C   UNL     1       7.792  18.477  56.222  1.00  0.00     0.032 C 
BRANCH   6   7
ATOM      7  C   UNL     1       7.287  19.372  55.114  1.00  0.00    -0.028 C 
ATOM      8  C   UNL     1       5.733  20.650  56.608  1.00  0.00     0.039 C 
ATOM      9  C   UNL     1       6.387  20.367  55.276  1.00  0.00    -0.080 C 
ATOM     10  C   UNL     1       6.033  21.216  54.082  1.00  0.00     0.039 C 
ENDBRANCH   6   7
ENDBRANCH   5   6
ENDBRANCH   3   5
ENDBRANCH   1   2
BRANCH   1  11
ATOM     11  C   UNL     1       8.837  22.693  56.618  1.00  0.00     0.034 C 
BRANCH  11  12
ATOM     12  C   UNL     1       9.029  23.003  55.146  1.00  0.00    -0.077 C 
ATOM     13  C   UNL     1       8.475  24.078  54.538  1.00  0.00    -0.028 C 
ATOM     14  C   UNL     1       9.826  22.041  54.303  1.00  0.00     0.039 C 
BRANCH  13  15
ATOM     15  C   UNL     1       7.672  25.150  55.234  1.00  0.00     0.035 C 
BRANCH  15  16
ATOM     16  C   UNL     1       6.163  24.911  55.097  1.00  0.00     0.079 C 
BRANCH  16  17
ATOM     17  C   UNL     1       5.575  25.711  53.962  1.00  0.00     0.130 C 
ATOM     18  O   UNL     1       5.272  26.880  54.143  1.00  0.00    -0.300 OA
ATOM     19  C   UNL     1       5.354  25.099  52.610  1.00  0.00     0.087 C 
ENDBRANCH  16  17
ENDBRANCH  15  16
ENDBRANCH  13  15
ENDBRANCH  11  12
ENDBRANCH   1  11
TORSDOF 9
ENDMDL
MODEL 9
REMARK VINA RESULT:    -4.865      3.571      6.462
REMARK INTER + INTRA:          -9.798
REMARK INTER:                  -7.226
REMARK INTRA:                  -2.572
REMARK UNBOUND:                -2.373
REMARK SMILES CC(=O)CCC=C(C)CCC=C(C)CCC=C(C)C
REMARK SMILES IDX 10 1 11 2 12 3 13 4 14 5 15 6 16 7 18 8 17 9 19 10 9 11 7 12
REMARK SMILES IDX 6 13 8 14 5 15 4 16 2 17 3 18 1 19
REMARK H PARENT
REMARK Flexibility Score: inf
ROOT
ATOM      1  C   UNL     1       7.423  18.919  56.889  1.00  0.00     0.032 C 
ENDROOT
BRANCH   1   2
ATOM      2  C   UNL     1       7.582  18.647  58.364  1.00  0.00    -0.028 C 
ATOM      3  C   UNL     1       8.681  18.936  59.097  1.00  0.00    -0.077 C 
ATOM      4  C   UNL     1       8.684  18.556  60.556  1.00  0.00     0.039 C 
BRANCH   3   5
ATOM      5  C   UNL     1       9.894  19.650  58.526  1.00  0.00     0.034 C 
BRANCH   5   6
ATOM      6  C   UNL     1       9.637  21.149  58.316  1.00  0.00     0.032 C 
BRANCH   6   7
ATOM      7  C   UNL     1      10.000  21.577  56.913  1.00  0.00    -0.028 C 
ATOM      8  C   UNL     1       7.711  22.452  56.392  1.00  0.00     0.039 C 
ATOM      9  C   UNL     1       9.157  22.185  56.049  1.00  0.00    -0.080 C 
ATOM     10  C   UNL     1       9.691  22.610  54.706  1.00  0.00     0.039 C 
ENDBRANCH   6   7
ENDBRANCH   5   6
ENDBRANCH   3   5
ENDBRANCH   1   2
BRANCH   1  11
ATOM     11  C   UNL     1       8.158  17.862  56.054  1.00  0.00     0.034 C 
BRANCH  11  12
ATOM     12  C   UNL     1       8.911  18.509  54.907  1.00  0.00    -0.077 C 
ATOM     13  C   UNL     1      10.259  18.496  54.807  1.00  0.00    -0.028 C 
ATOM     14  C   UNL     1       8.126  19.253  53.857  1.00  0.00     0.039 C 
BRANCH  13  15
ATOM     15  C   UNL     1      11.193  17.780  55.753  1.00  0.00     0.035 C 
BRANCH  15  16
ATOM     16  C   UNL     1      12.415  18.638  56.106  1.00  0.00     0.079 C 
BRANCH  16  17
ATOM     17  C   UNL     1      13.680  18.071  55.513  1.00  0.00     0.130 C 
ATOM     18  O   UNL     1      13.617  17.104  54.770  1.00  0.00    -0.300 OA
ATOM     19  C   UNL     1      15.021  18.674  55.816  1.00  0.00     0.087 C 
ENDBRANCH  16  17
ENDBRANCH  15  16
ENDBRANCH  13  15
ENDBRANCH  11  12
ENDBRANCH   1  11
TORSDOF 9
ENDMDL
