MODEL 1
REMARK VINA RESULT:    -2.646      0.000      0.000
REMARK INTER + INTRA:         -12.049
REMARK INTER:                  -6.667
REMARK INTRA:                  -5.382
REMARK UNBOUND:                -5.382
REMARK SMILES CCCCCCCCCCCCCCCCCCCCCCCCCCCC(=O)[O-]
REMARK SMILES IDX 15 1 16 2 17 3 18 4 19 5 20 6 21 7 22 8 23 9 24 10 25 11
REMARK SMILES IDX 26 12 27 13 28 14 29 15 30 16 14 17 13 18 12 19 11 20 10 21
REMARK SMILES IDX 9 22 8 23 7 24 6 25 5 26 4 27 3 28 2 29 1 30
REMARK H PARENT
REMARK Flexibility Score: inf
ROOT
ATOM      1  C   UNL     1      32.122   8.722  21.782  1.00  0.00     0.000 C 
ENDROOT
BRANCH   1   2
ATOM      2  C   UNL     1      31.324   9.419  22.904  1.00  0.00     0.000 C 
BRANCH   2   3
ATOM      3  C   UNL     1      32.009  10.692  23.424  1.00  0.00     0.000 C 
BRANCH   3   4
ATOM      4  C   UNL     1      32.423  11.604  22.259  1.00  0.00     0.000 C 
BRANCH   4   5
ATOM      5  C   UNL     1      33.903  12.022  22.328  1.00  0.00     0.000 C 
BRANCH   5   6
ATOM      6  C   UNL     1      34.727  11.312  23.421  1.00  0.00     0.000 C 
BRANCH   6   7
ATOM      7  C   UNL     1      36.122  10.827  22.981  1.00  0.00     0.000 C 
BRANCH   7   8
ATOM      8  C   UNL     1      36.149   9.450  22.285  1.00  0.00     0.000 C 
BRANCH   8   9
ATOM      9  C   UNL     1      37.517   8.739  22.365  1.00  0.00     0.000 C 
BRANCH   9  10
ATOM     10  C   UNL     1      37.383   7.218  22.532  1.00  0.00     0.000 C 
BRANCH  10  11
ATOM     11  C   UNL     1      38.153   6.475  21.429  1.00  0.00     0.000 C 
BRANCH  11  12
ATOM     12  C   UNL     1      38.009   4.944  21.527  1.00  0.00     0.006 C 
BRANCH  12  13
ATOM     13  C   UNL     1      38.307   4.191  20.219  1.00  0.00     0.053 C 
BRANCH  13  14
ATOM     14  C   UNL     1      37.064   3.651  19.579  1.00  0.00     0.041 C 
ATOM     15  O   UNL     1      36.708   4.063  18.444  1.00  0.00    -0.550 OA
ATOM     16  O   UNL     1      36.282   2.721  20.252  1.00  0.00    -0.550 OA
ENDBRANCH  13  14
ENDBRANCH  12  13
ENDBRANCH  11  12
ENDBRANCH  10  11
ENDBRANCH   9  10
ENDBRANCH   8   9
ENDBRANCH   7   8
ENDBRANCH   6   7
ENDBRANCH   5   6
ENDBRANCH   4   5
ENDBRANCH   3   4
ENDBRANCH   2   3
ENDBRANCH   1   2
BRANCH   1  17
ATOM     17  C   UNL     1      31.364   7.587  21.061  1.00  0.00     0.000 C 
BRANCH  17  18
ATOM     18  C   UNL     1      31.874   6.172  21.392  1.00  0.00     0.000 C 
BRANCH  18  19
ATOM     19  C   UNL     1      32.046   5.297  20.138  1.00  0.00     0.000 C 
BRANCH  19  20
ATOM     20  C   UNL     1      33.528   5.048  19.814  1.00  0.00     0.000 C 
BRANCH  20  21
ATOM     21  C   UNL     1      34.446   6.046  20.543  1.00  0.00     0.000 C 
BRANCH  21  22
ATOM     22  C   UNL     1      35.132   7.041  19.591  1.00  0.00    -0.000 C 
BRANCH  22  23
ATOM     23  C   UNL     1      34.585   7.040  18.152  1.00  0.00    -0.000 C 
BRANCH  23  24
ATOM     24  C   UNL     1      34.380   8.457  17.587  1.00  0.00    -0.000 C 
BRANCH  24  25
ATOM     25  C   UNL     1      33.342   9.265  18.380  1.00  0.00    -0.000 C 
BRANCH  25  26
ATOM     26  C   UNL     1      33.856  10.651  18.798  1.00  0.00    -0.000 C 
BRANCH  26  27
ATOM     27  C   UNL     1      35.388  10.701  18.754  1.00  0.00    -0.000 C 
BRANCH  27  28
ATOM     28  C   UNL     1      35.914  12.037  19.293  1.00  0.00    -0.000 C 
BRANCH  28  29
ATOM     29  C   UNL     1      37.405  11.943  19.640  1.00  0.00    -0.003 C 
ATOM     30  C   UNL     1      37.996  10.614  19.177  1.00  0.00     0.004 C 
ENDBRANCH  28  29
ENDBRANCH  27  28
ENDBRANCH  26  27
ENDBRANCH  25  26
ENDBRANCH  24  25
ENDBRANCH  23  24
ENDBRANCH  22  23
ENDBRANCH  21  22
ENDBRANCH  20  21
ENDBRANCH  19  20
ENDBRANCH  18  19
ENDBRANCH  17  18
ENDBRANCH   1  17
TORSDOF 26
ENDMDL
MODEL 2
REMARK VINA RESULT:    -2.605      1.767      5.419
REMARK INTER + INTRA:         -11.947
REMARK INTER:                  -6.781
REMARK INTRA:                  -5.166
REMARK UNBOUND:                -5.382
REMARK SMILES CCCCCCCCCCCCCCCCCCCCCCCCCCCC(=O)[O-]
REMARK SMILES IDX 15 1 16 2 17 3 18 4 19 5 20 6 21 7 22 8 23 9 24 10 25 11
REMARK SMILES IDX 26 12 27 13 28 14 29 15 30 16 14 17 13 18 12 19 11 20 10 21
REMARK SMILES IDX 9 22 8 23 7 24 6 25 5 26 4 27 3 28 2 29 1 30
REMARK H PARENT
REMARK Flexibility Score: inf
ROOT
ATOM      1  C   UNL     1      33.687   4.871  21.370  1.00  0.00     0.000 C 
ENDROOT
BRANCH   1   2
ATOM      2  C   UNL     1      32.535   3.937  21.796  1.00  0.00     0.000 C 
BRANCH   2   3
ATOM      3  C   UNL     1      32.421   2.685  20.913  1.00  0.00     0.000 C 
BRANCH   3   4
ATOM      4  C   UNL     1      32.486   3.058  19.424  1.00  0.00     0.000 C 
BRANCH   4   5
ATOM      5  C   UNL     1      33.772   2.557  18.742  1.00  0.00     0.000 C 
BRANCH   5   6
ATOM      6  C   UNL     1      34.306   3.467  17.616  1.00  0.00     0.000 C 
BRANCH   6   7
ATOM      7  C   UNL     1      33.584   4.820  17.469  1.00  0.00     0.000 C 
BRANCH   7   8
ATOM      8  C   UNL     1      34.451   6.062  17.761  1.00  0.00     0.000 C 
BRANCH   8   9
ATOM      9  C   UNL     1      35.943   5.740  17.994  1.00  0.00     0.000 C 
BRANCH   9  10
ATOM     10  C   UNL     1      36.460   6.272  19.339  1.00  0.00     0.000 C 
BRANCH  10  11
ATOM     11  C   UNL     1      37.490   5.311  19.950  1.00  0.00     0.000 C 
BRANCH  11  12
ATOM     12  C   UNL     1      36.981   3.859  20.030  1.00  0.00     0.006 C 
BRANCH  12  13
ATOM     13  C   UNL     1      38.080   2.790  19.896  1.00  0.00     0.053 C 
BRANCH  13  14
ATOM     14  C   UNL     1      38.454   2.192  21.218  1.00  0.00     0.041 C 
ATOM     15  O   UNL     1      38.169   0.993  21.473  1.00  0.00    -0.550 OA
ATOM     16  O   UNL     1      39.085   2.970  22.180  1.00  0.00    -0.550 OA
ENDBRANCH  13  14
ENDBRANCH  12  13
ENDBRANCH  11  12
ENDBRANCH  10  11
ENDBRANCH   9  10
ENDBRANCH   8   9
ENDBRANCH   7   8
ENDBRANCH   6   7
ENDBRANCH   5   6
ENDBRANCH   4   5
ENDBRANCH   3   4
ENDBRANCH   2   3
ENDBRANCH   1   2
BRANCH   1  17
ATOM     17  C   UNL     1      33.265   6.326  21.077  1.00  0.00     0.000 C 
BRANCH  17  18
ATOM     18  C   UNL     1      31.796   6.486  20.645  1.00  0.00     0.000 C 
BRANCH  18  19
ATOM     19  C   UNL     1      31.024   7.479  21.531  1.00  0.00     0.000 C 
BRANCH  19  20
ATOM     20  C   UNL     1      31.868   8.720  21.867  1.00  0.00     0.000 C 
BRANCH  20  21
ATOM     21  C   UNL     1      31.213   9.573  22.968  1.00  0.00     0.000 C 
BRANCH  21  22
ATOM     22  C   UNL     1      32.121  10.707  23.475  1.00  0.00    -0.000 C 
BRANCH  22  23
ATOM     23  C   UNL     1      32.587  11.695  22.390  1.00  0.00    -0.000 C 
BRANCH  23  24
ATOM     24  C   UNL     1      34.082  12.042  22.497  1.00  0.00    -0.000 C 
BRANCH  24  25
ATOM     25  C   UNL     1      34.858  11.051  23.377  1.00  0.00    -0.000 C 
BRANCH  25  26
ATOM     26  C   UNL     1      36.030  10.387  22.638  1.00  0.00    -0.000 C 
BRANCH  26  27
ATOM     27  C   UNL     1      35.527   9.307  21.673  1.00  0.00    -0.000 C 
BRANCH  27  28
ATOM     28  C   UNL     1      35.690   9.749  20.214  1.00  0.00    -0.000 C 
BRANCH  28  29
ATOM     29  C   UNL     1      34.437   9.417  19.394  1.00  0.00    -0.003 C 
ATOM     30  C   UNL     1      33.722  10.687  18.940  1.00  0.00     0.004 C 
ENDBRANCH  28  29
ENDBRANCH  27  28
ENDBRANCH  26  27
ENDBRANCH  25  26
ENDBRANCH  24  25
ENDBRANCH  23  24
ENDBRANCH  22  23
ENDBRANCH  21  22
ENDBRANCH  20  21
ENDBRANCH  19  20
ENDBRANCH  18  19
ENDBRANCH  17  18
ENDBRANCH   1  17
TORSDOF 26
ENDMDL
MODEL 3
REMARK VINA RESULT:    -2.596      3.083      5.760
REMARK INTER + INTRA:         -11.925
REMARK INTER:                  -6.754
REMARK INTRA:                  -5.171
REMARK UNBOUND:                -5.382
REMARK SMILES CCCCCCCCCCCCCCCCCCCCCCCCCCCC(=O)[O-]
REMARK SMILES IDX 15 1 16 2 17 3 18 4 19 5 20 6 21 7 22 8 23 9 24 10 25 11
REMARK SMILES IDX 26 12 27 13 28 14 29 15 30 16 14 17 13 18 12 19 11 20 10 21
REMARK SMILES IDX 9 22 8 23 7 24 6 25 5 26 4 27 3 28 2 29 1 30
REMARK H PARENT
REMARK Flexibility Score: inf
ROOT
ATOM      1  C   UNL     1      34.973   6.810  20.133  1.00  0.00     0.000 C 
ENDROOT
BRANCH   1   2
ATOM      2  C   UNL     1      34.974   5.531  20.996  1.00  0.00     0.000 C 
BRANCH   2   3
ATOM      3  C   UNL     1      35.826   4.403  20.394  1.00  0.00     0.000 C 
BRANCH   3   4
ATOM      4  C   UNL     1      36.935   4.974  19.497  1.00  0.00     0.000 C 
BRANCH   4   5
ATOM      5  C   UNL     1      38.274   5.137  20.238  1.00  0.00     0.000 C 
BRANCH   5   6
ATOM      6  C   UNL     1      38.743   6.596  20.418  1.00  0.00     0.000 C 
BRANCH   6   7
ATOM      7  C   UNL     1      38.933   7.048  21.878  1.00  0.00     0.000 C 
BRANCH   7   8
ATOM      8  C   UNL     1      37.681   7.651  22.548  1.00  0.00     0.000 C 
BRANCH   8   9
ATOM      9  C   UNL     1      38.000   8.686  23.648  1.00  0.00     0.000 C 
BRANCH   9  10
ATOM     10  C   UNL     1      39.229   9.545  23.313  1.00  0.00     0.000 C 
BRANCH  10  11
ATOM     11  C   UNL     1      38.807  10.931  22.802  1.00  0.00     0.000 C 
BRANCH  11  12
ATOM     12  C   UNL     1      39.579  11.363  21.541  1.00  0.00     0.006 C 
BRANCH  12  13
ATOM     13  C   UNL     1      40.813  10.501  21.220  1.00  0.00     0.053 C 
BRANCH  13  14
ATOM     14  C   UNL     1      42.097  11.223  21.492  1.00  0.00     0.041 C 
ATOM     15  O   UNL     1      43.066  11.112  20.696  1.00  0.00    -0.550 OA
ATOM     16  O   UNL     1      42.235  11.990  22.642  1.00  0.00    -0.550 OA
ENDBRANCH  13  14
ENDBRANCH  12  13
ENDBRANCH  11  12
ENDBRANCH  10  11
ENDBRANCH   9  10
ENDBRANCH   8   9
ENDBRANCH   7   8
ENDBRANCH   6   7
ENDBRANCH   5   6
ENDBRANCH   4   5
ENDBRANCH   3   4
ENDBRANCH   2   3
ENDBRANCH   1   2
BRANCH   1  17
ATOM     17  C   UNL     1      33.595   7.490  19.989  1.00  0.00     0.000 C 
BRANCH  17  18
ATOM     18  C   UNL     1      32.415   6.650  20.513  1.00  0.00     0.000 C 
BRANCH  18  19
ATOM     19  C   UNL     1      31.457   7.467  21.397  1.00  0.00     0.000 C 
BRANCH  19  20
ATOM     20  C   UNL     1      32.055   8.831  21.780  1.00  0.00     0.000 C 
BRANCH  20  21
ATOM     21  C   UNL     1      31.268   9.496  22.925  1.00  0.00     0.000 C 
BRANCH  21  22
ATOM     22  C   UNL     1      31.938  10.777  23.452  1.00  0.00    -0.000 C 
BRANCH  22  23
ATOM     23  C   UNL     1      32.717  11.580  22.395  1.00  0.00    -0.000 C 
BRANCH  23  24
ATOM     24  C   UNL     1      34.107  12.025  22.885  1.00  0.00    -0.000 C 
BRANCH  24  25
ATOM     25  C   UNL     1      35.118  10.869  22.923  1.00  0.00    -0.000 C 
BRANCH  25  26
ATOM     26  C   UNL     1      35.430  10.302  21.530  1.00  0.00    -0.000 C 
BRANCH  26  27
ATOM     27  C   UNL     1      35.871  11.416  20.573  1.00  0.00    -0.000 C 
BRANCH  27  28
ATOM     28  C   UNL     1      36.147  10.862  19.170  1.00  0.00    -0.000 C 
BRANCH  28  29
ATOM     29  C   UNL     1      37.016   9.600  19.236  1.00  0.00    -0.003 C 
ATOM     30  C   UNL     1      38.309   9.778  18.444  1.00  0.00     0.004 C 
ENDBRANCH  28  29
ENDBRANCH  27  28
ENDBRANCH  26  27
ENDBRANCH  25  26
ENDBRANCH  24  25
ENDBRANCH  23  24
ENDBRANCH  22  23
ENDBRANCH  21  22
ENDBRANCH  20  21
ENDBRANCH  19  20
ENDBRANCH  18  19
ENDBRANCH  17  18
ENDBRANCH   1  17
TORSDOF 26
ENDMDL
MODEL 4
REMARK VINA RESULT:    -2.580      2.084      4.662
REMARK INTER + INTRA:         -11.882
REMARK INTER:                  -7.260
REMARK INTRA:                  -4.622
REMARK UNBOUND:                -5.382
REMARK SMILES CCCCCCCCCCCCCCCCCCCCCCCCCCCC(=O)[O-]
REMARK SMILES IDX 15 1 16 2 17 3 18 4 19 5 20 6 21 7 22 8 23 9 24 10 25 11
REMARK SMILES IDX 26 12 27 13 28 14 29 15 30 16 14 17 13 18 12 19 11 20 10 21
REMARK SMILES IDX 9 22 8 23 7 24 6 25 5 26 4 27 3 28 2 29 1 30
REMARK H PARENT
REMARK Flexibility Score: inf
ROOT
ATOM      1  C   UNL     1      31.930   8.520  21.666  1.00  0.00     0.000 C 
ENDROOT
BRANCH   1   2
ATOM      2  C   UNL     1      31.134   9.181  22.810  1.00  0.00     0.000 C 
BRANCH   2   3
ATOM      3  C   UNL     1      31.754  10.504  23.286  1.00  0.00     0.000 C 
BRANCH   3   4
ATOM      4  C   UNL     1      32.411  11.252  22.116  1.00  0.00     0.000 C 
BRANCH   4   5
ATOM      5  C   UNL     1      33.599  12.125  22.558  1.00  0.00     0.000 C 
BRANCH   5   6
ATOM      6  C   UNL     1      34.622  11.414  23.468  1.00  0.00     0.000 C 
BRANCH   6   7
ATOM      7  C   UNL     1      36.030  11.245  22.866  1.00  0.00     0.000 C 
BRANCH   7   8
ATOM      8  C   UNL     1      36.420   9.797  22.504  1.00  0.00     0.000 C 
BRANCH   8   9
ATOM      9  C   UNL     1      35.426   9.105  21.546  1.00  0.00     0.000 C 
BRANCH   9  10
ATOM     10  C   UNL     1      35.807   9.283  20.069  1.00  0.00     0.000 C 
BRANCH  10  11
ATOM     11  C   UNL     1      34.847  10.256  19.368  1.00  0.00     0.000 C 
BRANCH  11  12
ATOM     12  C   UNL     1      33.642   9.546  18.723  1.00  0.00     0.006 C 
BRANCH  12  13
ATOM     13  C   UNL     1      34.000   8.626  17.542  1.00  0.00     0.053 C 
BRANCH  13  14
ATOM     14  C   UNL     1      32.789   8.180  16.782  1.00  0.00     0.041 C 
ATOM     15  O   UNL     1      31.654   8.640  17.073  1.00  0.00    -0.550 OA
ATOM     16  O   UNL     1      32.910   7.231  15.775  1.00  0.00    -0.550 OA
ENDBRANCH  13  14
ENDBRANCH  12  13
ENDBRANCH  11  12
ENDBRANCH  10  11
ENDBRANCH   9  10
ENDBRANCH   8   9
ENDBRANCH   7   8
ENDBRANCH   6   7
ENDBRANCH   5   6
ENDBRANCH   4   5
ENDBRANCH   3   4
ENDBRANCH   2   3
ENDBRANCH   1   2
BRANCH   1  17
ATOM     17  C   UNL     1      31.358   7.173  21.176  1.00  0.00     0.000 C 
BRANCH  17  18
ATOM     18  C   UNL     1      32.251   6.436  20.161  1.00  0.00     0.000 C 
BRANCH  18  19
ATOM     19  C   UNL     1      33.420   5.696  20.832  1.00  0.00     0.000 C 
BRANCH  19  20
ATOM     20  C   UNL     1      32.928   4.604  21.796  1.00  0.00     0.000 C 
BRANCH  20  21
ATOM     21  C   UNL     1      33.319   3.196  21.309  1.00  0.00     0.000 C 
BRANCH  21  22
ATOM     22  C   UNL     1      33.981   3.200  19.921  1.00  0.00    -0.000 C 
BRANCH  22  23
ATOM     23  C   UNL     1      35.384   2.567  19.873  1.00  0.00    -0.000 C 
BRANCH  23  24
ATOM     24  C   UNL     1      36.490   3.585  19.541  1.00  0.00    -0.000 C 
BRANCH  24  25
ATOM     25  C   UNL     1      37.044   4.285  20.790  1.00  0.00    -0.000 C 
BRANCH  25  26
ATOM     26  C   UNL     1      37.094   5.813  20.647  1.00  0.00    -0.000 C 
BRANCH  26  27
ATOM     27  C   UNL     1      38.062   6.426  21.666  1.00  0.00    -0.000 C 
BRANCH  27  28
ATOM     28  C   UNL     1      37.493   6.345  23.088  1.00  0.00    -0.000 C 
BRANCH  28  29
ATOM     29  C   UNL     1      38.472   5.635  24.033  1.00  0.00    -0.003 C 
ATOM     30  C   UNL     1      39.852   5.497  23.395  1.00  0.00     0.004 C 
ENDBRANCH  28  29
ENDBRANCH  27  28
ENDBRANCH  26  27
ENDBRANCH  25  26
ENDBRANCH  24  25
ENDBRANCH  23  24
ENDBRANCH  22  23
ENDBRANCH  21  22
ENDBRANCH  20  21
ENDBRANCH  19  20
ENDBRANCH  18  19
ENDBRANCH  17  18
ENDBRANCH   1  17
TORSDOF 26
ENDMDL
MODEL 5
REMARK VINA RESULT:    -2.531      2.600      5.856
REMARK INTER + INTRA:         -11.761
REMARK INTER:                  -6.851
REMARK INTRA:                  -4.910
REMARK UNBOUND:                -5.382
REMARK SMILES CCCCCCCCCCCCCCCCCCCCCCCCCCCC(=O)[O-]
REMARK SMILES IDX 15 1 16 2 17 3 18 4 19 5 20 6 21 7 22 8 23 9 24 10 25 11
REMARK SMILES IDX 26 12 27 13 28 14 29 15 30 16 14 17 13 18 12 19 11 20 10 21
REMARK SMILES IDX 9 22 8 23 7 24 6 25 5 26 4 27 3 28 2 29 1 30
REMARK H PARENT
REMARK Flexibility Score: inf
ROOT
ATOM      1  C   UNL     1      34.375   5.410  19.963  1.00  0.00     0.000 C 
ENDROOT
BRANCH   1   2
ATOM      2  C   UNL     1      35.239   5.763  21.191  1.00  0.00     0.000 C 
BRANCH   2   3
ATOM      3  C   UNL     1      35.775   7.203  21.155  1.00  0.00     0.000 C 
BRANCH   3   4
ATOM      4  C   UNL     1      37.280   7.234  21.458  1.00  0.00     0.000 C 
BRANCH   4   5
ATOM      5  C   UNL     1      38.145   7.192  20.185  1.00  0.00     0.000 C 
BRANCH   5   6
ATOM      6  C   UNL     1      37.589   8.004  18.997  1.00  0.00     0.000 C 
BRANCH   6   7
ATOM      7  C   UNL     1      37.623   9.534  19.174  1.00  0.00     0.000 C 
BRANCH   7   8
ATOM      8  C   UNL     1      36.937  10.341  18.052  1.00  0.00     0.000 C 
BRANCH   8   9
ATOM      9  C   UNL     1      35.945  11.405  18.569  1.00  0.00     0.000 C 
BRANCH   9  10
ATOM     10  C   UNL     1      34.913  10.825  19.548  1.00  0.00     0.000 C 
BRANCH  10  11
ATOM     11  C   UNL     1      33.489  10.963  18.990  1.00  0.00     0.000 C 
BRANCH  11  12
ATOM     12  C   UNL     1      33.345  10.388  17.568  1.00  0.00     0.006 C 
BRANCH  12  13
ATOM     13  C   UNL     1      32.216  11.020  16.735  1.00  0.00     0.053 C 
BRANCH  13  14
ATOM     14  C   UNL     1      31.463  10.003  15.934  1.00  0.00     0.041 C 
ATOM     15  O   UNL     1      31.195   8.878  16.431  1.00  0.00    -0.550 OA
ATOM     16  O   UNL     1      31.089  10.285  14.626  1.00  0.00    -0.550 OA
ENDBRANCH  13  14
ENDBRANCH  12  13
ENDBRANCH  11  12
ENDBRANCH  10  11
ENDBRANCH   9  10
ENDBRANCH   8   9
ENDBRANCH   7   8
ENDBRANCH   6   7
ENDBRANCH   5   6
ENDBRANCH   4   5
ENDBRANCH   3   4
ENDBRANCH   2   3
ENDBRANCH   1   2
BRANCH   1  17
ATOM     17  C   UNL     1      34.101   6.590  19.006  1.00  0.00     0.000 C 
BRANCH  17  18
ATOM     18  C   UNL     1      32.748   7.290  19.234  1.00  0.00     0.000 C 
BRANCH  18  19
ATOM     19  C   UNL     1      31.765   6.426  20.042  1.00  0.00     0.000 C 
BRANCH  19  20
ATOM     20  C   UNL     1      31.436   7.056  21.405  1.00  0.00     0.000 C 
BRANCH  20  21
ATOM     21  C   UNL     1      32.034   8.469  21.538  1.00  0.00     0.000 C 
BRANCH  21  22
ATOM     22  C   UNL     1      31.257   9.363  22.520  1.00  0.00    -0.000 C 
BRANCH  22  23
ATOM     23  C   UNL     1      32.125  10.351  23.319  1.00  0.00    -0.000 C 
BRANCH  23  24
ATOM     24  C   UNL     1      32.393  11.664  22.561  1.00  0.00    -0.000 C 
BRANCH  24  25
ATOM     25  C   UNL     1      33.859  12.112  22.654  1.00  0.00    -0.000 C 
BRANCH  25  26
ATOM     26  C   UNL     1      34.701  11.215  23.572  1.00  0.00    -0.000 C 
BRANCH  26  27
ATOM     27  C   UNL     1      36.005  10.797  22.882  1.00  0.00    -0.000 C 
BRANCH  27  28
ATOM     28  C   UNL     1      36.976  11.979  22.771  1.00  0.00    -0.000 C 
BRANCH  28  29
ATOM     29  C   UNL     1      38.331  11.529  22.209  1.00  0.00    -0.003 C 
ATOM     30  C   UNL     1      38.815  10.254  22.895  1.00  0.00     0.004 C 
ENDBRANCH  28  29
ENDBRANCH  27  28
ENDBRANCH  26  27
ENDBRANCH  25  26
ENDBRANCH  24  25
ENDBRANCH  23  24
ENDBRANCH  22  23
ENDBRANCH  21  22
ENDBRANCH  20  21
ENDBRANCH  19  20
ENDBRANCH  18  19
ENDBRANCH  17  18
ENDBRANCH   1  17
TORSDOF 26
ENDMDL
MODEL 6
REMARK VINA RESULT:    -2.471      1.895      5.348
REMARK INTER + INTRA:         -11.609
REMARK INTER:                  -7.090
REMARK INTRA:                  -4.519
REMARK UNBOUND:                -5.382
REMARK SMILES CCCCCCCCCCCCCCCCCCCCCCCCCCCC(=O)[O-]
REMARK SMILES IDX 15 1 16 2 17 3 18 4 19 5 20 6 21 7 22 8 23 9 24 10 25 11
REMARK SMILES IDX 26 12 27 13 28 14 29 15 30 16 14 17 13 18 12 19 11 20 10 21
REMARK SMILES IDX 9 22 8 23 7 24 6 25 5 26 4 27 3 28 2 29 1 30
REMARK H PARENT
REMARK Flexibility Score: inf
ROOT
ATOM      1  C   UNL     1      34.810  11.959  21.347  1.00  0.00     0.000 C 
ENDROOT
BRANCH   1   2
ATOM      2  C   UNL     1      33.269  11.939  21.425  1.00  0.00     0.000 C 
BRANCH   2   3
ATOM      3  C   UNL     1      32.738  12.121  22.855  1.00  0.00     0.000 C 
BRANCH   3   4
ATOM      4  C   UNL     1      31.931  10.892  23.299  1.00  0.00     0.000 C 
BRANCH   4   5
ATOM      5  C   UNL     1      31.997   9.738  22.283  1.00  0.00     0.000 C 
BRANCH   5   6
ATOM      6  C   UNL     1      30.921   8.648  22.469  1.00  0.00     0.000 C 
BRANCH   6   7
ATOM      7  C   UNL     1      31.224   7.303  21.782  1.00  0.00     0.000 C 
BRANCH   7   8
ATOM      8  C   UNL     1      30.877   7.238  20.280  1.00  0.00     0.000 C 
BRANCH   8   9
ATOM      9  C   UNL     1      32.110   7.100  19.361  1.00  0.00     0.000 C 
BRANCH   9  10
ATOM     10  C   UNL     1      33.426   7.420  20.086  1.00  0.00     0.000 C 
BRANCH  10  11
ATOM     11  C   UNL     1      34.628   6.847  19.320  1.00  0.00     0.000 C 
BRANCH  11  12
ATOM     12  C   UNL     1      35.047   5.452  19.821  1.00  0.00     0.006 C 
BRANCH  12  13
ATOM     13  C   UNL     1      34.505   5.085  21.214  1.00  0.00     0.053 C 
BRANCH  13  14
ATOM     14  C   UNL     1      33.643   3.860  21.184  1.00  0.00     0.041 C 
ATOM     15  O   UNL     1      34.124   2.758  20.813  1.00  0.00    -0.550 OA
ATOM     16  O   UNL     1      32.301   3.945  21.531  1.00  0.00    -0.550 OA
ENDBRANCH  13  14
ENDBRANCH  12  13
ENDBRANCH  11  12
ENDBRANCH  10  11
ENDBRANCH   9  10
ENDBRANCH   8   9
ENDBRANCH   7   8
ENDBRANCH   6   7
ENDBRANCH   5   6
ENDBRANCH   4   5
ENDBRANCH   3   4
ENDBRANCH   2   3
ENDBRANCH   1   2
BRANCH   1  17
ATOM     17  C   UNL     1      35.525  11.944  22.715  1.00  0.00     0.000 C 
BRANCH  17  18
ATOM     18  C   UNL     1      36.270  10.633  23.027  1.00  0.00     0.000 C 
BRANCH  18  19
ATOM     19  C   UNL     1      35.803   9.464  22.143  1.00  0.00     0.000 C 
BRANCH  19  20
ATOM     20  C   UNL     1      36.822   8.312  22.133  1.00  0.00     0.000 C 
BRANCH  20  21
ATOM     21  C   UNL     1      38.096   8.673  22.918  1.00  0.00     0.000 C 
BRANCH  21  22
ATOM     22  C   UNL     1      38.432   7.656  24.023  1.00  0.00    -0.000 C 
BRANCH  22  23
ATOM     23  C   UNL     1      37.772   6.276  23.853  1.00  0.00    -0.000 C 
BRANCH  23  24
ATOM     24  C   UNL     1      38.684   5.257  23.146  1.00  0.00    -0.000 C 
BRANCH  24  25
ATOM     25  C   UNL     1      38.190   4.900  21.736  1.00  0.00    -0.000 C 
BRANCH  25  26
ATOM     26  C   UNL     1      39.318   4.414  20.814  1.00  0.00    -0.000 C 
BRANCH  26  27
ATOM     27  C   UNL     1      39.384   5.261  19.538  1.00  0.00    -0.000 C 
BRANCH  27  28
ATOM     28  C   UNL     1      38.509   6.514  19.660  1.00  0.00    -0.000 C 
BRANCH  28  29
ATOM     29  C   UNL     1      38.294   7.173  18.290  1.00  0.00    -0.003 C 
ATOM     30  C   UNL     1      37.734   6.174  17.281  1.00  0.00     0.004 C 
ENDBRANCH  28  29
ENDBRANCH  27  28
ENDBRANCH  26  27
ENDBRANCH  25  26
ENDBRANCH  24  25
ENDBRANCH  23  24
ENDBRANCH  22  23
ENDBRANCH  21  22
ENDBRANCH  20  21
ENDBRANCH  19  20
ENDBRANCH  18  19
ENDBRANCH  17  18
ENDBRANCH   1  17
TORSDOF 26
ENDMDL
MODEL 7
REMARK VINA RESULT:    -2.465      1.448      4.601
REMARK INTER + INTRA:         -11.594
REMARK INTER:                  -6.889
REMARK INTRA:                  -4.705
REMARK UNBOUND:                -5.382
REMARK SMILES CCCCCCCCCCCCCCCCCCCCCCCCCCCC(=O)[O-]
REMARK SMILES IDX 15 1 16 2 17 3 18 4 19 5 20 6 21 7 22 8 23 9 24 10 25 11
REMARK SMILES IDX 26 12 27 13 28 14 29 15 30 16 14 17 13 18 12 19 11 20 10 21
REMARK SMILES IDX 9 22 8 23 7 24 6 25 5 26 4 27 3 28 2 29 1 30
REMARK H PARENT
REMARK Flexibility Score: inf
ROOT
ATOM      1  C   UNL     1      33.685  10.631  22.850  1.00  0.00     0.000 C 
ENDROOT
BRANCH   1   2
ATOM      2  C   UNL     1      32.249  10.980  23.292  1.00  0.00     0.000 C 
BRANCH   2   3
ATOM      3  C   UNL     1      31.243   9.855  23.005  1.00  0.00     0.000 C 
BRANCH   3   4
ATOM      4  C   UNL     1      31.841   8.820  22.040  1.00  0.00     0.000 C 
BRANCH   4   5
ATOM      5  C   UNL     1      30.899   7.629  21.785  1.00  0.00     0.000 C 
BRANCH   5   6
ATOM      6  C   UNL     1      31.275   6.753  20.573  1.00  0.00     0.000 C 
BRANCH   6   7
ATOM      7  C   UNL     1      31.475   5.257  20.881  1.00  0.00     0.000 C 
BRANCH   7   8
ATOM      8  C   UNL     1      32.754   4.914  21.674  1.00  0.00     0.000 C 
BRANCH   8   9
ATOM      9  C   UNL     1      34.055   5.395  20.995  1.00  0.00     0.000 C 
BRANCH   9  10
ATOM     10  C   UNL     1      34.065   5.129  19.482  1.00  0.00     0.000 C 
BRANCH  10  11
ATOM     11  C   UNL     1      35.422   4.565  19.034  1.00  0.00     0.000 C 
BRANCH  11  12
ATOM     12  C   UNL     1      36.492   4.630  20.140  1.00  0.00     0.006 C 
BRANCH  12  13
ATOM     13  C   UNL     1      37.684   3.679  19.931  1.00  0.00     0.053 C 
BRANCH  13  14
ATOM     14  C   UNL     1      37.478   2.355  20.601  1.00  0.00     0.041 C 
ATOM     15  O   UNL     1      36.469   1.655  20.324  1.00  0.00    -0.550 OA
ATOM     16  O   UNL     1      38.382   1.910  21.557  1.00  0.00    -0.550 OA
ENDBRANCH  13  14
ENDBRANCH  12  13
ENDBRANCH  11  12
ENDBRANCH  10  11
ENDBRANCH   9  10
ENDBRANCH   8   9
ENDBRANCH   7   8
ENDBRANCH   6   7
ENDBRANCH   5   6
ENDBRANCH   4   5
ENDBRANCH   3   4
ENDBRANCH   2   3
ENDBRANCH   1   2
BRANCH   1  17
ATOM     17  C   UNL     1      34.595  11.850  22.589  1.00  0.00     0.000 C 
BRANCH  17  18
ATOM     18  C   UNL     1      36.100  11.526  22.572  1.00  0.00     0.000 C 
BRANCH  18  19
ATOM     19  C   UNL     1      36.402  10.096  23.051  1.00  0.00     0.000 C 
BRANCH  19  20
ATOM     20  C   UNL     1      37.910   9.860  23.233  1.00  0.00     0.000 C 
BRANCH  20  21
ATOM     21  C   UNL     1      38.236   8.366  23.408  1.00  0.00     0.000 C 
BRANCH  21  22
ATOM     22  C   UNL     1      37.770   7.504  22.221  1.00  0.00    -0.000 C 
BRANCH  22  23
ATOM     23  C   UNL     1      38.859   7.202  21.176  1.00  0.00    -0.000 C 
BRANCH  23  24
ATOM     24  C   UNL     1      38.454   7.621  19.751  1.00  0.00    -0.000 C 
BRANCH  24  25
ATOM     25  C   UNL     1      37.618   8.909  19.728  1.00  0.00    -0.000 C 
BRANCH  25  26
ATOM     26  C   UNL     1      36.310   8.758  18.937  1.00  0.00    -0.000 C 
BRANCH  26  27
ATOM     27  C   UNL     1      35.098   8.774  19.876  1.00  0.00    -0.000 C 
BRANCH  27  28
ATOM     28  C   UNL     1      33.785   8.787  19.085  1.00  0.00    -0.000 C 
BRANCH  28  29
ATOM     29  C   UNL     1      33.651  10.073  18.258  1.00  0.00    -0.003 C 
ATOM     30  C   UNL     1      33.502  11.295  19.161  1.00  0.00     0.004 C 
ENDBRANCH  28  29
ENDBRANCH  27  28
ENDBRANCH  26  27
ENDBRANCH  25  26
ENDBRANCH  24  25
ENDBRANCH  23  24
ENDBRANCH  22  23
ENDBRANCH  21  22
ENDBRANCH  20  21
ENDBRANCH  19  20
ENDBRANCH  18  19
ENDBRANCH  17  18
ENDBRANCH   1  17
TORSDOF 26
ENDMDL
MODEL 8
REMARK VINA RESULT:    -2.434      1.507      3.908
REMARK INTER + INTRA:         -11.514
REMARK INTER:                  -5.645
REMARK INTRA:                  -5.869
REMARK UNBOUND:                -5.382
REMARK SMILES CCCCCCCCCCCCCCCCCCCCCCCCCCCC(=O)[O-]
REMARK SMILES IDX 15 1 16 2 17 3 18 4 19 5 20 6 21 7 22 8 23 9 24 10 25 11
REMARK SMILES IDX 26 12 27 13 28 14 29 15 30 16 14 17 13 18 12 19 11 20 10 21
REMARK SMILES IDX 9 22 8 23 7 24 6 25 5 26 4 27 3 28 2 29 1 30
REMARK H PARENT
REMARK Flexibility Score: inf
ROOT
ATOM      1  C   UNL     1      37.470   9.181  22.540  1.00  0.00     0.000 C 
ENDROOT
BRANCH   1   2
ATOM      2  C   UNL     1      36.668  10.272  23.281  1.00  0.00     0.000 C 
BRANCH   2   3
ATOM      3  C   UNL     1      36.449  11.534  22.434  1.00  0.00     0.000 C 
BRANCH   3   4
ATOM      4  C   UNL     1      34.953  11.763  22.170  1.00  0.00     0.000 C 
BRANCH   4   5
ATOM      5  C   UNL     1      34.054  11.093  23.226  1.00  0.00     0.000 C 
BRANCH   5   6
ATOM      6  C   UNL     1      32.839  10.333  22.655  1.00  0.00     0.000 C 
BRANCH   6   7
ATOM      7  C   UNL     1      33.037   9.743  21.246  1.00  0.00     0.000 C 
BRANCH   7   8
ATOM      8  C   UNL     1      33.051   8.202  21.174  1.00  0.00     0.000 C 
BRANCH   8   9
ATOM      9  C   UNL     1      32.406   7.633  19.892  1.00  0.00     0.000 C 
BRANCH   9  10
ATOM     10  C   UNL     1      32.046   6.145  20.023  1.00  0.00     0.000 C 
BRANCH  10  11
ATOM     11  C   UNL     1      31.747   5.779  21.484  1.00  0.00     0.000 C 
BRANCH  11  12
ATOM     12  C   UNL     1      32.231   4.366  21.859  1.00  0.00     0.006 C 
BRANCH  12  13
ATOM     13  C   UNL     1      33.666   4.043  21.407  1.00  0.00     0.053 C 
BRANCH  13  14
ATOM     14  C   UNL     1      33.752   2.737  20.679  1.00  0.00     0.041 C 
ATOM     15  O   UNL     1      34.855   2.137  20.583  1.00  0.00    -0.550 OA
ATOM     16  O   UNL     1      32.622   2.199  20.077  1.00  0.00    -0.550 OA
ENDBRANCH  13  14
ENDBRANCH  12  13
ENDBRANCH  11  12
ENDBRANCH  10  11
ENDBRANCH   9  10
ENDBRANCH   8   9
ENDBRANCH   7   8
ENDBRANCH   6   7
ENDBRANCH   5   6
ENDBRANCH   4   5
ENDBRANCH   3   4
ENDBRANCH   2   3
ENDBRANCH   1   2
BRANCH   1  17
ATOM     17  C   UNL     1      36.608   8.105  21.846  1.00  0.00     0.000 C 
BRANCH  17  18
ATOM     18  C   UNL     1      37.044   6.658  22.138  1.00  0.00     0.000 C 
BRANCH  18  19
ATOM     19  C   UNL     1      36.988   5.761  20.889  1.00  0.00     0.000 C 
BRANCH  19  20
ATOM     20  C   UNL     1      35.839   6.161  19.949  1.00  0.00     0.000 C 
BRANCH  20  21
ATOM     21  C   UNL     1      36.178   5.864  18.477  1.00  0.00     0.000 C 
BRANCH  21  22
ATOM     22  C   UNL     1      35.100   6.361  17.498  1.00  0.00    -0.000 C 
BRANCH  22  23
ATOM     23  C   UNL     1      35.442   7.677  16.776  1.00  0.00    -0.000 C 
BRANCH  23  24
ATOM     24  C   UNL     1      34.254   8.654  16.718  1.00  0.00    -0.000 C 
BRANCH  24  25
ATOM     25  C   UNL     1      34.392   9.813  17.717  1.00  0.00    -0.000 C 
BRANCH  25  26
ATOM     26  C   UNL     1      35.559   9.621  18.696  1.00  0.00    -0.000 C 
BRANCH  26  27
ATOM     27  C   UNL     1      36.401  10.899  18.799  1.00  0.00    -0.000 C 
BRANCH  27  28
ATOM     28  C   UNL     1      37.875  10.571  19.064  1.00  0.00    -0.000 C 
BRANCH  28  29
ATOM     29  C   UNL     1      38.310   9.321  18.287  1.00  0.00    -0.003 C 
ATOM     30  C   UNL     1      39.107   8.369  19.176  1.00  0.00     0.004 C 
ENDBRANCH  28  29
ENDBRANCH  27  28
ENDBRANCH  26  27
ENDBRANCH  25  26
ENDBRANCH  24  25
ENDBRANCH  23  24
ENDBRANCH  22  23
ENDBRANCH  21  22
ENDBRANCH  20  21
ENDBRANCH  19  20
ENDBRANCH  18  19
ENDBRANCH  17  18
ENDBRANCH   1  17
TORSDOF 26
ENDMDL
MODEL 9
REMARK VINA RESULT:    -2.426      2.134      5.633
REMARK INTER + INTRA:         -11.496
REMARK INTER:                  -5.921
REMARK INTRA:                  -5.575
REMARK UNBOUND:                -5.382
REMARK SMILES CCCCCCCCCCCCCCCCCCCCCCCCCCCC(=O)[O-]
REMARK SMILES IDX 15 1 16 2 17 3 18 4 19 5 20 6 21 7 22 8 23 9 24 10 25 11
REMARK SMILES IDX 26 12 27 13 28 14 29 15 30 16 14 17 13 18 12 19 11 20 10 21
REMARK SMILES IDX 9 22 8 23 7 24 6 25 5 26 4 27 3 28 2 29 1 30
REMARK H PARENT
REMARK Flexibility Score: inf
ROOT
ATOM      1  C   UNL     1      37.411   8.764  22.055  1.00  0.00     0.000 C 
ENDROOT
BRANCH   1   2
ATOM      2  C   UNL     1      36.823   9.800  23.035  1.00  0.00     0.000 C 
BRANCH   2   3
ATOM      3  C   UNL     1      37.058  11.250  22.587  1.00  0.00     0.000 C 
BRANCH   3   4
ATOM      4  C   UNL     1      35.808  12.108  22.834  1.00  0.00     0.000 C 
BRANCH   4   5
ATOM      5  C   UNL     1      34.656  11.310  23.472  1.00  0.00     0.000 C 
BRANCH   5   6
ATOM      6  C   UNL     1      33.243  11.816  23.117  1.00  0.00     0.000 C 
BRANCH   6   7
ATOM      7  C   UNL     1      32.491  10.979  22.065  1.00  0.00     0.000 C 
BRANCH   7   8
ATOM      8  C   UNL     1      33.112   9.602  21.755  1.00  0.00     0.000 C 
BRANCH   8   9
ATOM      9  C   UNL     1      33.816   9.531  20.382  1.00  0.00     0.000 C 
BRANCH   9  10
ATOM     10  C   UNL     1      33.743  10.858  19.612  1.00  0.00     0.000 C 
BRANCH  10  11
ATOM     11  C   UNL     1      35.149  11.355  19.242  1.00  0.00     0.000 C 
BRANCH  11  12
ATOM     12  C   UNL     1      36.162  10.208  19.062  1.00  0.00     0.006 C 
BRANCH  12  13
ATOM     13  C   UNL     1      37.556  10.656  18.593  1.00  0.00     0.053 C 
BRANCH  13  14
ATOM     14  C   UNL     1      38.393   9.507  18.119  1.00  0.00     0.041 C 
ATOM     15  O   UNL     1      39.155   8.907  18.921  1.00  0.00    -0.550 OA
ATOM     16  O   UNL     1      38.357   9.123  16.785  1.00  0.00    -0.550 OA
ENDBRANCH  13  14
ENDBRANCH  12  13
ENDBRANCH  11  12
ENDBRANCH  10  11
ENDBRANCH   9  10
ENDBRANCH   8   9
ENDBRANCH   7   8
ENDBRANCH   6   7
ENDBRANCH   5   6
ENDBRANCH   4   5
ENDBRANCH   3   4
ENDBRANCH   2   3
ENDBRANCH   1   2
BRANCH   1  17
ATOM     17  C   UNL     1      36.485   7.567  21.748  1.00  0.00     0.000 C 
BRANCH  17  18
ATOM     18  C   UNL     1      36.991   6.645  20.624  1.00  0.00     0.000 C 
BRANCH  18  19
ATOM     19  C   UNL     1      36.080   6.670  19.385  1.00  0.00     0.000 C 
BRANCH  19  20
ATOM     20  C   UNL     1      35.318   5.346  19.209  1.00  0.00     0.000 C 
BRANCH  20  21
ATOM     21  C   UNL     1      34.223   5.458  18.132  1.00  0.00     0.000 C 
BRANCH  21  22
ATOM     22  C   UNL     1      33.807   6.911  17.843  1.00  0.00    -0.000 C 
BRANCH  22  23
ATOM     23  C   UNL     1      32.296   7.183  17.948  1.00  0.00    -0.000 C 
BRANCH  23  24
ATOM     24  C   UNL     1      31.578   6.216  18.906  1.00  0.00    -0.000 C 
BRANCH  24  25
ATOM     25  C   UNL     1      31.441   6.782  20.327  1.00  0.00    -0.000 C 
BRANCH  25  26
ATOM     26  C   UNL     1      31.890   5.791  21.410  1.00  0.00    -0.000 C 
BRANCH  26  27
ATOM     27  C   UNL     1      31.859   4.352  20.881  1.00  0.00    -0.000 C 
BRANCH  27  28
ATOM     28  C   UNL     1      33.022   3.529  21.449  1.00  0.00    -0.000 C 
BRANCH  28  29
ATOM     29  C   UNL     1      33.390   2.373  20.509  1.00  0.00    -0.003 C 
ATOM     30  C   UNL     1      32.723   1.072  20.948  1.00  0.00     0.004 C 
ENDBRANCH  28  29
ENDBRANCH  27  28
ENDBRANCH  26  27
ENDBRANCH  25  26
ENDBRANCH  24  25
ENDBRANCH  23  24
ENDBRANCH  22  23
ENDBRANCH  21  22
ENDBRANCH  20  21
ENDBRANCH  19  20
ENDBRANCH  18  19
ENDBRANCH  17  18
ENDBRANCH   1  17
TORSDOF 26
ENDMDL
