MODEL 1
REMARK VINA RESULT:    -4.277      0.000      0.000
REMARK INTER + INTRA:          -9.587
REMARK INTER:                  -7.778
REMARK INTRA:                  -1.809
REMARK UNBOUND:                -1.809
REMARK SMILES CCCCCCCCCCCCCC[C@H](C)C(=O)[O-]
REMARK SMILES IDX 9 1 10 2 11 3 12 4 13 5 14 6 15 7 16 8 17 9 18 10 19 11 8 12
REMARK SMILES IDX 7 13 6 14 5 15 4 16 3 17 2 18 1 19
REMARK H PARENT
REMARK Flexibility Score: inf
ROOT
ATOM      1  C   UNL     1      13.623  35.775  20.622  1.00  0.00     0.000 C 
ENDROOT
BRANCH   1   2
ATOM      2  C   UNL     1      14.071  34.316  20.801  1.00  0.00     0.000 C 
BRANCH   2   3
ATOM      3  C   UNL     1      12.884  33.348  20.956  1.00  0.00     0.000 C 
BRANCH   3   4
ATOM      4  C   UNL     1      13.234  32.113  21.801  1.00  0.00     0.000 C 
BRANCH   4   5
ATOM      5  C   UNL     1      14.174  31.143  21.069  1.00  0.00     0.001 C 
BRANCH   5   6
ATOM      6  C   UNL     1      15.171  30.499  22.045  1.00  0.00     0.009 C 
BRANCH   6   7
ATOM      7  C   UNL     1      16.237  31.501  22.534  1.00  0.00     0.032 C 
ATOM      8  C   UNL     1      17.028  32.069  21.351  1.00  0.00     0.014 C 
BRANCH   7   9
ATOM      9  C   UNL     1      17.179  30.866  23.523  1.00  0.00     0.044 C 
ATOM     10  O   UNL     1      16.866  30.782  24.741  1.00  0.00    -0.550 OA
ATOM     11  O   UNL     1      18.402  30.369  23.095  1.00  0.00    -0.550 OA
ENDBRANCH   7   9
ENDBRANCH   6   7
ENDBRANCH   5   6
ENDBRANCH   4   5
ENDBRANCH   3   4
ENDBRANCH   2   3
ENDBRANCH   1   2
BRANCH   1  12
ATOM     12  C   UNL     1      13.526  36.186  19.146  1.00  0.00     0.000 C 
BRANCH  12  13
ATOM     13  C   UNL     1      12.234  36.966  18.877  1.00  0.00    -0.000 C 
BRANCH  13  14
ATOM     14  C   UNL     1      11.016  36.035  18.884  1.00  0.00    -0.000 C 
BRANCH  14  15
ATOM     15  C   UNL     1       9.862  36.643  19.690  1.00  0.00    -0.000 C 
BRANCH  15  16
ATOM     16  C   UNL     1       9.560  35.802  20.939  1.00  0.00    -0.000 C 
BRANCH  16  17
ATOM     17  C   UNL     1      10.036  36.471  22.241  1.00  0.00    -0.000 C 
BRANCH  17  18
ATOM     18  C   UNL     1      10.942  35.596  23.124  1.00  0.00    -0.003 C 
ATOM     19  C   UNL     1      11.685  36.394  24.195  1.00  0.00     0.004 C 
ENDBRANCH  17  18
ENDBRANCH  16  17
ENDBRANCH  15  16
ENDBRANCH  14  15
ENDBRANCH  13  14
ENDBRANCH  12  13
ENDBRANCH   1  12
TORSDOF 14
ENDMDL
MODEL 2
REMARK VINA RESULT:    -4.122      2.429      3.820
REMARK INTER + INTRA:          -9.305
REMARK INTER:                  -8.178
REMARK INTRA:                  -1.127
REMARK UNBOUND:                -1.809
REMARK SMILES CCCCCCCCCCCCCC[C@H](C)C(=O)[O-]
REMARK SMILES IDX 9 1 10 2 11 3 12 4 13 5 14 6 15 7 16 8 17 9 18 10 19 11 8 12
REMARK SMILES IDX 7 13 6 14 5 15 4 16 3 17 2 18 1 19
REMARK H PARENT
REMARK Flexibility Score: inf
ROOT
ATOM      1  C   UNL     1      11.412  35.937  22.603  1.00  0.00     0.000 C 
ENDROOT
BRANCH   1   2
ATOM      2  C   UNL     1      12.252  35.111  21.617  1.00  0.00     0.000 C 
BRANCH   2   3
ATOM      3  C   UNL     1      13.292  35.963  20.868  1.00  0.00     0.000 C 
BRANCH   3   4
ATOM      4  C   UNL     1      13.703  35.345  19.522  1.00  0.00     0.000 C 
BRANCH   4   5
ATOM      5  C   UNL     1      14.019  33.845  19.631  1.00  0.00     0.001 C 
BRANCH   5   6
ATOM      6  C   UNL     1      15.288  33.609  20.465  1.00  0.00     0.009 C 
BRANCH   6   7
ATOM      7  C   UNL     1      15.374  32.164  20.999  1.00  0.00     0.032 C 
ATOM      8  C   UNL     1      14.160  31.837  21.874  1.00  0.00     0.014 C 
BRANCH   7   9
ATOM      9  C   UNL     1      16.643  31.938  21.776  1.00  0.00     0.044 C 
ATOM     10  O   UNL     1      16.625  31.288  22.857  1.00  0.00    -0.550 OA
ATOM     11  O   UNL     1      17.846  32.447  21.305  1.00  0.00    -0.550 OA
ENDBRANCH   7   9
ENDBRANCH   6   7
ENDBRANCH   5   6
ENDBRANCH   4   5
ENDBRANCH   3   4
ENDBRANCH   2   3
ENDBRANCH   1   2
BRANCH   1  12
ATOM     12  C   UNL     1      10.047  36.339  22.025  1.00  0.00     0.000 C 
BRANCH  12  13
ATOM     13  C   UNL     1       9.661  35.435  20.848  1.00  0.00    -0.000 C 
BRANCH  13  14
ATOM     14  C   UNL     1       9.034  36.249  19.710  1.00  0.00    -0.000 C 
BRANCH  14  15
ATOM     15  C   UNL     1       7.730  35.603  19.224  1.00  0.00    -0.000 C 
BRANCH  15  16
ATOM     16  C   UNL     1       7.253  34.521  20.206  1.00  0.00    -0.000 C 
BRANCH  16  17
ATOM     17  C   UNL     1       6.818  33.224  19.502  1.00  0.00    -0.000 C 
BRANCH  17  18
ATOM     18  C   UNL     1       6.502  32.051  20.447  1.00  0.00    -0.003 C 
ATOM     19  C   UNL     1       5.086  32.109  21.021  1.00  0.00     0.004 C 
ENDBRANCH  17  18
ENDBRANCH  16  17
ENDBRANCH  15  16
ENDBRANCH  14  15
ENDBRANCH  13  14
ENDBRANCH  12  13
ENDBRANCH   1  12
TORSDOF 14
ENDMDL
MODEL 3
REMARK VINA RESULT:    -4.081      1.902      3.345
REMARK INTER + INTRA:          -9.229
REMARK INTER:                  -7.134
REMARK INTRA:                  -2.095
REMARK UNBOUND:                -1.809
REMARK SMILES CCCCCCCCCCCCCC[C@H](C)C(=O)[O-]
REMARK SMILES IDX 9 1 10 2 11 3 12 4 13 5 14 6 15 7 16 8 17 9 18 10 19 11 8 12
REMARK SMILES IDX 7 13 6 14 5 15 4 16 3 17 2 18 1 19
REMARK H PARENT
REMARK Flexibility Score: inf
ROOT
ATOM      1  C   UNL     1      11.303  36.205  21.524  1.00  0.00     0.000 C 
ENDROOT
BRANCH   1   2
ATOM      2  C   UNL     1      12.150  36.397  20.256  1.00  0.00     0.000 C 
BRANCH   2   3
ATOM      3  C   UNL     1      13.516  35.693  20.345  1.00  0.00     0.000 C 
BRANCH   3   4
ATOM      4  C   UNL     1      13.905  34.989  19.036  1.00  0.00     0.000 C 
BRANCH   4   5
ATOM      5  C   UNL     1      14.641  33.661  19.275  1.00  0.00     0.001 C 
BRANCH   5   6
ATOM      6  C   UNL     1      15.024  33.502  20.754  1.00  0.00     0.009 C 
BRANCH   6   7
ATOM      7  C   UNL     1      15.387  32.046  21.109  1.00  0.00     0.032 C 
ATOM      8  C   UNL     1      14.357  31.451  22.074  1.00  0.00     0.014 C 
BRANCH   7   9
ATOM      9  C   UNL     1      16.766  31.950  21.707  1.00  0.00     0.044 C 
ATOM     10  O   UNL     1      16.951  31.343  22.796  1.00  0.00    -0.550 OA
ATOM     11  O   UNL     1      17.845  32.536  21.058  1.00  0.00    -0.550 OA
ENDBRANCH   7   9
ENDBRANCH   6   7
ENDBRANCH   5   6
ENDBRANCH   4   5
ENDBRANCH   3   4
ENDBRANCH   2   3
ENDBRANCH   1   2
BRANCH   1  12
ATOM     12  C   UNL     1       9.796  36.329  21.252  1.00  0.00     0.000 C 
BRANCH  12  13
ATOM     13  C   UNL     1       9.533  36.757  19.804  1.00  0.00    -0.000 C 
BRANCH  13  14
ATOM     14  C   UNL     1       8.159  36.272  19.326  1.00  0.00    -0.000 C 
BRANCH  14  15
ATOM     15  C   UNL     1       7.707  35.036  20.114  1.00  0.00    -0.000 C 
BRANCH  15  16
ATOM     16  C   UNL     1       7.828  33.765  19.261  1.00  0.00    -0.000 C 
BRANCH  16  17
ATOM     17  C   UNL     1       8.878  32.779  19.802  1.00  0.00    -0.000 C 
BRANCH  17  18
ATOM     18  C   UNL     1      10.338  33.149  19.481  1.00  0.00    -0.003 C 
ATOM     19  C   UNL     1      11.352  32.277  20.221  1.00  0.00     0.004 C 
ENDBRANCH  17  18
ENDBRANCH  16  17
ENDBRANCH  15  16
ENDBRANCH  14  15
ENDBRANCH  13  14
ENDBRANCH  12  13
ENDBRANCH   1  12
TORSDOF 14
ENDMDL
MODEL 4
REMARK VINA RESULT:    -4.010      1.584      2.967
REMARK INTER + INTRA:          -9.100
REMARK INTER:                  -8.120
REMARK INTRA:                  -0.980
REMARK UNBOUND:                -1.809
REMARK SMILES CCCCCCCCCCCCCC[C@H](C)C(=O)[O-]
REMARK SMILES IDX 9 1 10 2 11 3 12 4 13 5 14 6 15 7 16 8 17 9 18 10 19 11 8 12
REMARK SMILES IDX 7 13 6 14 5 15 4 16 3 17 2 18 1 19
REMARK H PARENT
REMARK Flexibility Score: inf
ROOT
ATOM      1  C   UNL     1      13.188  34.585  20.593  1.00  0.00     0.000 C 
ENDROOT
BRANCH   1   2
ATOM      2  C   UNL     1      14.720  34.480  20.660  1.00  0.00     0.000 C 
BRANCH   2   3
ATOM      3  C   UNL     1      15.220  33.032  20.507  1.00  0.00     0.000 C 
BRANCH   3   4
ATOM      4  C   UNL     1      14.287  32.011  21.176  1.00  0.00     0.000 C 
BRANCH   4   5
ATOM      5  C   UNL     1      14.941  31.311  22.378  1.00  0.00     0.001 C 
BRANCH   5   6
ATOM      6  C   UNL     1      16.471  31.446  22.327  1.00  0.00     0.009 C 
BRANCH   6   7
ATOM      7  C   UNL     1      17.174  30.483  23.308  1.00  0.00     0.032 C 
ATOM      8  C   UNL     1      16.329  30.285  24.570  1.00  0.00     0.014 C 
BRANCH   7   9
ATOM      9  C   UNL     1      18.545  30.980  23.681  1.00  0.00     0.044 C 
ATOM     10  O   UNL     1      19.550  30.670  22.985  1.00  0.00    -0.550 OA
ATOM     11  O   UNL     1      18.711  31.784  24.800  1.00  0.00    -0.550 OA
ENDBRANCH   7   9
ENDBRANCH   6   7
ENDBRANCH   5   6
ENDBRANCH   4   5
ENDBRANCH   3   4
ENDBRANCH   2   3
ENDBRANCH   1   2
BRANCH   1  12
ATOM     12  C   UNL     1      12.641  35.767  21.406  1.00  0.00     0.000 C 
BRANCH  12  13
ATOM     13  C   UNL     1      11.444  35.338  22.263  1.00  0.00    -0.000 C 
BRANCH  13  14
ATOM     14  C   UNL     1      10.188  36.136  21.894  1.00  0.00    -0.000 C 
BRANCH  14  15
ATOM     15  C   UNL     1      10.267  36.653  20.452  1.00  0.00    -0.000 C 
BRANCH  15  16
ATOM     16  C   UNL     1       9.036  36.218  19.643  1.00  0.00    -0.000 C 
BRANCH  16  17
ATOM     17  C   UNL     1       8.546  34.806  20.009  1.00  0.00    -0.000 C 
BRANCH  17  18
ATOM     18  C   UNL     1       7.041  34.702  20.314  1.00  0.00    -0.003 C 
ATOM     19  C   UNL     1       6.520  33.266  20.271  1.00  0.00     0.004 C 
ENDBRANCH  17  18
ENDBRANCH  16  17
ENDBRANCH  15  16
ENDBRANCH  14  15
ENDBRANCH  13  14
ENDBRANCH  12  13
ENDBRANCH   1  12
TORSDOF 14
ENDMDL
MODEL 5
REMARK VINA RESULT:    -3.936      4.063      7.438
REMARK INTER + INTRA:          -8.966
REMARK INTER:                  -6.986
REMARK INTRA:                  -1.980
REMARK UNBOUND:                -1.809
REMARK SMILES CCCCCCCCCCCCCC[C@H](C)C(=O)[O-]
REMARK SMILES IDX 9 1 10 2 11 3 12 4 13 5 14 6 15 7 16 8 17 9 18 10 19 11 8 12
REMARK SMILES IDX 7 13 6 14 5 15 4 16 3 17 2 18 1 19
REMARK H PARENT
REMARK Flexibility Score: inf
ROOT
ATOM      1  C   UNL     1      13.908  34.061  20.761  1.00  0.00     0.000 C 
ENDROOT
BRANCH   1   2
ATOM      2  C   UNL     1      13.977  35.485  20.185  1.00  0.00     0.000 C 
BRANCH   2   3
ATOM      3  C   UNL     1      12.672  36.272  20.397  1.00  0.00     0.000 C 
BRANCH   3   4
ATOM      4  C   UNL     1      11.961  35.897  21.708  1.00  0.00     0.000 C 
BRANCH   4   5
ATOM      5  C   UNL     1      10.434  35.829  21.554  1.00  0.00     0.001 C 
BRANCH   5   6
ATOM      6  C   UNL     1      10.021  34.636  20.677  1.00  0.00     0.009 C 
BRANCH   6   7
ATOM      7  C   UNL     1       9.069  35.053  19.537  1.00  0.00     0.032 C 
ATOM      8  C   UNL     1       9.043  36.577  19.384  1.00  0.00     0.014 C 
BRANCH   7   9
ATOM      9  C   UNL     1       7.674  34.536  19.767  1.00  0.00     0.044 C 
ATOM     10  O   UNL     1       6.920  35.082  20.618  1.00  0.00    -0.550 OA
ATOM     11  O   UNL     1       7.209  33.448  19.040  1.00  0.00    -0.550 OA
ENDBRANCH   7   9
ENDBRANCH   6   7
ENDBRANCH   5   6
ENDBRANCH   4   5
ENDBRANCH   3   4
ENDBRANCH   2   3
ENDBRANCH   1   2
BRANCH   1  12
ATOM     12  C   UNL     1      13.510  33.017  19.707  1.00  0.00     0.000 C 
BRANCH  12  13
ATOM     13  C   UNL     1      12.953  31.752  20.371  1.00  0.00    -0.000 C 
BRANCH  13  14
ATOM     14  C   UNL     1      13.219  31.758  21.880  1.00  0.00    -0.000 C 
BRANCH  14  15
ATOM     15  C   UNL     1      13.579  30.354  22.382  1.00  0.00    -0.000 C 
BRANCH  15  16
ATOM     16  C   UNL     1      15.098  30.128  22.341  1.00  0.00    -0.000 C 
BRANCH  16  17
ATOM     17  C   UNL     1      15.902  31.428  22.516  1.00  0.00    -0.000 C 
BRANCH  17  18
ATOM     18  C   UNL     1      17.275  31.437  21.820  1.00  0.00    -0.003 C 
ATOM     19  C   UNL     1      17.479  32.651  20.915  1.00  0.00     0.004 C 
ENDBRANCH  17  18
ENDBRANCH  16  17
ENDBRANCH  15  16
ENDBRANCH  14  15
ENDBRANCH  13  14
ENDBRANCH  12  13
ENDBRANCH   1  12
TORSDOF 14
ENDMDL
MODEL 6
REMARK VINA RESULT:    -3.872      4.290      6.880
REMARK INTER + INTRA:          -8.849
REMARK INTER:                  -6.624
REMARK INTRA:                  -2.226
REMARK UNBOUND:                -1.809
REMARK SMILES CCCCCCCCCCCCCC[C@H](C)C(=O)[O-]
REMARK SMILES IDX 9 1 10 2 11 3 12 4 13 5 14 6 15 7 16 8 17 9 18 10 19 11 8 12
REMARK SMILES IDX 7 13 6 14 5 15 4 16 3 17 2 18 1 19
REMARK H PARENT
REMARK Flexibility Score: inf
ROOT
ATOM      1  C   UNL     1      11.168  35.362  22.111  1.00  0.00     0.000 C 
ENDROOT
BRANCH   1   2
ATOM      2  C   UNL     1      10.044  36.302  21.648  1.00  0.00     0.000 C 
BRANCH   2   3
ATOM      3  C   UNL     1       9.011  35.593  20.754  1.00  0.00     0.000 C 
BRANCH   3   4
ATOM      4  C   UNL     1       9.664  34.656  19.724  1.00  0.00     0.000 C 
BRANCH   4   5
ATOM      5  C   UNL     1       8.650  33.719  19.051  1.00  0.00     0.001 C 
BRANCH   5   6
ATOM      6  C   UNL     1       8.496  32.412  19.844  1.00  0.00     0.009 C 
BRANCH   6   7
ATOM      7  C   UNL     1       7.026  31.951  19.929  1.00  0.00     0.032 C 
ATOM      8  C   UNL     1       6.160  33.025  20.593  1.00  0.00     0.014 C 
BRANCH   7   9
ATOM      9  C   UNL     1       6.898  30.652  20.679  1.00  0.00     0.044 C 
ATOM     10  O   UNL     1       5.765  30.132  20.871  1.00  0.00    -0.550 OA
ATOM     11  O   UNL     1       8.033  30.018  21.167  1.00  0.00    -0.550 OA
ENDBRANCH   7   9
ENDBRANCH   6   7
ENDBRANCH   5   6
ENDBRANCH   4   5
ENDBRANCH   3   4
ENDBRANCH   2   3
ENDBRANCH   1   2
BRANCH   1  12
ATOM     12  C   UNL     1      12.564  35.973  21.925  1.00  0.00     0.000 C 
BRANCH  12  13
ATOM     13  C   UNL     1      13.047  35.810  20.479  1.00  0.00    -0.000 C 
BRANCH  13  14
ATOM     14  C   UNL     1      14.339  34.987  20.419  1.00  0.00    -0.000 C 
BRANCH  14  15
ATOM     15  C   UNL     1      14.364  34.089  19.177  1.00  0.00    -0.000 C 
BRANCH  15  16
ATOM     16  C   UNL     1      12.968  33.520  18.881  1.00  0.00    -0.000 C 
BRANCH  16  17
ATOM     17  C   UNL     1      12.762  32.108  19.455  1.00  0.00    -0.000 C 
BRANCH  17  18
ATOM     18  C   UNL     1      12.117  32.065  20.852  1.00  0.00    -0.003 C 
ATOM     19  C   UNL     1      13.131  31.834  21.973  1.00  0.00     0.004 C 
ENDBRANCH  17  18
ENDBRANCH  16  17
ENDBRANCH  15  16
ENDBRANCH  14  15
ENDBRANCH  13  14
ENDBRANCH  12  13
ENDBRANCH   1  12
TORSDOF 14
ENDMDL
MODEL 7
REMARK VINA RESULT:    -3.854      3.736      7.080
REMARK INTER + INTRA:          -8.816
REMARK INTER:                  -7.301
REMARK INTRA:                  -1.516
REMARK UNBOUND:                -1.809
REMARK SMILES CCCCCCCCCCCCCC[C@H](C)C(=O)[O-]
REMARK SMILES IDX 9 1 10 2 11 3 12 4 13 5 14 6 15 7 16 8 17 9 18 10 19 11 8 12
REMARK SMILES IDX 7 13 6 14 5 15 4 16 3 17 2 18 1 19
REMARK H PARENT
REMARK Flexibility Score: inf
ROOT
ATOM      1  C   UNL     1      12.860  35.242  21.497  1.00  0.00     0.000 C 
ENDROOT
BRANCH   1   2
ATOM      2  C   UNL     1      11.857  36.134  22.245  1.00  0.00     0.000 C 
BRANCH   2   3
ATOM      3  C   UNL     1      10.395  35.794  21.904  1.00  0.00     0.000 C 
BRANCH   3   4
ATOM      4  C   UNL     1       9.905  36.505  20.632  1.00  0.00     0.000 C 
BRANCH   4   5
ATOM      5  C   UNL     1       9.668  35.533  19.466  1.00  0.00     0.001 C 
BRANCH   5   6
ATOM      6  C   UNL     1       9.455  34.100  19.977  1.00  0.00     0.009 C 
BRANCH   6   7
ATOM      7  C   UNL     1       8.056  33.556  19.620  1.00  0.00     0.032 C 
ATOM      8  C   UNL     1       6.964  34.369  20.321  1.00  0.00     0.014 C 
BRANCH   7   9
ATOM      9  C   UNL     1       7.922  32.100  19.979  1.00  0.00     0.044 C 
ATOM     10  O   UNL     1       6.797  31.614  20.275  1.00  0.00    -0.550 OA
ATOM     11  O   UNL     1       9.044  31.281  19.988  1.00  0.00    -0.550 OA
ENDBRANCH   7   9
ENDBRANCH   6   7
ENDBRANCH   5   6
ENDBRANCH   4   5
ENDBRANCH   3   4
ENDBRANCH   2   3
ENDBRANCH   1   2
BRANCH   1  12
ATOM     12  C   UNL     1      13.435  35.920  20.245  1.00  0.00     0.000 C 
BRANCH  12  13
ATOM     13  C   UNL     1      13.822  34.881  19.186  1.00  0.00    -0.000 C 
BRANCH  13  14
ATOM     14  C   UNL     1      13.586  33.456  19.699  1.00  0.00    -0.000 C 
BRANCH  14  15
ATOM     15  C   UNL     1      14.884  32.640  19.677  1.00  0.00    -0.000 C 
BRANCH  15  16
ATOM     16  C   UNL     1      15.613  32.729  21.026  1.00  0.00    -0.000 C 
BRANCH  16  17
ATOM     17  C   UNL     1      17.139  32.585  20.893  1.00  0.00    -0.000 C 
BRANCH  17  18
ATOM     18  C   UNL     1      17.810  31.759  22.005  1.00  0.00    -0.003 C 
ATOM     19  C   UNL     1      16.805  31.048  22.911  1.00  0.00     0.004 C 
ENDBRANCH  17  18
ENDBRANCH  16  17
ENDBRANCH  15  16
ENDBRANCH  14  15
ENDBRANCH  13  14
ENDBRANCH  12  13
ENDBRANCH   1  12
TORSDOF 14
ENDMDL
MODEL 8
REMARK VINA RESULT:    -3.853      2.970      6.644
REMARK INTER + INTRA:          -8.815
REMARK INTER:                  -6.895
REMARK INTRA:                  -1.920
REMARK UNBOUND:                -1.809
REMARK SMILES CCCCCCCCCCCCCC[C@H](C)C(=O)[O-]
REMARK SMILES IDX 9 1 10 2 11 3 12 4 13 5 14 6 15 7 16 8 17 9 18 10 19 11 8 12
REMARK SMILES IDX 7 13 6 14 5 15 4 16 3 17 2 18 1 19
REMARK H PARENT
REMARK Flexibility Score: inf
ROOT
ATOM      1  C   UNL     1      14.105  35.440  20.341  1.00  0.00     0.000 C 
ENDROOT
BRANCH   1   2
ATOM      2  C   UNL     1      13.582  35.733  18.926  1.00  0.00     0.000 C 
BRANCH   2   3
ATOM      3  C   UNL     1      12.372  36.684  18.929  1.00  0.00     0.000 C 
BRANCH   3   4
ATOM      4  C   UNL     1      11.047  35.955  19.207  1.00  0.00     0.000 C 
BRANCH   4   5
ATOM      5  C   UNL     1      10.092  36.779  20.084  1.00  0.00     0.001 C 
BRANCH   5   6
ATOM      6  C   UNL     1       9.753  36.031  21.384  1.00  0.00     0.009 C 
BRANCH   6   7
ATOM      7  C   UNL     1      10.986  35.859  22.295  1.00  0.00     0.032 C 
ATOM      8  C   UNL     1      11.351  34.378  22.438  1.00  0.00     0.014 C 
BRANCH   7   9
ATOM      9  C   UNL     1      10.756  36.464  23.654  1.00  0.00     0.044 C 
ATOM     10  O   UNL     1      11.670  36.456  24.523  1.00  0.00    -0.550 OA
ATOM     11  O   UNL     1       9.528  37.036  23.960  1.00  0.00    -0.550 OA
ENDBRANCH   7   9
ENDBRANCH   6   7
ENDBRANCH   5   6
ENDBRANCH   4   5
ENDBRANCH   3   4
ENDBRANCH   2   3
ENDBRANCH   1   2
BRANCH   1  12
ATOM     12  C   UNL     1      15.039  34.222  20.385  1.00  0.00     0.000 C 
BRANCH  12  13
ATOM     13  C   UNL     1      14.474  33.066  19.551  1.00  0.00    -0.000 C 
BRANCH  13  14
ATOM     14  C   UNL     1      13.531  32.192  20.385  1.00  0.00    -0.000 C 
BRANCH  14  15
ATOM     15  C   UNL     1      14.058  32.023  21.815  1.00  0.00    -0.000 C 
BRANCH  15  16
ATOM     16  C   UNL     1      14.465  30.566  22.083  1.00  0.00    -0.000 C 
BRANCH  16  17
ATOM     17  C   UNL     1      15.938  30.283  21.743  1.00  0.00    -0.000 C 
BRANCH  17  18
ATOM     18  C   UNL     1      16.954  31.183  22.468  1.00  0.00    -0.003 C 
ATOM     19  C   UNL     1      17.737  32.088  21.518  1.00  0.00     0.004 C 
ENDBRANCH  17  18
ENDBRANCH  16  17
ENDBRANCH  15  16
ENDBRANCH  14  15
ENDBRANCH  13  14
ENDBRANCH  12  13
ENDBRANCH   1  12
TORSDOF 14
ENDMDL
