MODEL 1
REMARK VINA RESULT:    -6.709      0.000      0.000
REMARK INTER + INTRA:          -7.390
REMARK INTER:                  -7.101
REMARK INTRA:                  -0.288
REMARK UNBOUND:                -0.288
REMARK SMILES c1ccc(-c2ccccc2)cc1
REMARK SMILES IDX 1 1 2 2 3 3 4 4 11 5 12 6 5 7 6 8 10 9 7 10 9 11 8 12
REMARK H PARENT
REMARK Flexibility Score: inf
ROOT
ATOM      1  C   UNL     1      16.963 -12.680 -19.197  1.00  0.00     0.000 A 
ATOM      2  C   UNL     1      16.992 -11.285 -19.193  1.00  0.00     0.001 A 
ATOM      3  C   UNL     1      16.103 -10.562 -19.996  1.00  0.00     0.009 A 
ATOM      4  C   UNL     1      15.172 -11.232 -20.812  1.00  0.00    -0.018 A 
ATOM      5  C   UNL     1      15.154 -12.640 -20.807  1.00  0.00     0.009 A 
ATOM      6  C   UNL     1      16.045 -13.357 -20.003  1.00  0.00     0.001 A 
ENDROOT
BRANCH   4   7
ATOM      7  C   UNL     1      14.228 -10.467 -21.666  1.00  0.00    -0.018 A 
ATOM      8  C   UNL     1      14.662  -9.885 -22.872  1.00  0.00     0.009 A 
ATOM      9  C   UNL     1      12.882 -10.311 -21.282  1.00  0.00     0.009 A 
ATOM     10  C   UNL     1      13.771  -9.166 -23.673  1.00  0.00     0.001 A 
ATOM     11  C   UNL     1      11.994  -9.589 -22.087  1.00  0.00     0.001 A 
ATOM     12  C   UNL     1      12.438  -9.018 -23.281  1.00  0.00     0.000 A 
ENDBRANCH   4   7
TORSDOF 1
ENDMDL
MODEL 2
REMARK VINA RESULT:    -6.662      0.135      4.903
REMARK INTER + INTRA:          -7.340
REMARK INTER:                  -7.051
REMARK INTRA:                  -0.289
REMARK UNBOUND:                -0.288
REMARK SMILES c1ccc(-c2ccccc2)cc1
REMARK SMILES IDX 1 1 2 2 3 3 4 4 11 5 12 6 5 7 6 8 10 9 7 10 9 11 8 12
REMARK H PARENT
REMARK Flexibility Score: inf
ROOT
ATOM      1  C   UNL     1      12.286  -9.039 -23.111  1.00  0.00     0.000 A 
ATOM      2  C   UNL     1      13.604  -9.169 -23.553  1.00  0.00     0.001 A 
ATOM      3  C   UNL     1      14.534  -9.880 -22.788  1.00  0.00     0.009 A 
ATOM      4  C   UNL     1      14.152 -10.471 -21.569  1.00  0.00    -0.018 A 
ATOM      5  C   UNL     1      12.820 -10.333 -21.135  1.00  0.00     0.009 A 
ATOM      6  C   UNL     1      11.895  -9.621 -21.903  1.00  0.00     0.001 A 
ENDROOT
BRANCH   4   7
ATOM      7  C   UNL     1      15.138 -11.227 -20.755  1.00  0.00    -0.018 A 
ATOM      8  C   UNL     1      16.091 -10.548 -19.972  1.00  0.00     0.009 A 
ATOM      9  C   UNL     1      15.136 -12.635 -20.752  1.00  0.00     0.009 A 
ATOM     10  C   UNL     1      17.018 -11.261 -19.207  1.00  0.00     0.001 A 
ATOM     11  C   UNL     1      16.065 -13.344 -19.986  1.00  0.00     0.001 A 
ATOM     12  C   UNL     1      17.005 -12.659 -19.213  1.00  0.00     0.000 A 
ENDBRANCH   4   7
TORSDOF 1
ENDMDL
MODEL 3
REMARK VINA RESULT:    -6.508      3.358      5.606
REMARK INTER + INTRA:          -7.177
REMARK INTER:                  -6.879
REMARK INTRA:                  -0.298
REMARK UNBOUND:                -0.288
REMARK SMILES c1ccc(-c2ccccc2)cc1
REMARK SMILES IDX 1 1 2 2 3 3 4 4 11 5 12 6 5 7 6 8 10 9 7 10 9 11 8 12
REMARK H PARENT
REMARK Flexibility Score: inf
ROOT
ATOM      1  C   UNL     1      19.363 -17.631 -21.101  1.00  0.00     0.000 A 
ATOM      2  C   UNL     1      18.194 -17.706 -20.342  1.00  0.00     0.001 A 
ATOM      3  C   UNL     1      17.527 -16.537 -19.961  1.00  0.00     0.009 A 
ATOM      4  C   UNL     1      18.027 -15.276 -20.339  1.00  0.00    -0.018 A 
ATOM      5  C   UNL     1      19.206 -15.214 -21.105  1.00  0.00     0.009 A 
ATOM      6  C   UNL     1      19.868 -16.386 -21.483  1.00  0.00     0.001 A 
ENDROOT
BRANCH   4   7
ATOM      7  C   UNL     1      17.322 -14.033 -19.936  1.00  0.00    -0.018 A 
ATOM      8  C   UNL     1      18.001 -13.020 -19.232  1.00  0.00     0.009 A 
ATOM      9  C   UNL     1      15.961 -13.847 -20.249  1.00  0.00     0.009 A 
ATOM     10  C   UNL     1      17.335 -11.851 -18.854  1.00  0.00     0.001 A 
ATOM     11  C   UNL     1      15.299 -12.676 -19.868  1.00  0.00     0.001 A 
ATOM     12  C   UNL     1      15.985 -11.679 -19.171  1.00  0.00     0.000 A 
ENDBRANCH   4   7
TORSDOF 1
ENDMDL
MODEL 4
REMARK VINA RESULT:    -6.508      3.327      6.764
REMARK INTER + INTRA:          -7.177
REMARK INTER:                  -6.878
REMARK INTRA:                  -0.298
REMARK UNBOUND:                -0.288
REMARK SMILES c1ccc(-c2ccccc2)cc1
REMARK SMILES IDX 1 1 2 2 3 3 4 4 11 5 12 6 5 7 6 8 10 9 7 10 9 11 8 12
REMARK H PARENT
REMARK Flexibility Score: inf
ROOT
ATOM      1  C   UNL     1      15.977 -11.643 -19.198  1.00  0.00     0.000 A 
ATOM      2  C   UNL     1      15.306 -12.643 -19.903  1.00  0.00     0.001 A 
ATOM      3  C   UNL     1      15.978 -13.813 -20.274  1.00  0.00     0.009 A 
ATOM      4  C   UNL     1      17.334 -13.992 -19.942  1.00  0.00    -0.018 A 
ATOM      5  C   UNL     1      18.000 -12.976 -19.231  1.00  0.00     0.009 A 
ATOM      6  C   UNL     1      17.323 -11.809 -18.862  1.00  0.00     0.001 A 
ENDROOT
BRANCH   4   7
ATOM      7  C   UNL     1      18.050 -15.232 -20.336  1.00  0.00    -0.018 A 
ATOM      8  C   UNL     1      17.566 -16.495 -19.945  1.00  0.00     0.009 A 
ATOM      9  C   UNL     1      19.227 -15.165 -21.107  1.00  0.00     0.009 A 
ATOM     10  C   UNL     1      18.243 -17.660 -20.317  1.00  0.00     0.001 A 
ATOM     11  C   UNL     1      19.901 -16.333 -21.476  1.00  0.00     0.001 A 
ATOM     12  C   UNL     1      19.409 -17.579 -21.082  1.00  0.00     0.000 A 
ENDBRANCH   4   7
TORSDOF 1
ENDMDL
MODEL 5
REMARK VINA RESULT:    -6.437      3.338      5.612
REMARK INTER + INTRA:          -7.101
REMARK INTER:                  -6.804
REMARK INTRA:                  -0.298
REMARK UNBOUND:                -0.288
REMARK SMILES c1ccc(-c2ccccc2)cc1
REMARK SMILES IDX 1 1 2 2 3 3 4 4 11 5 12 6 5 7 6 8 10 9 7 10 9 11 8 12
REMARK H PARENT
REMARK Flexibility Score: inf
ROOT
ATOM      1  C   UNL     1      19.440 -17.667 -21.115  1.00  0.00     0.000 A 
ATOM      2  C   UNL     1      19.952 -16.424 -21.491  1.00  0.00     0.001 A 
ATOM      3  C   UNL     1      19.285 -15.250 -21.125  1.00  0.00     0.009 A 
ATOM      4  C   UNL     1      18.095 -15.310 -20.375  1.00  0.00    -0.018 A 
ATOM      5  C   UNL     1      17.590 -16.570 -20.002  1.00  0.00     0.009 A 
ATOM      6  C   UNL     1      18.260 -17.740 -20.371  1.00  0.00     0.001 A 
ENDROOT
BRANCH   4   7
ATOM      7  C   UNL     1      17.384 -14.066 -19.986  1.00  0.00    -0.018 A 
ATOM      8  C   UNL     1      16.040 -13.863 -20.352  1.00  0.00     0.009 A 
ATOM      9  C   UNL     1      18.044 -13.066 -19.245  1.00  0.00     0.009 A 
ATOM     10  C   UNL     1      15.374 -12.691 -19.985  1.00  0.00     0.001 A 
ATOM     11  C   UNL     1      17.373 -11.894 -18.881  1.00  0.00     0.001 A 
ATOM     12  C   UNL     1      16.040 -11.707 -19.250  1.00  0.00     0.000 A 
ENDBRANCH   4   7
TORSDOF 1
ENDMDL
MODEL 6
REMARK VINA RESULT:    -6.091      7.570     10.570
REMARK INTER + INTRA:          -6.736
REMARK INTER:                  -6.436
REMARK INTRA:                  -0.300
REMARK UNBOUND:                -0.288
REMARK SMILES c1ccc(-c2ccccc2)cc1
REMARK SMILES IDX 1 1 2 2 3 3 4 4 11 5 12 6 5 7 6 8 10 9 7 10 9 11 8 12
REMARK H PARENT
REMARK Flexibility Score: inf
ROOT
ATOM      1  C   UNL     1      19.277 -15.719 -20.898  1.00  0.00     0.000 A 
ATOM      2  C   UNL     1      20.243 -15.970 -21.874  1.00  0.00     0.001 A 
ATOM      3  C   UNL     1      20.456 -17.275 -22.330  1.00  0.00     0.009 A 
ATOM      4  C   UNL     1      19.702 -18.345 -21.813  1.00  0.00    -0.018 A 
ATOM      5  C   UNL     1      18.731 -18.078 -20.829  1.00  0.00     0.009 A 
ATOM      6  C   UNL     1      18.522 -16.772 -20.376  1.00  0.00     0.001 A 
ENDROOT
BRANCH   4   7
ATOM      7  C   UNL     1      19.927 -19.731 -22.295  1.00  0.00    -0.018 A 
ATOM      8  C   UNL     1      20.165 -20.778 -21.383  1.00  0.00     0.009 A 
ATOM      9  C   UNL     1      19.907 -20.022 -23.673  1.00  0.00     0.009 A 
ATOM     10  C   UNL     1      20.378 -22.081 -21.840  1.00  0.00     0.001 A 
ATOM     11  C   UNL     1      20.121 -21.328 -24.125  1.00  0.00     0.001 A 
ATOM     12  C   UNL     1      20.355 -22.356 -23.210  1.00  0.00     0.000 A 
ENDBRANCH   4   7
TORSDOF 1
ENDMDL
MODEL 7
REMARK VINA RESULT:    -6.080      7.611     10.586
REMARK INTER + INTRA:          -6.724
REMARK INTER:                  -6.423
REMARK INTRA:                  -0.301
REMARK UNBOUND:                -0.288
REMARK SMILES c1ccc(-c2ccccc2)cc1
REMARK SMILES IDX 1 1 2 2 3 3 4 4 11 5 12 6 5 7 6 8 10 9 7 10 9 11 8 12
REMARK H PARENT
REMARK Flexibility Score: inf
ROOT
ATOM      1  C   UNL     1      19.339 -15.740 -20.902  1.00  0.00     0.000 A 
ATOM      2  C   UNL     1      18.582 -16.788 -20.376  1.00  0.00     0.001 A 
ATOM      3  C   UNL     1      18.785 -18.097 -20.827  1.00  0.00     0.009 A 
ATOM      4  C   UNL     1      19.751 -18.369 -21.814  1.00  0.00    -0.018 A 
ATOM      5  C   UNL     1      20.508 -17.303 -22.337  1.00  0.00     0.009 A 
ATOM      6  C   UNL     1      20.301 -15.998 -21.882  1.00  0.00     0.001 A 
ENDROOT
BRANCH   4   7
ATOM      7  C   UNL     1      19.967 -19.757 -22.296  1.00  0.00    -0.018 A 
ATOM      8  C   UNL     1      19.970 -20.045 -23.675  1.00  0.00     0.009 A 
ATOM      9  C   UNL     1      20.173 -20.809 -21.382  1.00  0.00     0.009 A 
ATOM     10  C   UNL     1      20.173 -21.352 -24.125  1.00  0.00     0.001 A 
ATOM     11  C   UNL     1      20.375 -22.115 -21.838  1.00  0.00     0.001 A 
ATOM     12  C   UNL     1      20.376 -22.387 -23.208  1.00  0.00     0.000 A 
ENDBRANCH   4   7
TORSDOF 1
ENDMDL
MODEL 8
REMARK VINA RESULT:    -5.943      7.501     10.033
REMARK INTER + INTRA:          -6.579
REMARK INTER:                  -6.266
REMARK INTRA:                  -0.313
REMARK UNBOUND:                -0.288
REMARK SMILES c1ccc(-c2ccccc2)cc1
REMARK SMILES IDX 1 1 2 2 3 3 4 4 11 5 12 6 5 7 6 8 10 9 7 10 9 11 8 12
REMARK H PARENT
REMARK Flexibility Score: inf
ROOT
ATOM      1  C   UNL     1      20.141 -22.442 -22.942  1.00  0.00     0.000 A 
ATOM      2  C   UNL     1      19.708 -22.148 -21.648  1.00  0.00     0.001 A 
ATOM      3  C   UNL     1      19.535 -20.817 -21.252  1.00  0.00     0.009 A 
ATOM      4  C   UNL     1      19.794 -19.765 -22.150  1.00  0.00    -0.018 A 
ATOM      5  C   UNL     1      20.230 -20.076 -23.452  1.00  0.00     0.009 A 
ATOM      6  C   UNL     1      20.402 -21.407 -23.843  1.00  0.00     0.001 A 
ENDROOT
BRANCH   4   7
ATOM      7  C   UNL     1      19.612 -18.352 -21.732  1.00  0.00    -0.018 A 
ATOM      8  C   UNL     1      20.415 -17.333 -22.280  1.00  0.00     0.009 A 
ATOM      9  C   UNL     1      18.635 -18.008 -20.778  1.00  0.00     0.009 A 
ATOM     10  C   UNL     1      20.241 -16.004 -21.884  1.00  0.00     0.001 A 
ATOM     11  C   UNL     1      18.466 -16.677 -20.385  1.00  0.00     0.001 A 
ATOM     12  C   UNL     1      19.268 -15.676 -20.937  1.00  0.00     0.000 A 
ENDBRANCH   4   7
TORSDOF 1
ENDMDL
MODEL 9
REMARK VINA RESULT:    -5.880      7.228      9.859
REMARK INTER + INTRA:          -6.512
REMARK INTER:                  -6.215
REMARK INTRA:                  -0.296
REMARK UNBOUND:                -0.288
REMARK SMILES c1ccc(-c2ccccc2)cc1
REMARK SMILES IDX 1 1 2 2 3 3 4 4 11 5 12 6 5 7 6 8 10 9 7 10 9 11 8 12
REMARK H PARENT
REMARK Flexibility Score: inf
ROOT
ATOM      1  C   UNL     1      20.399 -22.090 -22.721  1.00  0.00     0.000 A 
ATOM      2  C   UNL     1      20.096 -21.128 -23.686  1.00  0.00     0.001 A 
ATOM      3  C   UNL     1      19.837 -19.807 -23.303  1.00  0.00     0.009 A 
ATOM      4  C   UNL     1      19.881 -19.436 -21.945  1.00  0.00    -0.018 A 
ATOM      5  C   UNL     1      20.189 -20.417 -20.983  1.00  0.00     0.009 A 
ATOM      6  C   UNL     1      20.446 -21.735 -21.371  1.00  0.00     0.001 A 
ENDROOT
BRANCH   4   7
ATOM      7  C   UNL     1      19.607 -18.036 -21.536  1.00  0.00    -0.018 A 
ATOM      8  C   UNL     1      18.552 -17.741 -20.650  1.00  0.00     0.009 A 
ATOM      9  C   UNL     1      20.396 -16.978 -22.027  1.00  0.00     0.009 A 
ATOM     10  C   UNL     1      18.296 -16.422 -20.267  1.00  0.00     0.001 A 
ATOM     11  C   UNL     1      20.135 -15.660 -21.641  1.00  0.00     0.001 A 
ATOM     12  C   UNL     1      19.087 -15.382 -20.762  1.00  0.00     0.000 A 
ENDBRANCH   4   7
TORSDOF 1
ENDMDL
