MODEL 1
REMARK VINA RESULT:    -4.844      0.000      0.000
REMARK INTER + INTRA:          -8.414
REMARK INTER:                  -7.392
REMARK INTRA:                  -1.022
REMARK UNBOUND:                -1.022
REMARK SMILES CC(=O)CCC=C(C)CCC=C(C)CCC=C(C)C
REMARK SMILES IDX 10 1 11 2 12 3 13 4 14 5 15 6 16 7 18 8 17 9 19 10 9 11 7 12
REMARK SMILES IDX 6 13 8 14 5 15 4 16 2 17 3 18 1 19
REMARK H PARENT
REMARK Flexibility Score: inf
ROOT
ATOM      1  C   UNL     1      27.650  35.897  21.318  1.00  0.00     0.032 C 
ENDROOT
BRANCH   1   2
ATOM      2  C   UNL     1      27.593  36.811  20.117  1.00  0.00    -0.028 C 
ATOM      3  C   UNL     1      26.627  37.727  19.886  1.00  0.00    -0.077 C 
ATOM      4  C   UNL     1      25.453  37.910  20.814  1.00  0.00     0.039 C 
BRANCH   3   5
ATOM      5  C   UNL     1      26.704  38.567  18.628  1.00  0.00     0.034 C 
BRANCH   5   6
ATOM      6  C   UNL     1      27.649  39.762  18.804  1.00  0.00     0.032 C 
BRANCH   6   7
ATOM      7  C   UNL     1      26.932  40.930  19.438  1.00  0.00    -0.028 C 
ATOM      8  C   UNL     1      28.092  40.689  21.651  1.00  0.00     0.039 C 
ATOM      9  C   UNL     1      27.135  41.370  20.702  1.00  0.00    -0.080 C 
ATOM     10  C   UNL     1      26.386  42.592  21.162  1.00  0.00     0.039 C 
ENDBRANCH   6   7
ENDBRANCH   5   6
ENDBRANCH   3   5
ENDBRANCH   1   2
BRANCH   1  11
ATOM     11  C   UNL     1      28.583  34.697  21.095  1.00  0.00     0.034 C 
BRANCH  11  12
ATOM     12  C   UNL     1      28.577  33.742  22.270  1.00  0.00    -0.077 C 
ATOM     13  C   UNL     1      29.091  32.502  22.121  1.00  0.00    -0.028 C 
ATOM     14  C   UNL     1      28.001  34.201  23.588  1.00  0.00     0.039 C 
BRANCH  13  15
ATOM     15  C   UNL     1      29.125  31.489  23.240  1.00  0.00     0.035 C 
BRANCH  15  16
ATOM     16  C   UNL     1      28.965  30.052  22.731  1.00  0.00     0.079 C 
BRANCH  16  17
ATOM     17  C   UNL     1      28.313  29.134  23.737  1.00  0.00     0.130 C 
ATOM     18  O   UNL     1      28.892  28.874  24.785  1.00  0.00    -0.300 OA
ATOM     19  C   UNL     1      26.932  28.595  23.510  1.00  0.00     0.087 C 
ENDBRANCH  16  17
ENDBRANCH  15  16
ENDBRANCH  13  15
ENDBRANCH  11  12
ENDBRANCH   1  11
TORSDOF 9
ENDMDL
MODEL 2
REMARK VINA RESULT:    -4.460      3.504      9.524
REMARK INTER + INTRA:          -7.829
REMARK INTER:                  -7.102
REMARK INTRA:                  -0.727
REMARK UNBOUND:                -1.022
REMARK SMILES CC(=O)CCC=C(C)CCC=C(C)CCC=C(C)C
REMARK SMILES IDX 10 1 11 2 12 3 13 4 14 5 15 6 16 7 18 8 17 9 19 10 9 11 7 12
REMARK SMILES IDX 6 13 8 14 5 15 4 16 2 17 3 18 1 19
REMARK H PARENT
REMARK Flexibility Score: inf
ROOT
ATOM      1  C   UNL     1      27.644  36.120  20.472  1.00  0.00     0.032 C 
ENDROOT
BRANCH   1   2
ATOM      2  C   UNL     1      27.755  35.513  21.851  1.00  0.00    -0.028 C 
ATOM      3  C   UNL     1      28.337  34.326  22.130  1.00  0.00    -0.077 C 
ATOM      4  C   UNL     1      28.920  33.444  21.055  1.00  0.00     0.039 C 
BRANCH   3   5
ATOM      5  C   UNL     1      28.363  33.845  23.566  1.00  0.00     0.034 C 
BRANCH   5   6
ATOM      6  C   UNL     1      28.970  32.442  23.680  1.00  0.00     0.032 C 
BRANCH   6   7
ATOM      7  C   UNL     1      27.988  31.475  24.297  1.00  0.00    -0.028 C 
ATOM      8  C   UNL     1      28.646  29.560  22.815  1.00  0.00     0.039 C 
ATOM      9  C   UNL     1      27.846  30.179  23.937  1.00  0.00    -0.080 C 
ATOM     10  C   UNL     1      26.864  29.329  24.697  1.00  0.00     0.039 C 
ENDBRANCH   6   7
ENDBRANCH   5   6
ENDBRANCH   3   5
ENDBRANCH   1   2
BRANCH   1  11
ATOM     11  C   UNL     1      28.993  36.643  19.954  1.00  0.00     0.034 C 
BRANCH  11  12
ATOM     12  C   UNL     1      28.882  38.039  19.377  1.00  0.00    -0.077 C 
ATOM     13  C   UNL     1      28.574  39.071  20.191  1.00  0.00    -0.028 C 
ATOM     14  C   UNL     1      29.125  38.246  17.901  1.00  0.00     0.039 C 
BRANCH  13  15
ATOM     15  C   UNL     1      28.443  40.492  19.698  1.00  0.00     0.035 C 
BRANCH  15  16
ATOM     16  C   UNL     1      26.983  40.904  19.485  1.00  0.00     0.079 C 
BRANCH  16  17
ATOM     17  C   UNL     1      26.606  42.167  20.222  1.00  0.00     0.130 C 
ATOM     18  O   UNL     1      25.822  42.110  21.161  1.00  0.00    -0.300 OA
ATOM     19  C   UNL     1      27.238  43.483  19.873  1.00  0.00     0.087 C 
ENDBRANCH  16  17
ENDBRANCH  15  16
ENDBRANCH  13  15
ENDBRANCH  11  12
ENDBRANCH   1  11
TORSDOF 9
ENDMDL
MODEL 3
REMARK VINA RESULT:    -4.385      4.591      6.085
REMARK INTER + INTRA:          -7.713
REMARK INTER:                  -6.080
REMARK INTRA:                  -1.633
REMARK UNBOUND:                -1.022
REMARK SMILES CC(=O)CCC=C(C)CCC=C(C)CCC=C(C)C
REMARK SMILES IDX 10 1 11 2 12 3 13 4 14 5 15 6 16 7 18 8 17 9 19 10 9 11 7 12
REMARK SMILES IDX 6 13 8 14 5 15 4 16 2 17 3 18 1 19
REMARK H PARENT
REMARK Flexibility Score: inf
ROOT
ATOM      1  C   UNL     1      27.189  40.128  18.803  1.00  0.00     0.032 C 
ENDROOT
BRANCH   1   2
ATOM      2  C   UNL     1      27.265  41.572  19.240  1.00  0.00    -0.028 C 
ATOM      3  C   UNL     1      26.692  42.075  20.355  1.00  0.00    -0.077 C 
ATOM      4  C   UNL     1      25.863  41.227  21.286  1.00  0.00     0.039 C 
BRANCH   3   5
ATOM      5  C   UNL     1      26.850  43.551  20.655  1.00  0.00     0.034 C 
BRANCH   5   6
ATOM      6  C   UNL     1      28.173  43.841  21.375  1.00  0.00     0.032 C 
BRANCH   6   7
ATOM      7  C   UNL     1      27.968  43.930  22.869  1.00  0.00    -0.028 C 
ATOM      8  C   UNL     1      28.861  41.629  23.323  1.00  0.00     0.039 C 
ATOM      9  C   UNL     1      28.291  42.959  23.754  1.00  0.00    -0.080 C 
ATOM     10  C   UNL     1      28.083  43.231  25.220  1.00  0.00     0.039 C 
ENDBRANCH   6   7
ENDBRANCH   5   6
ENDBRANCH   3   5
ENDBRANCH   1   2
BRANCH   1  11
ATOM     11  C   UNL     1      28.430  39.325  19.223  1.00  0.00     0.034 C 
BRANCH  11  12
ATOM     12  C   UNL     1      28.066  37.990  19.837  1.00  0.00    -0.077 C 
ATOM     13  C   UNL     1      27.027  37.916  20.697  1.00  0.00    -0.028 C 
ATOM     14  C   UNL     1      28.871  36.767  19.469  1.00  0.00     0.039 C 
BRANCH  13  15
ATOM     15  C   UNL     1      26.597  36.626  21.354  1.00  0.00     0.035 C 
BRANCH  15  16
ATOM     16  C   UNL     1      25.211  36.732  21.997  1.00  0.00     0.079 C 
BRANCH  16  17
ATOM     17  C   UNL     1      24.139  37.179  21.031  1.00  0.00     0.130 C 
ATOM     18  O   UNL     1      23.973  36.565  19.984  1.00  0.00    -0.300 OA
ATOM     19  C   UNL     1      23.220  38.316  21.368  1.00  0.00     0.087 C 
ENDBRANCH  16  17
ENDBRANCH  15  16
ENDBRANCH  13  15
ENDBRANCH  11  12
ENDBRANCH   1  11
TORSDOF 9
ENDMDL
MODEL 4
REMARK VINA RESULT:    -4.342      3.498      9.508
REMARK INTER + INTRA:          -7.649
REMARK INTER:                  -6.831
REMARK INTRA:                  -0.818
REMARK UNBOUND:                -1.022
REMARK SMILES CC(=O)CCC=C(C)CCC=C(C)CCC=C(C)C
REMARK SMILES IDX 10 1 11 2 12 3 13 4 14 5 15 6 16 7 18 8 17 9 19 10 9 11 7 12
REMARK SMILES IDX 6 13 8 14 5 15 4 16 2 17 3 18 1 19
REMARK H PARENT
REMARK Flexibility Score: inf
ROOT
ATOM      1  C   UNL     1      26.328  36.983  21.430  1.00  0.00     0.032 C 
ENDROOT
BRANCH   1   2
ATOM      2  C   UNL     1      27.345  35.885  21.232  1.00  0.00    -0.028 C 
ATOM      3  C   UNL     1      27.750  35.021  22.189  1.00  0.00    -0.077 C 
ATOM      4  C   UNL     1      27.235  35.091  23.605  1.00  0.00     0.039 C 
BRANCH   3   5
ATOM      5  C   UNL     1      28.788  33.976  21.838  1.00  0.00     0.034 C 
BRANCH   5   6
ATOM      6  C   UNL     1      29.025  33.004  22.999  1.00  0.00     0.032 C 
BRANCH   6   7
ATOM      7  C   UNL     1      29.120  31.580  22.504  1.00  0.00    -0.028 C 
ATOM      8  C   UNL     1      28.284  30.574  24.645  1.00  0.00     0.039 C 
ATOM      9  C   UNL     1      28.773  30.486  23.219  1.00  0.00    -0.080 C 
ATOM     10  C   UNL     1      28.867  29.138  22.554  1.00  0.00     0.039 C 
ENDBRANCH   6   7
ENDBRANCH   5   6
ENDBRANCH   3   5
ENDBRANCH   1   2
BRANCH   1  11
ATOM     11  C   UNL     1      25.867  37.600  20.100  1.00  0.00     0.034 C 
BRANCH  11  12
ATOM     12  C   UNL     1      26.811  38.681  19.615  1.00  0.00    -0.077 C 
ATOM     13  C   UNL     1      26.836  39.873  20.247  1.00  0.00    -0.028 C 
ATOM     14  C   UNL     1      27.710  38.396  18.435  1.00  0.00     0.039 C 
BRANCH  13  15
ATOM     15  C   UNL     1      27.746  41.004  19.828  1.00  0.00     0.035 C 
BRANCH  15  16
ATOM     16  C   UNL     1      28.116  41.919  20.999  1.00  0.00     0.079 C 
BRANCH  16  17
ATOM     17  C   UNL     1      27.001  42.858  21.396  1.00  0.00     0.130 C 
ATOM     18  O   UNL     1      26.747  43.030  22.582  1.00  0.00    -0.300 OA
ATOM     19  C   UNL     1      26.249  43.645  20.364  1.00  0.00     0.087 C 
ENDBRANCH  16  17
ENDBRANCH  15  16
ENDBRANCH  13  15
ENDBRANCH  11  12
ENDBRANCH   1  11
TORSDOF 9
ENDMDL
MODEL 5
REMARK VINA RESULT:    -4.189      2.390      4.740
REMARK INTER + INTRA:          -7.415
REMARK INTER:                  -6.257
REMARK INTRA:                  -1.158
REMARK UNBOUND:                -1.022
REMARK SMILES CC(=O)CCC=C(C)CCC=C(C)CCC=C(C)C
REMARK SMILES IDX 10 1 11 2 12 3 13 4 14 5 15 6 16 7 18 8 17 9 19 10 9 11 7 12
REMARK SMILES IDX 6 13 8 14 5 15 4 16 2 17 3 18 1 19
REMARK H PARENT
REMARK Flexibility Score: inf
ROOT
ATOM      1  C   UNL     1      26.420  39.464  20.810  1.00  0.00     0.032 C 
ENDROOT
BRANCH   1   2
ATOM      2  C   UNL     1      26.494  40.929  20.449  1.00  0.00    -0.028 C 
ATOM      3  C   UNL     1      27.637  41.638  20.321  1.00  0.00    -0.077 C 
ATOM      4  C   UNL     1      28.994  41.028  20.567  1.00  0.00     0.039 C 
BRANCH   3   5
ATOM      5  C   UNL     1      27.549  43.107  19.961  1.00  0.00     0.034 C 
BRANCH   5   6
ATOM      6  C   UNL     1      28.163  43.992  21.052  1.00  0.00     0.032 C 
BRANCH   6   7
ATOM      7  C   UNL     1      27.279  44.035  22.276  1.00  0.00    -0.028 C 
ATOM      8  C   UNL     1      28.963  42.923  23.768  1.00  0.00     0.039 C 
ATOM      9  C   UNL     1      27.630  43.581  23.501  1.00  0.00    -0.080 C 
ATOM     10  C   UNL     1      26.655  43.757  24.634  1.00  0.00     0.039 C 
ENDBRANCH   6   7
ENDBRANCH   5   6
ENDBRANCH   3   5
ENDBRANCH   1   2
BRANCH   1  11
ATOM     11  C   UNL     1      26.387  38.559  19.569  1.00  0.00     0.034 C 
BRANCH  11  12
ATOM     12  C   UNL     1      27.661  37.753  19.416  1.00  0.00    -0.077 C 
ATOM     13  C   UNL     1      27.836  36.641  20.161  1.00  0.00    -0.028 C 
ATOM     14  C   UNL     1      28.706  38.210  18.426  1.00  0.00     0.039 C 
BRANCH  13  15
ATOM     15  C   UNL     1      29.075  35.781  20.071  1.00  0.00     0.035 C 
BRANCH  15  16
ATOM     16  C   UNL     1      28.766  34.292  20.258  1.00  0.00     0.079 C 
BRANCH  16  17
ATOM     17  C   UNL     1      28.571  33.901  21.704  1.00  0.00     0.130 C 
ATOM     18  O   UNL     1      27.896  34.613  22.438  1.00  0.00    -0.300 OA
ATOM     19  C   UNL     1      29.125  32.614  22.238  1.00  0.00     0.087 C 
ENDBRANCH  16  17
ENDBRANCH  15  16
ENDBRANCH  13  15
ENDBRANCH  11  12
ENDBRANCH   1  11
TORSDOF 9
ENDMDL
MODEL 6
REMARK VINA RESULT:    -4.054      1.614      2.619
REMARK INTER + INTRA:          -7.209
REMARK INTER:                  -6.210
REMARK INTRA:                  -0.999
REMARK UNBOUND:                -1.022
REMARK SMILES CC(=O)CCC=C(C)CCC=C(C)CCC=C(C)C
REMARK SMILES IDX 10 1 11 2 12 3 13 4 14 5 15 6 16 7 18 8 17 9 19 10 9 11 7 12
REMARK SMILES IDX 6 13 8 14 5 15 4 16 2 17 3 18 1 19
REMARK H PARENT
REMARK Flexibility Score: inf
ROOT
ATOM      1  C   UNL     1      25.781  37.170  20.799  1.00  0.00     0.032 C 
ENDROOT
BRANCH   1   2
ATOM      2  C   UNL     1      26.021  38.661  20.798  1.00  0.00    -0.028 C 
ATOM      3  C   UNL     1      26.527  39.363  19.760  1.00  0.00    -0.077 C 
ATOM      4  C   UNL     1      26.948  38.703  18.472  1.00  0.00     0.039 C 
BRANCH   3   5
ATOM      5  C   UNL     1      26.718  40.857  19.914  1.00  0.00     0.034 C 
BRANCH   5   6
ATOM      6  C   UNL     1      28.197  41.222  20.090  1.00  0.00     0.032 C 
BRANCH   6   7
ATOM      7  C   UNL     1      28.348  42.541  20.809  1.00  0.00    -0.028 C 
ATOM      8  C   UNL     1      28.675  41.494  23.066  1.00  0.00     0.039 C 
ATOM      9  C   UNL     1      28.583  42.679  22.134  1.00  0.00    -0.080 C 
ATOM     10  C   UNL     1      28.773  44.067  22.686  1.00  0.00     0.039 C 
ENDBRANCH   6   7
ENDBRANCH   5   6
ENDBRANCH   3   5
ENDBRANCH   1   2
BRANCH   1  11
ATOM     11  C   UNL     1      26.307  36.495  22.075  1.00  0.00     0.034 C 
BRANCH  11  12
ATOM     12  C   UNL     1      27.511  35.616  21.802  1.00  0.00    -0.077 C 
ATOM     13  C   UNL     1      27.915  34.733  22.740  1.00  0.00    -0.028 C 
ATOM     14  C   UNL     1      28.228  35.743  20.480  1.00  0.00     0.039 C 
BRANCH  13  15
ATOM     15  C   UNL     1      29.103  33.821  22.549  1.00  0.00     0.035 C 
BRANCH  15  16
ATOM     16  C   UNL     1      28.725  32.340  22.660  1.00  0.00     0.079 C 
BRANCH  16  17
ATOM     17  C   UNL     1      28.565  31.872  24.087  1.00  0.00     0.130 C 
ATOM     18  O   UNL     1      29.110  32.491  24.993  1.00  0.00    -0.300 OA
ATOM     19  C   UNL     1      27.683  30.706  24.424  1.00  0.00     0.087 C 
ENDBRANCH  16  17
ENDBRANCH  15  16
ENDBRANCH  13  15
ENDBRANCH  11  12
ENDBRANCH   1  11
TORSDOF 9
ENDMDL
MODEL 7
REMARK VINA RESULT:    -3.177      2.203      3.515
REMARK INTER + INTRA:          -5.870
REMARK INTER:                  -4.994
REMARK INTRA:                  -0.877
REMARK UNBOUND:                -1.022
REMARK SMILES CC(=O)CCC=C(C)CCC=C(C)CCC=C(C)C
REMARK SMILES IDX 10 1 11 2 12 3 13 4 14 5 15 6 16 7 18 8 17 9 19 10 9 11 7 12
REMARK SMILES IDX 6 13 8 14 5 15 4 16 2 17 3 18 1 19
REMARK H PARENT
REMARK Flexibility Score: inf
ROOT
ATOM      1  C   UNL     1      25.291  38.505  20.836  1.00  0.00     0.032 C 
ENDROOT
BRANCH   1   2
ATOM      2  C   UNL     1      26.058  39.384  19.877  1.00  0.00    -0.028 C 
ATOM      3  C   UNL     1      27.326  39.812  20.063  1.00  0.00    -0.077 C 
ATOM      4  C   UNL     1      28.116  39.472  21.301  1.00  0.00     0.039 C 
BRANCH   3   5
ATOM      5  C   UNL     1      27.959  40.698  19.011  1.00  0.00     0.034 C 
BRANCH   5   6
ATOM      6  C   UNL     1      28.932  41.706  19.634  1.00  0.00     0.032 C 
BRANCH   6   7
ATOM      7  C   UNL     1      28.304  42.405  20.816  1.00  0.00    -0.028 C 
ATOM      8  C   UNL     1      26.884  43.923  19.410  1.00  0.00     0.039 C 
ATOM      9  C   UNL     1      27.372  43.383  20.733  1.00  0.00    -0.080 C 
ATOM     10  C   UNL     1      26.796  43.932  22.011  1.00  0.00     0.039 C 
ENDBRANCH   6   7
ENDBRANCH   5   6
ENDBRANCH   3   5
ENDBRANCH   1   2
BRANCH   1  11
ATOM     11  C   UNL     1      25.408  37.014  20.482  1.00  0.00     0.034 C 
BRANCH  11  12
ATOM     12  C   UNL     1      26.587  36.355  21.167  1.00  0.00    -0.077 C 
ATOM     13  C   UNL     1      27.678  36.029  20.442  1.00  0.00    -0.028 C 
ATOM     14  C   UNL     1      26.517  36.082  22.650  1.00  0.00     0.039 C 
BRANCH  13  15
ATOM     15  C   UNL     1      28.896  35.370  21.045  1.00  0.00     0.035 C 
BRANCH  15  16
ATOM     16  C   UNL     1      28.867  33.845  20.898  1.00  0.00     0.079 C 
BRANCH  16  17
ATOM     17  C   UNL     1      29.013  33.118  22.214  1.00  0.00     0.130 C 
ATOM     18  O   UNL     1      29.105  31.896  22.225  1.00  0.00    -0.300 OA
ATOM     19  C   UNL     1      29.125  33.872  23.506  1.00  0.00     0.087 C 
ENDBRANCH  16  17
ENDBRANCH  15  16
ENDBRANCH  13  15
ENDBRANCH  11  12
ENDBRANCH   1  11
TORSDOF 9
ENDMDL
