MODEL 1
REMARK VINA RESULT:    -4.129      0.000      0.000
REMARK INTER + INTRA:         -12.063
REMARK INTER:                  -7.870
REMARK INTRA:                  -4.193
REMARK UNBOUND:                -4.193
REMARK SMILES C[C@H]1O[C@@H](O[C@@H]2[C@@H](O)[C@H](OCCc3ccc(O)c(O)c3)O[C@@H](CO)[C@@H]2OC(=O)C=Cc2ccc(O)c(O)c2)[C@H](O)[C@@H](O)[C@@H]1O
REMARK SMILES IDX 6 1 7 2 9 3 21 4 22 5 25 6 5 7 4 8 1 9 2 10 43 11 3 12 41 13
REMARK SMILES IDX 39 14 44 15 42 17 40 19 8 21 26 23 27 24 28 25 29 26 30 27
REMARK SMILES IDX 31 28 38 29 32 30 36 31 33 32 34 33 37 34 35 36 10 38 11 39
REMARK SMILES IDX 12 40 13 41 20 42 14 43 18 44 15 45 16 46 19 47 17 49 23 51
REMARK SMILES IDX 24 52
REMARK H PARENT 44 16 42 18 40 20 8 22 37 35 35 37 19 48 17 50 24 53
REMARK Flexibility Score: inf
ROOT
ATOM      1  C   UNL     1     -99.069  26.893 -32.215  1.00  0.00     0.199 C 
ATOM      2  C   UNL     1     -99.986  27.389 -31.072  1.00  0.00     0.203 C 
ATOM      3  C   UNL     1     -99.556  26.800 -29.705  1.00  0.00     0.282 C 
ATOM      4  O   UNL     1     -99.455  25.384 -29.757  1.00  0.00    -0.340 OA
ATOM      5  C   UNL     1     -98.492  24.951 -30.708  1.00  0.00     0.190 C 
ATOM      6  C   UNL     1     -98.929  25.359 -32.135  1.00  0.00     0.240 C 
ENDROOT
BRANCH   1   7
ATOM      7  O   UNL     1     -97.780  27.483 -32.102  1.00  0.00    -0.340 OA
BRANCH   7   8
ATOM      8  C   UNL     1     -97.608  28.607 -32.957  1.00  0.00     0.282 C 
ATOM      9  C   UNL     1     -95.031  26.836 -32.833  1.00  0.00     0.041 C 
ATOM     10  C   UNL     1     -95.297  28.216 -33.451  1.00  0.00     0.150 C 
ATOM     11  C   UNL     1     -94.837  29.395 -32.561  1.00  0.00     0.174 C 
ATOM     12  O   UNL     1     -96.626  28.345 -33.949  1.00  0.00    -0.344 OA
ATOM     13  C   UNL     1     -95.884  29.760 -31.496  1.00  0.00     0.179 C 
ATOM     14  C   UNL     1     -97.282  29.863 -32.129  1.00  0.00     0.202 C 
BRANCH  11  15
ATOM     15  O   UNL     1     -94.580  30.510 -33.380  1.00  0.00    -0.388 OA
ATOM     16  H   UNL     1     -93.593  30.625 -33.413  1.00  0.00     0.211 HD
ENDBRANCH  11  15
BRANCH  13  17
ATOM     17  O   UNL     1     -95.879  28.802 -30.469  1.00  0.00    -0.387 OA
ATOM     18  H   UNL     1     -94.947  28.746 -30.131  1.00  0.00     0.211 HD
ENDBRANCH  13  17
BRANCH  14  19
ATOM     19  O   UNL     1     -97.357  30.995 -32.962  1.00  0.00    -0.385 OA
ATOM     20  H   UNL     1     -97.082  31.774 -32.412  1.00  0.00     0.211 HD
ENDBRANCH  14  19
ENDBRANCH   7   8
ENDBRANCH   1   7
BRANCH   2  21
ATOM     21  O   UNL     1    -101.335  27.103 -31.353  1.00  0.00    -0.385 OA
ATOM     22  H   UNL     1    -101.577  27.545 -32.210  1.00  0.00     0.211 HD
ENDBRANCH   2  21
BRANCH   6  23
ATOM     23  O   UNL     1     -97.980  24.893 -33.096  1.00  0.00    -0.453 OA
BRANCH  23  24
ATOM     24  C   UNL     1     -98.338  24.406 -34.360  1.00  0.00     0.331 C 
ATOM     25  O   UNL     1     -98.935  23.304 -34.475  1.00  0.00    -0.247 OA
BRANCH  24  26
ATOM     26  C   UNL     1     -98.026  25.181 -35.572  1.00  0.00     0.094 C 
ATOM     27  C   UNL     1     -96.767  25.404 -35.965  1.00  0.00     0.016 C 
BRANCH  27  28
ATOM     28  C   UNL     1     -96.415  26.276 -37.111  1.00  0.00    -0.021 A 
ATOM     29  C   UNL     1     -97.341  27.164 -37.694  1.00  0.00     0.058 A 
ATOM     30  C   UNL     1     -95.116  26.203 -37.638  1.00  0.00     0.012 A 
ATOM     31  C   UNL     1     -96.959  27.983 -38.768  1.00  0.00     0.157 A 
ATOM     32  C   UNL     1     -94.734  27.022 -38.704  1.00  0.00     0.051 A 
ATOM     33  C   UNL     1     -95.648  27.915 -39.270  1.00  0.00     0.157 A 
BRANCH  31  34
ATOM     34  O   UNL     1     -97.878  28.863 -39.340  1.00  0.00    -0.504 OA
ATOM     35  H   UNL     1     -97.631  29.821 -39.559  1.00  0.00     0.293 HD
ENDBRANCH  31  34
BRANCH  33  36
ATOM     36  O   UNL     1     -95.233  28.726 -40.325  1.00  0.00    -0.504 OA
ATOM     37  H   UNL     1     -95.863  29.005 -41.068  1.00  0.00     0.293 HD
ENDBRANCH  33  36
ENDBRANCH  27  28
ENDBRANCH  24  26
ENDBRANCH  23  24
ENDBRANCH   6  23
BRANCH   3  38
ATOM     38  O   UNL     1     -98.317  27.372 -29.303  1.00  0.00    -0.350 OA
BRANCH  38  39
ATOM     39  C   UNL     1     -98.214  27.492 -27.897  1.00  0.00     0.168 C 
BRANCH  39  40
ATOM     40  C   UNL     1     -96.764  27.330 -27.431  1.00  0.00     0.064 C 
BRANCH  40  41
ATOM     41  C   UNL     1     -96.218  25.992 -27.854  1.00  0.00    -0.042 A 
ATOM     42  C   UNL     1     -96.823  24.809 -27.399  1.00  0.00     0.054 A 
ATOM     43  C   UNL     1     -95.071  25.913 -28.658  1.00  0.00     0.008 A 
ATOM     44  C   UNL     1     -96.298  23.559 -27.759  1.00  0.00     0.157 A 
ATOM     45  C   UNL     1     -94.550  24.669 -29.022  1.00  0.00     0.050 A 
ATOM     46  C   UNL     1     -95.158  23.490 -28.578  1.00  0.00     0.157 A 
BRANCH  44  47
ATOM     47  O   UNL     1     -96.903  22.390 -27.302  1.00  0.00    -0.504 OA
ATOM     48  H   UNL     1     -96.372  21.661 -26.839  1.00  0.00     0.293 HD
ENDBRANCH  44  47
BRANCH  46  49
ATOM     49  O   UNL     1     -94.613  22.263 -28.955  1.00  0.00    -0.504 OA
ATOM     50  H   UNL     1     -95.185  21.434 -29.076  1.00  0.00     0.293 HD
ENDBRANCH  46  49
ENDBRANCH  40  41
ENDBRANCH  39  40
ENDBRANCH  38  39
ENDBRANCH   3  38
BRANCH   5  51
ATOM     51  C   UNL     1     -98.358  23.426 -30.581  1.00  0.00     0.192 C 
BRANCH  51  52
ATOM     52  O   UNL     1     -99.196  22.775 -31.500  1.00  0.00    -0.394 OA
ATOM     53  H   UNL     1     -99.347  23.399 -32.257  1.00  0.00     0.210 HD
ENDBRANCH  51  52
ENDBRANCH   5  51
TORSDOF 20
ENDMDL
MODEL 2
REMARK VINA RESULT:    -4.101      2.323      5.300
REMARK INTER + INTRA:         -12.010
REMARK INTER:                  -9.128
REMARK INTRA:                  -2.882
REMARK UNBOUND:                -4.193
REMARK SMILES C[C@H]1O[C@@H](O[C@@H]2[C@@H](O)[C@H](OCCc3ccc(O)c(O)c3)O[C@@H](CO)[C@@H]2OC(=O)C=Cc2ccc(O)c(O)c2)[C@H](O)[C@@H](O)[C@@H]1O
REMARK SMILES IDX 6 1 7 2 9 3 21 4 22 5 25 6 5 7 4 8 1 9 2 10 43 11 3 12 41 13
REMARK SMILES IDX 39 14 44 15 42 17 40 19 8 21 26 23 27 24 28 25 29 26 30 27
REMARK SMILES IDX 31 28 38 29 32 30 36 31 33 32 34 33 37 34 35 36 10 38 11 39
REMARK SMILES IDX 12 40 13 41 20 42 14 43 18 44 15 45 16 46 19 47 17 49 23 51
REMARK SMILES IDX 24 52
REMARK H PARENT 44 16 42 18 40 20 8 22 37 35 35 37 19 48 17 50 24 53
REMARK Flexibility Score: inf
ROOT
ATOM      1  C   UNL     1     -96.224  23.688 -30.282  1.00  0.00     0.199 C 
ATOM      2  C   UNL     1     -95.498  23.443 -28.937  1.00  0.00     0.203 C 
ATOM      3  C   UNL     1     -94.902  24.755 -28.369  1.00  0.00     0.282 C 
ATOM      4  O   UNL     1     -94.083  25.413 -29.326  1.00  0.00    -0.340 OA
ATOM      5  C   UNL     1     -94.808  25.769 -30.495  1.00  0.00     0.190 C 
ATOM      6  C   UNL     1     -95.307  24.498 -31.222  1.00  0.00     0.240 C 
ENDROOT
BRANCH   1   7
ATOM      7  O   UNL     1     -97.425  24.417 -30.066  1.00  0.00    -0.340 OA
BRANCH   7   8
ATOM      8  C   UNL     1     -98.534  23.578 -29.758  1.00  0.00     0.282 C 
ATOM      9  C   UNL     1     -99.304  25.821 -31.801  1.00  0.00     0.041 C 
ATOM     10  C   UNL     1    -100.154  24.799 -31.030  1.00  0.00     0.150 C 
ATOM     11  C   UNL     1    -100.818  25.377 -29.757  1.00  0.00     0.174 C 
ATOM     12  O   UNL     1     -99.472  23.565 -30.824  1.00  0.00    -0.344 OA
ATOM     13  C   UNL     1     -99.864  25.370 -28.552  1.00  0.00     0.179 C 
ATOM     14  C   UNL     1     -99.170  24.004 -28.423  1.00  0.00     0.202 C 
BRANCH  11  15
ATOM     15  O   UNL     1    -101.967  24.621 -29.462  1.00  0.00    -0.388 OA
ATOM     16  H   UNL     1    -101.902  23.777 -29.983  1.00  0.00     0.211 HD
ENDBRANCH  11  15
BRANCH  13  17
ATOM     17  O   UNL     1     -98.912  26.394 -28.687  1.00  0.00    -0.387 OA
ATOM     18  H   UNL     1     -98.878  26.873 -27.819  1.00  0.00     0.211 HD
ENDBRANCH  13  17
BRANCH  14  19
ATOM     19  O   UNL     1    -100.097  23.023 -28.023  1.00  0.00    -0.385 OA
ATOM     20  H   UNL     1    -100.772  22.956 -28.748  1.00  0.00     0.211 HD
ENDBRANCH  14  19
ENDBRANCH   7   8
ENDBRANCH   1   7
BRANCH   2  21
ATOM     21  O   UNL     1     -94.512  22.448 -29.075  1.00  0.00    -0.385 OA
ATOM     22  H   UNL     1     -93.800  22.617 -28.404  1.00  0.00     0.211 HD
ENDBRANCH   2  21
BRANCH   6  23
ATOM     23  O   UNL     1     -96.005  24.852 -32.417  1.00  0.00    -0.453 OA
BRANCH  23  24
ATOM     24  C   UNL     1     -95.731  24.284 -33.668  1.00  0.00     0.331 C 
ATOM     25  O   UNL     1     -95.722  23.033 -33.814  1.00  0.00    -0.247 OA
BRANCH  24  26
ATOM     26  C   UNL     1     -95.458  25.141 -34.832  1.00  0.00     0.094 C 
ATOM     27  C   UNL     1     -96.432  25.555 -35.651  1.00  0.00     0.016 C 
BRANCH  27  28
ATOM     28  C   UNL     1     -96.178  26.320 -36.895  1.00  0.00    -0.021 A 
ATOM     29  C   UNL     1     -97.172  27.107 -37.510  1.00  0.00     0.058 A 
ATOM     30  C   UNL     1     -94.906  26.246 -37.484  1.00  0.00     0.012 A 
ATOM     31  C   UNL     1     -96.883  27.829 -38.680  1.00  0.00     0.157 A 
ATOM     32  C   UNL     1     -94.616  26.968 -38.645  1.00  0.00     0.051 A 
ATOM     33  C   UNL     1     -95.597  27.762 -39.244  1.00  0.00     0.157 A 
BRANCH  31  34
ATOM     34  O   UNL     1     -97.869  28.608 -39.284  1.00  0.00    -0.504 OA
ATOM     35  H   UNL     1     -98.458  29.231 -38.743  1.00  0.00     0.293 HD
ENDBRANCH  31  34
BRANCH  33  36
ATOM     36  O   UNL     1     -95.275  28.478 -40.396  1.00  0.00    -0.504 OA
ATOM     37  H   UNL     1     -95.118  28.022 -41.287  1.00  0.00     0.293 HD
ENDBRANCH  33  36
ENDBRANCH  27  28
ENDBRANCH  24  26
ENDBRANCH  23  24
ENDBRANCH   6  23
BRANCH   3  38
ATOM     38  O   UNL     1     -95.951  25.614 -27.938  1.00  0.00    -0.350 OA
BRANCH  38  39
ATOM     39  C   UNL     1     -96.236  25.462 -26.561  1.00  0.00     0.168 C 
BRANCH  39  40
ATOM     40  C   UNL     1     -95.689  26.639 -25.748  1.00  0.00     0.064 C 
BRANCH  40  41
ATOM     41  C   UNL     1     -96.814  27.506 -25.247  1.00  0.00    -0.042 A 
ATOM     42  C   UNL     1     -98.148  27.114 -25.448  1.00  0.00     0.054 A 
ATOM     43  C   UNL     1     -96.543  28.734 -24.627  1.00  0.00     0.008 A 
ATOM     44  C   UNL     1     -99.201  27.934 -25.017  1.00  0.00     0.157 A 
ATOM     45  C   UNL     1     -97.591  29.550 -24.192  1.00  0.00     0.050 A 
ATOM     46  C   UNL     1     -98.920  29.156 -24.382  1.00  0.00     0.157 A 
BRANCH  44  47
ATOM     47  O   UNL     1    -100.522  27.540 -25.221  1.00  0.00    -0.504 OA
ATOM     48  H   UNL     1    -101.018  26.969 -24.545  1.00  0.00     0.293 HD
ENDBRANCH  44  47
BRANCH  46  49
ATOM     49  O   UNL     1     -99.944  29.993 -23.940  1.00  0.00    -0.504 OA
ATOM     50  H   UNL     1     -99.798  30.688 -23.216  1.00  0.00     0.293 HD
ENDBRANCH  46  49
ENDBRANCH  40  41
ENDBRANCH  39  40
ENDBRANCH  38  39
ENDBRANCH   3  38
BRANCH   5  51
ATOM     51  C   UNL     1     -93.876  26.596 -31.393  1.00  0.00     0.192 C 
BRANCH  51  52
ATOM     52  O   UNL     1     -94.617  27.451 -32.223  1.00  0.00    -0.394 OA
ATOM     53  H   UNL     1     -94.978  28.180 -31.654  1.00  0.00     0.210 HD
ENDBRANCH  51  52
ENDBRANCH   5  51
TORSDOF 20
ENDMDL
MODEL 3
REMARK VINA RESULT:    -3.834      2.819      5.046
REMARK INTER + INTRA:         -11.500
REMARK INTER:                  -8.649
REMARK INTRA:                  -2.851
REMARK UNBOUND:                -4.193
REMARK SMILES C[C@H]1O[C@@H](O[C@@H]2[C@@H](O)[C@H](OCCc3ccc(O)c(O)c3)O[C@@H](CO)[C@@H]2OC(=O)C=Cc2ccc(O)c(O)c2)[C@H](O)[C@@H](O)[C@@H]1O
REMARK SMILES IDX 6 1 7 2 9 3 21 4 22 5 25 6 5 7 4 8 1 9 2 10 43 11 3 12 41 13
REMARK SMILES IDX 39 14 44 15 42 17 40 19 8 21 26 23 27 24 28 25 29 26 30 27
REMARK SMILES IDX 31 28 38 29 32 30 36 31 33 32 34 33 37 34 35 36 10 38 11 39
REMARK SMILES IDX 12 40 13 41 20 42 14 43 18 44 15 45 16 46 19 47 17 49 23 51
REMARK SMILES IDX 24 52
REMARK H PARENT 44 16 42 18 40 20 8 22 37 35 35 37 19 48 17 50 24 53
REMARK Flexibility Score: inf
ROOT
ATOM      1  C   UNL     1     -98.176  25.377 -31.822  1.00  0.00     0.199 C 
ATOM      2  C   UNL     1     -99.663  25.757 -31.614  1.00  0.00     0.203 C 
ATOM      3  C   UNL     1    -100.538  24.503 -31.370  1.00  0.00     0.282 C 
ATOM      4  O   UNL     1    -100.354  23.532 -32.390  1.00  0.00    -0.340 OA
ATOM      5  C   UNL     1     -99.009  23.081 -32.463  1.00  0.00     0.190 C 
ATOM      6  C   UNL     1     -98.076  24.247 -32.866  1.00  0.00     0.240 C 
ENDROOT
BRANCH   1   7
ATOM      7  O   UNL     1     -97.608  24.930 -30.598  1.00  0.00    -0.340 OA
BRANCH   7   8
ATOM      8  C   UNL     1     -97.141  25.998 -29.781  1.00  0.00     0.282 C 
ATOM      9  C   UNL     1     -95.339  23.455 -29.510  1.00  0.00     0.041 C 
ATOM     10  C   UNL     1     -95.370  24.777 -28.729  1.00  0.00     0.150 C 
ATOM     11  C   UNL     1     -96.137  24.688 -27.388  1.00  0.00     0.174 C 
ATOM     12  O   UNL     1     -95.746  25.884 -29.544  1.00  0.00    -0.344 OA
ATOM     13  C   UNL     1     -97.653  24.856 -27.575  1.00  0.00     0.179 C 
ATOM     14  C   UNL     1     -97.954  26.066 -28.475  1.00  0.00     0.202 C 
BRANCH  11  15
ATOM     15  O   UNL     1     -95.649  25.682 -26.520  1.00  0.00    -0.388 OA
ATOM     16  H   UNL     1     -95.260  25.215 -25.733  1.00  0.00     0.211 HD
ENDBRANCH  11  15
BRANCH  13  17
ATOM     17  O   UNL     1     -98.202  23.686 -28.124  1.00  0.00    -0.387 OA
ATOM     18  H   UNL     1     -97.617  23.419 -28.880  1.00  0.00     0.211 HD
ENDBRANCH  13  17
BRANCH  14  19
ATOM     19  O   UNL     1     -97.643  27.262 -27.803  1.00  0.00    -0.385 OA
ATOM     20  H   UNL     1     -97.035  27.021 -27.056  1.00  0.00     0.211 HD
ENDBRANCH  14  19
ENDBRANCH   7   8
ENDBRANCH   1   7
BRANCH   2  21
ATOM     21  O   UNL     1    -100.142  26.515 -32.698  1.00  0.00    -0.385 OA
ATOM     22  H   UNL     1    -100.246  25.912 -33.481  1.00  0.00     0.211 HD
ENDBRANCH   2  21
BRANCH   6  23
ATOM     23  O   UNL     1     -96.727  23.787 -32.975  1.00  0.00    -0.453 OA
BRANCH  23  24
ATOM     24  C   UNL     1     -95.666  24.600 -33.394  1.00  0.00     0.331 C 
ATOM     25  O   UNL     1     -94.810  25.011 -32.567  1.00  0.00    -0.247 OA
BRANCH  24  26
ATOM     26  C   UNL     1     -95.532  24.979 -34.809  1.00  0.00     0.094 C 
ATOM     27  C   UNL     1     -95.574  26.256 -35.207  1.00  0.00     0.016 C 
BRANCH  27  28
ATOM     28  C   UNL     1     -95.560  26.665 -36.632  1.00  0.00    -0.021 A 
ATOM     29  C   UNL     1     -96.632  27.361 -37.226  1.00  0.00     0.058 A 
ATOM     30  C   UNL     1     -94.443  26.338 -37.415  1.00  0.00     0.012 A 
ATOM     31  C   UNL     1     -96.569  27.743 -38.576  1.00  0.00     0.157 A 
ATOM     32  C   UNL     1     -94.377  26.723 -38.757  1.00  0.00     0.051 A 
ATOM     33  C   UNL     1     -95.433  27.428 -39.340  1.00  0.00     0.157 A 
BRANCH  31  34
ATOM     34  O   UNL     1     -97.631  28.433 -39.158  1.00  0.00    -0.504 OA
ATOM     35  H   UNL     1     -98.199  28.017 -39.887  1.00  0.00     0.293 HD
ENDBRANCH  31  34
BRANCH  33  36
ATOM     36  O   UNL     1     -95.333  27.807 -40.678  1.00  0.00    -0.504 OA
ATOM     37  H   UNL     1     -95.806  28.626 -41.042  1.00  0.00     0.293 HD
ENDBRANCH  33  36
ENDBRANCH  27  28
ENDBRANCH  24  26
ENDBRANCH  23  24
ENDBRANCH   6  23
BRANCH   3  38
ATOM     38  O   UNL     1    -100.237  23.947 -30.095  1.00  0.00    -0.350 OA
BRANCH  38  39
ATOM     39  C   UNL     1    -101.387  23.820 -29.280  1.00  0.00     0.168 C 
BRANCH  39  40
ATOM     40  C   UNL     1    -102.258  25.079 -29.351  1.00  0.00     0.064 C 
BRANCH  40  41
ATOM     41  C   UNL     1    -102.670  25.516 -27.970  1.00  0.00    -0.042 A 
ATOM     42  C   UNL     1    -101.730  25.535 -26.927  1.00  0.00     0.054 A 
ATOM     43  C   UNL     1    -104.005  25.853 -27.700  1.00  0.00     0.008 A 
ATOM     44  C   UNL     1    -102.116  25.905 -25.630  1.00  0.00     0.157 A 
ATOM     45  C   UNL     1    -104.390  26.227 -26.410  1.00  0.00     0.050 A 
ATOM     46  C   UNL     1    -103.452  26.257 -25.372  1.00  0.00     0.157 A 
BRANCH  44  47
ATOM     47  O   UNL     1    -101.177  25.921 -24.600  1.00  0.00    -0.504 OA
ATOM     48  H   UNL     1    -100.668  26.763 -24.356  1.00  0.00     0.293 HD
ENDBRANCH  44  47
BRANCH  46  49
ATOM     49  O   UNL     1    -103.867  26.632 -24.095  1.00  0.00    -0.504 OA
ATOM     50  H   UNL     1    -103.470  27.431 -23.613  1.00  0.00     0.293 HD
ENDBRANCH  46  49
ENDBRANCH  40  41
ENDBRANCH  39  40
ENDBRANCH  38  39
ENDBRANCH   3  38
BRANCH   5  51
ATOM     51  C   UNL     1     -98.951  21.939 -33.489  1.00  0.00     0.192 C 
BRANCH  51  52
ATOM     52  O   UNL     1     -98.509  22.412 -34.734  1.00  0.00    -0.394 OA
ATOM     53  H   UNL     1     -98.638  21.681 -35.393  1.00  0.00     0.210 HD
ENDBRANCH  51  52
ENDBRANCH   5  51
TORSDOF 20
ENDMDL
MODEL 4
REMARK VINA RESULT:    -3.765      2.419      8.854
REMARK INTER + INTRA:         -11.369
REMARK INTER:                  -8.002
REMARK INTRA:                  -3.367
REMARK UNBOUND:                -4.193
REMARK SMILES C[C@H]1O[C@@H](O[C@@H]2[C@@H](O)[C@H](OCCc3ccc(O)c(O)c3)O[C@@H](CO)[C@@H]2OC(=O)C=Cc2ccc(O)c(O)c2)[C@H](O)[C@@H](O)[C@@H]1O
REMARK SMILES IDX 6 1 7 2 9 3 21 4 22 5 25 6 5 7 4 8 1 9 2 10 43 11 3 12 41 13
REMARK SMILES IDX 39 14 44 15 42 17 40 19 8 21 26 23 27 24 28 25 29 26 30 27
REMARK SMILES IDX 31 28 38 29 32 30 36 31 33 32 34 33 37 34 35 36 10 38 11 39
REMARK SMILES IDX 12 40 13 41 20 42 14 43 18 44 15 45 16 46 19 47 17 49 23 51
REMARK SMILES IDX 24 52
REMARK H PARENT 44 16 42 18 40 20 8 22 37 35 35 37 19 48 17 50 24 53
REMARK Flexibility Score: inf
ROOT
ATOM      1  C   UNL     1     -96.638  25.437 -31.430  1.00  0.00     0.199 C 
ATOM      2  C   UNL     1     -95.680  26.325 -32.261  1.00  0.00     0.203 C 
ATOM      3  C   UNL     1     -94.628  25.473 -33.013  1.00  0.00     0.282 C 
ATOM      4  O   UNL     1     -93.941  24.597 -32.132  1.00  0.00    -0.340 OA
ATOM      5  C   UNL     1     -94.821  23.683 -31.492  1.00  0.00     0.190 C 
ATOM      6  C   UNL     1     -95.814  24.446 -30.583  1.00  0.00     0.240 C 
ENDROOT
BRANCH   1   7
ATOM      7  O   UNL     1     -97.501  24.705 -32.291  1.00  0.00    -0.340 OA
BRANCH   7   8
ATOM      8  C   UNL     1     -98.628  25.462 -32.719  1.00  0.00     0.282 C 
ATOM      9  C   UNL     1     -99.431  22.560 -31.867  1.00  0.00     0.041 C 
ATOM     10  C   UNL     1    -100.222  23.683 -32.553  1.00  0.00     0.150 C 
ATOM     11  C   UNL     1    -100.313  23.530 -34.090  1.00  0.00     0.174 C 
ATOM     12  O   UNL     1     -99.821  24.979 -32.118  1.00  0.00    -0.344 OA
ATOM     13  C   UNL     1     -99.068  24.083 -34.802  1.00  0.00     0.179 C 
ATOM     14  C   UNL     1     -98.710  25.476 -34.256  1.00  0.00     0.202 C 
BRANCH  11  15
ATOM     15  O   UNL     1    -101.462  24.201 -34.546  1.00  0.00    -0.388 OA
ATOM     16  H   UNL     1    -102.246  23.749 -34.134  1.00  0.00     0.211 HD
ENDBRANCH  11  15
BRANCH  13  17
ATOM     17  O   UNL     1     -97.989  23.199 -34.639  1.00  0.00    -0.387 OA
ATOM     18  H   UNL     1     -98.060  22.821 -33.724  1.00  0.00     0.211 HD
ENDBRANCH  13  17
BRANCH  14  19
ATOM     19  O   UNL     1     -99.675  26.418 -34.655  1.00  0.00    -0.385 OA
ATOM     20  H   UNL     1     -99.953  26.907 -33.837  1.00  0.00     0.211 HD
ENDBRANCH  14  19
ENDBRANCH   7   8
ENDBRANCH   1   7
BRANCH   2  21
ATOM     21  O   UNL     1     -95.069  27.299 -31.449  1.00  0.00    -0.385 OA
ATOM     22  H   UNL     1     -94.479  27.857 -32.020  1.00  0.00     0.211 HD
ENDBRANCH   2  21
BRANCH   6  23
ATOM     23  O   UNL     1     -96.677  23.526 -29.911  1.00  0.00    -0.453 OA
BRANCH  23  24
ATOM     24  C   UNL     1     -97.155  23.727 -28.609  1.00  0.00     0.331 C 
ATOM     25  O   UNL     1     -96.474  23.363 -27.615  1.00  0.00    -0.247 OA
BRANCH  24  26
ATOM     26  C   UNL     1     -98.457  24.374 -28.386  1.00  0.00     0.094 C 
ATOM     27  C   UNL     1     -99.603  23.684 -28.406  1.00  0.00     0.016 C 
BRANCH  27  28
ATOM     28  C   UNL     1    -100.938  24.320 -28.302  1.00  0.00    -0.021 A 
ATOM     29  C   UNL     1    -101.283  25.176 -27.238  1.00  0.00     0.058 A 
ATOM     30  C   UNL     1    -101.892  24.049 -29.296  1.00  0.00     0.012 A 
ATOM     31  C   UNL     1    -102.555  25.770 -27.188  1.00  0.00     0.157 A 
ATOM     32  C   UNL     1    -103.156  24.644 -29.250  1.00  0.00     0.051 A 
ATOM     33  C   UNL     1    -103.491  25.506 -28.203  1.00  0.00     0.157 A 
BRANCH  31  34
ATOM     34  O   UNL     1    -102.891  26.619 -26.134  1.00  0.00    -0.504 OA
ATOM     35  H   UNL     1    -102.793  27.624 -26.210  1.00  0.00     0.293 HD
ENDBRANCH  31  34
BRANCH  33  36
ATOM     36  O   UNL     1    -104.756  26.093 -28.190  1.00  0.00    -0.504 OA
ATOM     37  H   UNL     1    -105.518  25.716 -27.639  1.00  0.00     0.293 HD
ENDBRANCH  33  36
ENDBRANCH  27  28
ENDBRANCH  24  26
ENDBRANCH  23  24
ENDBRANCH   6  23
BRANCH   3  38
ATOM     38  O   UNL     1     -95.260  24.737 -34.054  1.00  0.00    -0.350 OA
BRANCH  38  39
ATOM     39  C   UNL     1     -94.702  25.018 -35.324  1.00  0.00     0.168 C 
BRANCH  39  40
ATOM     40  C   UNL     1     -95.746  24.868 -36.434  1.00  0.00     0.064 C 
BRANCH  40  41
ATOM     41  C   UNL     1     -95.608  25.975 -37.446  1.00  0.00    -0.042 A 
ATOM     42  C   UNL     1     -96.731  26.725 -37.827  1.00  0.00     0.054 A 
ATOM     43  C   UNL     1     -94.370  26.230 -38.055  1.00  0.00     0.008 A 
ATOM     44  C   UNL     1     -96.617  27.734 -38.796  1.00  0.00     0.157 A 
ATOM     45  C   UNL     1     -94.253  27.238 -39.016  1.00  0.00     0.050 A 
ATOM     46  C   UNL     1     -95.369  27.993 -39.389  1.00  0.00     0.157 A 
BRANCH  44  47
ATOM     47  O   UNL     1     -97.737  28.473 -39.170  1.00  0.00    -0.504 OA
ATOM     48  H   UNL     1     -98.288  28.987 -38.491  1.00  0.00     0.293 HD
ENDBRANCH  44  47
BRANCH  46  49
ATOM     49  O   UNL     1     -95.222  28.990 -40.353  1.00  0.00    -0.504 OA
ATOM     50  H   UNL     1     -96.019  29.454 -40.775  1.00  0.00     0.293 HD
ENDBRANCH  46  49
ENDBRANCH  40  41
ENDBRANCH  39  40
ENDBRANCH  38  39
ENDBRANCH   3  38
BRANCH   5  51
ATOM     51  C   UNL     1     -93.968  22.696 -30.682  1.00  0.00     0.192 C 
BRANCH  51  52
ATOM     52  O   UNL     1     -93.880  23.100 -29.341  1.00  0.00    -0.394 OA
ATOM     53  H   UNL     1     -92.935  23.350 -29.167  1.00  0.00     0.210 HD
ENDBRANCH  51  52
ENDBRANCH   5  51
TORSDOF 20
ENDMDL
MODEL 5
REMARK VINA RESULT:    -3.697      3.726     10.440
REMARK INTER + INTRA:         -11.240
REMARK INTER:                  -8.359
REMARK INTRA:                  -2.881
REMARK UNBOUND:                -4.193
REMARK SMILES C[C@H]1O[C@@H](O[C@@H]2[C@@H](O)[C@H](OCCc3ccc(O)c(O)c3)O[C@@H](CO)[C@@H]2OC(=O)C=Cc2ccc(O)c(O)c2)[C@H](O)[C@@H](O)[C@@H]1O
REMARK SMILES IDX 6 1 7 2 9 3 21 4 22 5 25 6 5 7 4 8 1 9 2 10 43 11 3 12 41 13
REMARK SMILES IDX 39 14 44 15 42 17 40 19 8 21 26 23 27 24 28 25 29 26 30 27
REMARK SMILES IDX 31 28 38 29 32 30 36 31 33 32 34 33 37 34 35 36 10 38 11 39
REMARK SMILES IDX 12 40 13 41 20 42 14 43 18 44 15 45 16 46 19 47 17 49 23 51
REMARK SMILES IDX 24 52
REMARK H PARENT 44 16 42 18 40 20 8 22 37 35 35 37 19 48 17 50 24 53
REMARK Flexibility Score: inf
ROOT
ATOM      1  C   UNL     1     -96.136  26.981 -37.926  1.00  0.00     0.199 C 
ATOM      2  C   UNL     1     -95.427  26.941 -39.302  1.00  0.00     0.203 C 
ATOM      3  C   UNL     1     -94.895  25.522 -39.623  1.00  0.00     0.282 C 
ATOM      4  O   UNL     1     -94.085  25.019 -38.571  1.00  0.00    -0.340 OA
ATOM      5  C   UNL     1     -94.800  24.917 -37.347  1.00  0.00     0.190 C 
ATOM      6  C   UNL     1     -95.234  26.321 -36.864  1.00  0.00     0.240 C 
ENDROOT
BRANCH   1   7
ATOM      7  O   UNL     1     -97.369  26.277 -37.989  1.00  0.00    -0.340 OA
BRANCH   7   8
ATOM      8  C   UNL     1     -98.446  27.085 -38.452  1.00  0.00     0.282 C 
ATOM      9  C   UNL     1     -99.313  25.250 -36.070  1.00  0.00     0.041 C 
ATOM     10  C   UNL     1    -100.119  26.152 -37.016  1.00  0.00     0.150 C 
ATOM     11  C   UNL     1    -100.790  25.387 -38.182  1.00  0.00     0.174 C 
ATOM     12  O   UNL     1     -99.394  27.310 -37.419  1.00  0.00    -0.344 OA
ATOM     13  C   UNL     1     -99.824  25.157 -39.356  1.00  0.00     0.179 C 
ATOM     14  C   UNL     1     -99.083  26.458 -39.706  1.00  0.00     0.202 C 
BRANCH  11  15
ATOM     15  O   UNL     1    -101.909  26.118 -38.620  1.00  0.00    -0.388 OA
ATOM     16  H   UNL     1    -102.074  25.859 -39.566  1.00  0.00     0.211 HD
ENDBRANCH  11  15
BRANCH  13  17
ATOM     17  O   UNL     1     -98.909  24.142 -39.034  1.00  0.00    -0.387 OA
ATOM     18  H   UNL     1     -99.128  23.836 -38.115  1.00  0.00     0.211 HD
ENDBRANCH  13  17
BRANCH  14  19
ATOM     19  O   UNL     1     -99.971  27.386 -40.281  1.00  0.00    -0.385 OA
ATOM     20  H   UNL     1     -99.486  27.819 -41.032  1.00  0.00     0.211 HD
ENDBRANCH  14  19
ENDBRANCH   7   8
ENDBRANCH   1   7
BRANCH   2  21
ATOM     21  O   UNL     1     -94.401  27.901 -39.364  1.00  0.00    -0.385 OA
ATOM     22  H   UNL     1     -93.600  27.535 -38.904  1.00  0.00     0.211 HD
ENDBRANCH   2  21
BRANCH   6  23
ATOM     23  O   UNL     1     -95.922  26.224 -35.615  1.00  0.00    -0.453 OA
BRANCH  23  24
ATOM     24  C   UNL     1     -95.320  26.497 -34.379  1.00  0.00     0.331 C 
ATOM     25  O   UNL     1     -94.377  27.327 -34.297  1.00  0.00    -0.247 OA
BRANCH  24  26
ATOM     26  C   UNL     1     -95.788  25.823 -33.158  1.00  0.00     0.094 C 
ATOM     27  C   UNL     1     -94.950  25.489 -32.169  1.00  0.00     0.016 C 
BRANCH  27  28
ATOM     28  C   UNL     1     -95.366  24.707 -30.981  1.00  0.00    -0.021 A 
ATOM     29  C   UNL     1     -94.567  23.682 -30.437  1.00  0.00     0.058 A 
ATOM     30  C   UNL     1     -96.604  24.994 -30.385  1.00  0.00     0.012 A 
ATOM     31  C   UNL     1     -94.993  22.977 -29.299  1.00  0.00     0.157 A 
ATOM     32  C   UNL     1     -97.027  24.297 -29.250  1.00  0.00     0.051 A 
ATOM     33  C   UNL     1     -96.225  23.293 -28.701  1.00  0.00     0.157 A 
BRANCH  31  34
ATOM     34  O   UNL     1     -94.197  21.966 -28.763  1.00  0.00    -0.504 OA
ATOM     35  H   UNL     1     -94.597  21.099 -28.422  1.00  0.00     0.293 HD
ENDBRANCH  31  34
BRANCH  33  36
ATOM     36  O   UNL     1     -96.669  22.622 -27.562  1.00  0.00    -0.504 OA
ATOM     37  H   UNL     1     -97.629  22.316 -27.458  1.00  0.00     0.293 HD
ENDBRANCH  33  36
ENDBRANCH  27  28
ENDBRANCH  24  26
ENDBRANCH  23  24
ENDBRANCH   6  23
BRANCH   3  38
ATOM     38  O   UNL     1     -95.987  24.645 -39.875  1.00  0.00    -0.350 OA
BRANCH  38  39
ATOM     39  C   UNL     1     -95.599  23.507 -40.621  1.00  0.00     0.168 C 
BRANCH  39  40
ATOM     40  C   UNL     1     -95.732  23.759 -42.126  1.00  0.00     0.064 C 
BRANCH  40  41
ATOM     41  C   UNL     1     -97.161  23.583 -42.568  1.00  0.00    -0.042 A 
ATOM     42  C   UNL     1     -98.040  24.678 -42.562  1.00  0.00     0.054 A 
ATOM     43  C   UNL     1     -97.641  22.317 -42.935  1.00  0.00     0.008 A 
ATOM     44  C   UNL     1     -99.382  24.514 -42.937  1.00  0.00     0.157 A 
ATOM     45  C   UNL     1     -98.976  22.152 -43.314  1.00  0.00     0.050 A 
ATOM     46  C   UNL     1     -99.850  23.244 -43.319  1.00  0.00     0.157 A 
BRANCH  44  47
ATOM     47  O   UNL     1    -100.248  25.605 -42.927  1.00  0.00    -0.504 OA
ATOM     48  H   UNL     1    -101.134  25.578 -42.434  1.00  0.00     0.293 HD
ENDBRANCH  44  47
BRANCH  46  49
ATOM     49  O   UNL     1    -101.177  23.049 -43.699  1.00  0.00    -0.504 OA
ATOM     50  H   UNL     1    -101.636  23.645 -44.379  1.00  0.00     0.293 HD
ENDBRANCH  46  49
ENDBRANCH  40  41
ENDBRANCH  39  40
ENDBRANCH  38  39
ENDBRANCH   3  38
BRANCH   5  51
ATOM     51  C   UNL     1     -93.885  24.231 -36.322  1.00  0.00     0.192 C 
BRANCH  51  52
ATOM     52  O   UNL     1     -94.618  23.349 -35.513  1.00  0.00    -0.394 OA
ATOM     53  H   UNL     1     -95.581  23.514 -35.691  1.00  0.00     0.210 HD
ENDBRANCH  51  52
ENDBRANCH   5  51
TORSDOF 20
ENDMDL
MODEL 6
REMARK VINA RESULT:    -3.661      1.985      5.177
REMARK INTER + INTRA:         -11.171
REMARK INTER:                  -7.698
REMARK INTRA:                  -3.473
REMARK UNBOUND:                -4.193
REMARK SMILES C[C@H]1O[C@@H](O[C@@H]2[C@@H](O)[C@H](OCCc3ccc(O)c(O)c3)O[C@@H](CO)[C@@H]2OC(=O)C=Cc2ccc(O)c(O)c2)[C@H](O)[C@@H](O)[C@@H]1O
REMARK SMILES IDX 6 1 7 2 9 3 21 4 22 5 25 6 5 7 4 8 1 9 2 10 43 11 3 12 41 13
REMARK SMILES IDX 39 14 44 15 42 17 40 19 8 21 26 23 27 24 28 25 29 26 30 27
REMARK SMILES IDX 31 28 38 29 32 30 36 31 33 32 34 33 37 34 35 36 10 38 11 39
REMARK SMILES IDX 12 40 13 41 20 42 14 43 18 44 15 45 16 46 19 47 17 49 23 51
REMARK SMILES IDX 24 52
REMARK H PARENT 44 16 42 18 40 20 8 22 37 35 35 37 19 48 17 50 24 53
REMARK Flexibility Score: inf
ROOT
ATOM      1  C   UNL     1     -96.425  23.750 -30.137  1.00  0.00     0.199 C 
ATOM      2  C   UNL     1     -95.872  23.425 -28.728  1.00  0.00     0.203 C 
ATOM      3  C   UNL     1     -95.421  24.708 -27.987  1.00  0.00     0.282 C 
ATOM      4  O   UNL     1     -94.517  25.472 -28.772  1.00  0.00    -0.340 OA
ATOM      5  C   UNL     1     -95.098  25.894 -29.998  1.00  0.00     0.190 C 
ATOM      6  C   UNL     1     -95.433  24.668 -30.879  1.00  0.00     0.240 C 
ENDROOT
BRANCH   1   7
ATOM      7  O   UNL     1     -97.679  24.412 -30.031  1.00  0.00    -0.340 OA
BRANCH   7   8
ATOM      8  C   UNL     1     -98.750  23.524 -29.725  1.00  0.00     0.282 C 
ATOM      9  C   UNL     1     -99.556  25.609 -31.915  1.00  0.00     0.041 C 
ATOM     10  C   UNL     1    -100.379  24.579 -31.128  1.00  0.00     0.150 C 
ATOM     11  C   UNL     1    -101.132  25.179 -29.917  1.00  0.00     0.174 C 
ATOM     12  O   UNL     1     -99.636  23.400 -30.828  1.00  0.00    -0.344 OA
ATOM     13  C   UNL     1    -100.235  25.291 -28.674  1.00  0.00     0.179 C 
ATOM     14  C   UNL     1     -99.470  23.978 -28.443  1.00  0.00     0.202 C 
BRANCH  11  15
ATOM     15  O   UNL     1    -102.248  24.370 -29.630  1.00  0.00    -0.388 OA
ATOM     16  H   UNL     1    -103.055  24.878 -29.912  1.00  0.00     0.211 HD
ENDBRANCH  11  15
BRANCH  13  17
ATOM     17  O   UNL     1     -99.339  26.363 -28.823  1.00  0.00    -0.387 OA
ATOM     18  H   UNL     1     -98.709  26.321 -28.058  1.00  0.00     0.211 HD
ENDBRANCH  13  17
BRANCH  14  19
ATOM     19  O   UNL     1    -100.354  22.964 -28.031  1.00  0.00    -0.385 OA
ATOM     20  H   UNL     1    -101.273  23.304 -28.192  1.00  0.00     0.211 HD
ENDBRANCH  14  19
ENDBRANCH   7   8
ENDBRANCH   1   7
BRANCH   2  21
ATOM     21  O   UNL     1     -94.829  22.482 -28.806  1.00  0.00    -0.385 OA
ATOM     22  H   UNL     1     -94.941  21.960 -29.643  1.00  0.00     0.211 HD
ENDBRANCH   2  21
BRANCH   6  23
ATOM     23  O   UNL     1     -95.984  25.092 -32.128  1.00  0.00    -0.453 OA
BRANCH  23  24
ATOM     24  C   UNL     1     -95.598  24.555 -33.364  1.00  0.00     0.331 C 
ATOM     25  O   UNL     1     -95.403  23.318 -33.490  1.00  0.00    -0.247 OA
BRANCH  24  26
ATOM     26  C   UNL     1     -95.421  25.430 -34.533  1.00  0.00     0.094 C 
ATOM     27  C   UNL     1     -96.261  25.398 -35.574  1.00  0.00     0.016 C 
BRANCH  27  28
ATOM     28  C   UNL     1     -96.047  26.179 -36.816  1.00  0.00    -0.021 A 
ATOM     29  C   UNL     1     -97.080  26.918 -37.428  1.00  0.00     0.058 A 
ATOM     30  C   UNL     1     -94.773  26.171 -37.406  1.00  0.00     0.012 A 
ATOM     31  C   UNL     1     -96.828  27.656 -38.596  1.00  0.00     0.157 A 
ATOM     32  C   UNL     1     -94.521  26.910 -38.565  1.00  0.00     0.051 A 
ATOM     33  C   UNL     1     -95.541  27.656 -39.160  1.00  0.00     0.157 A 
BRANCH  31  34
ATOM     34  O   UNL     1     -97.852  28.388 -39.196  1.00  0.00    -0.504 OA
ATOM     35  H   UNL     1     -98.622  28.766 -38.656  1.00  0.00     0.293 HD
ENDBRANCH  31  34
BRANCH  33  36
ATOM     36  O   UNL     1     -95.256  28.392 -40.310  1.00  0.00    -0.504 OA
ATOM     37  H   UNL     1     -95.868  29.127 -40.644  1.00  0.00     0.293 HD
ENDBRANCH  33  36
ENDBRANCH  27  28
ENDBRANCH  24  26
ENDBRANCH  23  24
ENDBRANCH   6  23
BRANCH   3  38
ATOM     38  O   UNL     1     -96.559  25.487 -27.639  1.00  0.00    -0.350 OA
BRANCH  38  39
ATOM     39  C   UNL     1     -96.415  26.112 -26.377  1.00  0.00     0.168 C 
BRANCH  39  40
ATOM     40  C   UNL     1     -96.995  27.530 -26.392  1.00  0.00     0.064 C 
BRANCH  40  41
ATOM     41  C   UNL     1     -96.187  28.424 -27.295  1.00  0.00    -0.042 A 
ATOM     42  C   UNL     1     -96.736  28.889 -28.500  1.00  0.00     0.054 A 
ATOM     43  C   UNL     1     -94.863  28.753 -26.969  1.00  0.00     0.008 A 
ATOM     44  C   UNL     1     -95.976  29.692 -29.365  1.00  0.00     0.157 A 
ATOM     45  C   UNL     1     -94.106  29.557 -27.826  1.00  0.00     0.050 A 
ATOM     46  C   UNL     1     -94.656  30.030 -29.022  1.00  0.00     0.157 A 
BRANCH  44  47
ATOM     47  O   UNL     1     -96.528  30.148 -30.560  1.00  0.00    -0.504 OA
ATOM     48  H   UNL     1     -97.447  30.577 -30.593  1.00  0.00     0.293 HD
ENDBRANCH  44  47
BRANCH  46  49
ATOM     49  O   UNL     1     -93.875  30.827 -29.858  1.00  0.00    -0.504 OA
ATOM     50  H   UNL     1     -94.136  31.779 -30.093  1.00  0.00     0.293 HD
ENDBRANCH  46  49
ENDBRANCH  40  41
ENDBRANCH  39  40
ENDBRANCH  38  39
ENDBRANCH   3  38
BRANCH   5  51
ATOM     51  C   UNL     1     -94.097  26.827 -30.696  1.00  0.00     0.192 C 
BRANCH  51  52
ATOM     52  O   UNL     1     -94.748  27.633 -31.643  1.00  0.00    -0.394 OA
ATOM     53  H   UNL     1     -94.096  27.829 -32.366  1.00  0.00     0.210 HD
ENDBRANCH  51  52
ENDBRANCH   5  51
TORSDOF 20
ENDMDL
MODEL 7
REMARK VINA RESULT:    -3.596      4.444      7.341
REMARK INTER + INTRA:         -11.048
REMARK INTER:                  -7.564
REMARK INTRA:                  -3.484
REMARK UNBOUND:                -4.193
REMARK SMILES C[C@H]1O[C@@H](O[C@@H]2[C@@H](O)[C@H](OCCc3ccc(O)c(O)c3)O[C@@H](CO)[C@@H]2OC(=O)C=Cc2ccc(O)c(O)c2)[C@H](O)[C@@H](O)[C@@H]1O
REMARK SMILES IDX 6 1 7 2 9 3 21 4 22 5 25 6 5 7 4 8 1 9 2 10 43 11 3 12 41 13
REMARK SMILES IDX 39 14 44 15 42 17 40 19 8 21 26 23 27 24 28 25 29 26 30 27
REMARK SMILES IDX 31 28 38 29 32 30 36 31 33 32 34 33 37 34 35 36 10 38 11 39
REMARK SMILES IDX 12 40 13 41 20 42 14 43 18 44 15 45 16 46 19 47 17 49 23 51
REMARK SMILES IDX 24 52
REMARK H PARENT 44 16 42 18 40 20 8 22 37 35 35 37 19 48 17 50 24 53
REMARK Flexibility Score: inf
ROOT
ATOM      1  C   UNL     1     -97.137  26.580 -36.533  1.00  0.00     0.199 C 
ATOM      2  C   UNL     1     -95.798  26.718 -35.769  1.00  0.00     0.203 C 
ATOM      3  C   UNL     1     -95.364  25.371 -35.140  1.00  0.00     0.282 C 
ATOM      4  O   UNL     1     -96.398  24.811 -34.344  1.00  0.00    -0.340 OA
ATOM      5  C   UNL     1     -97.572  24.547 -35.099  1.00  0.00     0.190 C 
ATOM      6  C   UNL     1     -98.170  25.869 -35.636  1.00  0.00     0.240 C 
ENDROOT
BRANCH   1   7
ATOM      7  O   UNL     1     -96.950  25.817 -37.719  1.00  0.00    -0.340 OA
BRANCH   7   8
ATOM      8  C   UNL     1     -96.875  26.624 -38.890  1.00  0.00     0.282 C 
ATOM      9  C   UNL     1     -98.074  23.797 -39.498  1.00  0.00     0.041 C 
ATOM     10  C   UNL     1     -97.630  24.943 -40.419  1.00  0.00     0.150 C 
ATOM     11  C   UNL     1     -96.213  24.750 -41.012  1.00  0.00     0.174 C 
ATOM     12  O   UNL     1     -97.851  26.226 -39.842  1.00  0.00    -0.344 OA
ATOM     13  C   UNL     1     -95.112  25.210 -40.043  1.00  0.00     0.179 C 
ATOM     14  C   UNL     1     -95.448  26.596 -39.467  1.00  0.00     0.202 C 
BRANCH  11  15
ATOM     15  O   UNL     1     -96.123  25.471 -42.217  1.00  0.00    -0.388 OA
ATOM     16  H   UNL     1     -95.195  25.822 -42.276  1.00  0.00     0.211 HD
ENDBRANCH  11  15
BRANCH  13  17
ATOM     17  O   UNL     1     -94.958  24.272 -39.009  1.00  0.00    -0.387 OA
ATOM     18  H   UNL     1     -95.826  23.799 -38.917  1.00  0.00     0.211 HD
ENDBRANCH  13  17
BRANCH  14  19
ATOM     19  O   UNL     1     -95.339  27.579 -40.467  1.00  0.00    -0.385 OA
ATOM     20  H   UNL     1     -94.699  28.260 -40.130  1.00  0.00     0.211 HD
ENDBRANCH  14  19
ENDBRANCH   7   8
ENDBRANCH   1   7
BRANCH   2  21
ATOM     21  O   UNL     1     -95.877  27.736 -34.801  1.00  0.00    -0.385 OA
ATOM     22  H   UNL     1     -95.248  27.517 -34.064  1.00  0.00     0.211 HD
ENDBRANCH   2  21
BRANCH   6  23
ATOM     23  O   UNL     1     -99.371  25.609 -36.366  1.00  0.00    -0.453 OA
BRANCH  23  24
ATOM     24  C   UNL     1    -100.278  26.609 -36.739  1.00  0.00     0.331 C 
ATOM     25  O   UNL     1    -100.615  27.505 -35.921  1.00  0.00    -0.247 OA
BRANCH  24  26
ATOM     26  C   UNL     1    -100.847  26.630 -38.096  1.00  0.00     0.094 C 
ATOM     27  C   UNL     1    -100.961  27.764 -38.798  1.00  0.00     0.016 C 
BRANCH  27  28
ATOM     28  C   UNL     1    -101.634  27.840 -40.117  1.00  0.00    -0.021 A 
ATOM     29  C   UNL     1    -100.998  27.445 -41.310  1.00  0.00     0.058 A 
ATOM     30  C   UNL     1    -102.946  28.335 -40.175  1.00  0.00     0.012 A 
ATOM     31  C   UNL     1    -101.680  27.519 -42.536  1.00  0.00     0.157 A 
ATOM     32  C   UNL     1    -103.627  28.404 -41.394  1.00  0.00     0.051 A 
ATOM     33  C   UNL     1    -103.001  27.994 -42.574  1.00  0.00     0.157 A 
BRANCH  31  34
ATOM     34  O   UNL     1    -101.047  27.124 -43.714  1.00  0.00    -0.504 OA
ATOM     35  H   UNL     1    -100.565  26.235 -43.786  1.00  0.00     0.293 HD
ENDBRANCH  31  34
BRANCH  33  36
ATOM     36  O   UNL     1    -103.710  28.066 -43.773  1.00  0.00    -0.504 OA
ATOM     37  H   UNL     1    -103.315  28.483 -44.607  1.00  0.00     0.293 HD
ENDBRANCH  33  36
ENDBRANCH  27  28
ENDBRANCH  24  26
ENDBRANCH  23  24
ENDBRANCH   6  23
BRANCH   3  38
ATOM     38  O   UNL     1     -94.979  24.462 -36.166  1.00  0.00    -0.350 OA
BRANCH  38  39
ATOM     39  C   UNL     1     -94.197  23.393 -35.668  1.00  0.00     0.168 C 
BRANCH  39  40
ATOM     40  C   UNL     1     -94.308  22.159 -36.569  1.00  0.00     0.064 C 
BRANCH  40  41
ATOM     41  C   UNL     1     -94.997  21.034 -35.843  1.00  0.00    -0.042 A 
ATOM     42  C   UNL     1     -96.325  21.183 -35.413  1.00  0.00     0.054 A 
ATOM     43  C   UNL     1     -94.304  19.852 -35.543  1.00  0.00     0.008 A 
ATOM     44  C   UNL     1     -96.962  20.153 -34.704  1.00  0.00     0.157 A 
ATOM     45  C   UNL     1     -94.938  18.823 -34.842  1.00  0.00     0.050 A 
ATOM     46  C   UNL     1     -96.265  18.966 -34.421  1.00  0.00     0.157 A 
BRANCH  44  47
ATOM     47  O   UNL     1     -98.280  20.309 -34.279  1.00  0.00    -0.504 OA
ATOM     48  H   UNL     1     -98.970  19.577 -34.403  1.00  0.00     0.293 HD
ENDBRANCH  44  47
BRANCH  46  49
ATOM     49  O   UNL     1     -96.870  17.923 -33.720  1.00  0.00    -0.504 OA
ATOM     50  H   UNL     1     -97.270  18.055 -32.798  1.00  0.00     0.293 HD
ENDBRANCH  46  49
ENDBRANCH  40  41
ENDBRANCH  39  40
ENDBRANCH  38  39
ENDBRANCH   3  38
BRANCH   5  51
ATOM     51  C   UNL     1     -98.566  23.815 -34.185  1.00  0.00     0.192 C 
BRANCH  51  52
ATOM     52  O   UNL     1     -99.399  22.969 -34.934  1.00  0.00    -0.394 OA
ATOM     53  H   UNL     1     -98.813  22.384 -35.482  1.00  0.00     0.210 HD
ENDBRANCH  51  52
ENDBRANCH   5  51
TORSDOF 20
ENDMDL
MODEL 8
REMARK VINA RESULT:    -3.547      2.052      3.595
REMARK INTER + INTRA:         -10.954
REMARK INTER:                  -7.791
REMARK INTRA:                  -3.163
REMARK UNBOUND:                -4.193
REMARK SMILES C[C@H]1O[C@@H](O[C@@H]2[C@@H](O)[C@H](OCCc3ccc(O)c(O)c3)O[C@@H](CO)[C@@H]2OC(=O)C=Cc2ccc(O)c(O)c2)[C@H](O)[C@@H](O)[C@@H]1O
REMARK SMILES IDX 6 1 7 2 9 3 21 4 22 5 25 6 5 7 4 8 1 9 2 10 43 11 3 12 41 13
REMARK SMILES IDX 39 14 44 15 42 17 40 19 8 21 26 23 27 24 28 25 29 26 30 27
REMARK SMILES IDX 31 28 38 29 32 30 36 31 33 32 34 33 37 34 35 36 10 38 11 39
REMARK SMILES IDX 12 40 13 41 20 42 14 43 18 44 15 45 16 46 19 47 17 49 23 51
REMARK SMILES IDX 24 52
REMARK H PARENT 44 16 42 18 40 20 8 22 37 35 35 37 19 48 17 50 24 53
REMARK Flexibility Score: inf
ROOT
ATOM      1  C   UNL     1     -97.327  24.632 -31.633  1.00  0.00     0.199 C 
ATOM      2  C   UNL     1     -98.110  24.306 -30.338  1.00  0.00     0.203 C 
ATOM      3  C   UNL     1     -97.177  24.292 -29.101  1.00  0.00     0.282 C 
ATOM      4  O   UNL     1     -96.061  23.436 -29.300  1.00  0.00    -0.340 OA
ATOM      5  C   UNL     1     -95.265  23.844 -30.405  1.00  0.00     0.190 C 
ATOM      6  C   UNL     1     -96.076  23.733 -31.717  1.00  0.00     0.240 C 
ENDROOT
BRANCH   1   7
ATOM      7  O   UNL     1     -96.919  25.994 -31.631  1.00  0.00    -0.340 OA
BRANCH   7   8
ATOM      8  C   UNL     1     -97.911  26.870 -32.155  1.00  0.00     0.282 C 
ATOM      9  C   UNL     1     -95.038  27.666 -33.107  1.00  0.00     0.041 C 
ATOM     10  C   UNL     1     -96.395  28.372 -33.240  1.00  0.00     0.150 C 
ATOM     11  C   UNL     1     -96.627  29.478 -32.183  1.00  0.00     0.174 C 
ATOM     12  O   UNL     1     -97.478  27.457 -33.374  1.00  0.00    -0.344 OA
ATOM     13  C   UNL     1     -97.146  28.908 -30.853  1.00  0.00     0.179 C 
ATOM     14  C   UNL     1     -98.301  27.924 -31.104  1.00  0.00     0.202 C 
BRANCH  11  15
ATOM     15  O   UNL     1     -97.547  30.411 -32.695  1.00  0.00    -0.388 OA
ATOM     16  H   UNL     1     -98.284  29.893 -33.114  1.00  0.00     0.211 HD
ENDBRANCH  11  15
BRANCH  13  17
ATOM     17  O   UNL     1     -96.101  28.272 -30.162  1.00  0.00    -0.387 OA
ATOM     18  H   UNL     1     -95.740  27.571 -30.764  1.00  0.00     0.211 HD
ENDBRANCH  13  17
BRANCH  14  19
ATOM     19  O   UNL     1     -99.442  28.616 -31.550  1.00  0.00    -0.385 OA
ATOM     20  H   UNL     1     -99.656  29.293 -30.855  1.00  0.00     0.211 HD
ENDBRANCH  14  19
ENDBRANCH   7   8
ENDBRANCH   1   7
BRANCH   2  21
ATOM     21  O   UNL     1     -98.810  23.093 -30.469  1.00  0.00    -0.385 OA
ATOM     22  H   UNL     1     -99.669  23.172 -29.976  1.00  0.00     0.211 HD
ENDBRANCH   2  21
BRANCH   6  23
ATOM     23  O   UNL     1     -95.266  24.107 -32.833  1.00  0.00    -0.453 OA
BRANCH  23  24
ATOM     24  C   UNL     1     -95.588  23.795 -34.160  1.00  0.00     0.331 C 
ATOM     25  O   UNL     1     -96.106  22.684 -34.448  1.00  0.00    -0.247 OA
BRANCH  24  26
ATOM     26  C   UNL     1     -95.333  24.765 -35.237  1.00  0.00     0.094 C 
ATOM     27  C   UNL     1     -96.326  25.304 -35.954  1.00  0.00     0.016 C 
BRANCH  27  28
ATOM     28  C   UNL     1     -96.099  26.192 -37.119  1.00  0.00    -0.021 A 
ATOM     29  C   UNL     1     -97.107  27.030 -37.635  1.00  0.00     0.058 A 
ATOM     30  C   UNL     1     -94.836  26.185 -37.734  1.00  0.00     0.012 A 
ATOM     31  C   UNL     1     -96.842  27.866 -38.732  1.00  0.00     0.157 A 
ATOM     32  C   UNL     1     -94.571  27.022 -38.822  1.00  0.00     0.051 A 
ATOM     33  C   UNL     1     -95.567  27.865 -39.322  1.00  0.00     0.157 A 
BRANCH  31  34
ATOM     34  O   UNL     1     -97.843  28.696 -39.237  1.00  0.00    -0.504 OA
ATOM     35  H   UNL     1     -98.643  28.322 -39.733  1.00  0.00     0.293 HD
ENDBRANCH  31  34
BRANCH  33  36
ATOM     36  O   UNL     1     -95.268  28.696 -40.401  1.00  0.00    -0.504 OA
ATOM     37  H   UNL     1     -95.769  28.637 -41.279  1.00  0.00     0.293 HD
ENDBRANCH  33  36
ENDBRANCH  27  28
ENDBRANCH  24  26
ENDBRANCH  23  24
ENDBRANCH   6  23
BRANCH   3  38
ATOM     38  O   UNL     1     -96.744  25.615 -28.810  1.00  0.00    -0.350 OA
BRANCH  38  39
ATOM     39  C   UNL     1     -96.924  25.951 -27.447  1.00  0.00     0.168 C 
BRANCH  39  40
ATOM     40  C   UNL     1     -97.845  27.166 -27.292  1.00  0.00     0.064 C 
BRANCH  40  41
ATOM     41  C   UNL     1     -99.193  26.745 -26.770  1.00  0.00    -0.042 A 
ATOM     42  C   UNL     1    -100.067  26.011 -27.588  1.00  0.00     0.054 A 
ATOM     43  C   UNL     1     -99.610  27.130 -25.487  1.00  0.00     0.008 A 
ATOM     44  C   UNL     1    -101.340  25.648 -27.121  1.00  0.00     0.157 A 
ATOM     45  C   UNL     1    -100.875  26.764 -25.019  1.00  0.00     0.050 A 
ATOM     46  C   UNL     1    -101.742  26.023 -25.828  1.00  0.00     0.157 A 
BRANCH  44  47
ATOM     47  O   UNL     1    -102.202  24.920 -27.939  1.00  0.00    -0.504 OA
ATOM     48  H   UNL     1    -103.195  24.856 -27.743  1.00  0.00     0.293 HD
ENDBRANCH  44  47
BRANCH  46  49
ATOM     49  O   UNL     1    -102.999  25.676 -25.334  1.00  0.00    -0.504 OA
ATOM     50  H   UNL     1    -103.360  26.054 -24.464  1.00  0.00     0.293 HD
ENDBRANCH  46  49
ENDBRANCH  40  41
ENDBRANCH  39  40
ENDBRANCH  38  39
ENDBRANCH   3  38
BRANCH   5  51
ATOM     51  C   UNL     1     -94.018  22.948 -30.442  1.00  0.00     0.192 C 
BRANCH  51  52
ATOM     52  O   UNL     1     -93.942  22.154 -29.286  1.00  0.00    -0.394 OA
ATOM     53  H   UNL     1     -94.660  21.471 -29.348  1.00  0.00     0.210 HD
ENDBRANCH  51  52
ENDBRANCH   5  51
TORSDOF 20
ENDMDL
