MODEL 1
REMARK VINA RESULT:    -3.477      0.000      0.000
REMARK INTER + INTRA:          -5.444
REMARK INTER:                  -5.102
REMARK INTRA:                  -0.342
REMARK UNBOUND:                -0.342
REMARK SMILES O=C([O-])CCCCCCCC(=O)[O-]
REMARK SMILES IDX 7 1 6 2 5 3 4 4 2 5 1 6 3 7 8 8 9 9 10 10 11 11 12 12 13 13
REMARK H PARENT
REMARK Flexibility Score: inf
ROOT
ATOM      1  C   UNL     1      37.021  22.116  14.876  1.00  0.00     0.000 C 
ENDROOT
BRANCH   1   2
ATOM      2  C   UNL     1      37.354  22.931  13.614  1.00  0.00     0.000 C 
BRANCH   2   3
ATOM      3  C   UNL     1      36.289  22.881  12.499  1.00  0.00     0.006 C 
BRANCH   3   4
ATOM      4  C   UNL     1      36.859  22.757  11.077  1.00  0.00     0.053 C 
BRANCH   4   5
ATOM      5  C   UNL     1      36.242  21.618  10.325  1.00  0.00     0.041 C 
ATOM      6  O   UNL     1      35.362  20.901  10.869  1.00  0.00    -0.550 OA
ATOM      7  O   UNL     1      36.617  21.370   9.010  1.00  0.00    -0.550 OA
ENDBRANCH   4   5
ENDBRANCH   3   4
ENDBRANCH   2   3
ENDBRANCH   1   2
BRANCH   1   8
ATOM      8  C   UNL     1      36.153  20.882  14.580  1.00  0.00     0.000 C 
BRANCH   8   9
ATOM      9  C   UNL     1      35.781  20.103  15.852  1.00  0.00     0.006 C 
BRANCH   9  10
ATOM     10  C   UNL     1      34.265  20.023  16.076  1.00  0.00     0.053 C 
BRANCH  10  11
ATOM     11  C   UNL     1      33.721  18.750  15.510  1.00  0.00     0.041 C 
ATOM     12  O   UNL     1      33.608  18.606  14.265  1.00  0.00    -0.550 OA
ATOM     13  O   UNL     1      33.292  17.739  16.361  1.00  0.00    -0.550 OA
ENDBRANCH  10  11
ENDBRANCH   9  10
ENDBRANCH   8   9
ENDBRANCH   1   8
TORSDOF 8
ENDMDL
MODEL 2
REMARK VINA RESULT:    -3.345     14.512     15.740
REMARK INTER + INTRA:          -5.252
REMARK INTER:                  -4.769
REMARK INTRA:                  -0.483
REMARK UNBOUND:                -0.342
REMARK SMILES O=C([O-])CCCCCCCC(=O)[O-]
REMARK SMILES IDX 7 1 6 2 5 3 4 4 2 5 1 6 3 7 8 8 9 9 10 10 11 11 12 12 13 13
REMARK H PARENT
REMARK Flexibility Score: inf
ROOT
ATOM      1  C   UNL     1      51.902  20.748  15.204  1.00  0.00     0.000 C 
ENDROOT
BRANCH   1   2
ATOM      2  C   UNL     1      50.535  21.068  14.573  1.00  0.00     0.000 C 
BRANCH   2   3
ATOM      3  C   UNL     1      49.447  21.532  15.562  1.00  0.00     0.006 C 
BRANCH   3   4
ATOM      4  C   UNL     1      48.119  20.767  15.456  1.00  0.00     0.053 C 
BRANCH   4   5
ATOM      5  C   UNL     1      47.061  21.355  16.337  1.00  0.00     0.041 C 
ATOM      6  O   UNL     1      45.843  21.177  16.072  1.00  0.00    -0.550 OA
ATOM      7  O   UNL     1      47.421  22.073  17.471  1.00  0.00    -0.550 OA
ENDBRANCH   4   5
ENDBRANCH   3   4
ENDBRANCH   2   3
ENDBRANCH   1   2
BRANCH   1   8
ATOM      8  C   UNL     1      52.862  21.950  15.194  1.00  0.00     0.000 C 
BRANCH   8   9
ATOM      9  C   UNL     1      52.823  22.746  16.508  1.00  0.00     0.006 C 
BRANCH   9  10
ATOM     10  C   UNL     1      52.916  21.847  17.748  1.00  0.00     0.053 C 
BRANCH  10  11
ATOM     11  C   UNL     1      51.899  22.255  18.766  1.00  0.00     0.041 C 
ATOM     12  O   UNL     1      52.009  21.876  19.961  1.00  0.00    -0.550 OA
ATOM     13  O   UNL     1      50.800  23.014  18.383  1.00  0.00    -0.550 OA
ENDBRANCH  10  11
ENDBRANCH   9  10
ENDBRANCH   8   9
ENDBRANCH   1   8
TORSDOF 8
ENDMDL
MODEL 3
REMARK VINA RESULT:    -3.284      2.927      5.203
REMARK INTER + INTRA:          -5.162
REMARK INTER:                  -4.627
REMARK INTRA:                  -0.535
REMARK UNBOUND:                -0.342
REMARK SMILES O=C([O-])CCCCCCCC(=O)[O-]
REMARK SMILES IDX 7 1 6 2 5 3 4 4 2 5 1 6 3 7 8 8 9 9 10 10 11 11 12 12 13 13
REMARK H PARENT
REMARK Flexibility Score: inf
ROOT
ATOM      1  C   UNL     1      34.157  20.509  14.056  1.00  0.00     0.000 C 
ENDROOT
BRANCH   1   2
ATOM      2  C   UNL     1      35.132  19.864  15.057  1.00  0.00     0.000 C 
BRANCH   2   3
ATOM      3  C   UNL     1      36.278  20.776  15.540  1.00  0.00     0.006 C 
BRANCH   3   4
ATOM      4  C   UNL     1      36.330  22.152  14.857  1.00  0.00     0.053 C 
BRANCH   4   5
ATOM      5  C   UNL     1      37.682  22.441  14.283  1.00  0.00     0.041 C 
ATOM      6  O   UNL     1      37.792  23.122  13.229  1.00  0.00    -0.550 OA
ATOM      7  O   UNL     1      38.824  21.987  14.931  1.00  0.00    -0.550 OA
ENDBRANCH   4   5
ENDBRANCH   3   4
ENDBRANCH   2   3
ENDBRANCH   1   2
BRANCH   1   8
ATOM      8  C   UNL     1      34.223  19.869  12.659  1.00  0.00     0.000 C 
BRANCH   8   9
ATOM      9  C   UNL     1      34.189  20.913  11.531  1.00  0.00     0.006 C 
BRANCH   9  10
ATOM     10  C   UNL     1      35.582  21.456  11.185  1.00  0.00     0.053 C 
BRANCH  10  11
ATOM     11  C   UNL     1      35.833  21.348   9.715  1.00  0.00     0.041 C 
ATOM     12  O   UNL     1      36.839  20.723   9.288  1.00  0.00    -0.550 OA
ATOM     13  O   UNL     1      34.983  21.981   8.816  1.00  0.00    -0.550 OA
ENDBRANCH  10  11
ENDBRANCH   9  10
ENDBRANCH   8   9
ENDBRANCH   1   8
TORSDOF 8
ENDMDL
MODEL 4
REMARK VINA RESULT:    -3.256      1.032      5.816
REMARK INTER + INTRA:          -5.121
REMARK INTER:                  -4.729
REMARK INTRA:                  -0.392
REMARK UNBOUND:                -0.342
REMARK SMILES O=C([O-])CCCCCCCC(=O)[O-]
REMARK SMILES IDX 7 1 6 2 5 3 4 4 2 5 1 6 3 7 8 8 9 9 10 10 11 11 12 12 13 13
REMARK H PARENT
REMARK Flexibility Score: inf
ROOT
ATOM      1  C   UNL     1      35.461  21.172  13.532  1.00  0.00     0.000 C 
ENDROOT
BRANCH   1   2
ATOM      2  C   UNL     1      36.212  20.846  14.836  1.00  0.00     0.000 C 
BRANCH   2   3
ATOM      3  C   UNL     1      35.375  20.128  15.914  1.00  0.00     0.006 C 
BRANCH   3   4
ATOM      4  C   UNL     1      33.869  20.063  15.615  1.00  0.00     0.053 C 
BRANCH   4   5
ATOM      5  C   UNL     1      33.422  18.673  15.286  1.00  0.00     0.041 C 
ATOM      6  O   UNL     1      33.227  18.336  14.088  1.00  0.00    -0.550 OA
ATOM      7  O   UNL     1      33.253  17.738  16.300  1.00  0.00    -0.550 OA
ENDBRANCH   4   5
ENDBRANCH   3   4
ENDBRANCH   2   3
ENDBRANCH   1   2
BRANCH   1   8
ATOM      8  C   UNL     1      35.485  22.671  13.187  1.00  0.00     0.000 C 
BRANCH   8   9
ATOM      9  C   UNL     1      35.380  22.929  11.675  1.00  0.00     0.006 C 
BRANCH   9  10
ATOM     10  C   UNL     1      36.591  22.397  10.898  1.00  0.00     0.053 C 
BRANCH  10  11
ATOM     11  C   UNL     1      36.143  21.609   9.709  1.00  0.00     0.041 C 
ATOM     12  O   UNL     1      36.865  20.686   9.250  1.00  0.00    -0.550 OA
ATOM     13  O   UNL     1      34.947  21.926   9.075  1.00  0.00    -0.550 OA
ENDBRANCH  10  11
ENDBRANCH   9  10
ENDBRANCH   8   9
ENDBRANCH   1   8
TORSDOF 8
ENDMDL
MODEL 5
REMARK VINA RESULT:    -3.243      2.440      3.629
REMARK INTER + INTRA:          -5.101
REMARK INTER:                  -4.267
REMARK INTRA:                  -0.834
REMARK UNBOUND:                -0.342
REMARK SMILES O=C([O-])CCCCCCCC(=O)[O-]
REMARK SMILES IDX 7 1 6 2 5 3 4 4 2 5 1 6 3 7 8 8 9 9 10 10 11 11 12 12 13 13
REMARK H PARENT
REMARK Flexibility Score: inf
ROOT
ATOM      1  C   UNL     1      33.918  19.332  14.270  1.00  0.00     0.000 C 
ENDROOT
BRANCH   1   2
ATOM      2  C   UNL     1      33.055  20.475  13.706  1.00  0.00     0.000 C 
BRANCH   2   3
ATOM      3  C   UNL     1      33.712  21.299  12.579  1.00  0.00     0.006 C 
BRANCH   3   4
ATOM      4  C   UNL     1      34.901  20.609  11.894  1.00  0.00     0.053 C 
BRANCH   4   5
ATOM      5  C   UNL     1      35.590  21.515  10.920  1.00  0.00     0.041 C 
ATOM      6  O   UNL     1      35.185  21.593   9.731  1.00  0.00    -0.550 OA
ATOM      7  O   UNL     1      36.659  22.299  11.337  1.00  0.00    -0.550 OA
ENDBRANCH   4   5
ENDBRANCH   3   4
ENDBRANCH   2   3
ENDBRANCH   1   2
BRANCH   1   8
ATOM      8  C   UNL     1      34.124  19.433  15.791  1.00  0.00     0.000 C 
BRANCH   8   9
ATOM      9  C   UNL     1      35.203  20.459  16.173  1.00  0.00     0.006 C 
BRANCH   9  10
ATOM     10  C   UNL     1      36.451  20.364  15.286  1.00  0.00     0.053 C 
BRANCH  10  11
ATOM     11  C   UNL     1      36.950  21.731  14.939  1.00  0.00     0.041 C 
ATOM     12  O   UNL     1      36.136  22.659  14.690  1.00  0.00    -0.550 OA
ATOM     13  O   UNL     1      38.315  21.969  14.842  1.00  0.00    -0.550 OA
ENDBRANCH  10  11
ENDBRANCH   9  10
ENDBRANCH   8   9
ENDBRANCH   1   8
TORSDOF 8
ENDMDL
MODEL 6
REMARK VINA RESULT:    -3.058     14.479     15.565
REMARK INTER + INTRA:          -4.830
REMARK INTER:                  -4.292
REMARK INTRA:                  -0.538
REMARK UNBOUND:                -0.342
REMARK SMILES O=C([O-])CCCCCCCC(=O)[O-]
REMARK SMILES IDX 7 1 6 2 5 3 4 4 2 5 1 6 3 7 8 8 9 9 10 10 11 11 12 12 13 13
REMARK H PARENT
REMARK Flexibility Score: inf
ROOT
ATOM      1  C   UNL     1      48.303  20.869  15.619  1.00  0.00     0.000 C 
ENDROOT
BRANCH   1   2
ATOM      2  C   UNL     1      49.649  21.526  15.264  1.00  0.00     0.000 C 
BRANCH   2   3
ATOM      3  C   UNL     1      50.763  20.550  14.835  1.00  0.00     0.006 C 
BRANCH   3   4
ATOM      4  C   UNL     1      52.112  21.218  14.524  1.00  0.00     0.053 C 
BRANCH   4   5
ATOM      5  C   UNL     1      52.788  21.719  15.763  1.00  0.00     0.041 C 
ATOM      6  O   UNL     1      53.026  22.948  15.902  1.00  0.00    -0.550 OA
ATOM      7  O   UNL     1      53.125  20.833  16.778  1.00  0.00    -0.550 OA
ENDBRANCH   4   5
ENDBRANCH   3   4
ENDBRANCH   2   3
ENDBRANCH   1   2
BRANCH   1   8
ATOM      8  C   UNL     1      47.389  21.787  16.450  1.00  0.00     0.000 C 
BRANCH   8   9
ATOM      9  C   UNL     1      48.160  22.936  17.120  1.00  0.00     0.006 C 
BRANCH   9  10
ATOM     10  C   UNL     1      48.153  22.840  18.651  1.00  0.00     0.053 C 
BRANCH  10  11
ATOM     11  C   UNL     1      49.535  22.588  19.164  1.00  0.00     0.041 C 
ATOM     12  O   UNL     1      49.712  22.209  20.351  1.00  0.00    -0.550 OA
ATOM     13  O   UNL     1      50.633  22.818  18.345  1.00  0.00    -0.550 OA
ENDBRANCH  10  11
ENDBRANCH   9  10
ENDBRANCH   8   9
ENDBRANCH   1   8
TORSDOF 8
ENDMDL
MODEL 7
REMARK VINA RESULT:    -3.048      1.832      6.088
REMARK INTER + INTRA:          -4.815
REMARK INTER:                  -4.221
REMARK INTRA:                  -0.594
REMARK UNBOUND:                -0.342
REMARK SMILES O=C([O-])CCCCCCCC(=O)[O-]
REMARK SMILES IDX 7 1 6 2 5 3 4 4 2 5 1 6 3 7 8 8 9 9 10 10 11 11 12 12 13 13
REMARK H PARENT
REMARK Flexibility Score: inf
ROOT
ATOM      1  C   UNL     1      34.146  22.348  13.113  1.00  0.00     0.000 C 
ENDROOT
BRANCH   1   2
ATOM      2  C   UNL     1      33.259  21.144  13.480  1.00  0.00     0.000 C 
BRANCH   2   3
ATOM      3  C   UNL     1      33.951  19.768  13.393  1.00  0.00     0.006 C 
BRANCH   3   4
ATOM      4  C   UNL     1      33.875  18.933  14.681  1.00  0.00     0.053 C 
BRANCH   4   5
ATOM      5  C   UNL     1      34.528  19.626  15.838  1.00  0.00     0.041 C 
ATOM      6  O   UNL     1      35.773  19.815  15.843  1.00  0.00    -0.550 OA
ATOM      7  O   UNL     1      33.755  20.093  16.894  1.00  0.00    -0.550 OA
ENDBRANCH   4   5
ENDBRANCH   3   4
ENDBRANCH   2   3
ENDBRANCH   1   2
BRANCH   1   8
ATOM      8  C   UNL     1      35.637  21.986  13.017  1.00  0.00     0.000 C 
BRANCH   8   9
ATOM      9  C   UNL     1      36.274  22.454  11.699  1.00  0.00     0.006 C 
BRANCH   9  10
ATOM     10  C   UNL     1      35.364  22.218  10.485  1.00  0.00     0.053 C 
BRANCH  10  11
ATOM     11  C   UNL     1      36.185  21.954   9.263  1.00  0.00     0.041 C 
ATOM     12  O   UNL     1      36.904  20.924   9.192  1.00  0.00    -0.550 OA
ATOM     13  O   UNL     1      36.194  22.872   8.220  1.00  0.00    -0.550 OA
ENDBRANCH  10  11
ENDBRANCH   9  10
ENDBRANCH   8   9
ENDBRANCH   1   8
TORSDOF 8
ENDMDL
MODEL 8
REMARK VINA RESULT:    -2.988      1.949      5.953
REMARK INTER + INTRA:          -4.727
REMARK INTER:                  -4.199
REMARK INTRA:                  -0.528
REMARK UNBOUND:                -0.342
REMARK SMILES O=C([O-])CCCCCCCC(=O)[O-]
REMARK SMILES IDX 7 1 6 2 5 3 4 4 2 5 1 6 3 7 8 8 9 9 10 10 11 11 12 12 13 13
REMARK H PARENT
REMARK Flexibility Score: inf
ROOT
ATOM      1  C   UNL     1      34.179  20.372  12.386  1.00  0.00     0.000 C 
ENDROOT
BRANCH   1   2
ATOM      2  C   UNL     1      34.183  21.433  13.501  1.00  0.00     0.000 C 
BRANCH   2   3
ATOM      3  C   UNL     1      35.480  21.507  14.333  1.00  0.00     0.006 C 
BRANCH   3   4
ATOM      4  C   UNL     1      35.846  20.206  15.063  1.00  0.00     0.053 C 
BRANCH   4   5
ATOM      5  C   UNL     1      34.740  19.734  15.955  1.00  0.00     0.041 C 
ATOM      6  O   UNL     1      34.116  18.674  15.685  1.00  0.00    -0.550 OA
ATOM      7  O   UNL     1      34.421  20.448  17.104  1.00  0.00    -0.550 OA
ENDBRANCH   4   5
ENDBRANCH   3   4
ENDBRANCH   2   3
ENDBRANCH   1   2
BRANCH   1   8
ATOM      8  C   UNL     1      33.476  20.852  11.106  1.00  0.00     0.000 C 
BRANCH   8   9
ATOM      9  C   UNL     1      34.008  22.208  10.615  1.00  0.00     0.006 C 
BRANCH   9  10
ATOM     10  C   UNL     1      34.924  22.078   9.391  1.00  0.00     0.053 C 
BRANCH  10  11
ATOM     11  C   UNL     1      36.314  21.725   9.815  1.00  0.00     0.041 C 
ATOM     12  O   UNL     1      36.887  22.385  10.720  1.00  0.00    -0.550 OA
ATOM     13  O   UNL     1      36.996  20.696   9.177  1.00  0.00    -0.550 OA
ENDBRANCH  10  11
ENDBRANCH   9  10
ENDBRANCH   8   9
ENDBRANCH   1   8
TORSDOF 8
ENDMDL
MODEL 9
REMARK VINA RESULT:    -2.978      2.206      3.176
REMARK INTER + INTRA:          -4.712
REMARK INTER:                  -4.281
REMARK INTRA:                  -0.430
REMARK UNBOUND:                -0.342
REMARK SMILES O=C([O-])CCCCCCCC(=O)[O-]
REMARK SMILES IDX 7 1 6 2 5 3 4 4 2 5 1 6 3 7 8 8 9 9 10 10 11 11 12 12 13 13
REMARK H PARENT
REMARK Flexibility Score: inf
ROOT
ATOM      1  C   UNL     1      33.771  19.633  12.546  1.00  0.00     0.000 C 
ENDROOT
BRANCH   1   2
ATOM      2  C   UNL     1      33.233  20.595  11.472  1.00  0.00     0.000 C 
BRANCH   2   3
ATOM      3  C   UNL     1      34.098  21.847  11.219  1.00  0.00     0.006 C 
BRANCH   3   4
ATOM      4  C   UNL     1      35.593  21.560  11.013  1.00  0.00     0.053 C 
BRANCH   4   5
ATOM      5  C   UNL     1      35.949  21.458   9.562  1.00  0.00     0.041 C 
ATOM      6  O   UNL     1      37.001  20.864   9.207  1.00  0.00    -0.550 OA
ATOM      7  O   UNL     1      35.101  21.991   8.599  1.00  0.00    -0.550 OA
ENDBRANCH   4   5
ENDBRANCH   3   4
ENDBRANCH   2   3
ENDBRANCH   1   2
BRANCH   1   8
ATOM      8  C   UNL     1      32.881  19.576  13.799  1.00  0.00     0.000 C 
BRANCH   8   9
ATOM      9  C   UNL     1      33.611  18.982  15.014  1.00  0.00     0.006 C 
BRANCH   9  10
ATOM     10  C   UNL     1      34.086  20.056  16.003  1.00  0.00     0.053 C 
BRANCH  10  11
ATOM     11  C   UNL     1      35.446  20.548  15.623  1.00  0.00     0.041 C 
ATOM     12  O   UNL     1      36.475  19.986  16.080  1.00  0.00    -0.550 OA
ATOM     13  O   UNL     1      35.578  21.661  14.801  1.00  0.00    -0.550 OA
ENDBRANCH  10  11
ENDBRANCH   9  10
ENDBRANCH   8   9
ENDBRANCH   1   8
TORSDOF 8
ENDMDL
