MODEL 1
REMARK VINA RESULT:    33.725      0.000      0.000
REMARK INTER + INTRA:          47.820
REMARK INTER:                  46.541
REMARK INTRA:                   1.279
REMARK UNBOUND:                 1.279
REMARK SMILES CC[C@@H](CC[C@@H](C)[C@@H]1CC[C@@H]2C3=CC[C@@H]4C[C@H](O)CC[C@]4(C)[C@@H]3CC[C@@]21C)C(C)C
REMARK SMILES IDX 5 1 4 2 3 3 2 4 1 5 28 6 29 7 30 8 6 9 7 10 8 11 9 12 26 13
REMARK SMILES IDX 10 14 11 15 25 16 27 17 12 18 24 19 23 20 13 21 21 22 14 23
REMARK SMILES IDX 15 24 20 25 22 26 16 27 19 28 17 29 18 30
REMARK H PARENT 18 31
REMARK Flexibility Score: inf
ROOT
ATOM      1  C   UNL     1      -1.124  46.344  49.987  1.00  0.00     0.004 C 
ENDROOT
BRANCH   1   2
ATOM      2  C   UNL     1       0.085  47.273  49.716  1.00  0.00     0.004 C 
BRANCH   2   3
ATOM      3  C   UNL     1       0.206  47.820  48.260  1.00  0.00    -0.009 C 
BRANCH   3   4
ATOM      4  C   UNL     1      -1.062  47.467  47.434  1.00  0.00     0.000 C 
ATOM      5  C   UNL     1      -1.093  48.122  46.052  1.00  0.00     0.004 C 
ENDBRANCH   3   4
BRANCH   3   6
ATOM      6  C   UNL     1       1.532  47.368  47.559  1.00  0.00    -0.014 C 
ATOM      7  C   UNL     1       2.763  48.107  48.105  1.00  0.00     0.007 C 
ATOM      8  C   UNL     1       1.767  45.850  47.592  1.00  0.00     0.007 C 
ENDBRANCH   3   6
ENDBRANCH   2   3
ENDBRANCH   1   2
BRANCH   1   9
ATOM      9  C   UNL     1      -0.835  44.816  50.065  1.00  0.00    -0.011 C 
ATOM     10  C   UNL     1      -1.118  44.203  48.676  1.00  0.00     0.008 C 
BRANCH   9  11
ATOM     11  C   UNL     1       0.587  44.523  50.672  1.00  0.00    -0.002 C 
ATOM     12  C   UNL     1       1.664  45.589  50.452  1.00  0.00     0.005 C 
ATOM     13  C   UNL     1       1.300  43.165  50.401  1.00  0.00    -0.023 C 
ATOM     14  C   UNL     1       2.998  44.895  50.743  1.00  0.00     0.009 C 
ATOM     15  C   UNL     1       2.667  43.433  51.082  1.00  0.00     0.021 C 
ATOM     16  C   UNL     1       1.472  42.855  48.876  1.00  0.00     0.008 C 
ATOM     17  C   UNL     1       0.536  42.015  51.110  1.00  0.00     0.012 C 
ATOM     18  C   UNL     1       3.795  42.490  50.693  1.00  0.00    -0.067 C 
ATOM     19  C   UNL     1       2.828  42.261  48.434  1.00  0.00     0.009 C 
ATOM     20  C   UNL     1       3.588  41.518  49.548  1.00  0.00     0.021 C 
ATOM     21  C   UNL     1       4.908  42.488  51.447  1.00  0.00    -0.027 C 
ATOM     22  C   UNL     1       4.888  40.768  49.041  1.00  0.00    -0.023 C 
ATOM     23  C   UNL     1       6.137  41.722  51.074  1.00  0.00     0.031 C 
ATOM     24  C   UNL     1       5.817  40.459  50.251  1.00  0.00     0.002 C 
ATOM     25  C   UNL     1       5.691  41.608  48.001  1.00  0.00     0.010 C 
ATOM     26  C   UNL     1       4.425  39.421  48.400  1.00  0.00     0.012 C 
ATOM     27  C   UNL     1       7.113  39.725  49.825  1.00  0.00     0.036 C 
ATOM     28  C   UNL     1       6.986  40.934  47.510  1.00  0.00     0.032 C 
ATOM     29  C   UNL     1       7.883  40.359  48.628  1.00  0.00     0.114 C 
BRANCH  29  30
ATOM     30  O   UNL     1       8.866  41.298  49.007  1.00  0.00    -0.393 OA
ATOM     31  H   UNL     1       8.592  42.202  48.725  1.00  0.00     0.210 HD
ENDBRANCH  29  30
ENDBRANCH   9  11
ENDBRANCH   1   9
TORSDOF 7
ENDMDL
MODEL 2
REMARK VINA RESULT:    35.868      1.479      2.694
REMARK INTER + INTRA:          50.776
REMARK INTER:                  48.246
REMARK INTRA:                   2.530
REMARK UNBOUND:                 1.279
REMARK SMILES CC[C@@H](CC[C@@H](C)[C@@H]1CC[C@@H]2C3=CC[C@@H]4C[C@H](O)CC[C@]4(C)[C@@H]3CC[C@@]21C)C(C)C
REMARK SMILES IDX 5 1 4 2 3 3 2 4 1 5 28 6 29 7 30 8 6 9 7 10 8 11 9 12 26 13
REMARK SMILES IDX 10 14 11 15 25 16 27 17 12 18 24 19 23 20 13 21 21 22 14 23
REMARK SMILES IDX 15 24 20 25 22 26 16 27 19 28 17 29 18 30
REMARK H PARENT 18 31
REMARK Flexibility Score: inf
ROOT
ATOM      1  C   UNL     1       0.577  47.261  50.598  1.00  0.00     0.004 C 
ENDROOT
BRANCH   1   2
ATOM      2  C   UNL     1      -0.577  47.707  49.666  1.00  0.00     0.004 C 
BRANCH   2   3
ATOM      3  C   UNL     1      -0.159  48.124  48.223  1.00  0.00    -0.009 C 
BRANCH   3   4
ATOM      4  C   UNL     1      -0.985  47.343  47.164  1.00  0.00     0.000 C 
ATOM      5  C   UNL     1      -1.069  48.050  45.810  1.00  0.00     0.004 C 
ENDBRANCH   3   4
BRANCH   3   6
ATOM      6  C   UNL     1       1.386  48.011  47.991  1.00  0.00    -0.014 C 
ATOM      7  C   UNL     1       2.184  48.123  49.299  1.00  0.00     0.007 C 
ATOM      8  C   UNL     1       1.808  46.751  47.220  1.00  0.00     0.007 C 
ENDBRANCH   3   6
ENDBRANCH   2   3
ENDBRANCH   1   2
BRANCH   1   9
ATOM      9  C   UNL     1       0.331  45.992  51.466  1.00  0.00    -0.011 C 
ATOM     10  C   UNL     1      -1.099  46.076  52.044  1.00  0.00     0.008 C 
BRANCH   9  11
ATOM     11  C   UNL     1       0.682  44.673  50.682  1.00  0.00    -0.002 C 
ATOM     12  C   UNL     1       0.036  43.379  51.185  1.00  0.00     0.005 C 
ATOM     13  C   UNL     1       2.164  44.298  50.386  1.00  0.00    -0.023 C 
ATOM     14  C   UNL     1       0.847  42.242  50.557  1.00  0.00     0.009 C 
ATOM     15  C   UNL     1       1.969  42.902  49.741  1.00  0.00     0.021 C 
ATOM     16  C   UNL     1       3.046  44.213  51.677  1.00  0.00     0.008 C 
ATOM     17  C   UNL     1       2.772  45.304  49.373  1.00  0.00     0.012 C 
ATOM     18  C   UNL     1       3.211  42.027  49.671  1.00  0.00    -0.067 C 
ATOM     19  C   UNL     1       4.043  43.036  51.763  1.00  0.00     0.009 C 
ATOM     20  C   UNL     1       4.467  42.462  50.399  1.00  0.00     0.021 C 
ATOM     21  C   UNL     1       3.177  40.940  48.880  1.00  0.00    -0.027 C 
ATOM     22  C   UNL     1       5.617  41.376  50.495  1.00  0.00    -0.023 C 
ATOM     23  C   UNL     1       4.275  39.925  48.851  1.00  0.00     0.031 C 
ATOM     24  C   UNL     1       5.650  40.536  49.184  1.00  0.00     0.002 C 
ATOM     25  C   UNL     1       5.419  40.406  51.700  1.00  0.00     0.010 C 
ATOM     26  C   UNL     1       6.968  42.144  50.641  1.00  0.00     0.012 C 
ATOM     27  C   UNL     1       6.755  39.450  49.211  1.00  0.00     0.036 C 
ATOM     28  C   UNL     1       6.492  39.308  51.809  1.00  0.00     0.032 C 
ATOM     29  C   UNL     1       6.793  38.562  50.490  1.00  0.00     0.114 C 
BRANCH  29  30
ATOM     30  O   UNL     1       6.021  37.385  50.399  1.00  0.00    -0.393 OA
ATOM     31  H   UNL     1       6.602  36.594  50.489  1.00  0.00     0.210 HD
ENDBRANCH  29  30
ENDBRANCH   9  11
ENDBRANCH   1   9
TORSDOF 7
ENDMDL
