MODEL 1
REMARK VINA RESULT:    -5.712      0.000      0.000
REMARK INTER + INTRA:          -7.010
REMARK INTER:                  -6.714
REMARK INTRA:                  -0.296
REMARK UNBOUND:                -0.296
REMARK SMILES O=c1cc(-c2ccc(O)c(O)c2)oc2cc(O)cc(O)c12
REMARK SMILES IDX 4 1 3 2 2 3 1 4 21 5 19 6 18 7 16 8 15 9 14 10 13 11 5 12
REMARK SMILES IDX 6 13 7 14 8 15 12 16 10 17 9 18 11 20 20 22 17 24
REMARK H PARENT 9 19 11 21 20 23 17 25
REMARK Flexibility Score: inf
ROOT
ATOM      1  C   UNL     1      19.105  15.636  52.883  1.00  0.00     0.138 A 
ATOM      2  C   UNL     1      18.590  16.175  51.695  1.00  0.00     0.100 A 
ATOM      3  C   UNL     1      17.232  16.032  51.406  1.00  0.00     0.197 A 
ATOM      4  O   UNL     1      16.811  16.472  50.304  1.00  0.00    -0.289 OA
ATOM      5  C   UNL     1      16.382  15.374  52.326  1.00  0.00     0.107 A 
ATOM      6  C   UNL     1      14.975  15.206  52.154  1.00  0.00     0.134 A 
ATOM      7  C   UNL     1      14.255  14.436  53.076  1.00  0.00     0.093 A 
ATOM      8  C   UNL     1      14.878  13.879  54.191  1.00  0.00     0.123 A 
ATOM      9  C   UNL     1      16.243  14.082  54.398  1.00  0.00     0.094 A 
ATOM     10  C   UNL     1      16.996  14.817  53.478  1.00  0.00     0.146 A 
ATOM     11  O   UNL     1      18.296  14.976  53.703  1.00  0.00    -0.456 OA
ENDROOT
BRANCH   1  12
ATOM     12  C   UNL     1      20.541  15.760  53.241  1.00  0.00     0.021 A 
ATOM     13  C   UNL     1      21.038  15.061  54.355  1.00  0.00     0.016 A 
ATOM     14  C   UNL     1      22.383  15.166  54.718  1.00  0.00     0.051 A 
ATOM     15  C   UNL     1      23.252  15.980  53.980  1.00  0.00     0.157 A 
ATOM     16  C   UNL     1      21.418  16.587  52.511  1.00  0.00     0.062 A 
ATOM     17  C   UNL     1      22.768  16.694  52.878  1.00  0.00     0.158 A 
BRANCH  15  18
ATOM     18  O   UNL     1      24.594  16.086  54.338  1.00  0.00    -0.504 OA
ATOM     19  H   UNL     1      24.978  16.948  54.708  1.00  0.00     0.293 HD
ENDBRANCH  15  18
BRANCH  17  20
ATOM     20  O   UNL     1      23.633  17.512  52.153  1.00  0.00    -0.504 OA
ATOM     21  H   UNL     1      24.621  17.566  52.373  1.00  0.00     0.293 HD
ENDBRANCH  17  20
ENDBRANCH   1  12
BRANCH   6  22
ATOM     22  O   UNL     1      14.239  15.791  51.119  1.00  0.00    -0.507 OA
ATOM     23  H   UNL     1      13.431  16.380  51.249  1.00  0.00     0.293 HD
ENDBRANCH   6  22
BRANCH   8  24
ATOM     24  O   UNL     1      14.127  13.130  55.096  1.00  0.00    -0.508 OA
ATOM     25  H   UNL     1      14.034  13.408  56.066  1.00  0.00     0.293 HD
ENDBRANCH   8  24
TORSDOF 5
ENDMDL
MODEL 2
REMARK VINA RESULT:    -4.975      1.460      7.580
REMARK INTER + INTRA:          -6.143
REMARK INTER:                  -5.853
REMARK INTRA:                  -0.290
REMARK UNBOUND:                -0.296
REMARK SMILES O=c1cc(-c2ccc(O)c(O)c2)oc2cc(O)cc(O)c12
REMARK SMILES IDX 4 1 3 2 2 3 1 4 21 5 19 6 18 7 16 8 15 9 14 10 13 11 5 12
REMARK SMILES IDX 6 13 7 14 8 15 12 16 10 17 9 18 11 20 20 22 17 24
REMARK H PARENT 9 19 11 21 20 23 17 25
REMARK Flexibility Score: inf
ROOT
ATOM      1  C   UNL     1      19.576  15.865  52.904  1.00  0.00     0.138 A 
ATOM      2  C   UNL     1      20.151  15.054  53.893  1.00  0.00     0.100 A 
ATOM      3  C   UNL     1      21.506  15.193  54.197  1.00  0.00     0.197 A 
ATOM      4  O   UNL     1      22.007  14.408  55.044  1.00  0.00    -0.289 OA
ATOM      5  C   UNL     1      22.280  16.170  53.528  1.00  0.00     0.107 A 
ATOM      6  C   UNL     1      23.661  16.427  53.785  1.00  0.00     0.134 A 
ATOM      7  C   UNL     1      24.354  17.340  52.979  1.00  0.00     0.093 A 
ATOM      8  C   UNL     1      23.704  18.046  51.968  1.00  0.00     0.123 A 
ATOM      9  C   UNL     1      22.342  17.842  51.743  1.00  0.00     0.094 A 
ATOM     10  C   UNL     1      21.631  16.913  52.507  1.00  0.00     0.146 A 
ATOM     11  O   UNL     1      20.339  16.737  52.253  1.00  0.00    -0.456 OA
ENDROOT
BRANCH   1  12
ATOM     12  C   UNL     1      18.140  15.761  52.542  1.00  0.00     0.021 A 
ATOM     13  C   UNL     1      17.718  16.162  51.262  1.00  0.00     0.016 A 
ATOM     14  C   UNL     1      16.372  16.081  50.899  1.00  0.00     0.051 A 
ATOM     15  C   UNL     1      15.422  15.607  51.812  1.00  0.00     0.157 A 
ATOM     16  C   UNL     1      17.176  15.297  53.460  1.00  0.00     0.062 A 
ATOM     17  C   UNL     1      15.824  15.218  53.095  1.00  0.00     0.158 A 
BRANCH  15  18
ATOM     18  O   UNL     1      14.078  15.524  51.453  1.00  0.00    -0.504 OA
ATOM     19  H   UNL     1      13.790  15.141  50.561  1.00  0.00     0.293 HD
ENDBRANCH  15  18
BRANCH  17  20
ATOM     20  O   UNL     1      14.874  14.758  54.005  1.00  0.00    -0.504 OA
ATOM     21  H   UNL     1      15.104  14.064  54.708  1.00  0.00     0.293 HD
ENDBRANCH  17  20
ENDBRANCH   1  12
BRANCH   6  22
ATOM     22  O   UNL     1      24.385  15.838  54.826  1.00  0.00    -0.507 OA
ATOM     23  H   UNL     1      25.302  15.432  54.731  1.00  0.00     0.293 HD
ENDBRANCH   6  22
BRANCH   8  24
ATOM     24  O   UNL     1      24.422  18.957  51.195  1.00  0.00    -0.508 OA
ATOM     25  H   UNL     1      25.427  19.052  51.285  1.00  0.00     0.293 HD
ENDBRANCH   8  24
TORSDOF 5
ENDMDL
MODEL 3
REMARK VINA RESULT:    -3.070      1.270      6.859
REMARK INTER + INTRA:          -3.905
REMARK INTER:                  -3.610
REMARK INTRA:                  -0.295
REMARK UNBOUND:                -0.296
REMARK SMILES O=c1cc(-c2ccc(O)c(O)c2)oc2cc(O)cc(O)c12
REMARK SMILES IDX 4 1 3 2 2 3 1 4 21 5 19 6 18 7 16 8 15 9 14 10 13 11 5 12
REMARK SMILES IDX 6 13 7 14 8 15 12 16 10 17 9 18 11 20 20 22 17 24
REMARK H PARENT 9 19 11 21 20 23 17 25
REMARK Flexibility Score: inf
ROOT
ATOM      1  C   UNL     1      18.592  15.640  52.592  1.00  0.00     0.138 A 
ATOM      2  C   UNL     1      18.918  16.110  51.312  1.00  0.00     0.100 A 
ATOM      3  C   UNL     1      20.246  16.406  51.004  1.00  0.00     0.197 A 
ATOM      4  O   UNL     1      20.499  16.886  49.867  1.00  0.00    -0.289 OA
ATOM      5  C   UNL     1      21.256  16.200  51.973  1.00  0.00     0.107 A 
ATOM      6  C   UNL     1      22.648  16.429  51.757  1.00  0.00     0.134 A 
ATOM      7  C   UNL     1      23.543  16.300  52.827  1.00  0.00     0.093 A 
ATOM      8  C   UNL     1      23.105  15.895  54.087  1.00  0.00     0.123 A 
ATOM      9  C   UNL     1      21.754  15.616  54.296  1.00  0.00     0.094 A 
ATOM     10  C   UNL     1      20.832  15.768  53.258  1.00  0.00     0.146 A 
ATOM     11  O   UNL     1      19.552  15.507  53.500  1.00  0.00    -0.456 OA
ENDROOT
BRANCH   1  12
ATOM     12  C   UNL     1      17.196  15.308  52.973  1.00  0.00     0.021 A 
ATOM     13  C   UNL     1      16.953  14.607  54.166  1.00  0.00     0.016 A 
ATOM     14  C   UNL     1      15.649  14.275  54.545  1.00  0.00     0.051 A 
ATOM     15  C   UNL     1      14.566  14.632  53.731  1.00  0.00     0.157 A 
ATOM     16  C   UNL     1      16.102  15.652  52.153  1.00  0.00     0.062 A 
ATOM     17  C   UNL     1      14.794  15.317  52.532  1.00  0.00     0.158 A 
BRANCH  15  18
ATOM     18  O   UNL     1      13.265  14.304  54.105  1.00  0.00    -0.504 OA
ATOM     19  H   UNL     1      13.076  13.592  54.800  1.00  0.00     0.293 HD
ENDBRANCH  15  18
BRANCH  17  20
ATOM     20  O   UNL     1      13.714  15.660  51.719  1.00  0.00    -0.504 OA
ATOM     21  H   UNL     1      12.775  15.742  52.091  1.00  0.00     0.293 HD
ENDBRANCH  17  20
ENDBRANCH   1  12
BRANCH   6  22
ATOM     22  O   UNL     1      23.203  16.756  50.515  1.00  0.00    -0.507 OA
ATOM     23  H   UNL     1      22.692  16.788  49.647  1.00  0.00     0.293 HD
ENDBRANCH   6  22
BRANCH   8  24
ATOM     24  O   UNL     1      24.026  15.763  55.125  1.00  0.00    -0.508 OA
ATOM     25  H   UNL     1      23.989  14.982  55.770  1.00  0.00     0.293 HD
ENDBRANCH   8  24
TORSDOF 5
ENDMDL
MODEL 4
REMARK VINA RESULT:    -3.058      1.721      3.360
REMARK INTER + INTRA:          -3.891
REMARK INTER:                  -3.628
REMARK INTRA:                  -0.263
REMARK UNBOUND:                -0.296
REMARK SMILES O=c1cc(-c2ccc(O)c(O)c2)oc2cc(O)cc(O)c12
REMARK SMILES IDX 4 1 3 2 2 3 1 4 21 5 19 6 18 7 16 8 15 9 14 10 13 11 5 12
REMARK SMILES IDX 6 13 7 14 8 15 12 16 10 17 9 18 11 20 20 22 17 24
REMARK H PARENT 9 19 11 21 20 23 17 25
REMARK Flexibility Score: inf
ROOT
ATOM      1  C   UNL     1      20.402  16.022  52.449  1.00  0.00     0.138 A 
ATOM      2  C   UNL     1      20.445  15.185  53.573  1.00  0.00     0.100 A 
ATOM      3  C   UNL     1      19.264  14.620  54.057  1.00  0.00     0.197 A 
ATOM      4  O   UNL     1      19.326  13.924  55.105  1.00  0.00    -0.289 OA
ATOM      5  C   UNL     1      18.041  14.871  53.393  1.00  0.00     0.107 A 
ATOM      6  C   UNL     1      16.782  14.316  53.774  1.00  0.00     0.134 A 
ATOM      7  C   UNL     1      15.618  14.727  53.112  1.00  0.00     0.093 A 
ATOM      8  C   UNL     1      15.674  15.624  52.046  1.00  0.00     0.123 A 
ATOM      9  C   UNL     1      16.906  16.132  51.631  1.00  0.00     0.094 A 
ATOM     10  C   UNL     1      18.081  15.768  52.293  1.00  0.00     0.146 A 
ATOM     11  O   UNL     1      19.232  16.284  51.877  1.00  0.00    -0.456 OA
ENDROOT
BRANCH   1  12
ATOM     12  C   UNL     1      21.628  16.647  51.890  1.00  0.00     0.021 A 
ATOM     13  C   UNL     1      22.267  16.052  50.789  1.00  0.00     0.016 A 
ATOM     14  C   UNL     1      23.425  16.616  50.248  1.00  0.00     0.051 A 
ATOM     15  C   UNL     1      23.971  17.779  50.807  1.00  0.00     0.157 A 
ATOM     16  C   UNL     1      22.189  17.810  52.455  1.00  0.00     0.062 A 
ATOM     17  C   UNL     1      23.354  18.374  51.913  1.00  0.00     0.158 A 
BRANCH  15  18
ATOM     18  O   UNL     1      25.125  18.345  50.270  1.00  0.00    -0.504 OA
ATOM     19  H   UNL     1      25.778  18.865  50.845  1.00  0.00     0.293 HD
ENDBRANCH  15  18
BRANCH  17  20
ATOM     20  O   UNL     1      23.906  19.525  52.473  1.00  0.00    -0.504 OA
ATOM     21  H   UNL     1      23.883  19.692  53.473  1.00  0.00     0.293 HD
ENDBRANCH  17  20
ENDBRANCH   1  12
BRANCH   6  22
ATOM     22  O   UNL     1      16.624  13.347  54.770  1.00  0.00    -0.507 OA
ATOM     23  H   UNL     1      16.675  13.525  55.760  1.00  0.00     0.293 HD
ENDBRANCH   6  22
BRANCH   8  24
ATOM     24  O   UNL     1      14.498  16.000  51.401  1.00  0.00    -0.508 OA
ATOM     25  H   UNL     1      14.512  16.444  50.490  1.00  0.00     0.293 HD
ENDBRANCH   8  24
TORSDOF 5
ENDMDL
MODEL 5
REMARK VINA RESULT:    -2.925      1.604      6.864
REMARK INTER + INTRA:          -3.734
REMARK INTER:                  -3.469
REMARK INTRA:                  -0.265
REMARK UNBOUND:                -0.296
REMARK SMILES O=c1cc(-c2ccc(O)c(O)c2)oc2cc(O)cc(O)c12
REMARK SMILES IDX 4 1 3 2 2 3 1 4 21 5 19 6 18 7 16 8 15 9 14 10 13 11 5 12
REMARK SMILES IDX 6 13 7 14 8 15 12 16 10 17 9 18 11 20 20 22 17 24
REMARK H PARENT 9 19 11 21 20 23 17 25
REMARK Flexibility Score: inf
ROOT
ATOM      1  C   UNL     1      18.352  15.326  53.016  1.00  0.00     0.138 A 
ATOM      2  C   UNL     1      18.530  15.881  51.741  1.00  0.00     0.100 A 
ATOM      3  C   UNL     1      19.802  16.296  51.341  1.00  0.00     0.197 A 
ATOM      4  O   UNL     1      19.919  16.849  50.216  1.00  0.00    -0.289 OA
ATOM      5  C   UNL     1      20.904  16.124  52.212  1.00  0.00     0.107 A 
ATOM      6  C   UNL     1      22.251  16.473  51.894  1.00  0.00     0.134 A 
ATOM      7  C   UNL     1      23.242  16.364  52.878  1.00  0.00     0.093 A 
ATOM      8  C   UNL     1      22.946  15.865  54.146  1.00  0.00     0.123 A 
ATOM      9  C   UNL     1      21.643  15.470  54.450  1.00  0.00     0.094 A 
ATOM     10  C   UNL     1      20.625  15.599  53.501  1.00  0.00     0.146 A 
ATOM     11  O   UNL     1      19.394  15.225  53.834  1.00  0.00    -0.456 OA
ENDROOT
BRANCH   1  12
ATOM     12  C   UNL     1      17.023  14.866  53.491  1.00  0.00     0.021 A 
ATOM     13  C   UNL     1      16.241  15.720  54.289  1.00  0.00     0.016 A 
ATOM     14  C   UNL     1      14.990  15.310  54.756  1.00  0.00     0.051 A 
ATOM     15  C   UNL     1      14.502  14.035  54.441  1.00  0.00     0.157 A 
ATOM     16  C   UNL     1      16.531  13.581  53.189  1.00  0.00     0.062 A 
ATOM     17  C   UNL     1      15.276  13.169  53.660  1.00  0.00     0.158 A 
BRANCH  15  18
ATOM     18  O   UNL     1      13.255  13.623  54.903  1.00  0.00    -0.504 OA
ATOM     19  H   UNL     1      12.895  12.697  54.705  1.00  0.00     0.293 HD
ENDBRANCH  15  18
BRANCH  17  20
ATOM     20  O   UNL     1      14.792  11.897  53.358  1.00  0.00    -0.504 OA
ATOM     21  H   UNL     1      13.856  11.758  52.993  1.00  0.00     0.293 HD
ENDBRANCH  17  20
ENDBRANCH   1  12
BRANCH   6  22
ATOM     22  O   UNL     1      22.671  16.902  50.631  1.00  0.00    -0.507 OA
ATOM     23  H   UNL     1      22.063  17.043  49.840  1.00  0.00     0.293 HD
ENDBRANCH   6  22
BRANCH   8  24
ATOM     24  O   UNL     1      23.960  15.756  55.096  1.00  0.00    -0.508 OA
ATOM     25  H   UNL     1      23.915  15.075  55.845  1.00  0.00     0.293 HD
ENDBRANCH   8  24
TORSDOF 5
ENDMDL
