MODEL 1
REMARK VINA RESULT:    -4.338      0.000      0.000
REMARK INTER + INTRA:         -11.249
REMARK INTER:                  -8.395
REMARK INTRA:                  -2.855
REMARK UNBOUND:                -2.855
REMARK SMILES CCCCCCCCCCCCCCCCCC(=O)[O-]
REMARK SMILES IDX 10 1 11 2 12 3 13 4 14 5 15 6 16 7 17 8 18 9 19 10 20 11
REMARK SMILES IDX 9 12 8 13 7 14 6 15 5 16 4 17 3 18 2 19 1 20
REMARK H PARENT
REMARK Flexibility Score: inf
ROOT
ATOM      1  C   UNL     1      18.831 -42.286  25.238  1.00  0.00     0.000 C 
ENDROOT
BRANCH   1   2
ATOM      2  C   UNL     1      17.795 -41.222  24.839  1.00  0.00     0.000 C 
BRANCH   2   3
ATOM      3  C   UNL     1      18.270 -39.793  25.154  1.00  0.00     0.000 C 
BRANCH   3   4
ATOM      4  C   UNL     1      18.559 -39.585  26.651  1.00  0.00     0.000 C 
BRANCH   4   5
ATOM      5  C   UNL     1      17.278 -39.515  27.499  1.00  0.00     0.000 C 
BRANCH   5   6
ATOM      6  C   UNL     1      17.080 -40.766  28.371  1.00  0.00     0.000 C 
BRANCH   6   7
ATOM      7  C   UNL     1      18.223 -40.973  29.376  1.00  0.00     0.006 C 
BRANCH   7   8
ATOM      8  C   UNL     1      19.127 -42.159  29.011  1.00  0.00     0.053 C 
BRANCH   8   9
ATOM      9  C   UNL     1      20.186 -42.347  30.053  1.00  0.00     0.041 C 
ATOM     10  O   UNL     1      21.004 -41.421  30.298  1.00  0.00    -0.550 OA
ATOM     11  O   UNL     1      20.296 -43.560  30.723  1.00  0.00    -0.550 OA
ENDBRANCH   8   9
ENDBRANCH   7   8
ENDBRANCH   6   7
ENDBRANCH   5   6
ENDBRANCH   4   5
ENDBRANCH   3   4
ENDBRANCH   2   3
ENDBRANCH   1   2
BRANCH   1  12
ATOM     12  C   UNL     1      18.197 -43.665  25.488  1.00  0.00     0.000 C 
BRANCH  12  13
ATOM     13  C   UNL     1      16.695 -43.582  25.797  1.00  0.00    -0.000 C 
BRANCH  13  14
ATOM     14  C   UNL     1      16.404 -44.068  27.223  1.00  0.00    -0.000 C 
BRANCH  14  15
ATOM     15  C   UNL     1      17.224 -45.322  27.558  1.00  0.00    -0.000 C 
BRANCH  15  16
ATOM     16  C   UNL     1      17.400 -45.526  29.078  1.00  0.00    -0.000 C 
BRANCH  16  17
ATOM     17  C   UNL     1      16.564 -44.556  29.936  1.00  0.00    -0.000 C 
BRANCH  17  18
ATOM     18  C   UNL     1      16.975 -44.476  31.420  1.00  0.00    -0.000 C 
BRANCH  18  19
ATOM     19  C   UNL     1      16.535 -43.189  32.144  1.00  0.00    -0.003 C 
ATOM     20  C   UNL     1      17.678 -42.508  32.898  1.00  0.00     0.004 C 
ENDBRANCH  18  19
ENDBRANCH  17  18
ENDBRANCH  16  17
ENDBRANCH  15  16
ENDBRANCH  14  15
ENDBRANCH  13  14
ENDBRANCH  12  13
ENDBRANCH   1  12
TORSDOF 16
ENDMDL
MODEL 2
REMARK VINA RESULT:    -4.293      1.993      4.389
REMARK INTER + INTRA:         -11.164
REMARK INTER:                  -9.095
REMARK INTRA:                  -2.068
REMARK UNBOUND:                -2.855
REMARK SMILES CCCCCCCCCCCCCCCCCC(=O)[O-]
REMARK SMILES IDX 10 1 11 2 12 3 13 4 14 5 15 6 16 7 17 8 18 9 19 10 20 11
REMARK SMILES IDX 9 12 8 13 7 14 6 15 5 16 4 17 3 18 2 19 1 20
REMARK H PARENT
REMARK Flexibility Score: inf
ROOT
ATOM      1  C   UNL     1      17.448 -45.352  29.112  1.00  0.00     0.000 C 
ENDROOT
BRANCH   1   2
ATOM      2  C   UNL     1      17.182 -45.502  27.604  1.00  0.00     0.000 C 
BRANCH   2   3
ATOM      3  C   UNL     1      17.037 -44.145  26.895  1.00  0.00     0.000 C 
BRANCH   3   4
ATOM      4  C   UNL     1      17.812 -44.088  25.568  1.00  0.00     0.000 C 
BRANCH   4   5
ATOM      5  C   UNL     1      18.770 -42.888  25.491  1.00  0.00     0.000 C 
BRANCH   5   6
ATOM      6  C   UNL     1      18.037 -41.542  25.613  1.00  0.00     0.000 C 
BRANCH   6   7
ATOM      7  C   UNL     1      18.212 -40.895  26.995  1.00  0.00     0.006 C 
BRANCH   7   8
ATOM      8  C   UNL     1      18.622 -39.418  26.911  1.00  0.00     0.053 C 
BRANCH   8   9
ATOM      9  C   UNL     1      18.947 -38.889  28.274  1.00  0.00     0.041 C 
ATOM     10  O   UNL     1      19.861 -38.034  28.419  1.00  0.00    -0.550 OA
ATOM     11  O   UNL     1      18.269 -39.370  29.388  1.00  0.00    -0.550 OA
ENDBRANCH   8   9
ENDBRANCH   7   8
ENDBRANCH   6   7
ENDBRANCH   5   6
ENDBRANCH   4   5
ENDBRANCH   3   4
ENDBRANCH   2   3
ENDBRANCH   1   2
BRANCH   1  12
ATOM     12  C   UNL     1      17.696 -43.893  29.526  1.00  0.00     0.000 C 
BRANCH  12  13
ATOM     13  C   UNL     1      18.080 -43.751  31.007  1.00  0.00    -0.000 C 
BRANCH  13  14
ATOM     14  C   UNL     1      18.016 -45.108  31.720  1.00  0.00    -0.000 C 
BRANCH  14  15
ATOM     15  C   UNL     1      17.089 -45.046  32.943  1.00  0.00    -0.000 C 
BRANCH  15  16
ATOM     16  C   UNL     1      15.652 -45.505  32.619  1.00  0.00    -0.000 C 
BRANCH  16  17
ATOM     17  C   UNL     1      14.643 -44.347  32.486  1.00  0.00    -0.000 C 
BRANCH  17  18
ATOM     18  C   UNL     1      14.236 -43.997  31.042  1.00  0.00    -0.000 C 
BRANCH  18  19
ATOM     19  C   UNL     1      14.061 -45.209  30.106  1.00  0.00    -0.003 C 
ATOM     20  C   UNL     1      13.641 -44.814  28.690  1.00  0.00     0.004 C 
ENDBRANCH  18  19
ENDBRANCH  17  18
ENDBRANCH  16  17
ENDBRANCH  15  16
ENDBRANCH  14  15
ENDBRANCH  13  14
ENDBRANCH  12  13
ENDBRANCH   1  12
TORSDOF 16
ENDMDL
MODEL 3
REMARK VINA RESULT:    -4.209      2.078      5.703
REMARK INTER + INTRA:         -11.000
REMARK INTER:                  -8.039
REMARK INTRA:                  -2.962
REMARK UNBOUND:                -2.855
REMARK SMILES CCCCCCCCCCCCCCCCCC(=O)[O-]
REMARK SMILES IDX 10 1 11 2 12 3 13 4 14 5 15 6 16 7 17 8 18 9 19 10 20 11
REMARK SMILES IDX 9 12 8 13 7 14 6 15 5 16 4 17 3 18 2 19 1 20
REMARK H PARENT
REMARK Flexibility Score: inf
ROOT
ATOM      1  C   UNL     1      14.648 -43.894  33.122  1.00  0.00     0.000 C 
ENDROOT
BRANCH   1   2
ATOM      2  C   UNL     1      15.246 -45.287  32.859  1.00  0.00     0.000 C 
BRANCH   2   3
ATOM      3  C   UNL     1      16.783 -45.275  32.851  1.00  0.00     0.000 C 
BRANCH   3   4
ATOM      4  C   UNL     1      17.360 -43.854  32.720  1.00  0.00     0.000 C 
BRANCH   4   5
ATOM      5  C   UNL     1      18.802 -43.846  32.185  1.00  0.00     0.000 C 
BRANCH   5   6
ATOM      6  C   UNL     1      18.908 -43.208  30.790  1.00  0.00     0.000 C 
BRANCH   6   7
ATOM      7  C   UNL     1      18.056 -41.937  30.654  1.00  0.00     0.006 C 
BRANCH   7   8
ATOM      8  C   UNL     1      17.562 -41.704  29.220  1.00  0.00     0.053 C 
BRANCH   8   9
ATOM      9  C   UNL     1      18.471 -40.754  28.503  1.00  0.00     0.041 C 
ATOM     10  O   UNL     1      18.403 -40.635  27.251  1.00  0.00    -0.550 OA
ATOM     11  O   UNL     1      19.422 -40.030  29.214  1.00  0.00    -0.550 OA
ENDBRANCH   8   9
ENDBRANCH   7   8
ENDBRANCH   6   7
ENDBRANCH   5   6
ENDBRANCH   4   5
ENDBRANCH   3   4
ENDBRANCH   2   3
ENDBRANCH   1   2
BRANCH   1  12
ATOM     12  C   UNL     1      13.683 -43.445  32.012  1.00  0.00     0.000 C 
BRANCH  12  13
ATOM     13  C   UNL     1      14.362 -42.564  30.953  1.00  0.00    -0.000 C 
BRANCH  13  14
ATOM     14  C   UNL     1      14.147 -43.136  29.546  1.00  0.00    -0.000 C 
BRANCH  14  15
ATOM     15  C   UNL     1      13.813 -44.634  29.605  1.00  0.00    -0.000 C 
BRANCH  15  16
ATOM     16  C   UNL     1      14.800 -45.493  28.786  1.00  0.00    -0.000 C 
BRANCH  16  17
ATOM     17  C   UNL     1      16.274 -45.309  29.198  1.00  0.00    -0.000 C 
BRANCH  17  18
ATOM     18  C   UNL     1      17.271 -45.198  28.027  1.00  0.00    -0.000 C 
BRANCH  18  19
ATOM     19  C   UNL     1      16.733 -44.459  26.787  1.00  0.00    -0.003 C 
ATOM     20  C   UNL     1      17.784 -44.291  25.690  1.00  0.00     0.004 C 
ENDBRANCH  18  19
ENDBRANCH  17  18
ENDBRANCH  16  17
ENDBRANCH  15  16
ENDBRANCH  14  15
ENDBRANCH  13  14
ENDBRANCH  12  13
ENDBRANCH   1  12
TORSDOF 16
ENDMDL
MODEL 4
REMARK VINA RESULT:    -4.206      1.960      3.645
REMARK INTER + INTRA:         -10.996
REMARK INTER:                  -8.337
REMARK INTRA:                  -2.658
REMARK UNBOUND:                -2.855
REMARK SMILES CCCCCCCCCCCCCCCCCC(=O)[O-]
REMARK SMILES IDX 10 1 11 2 12 3 13 4 14 5 15 6 16 7 17 8 18 9 19 10 20 11
REMARK SMILES IDX 9 12 8 13 7 14 6 15 5 16 4 17 3 18 2 19 1 20
REMARK H PARENT
REMARK Flexibility Score: inf
ROOT
ATOM      1  C   UNL     1      16.572 -44.025  27.287  1.00  0.00     0.000 C 
ENDROOT
BRANCH   1   2
ATOM      2  C   UNL     1      16.729 -43.739  25.784  1.00  0.00     0.000 C 
BRANCH   2   3
ATOM      3  C   UNL     1      18.184 -43.879  25.309  1.00  0.00     0.000 C 
BRANCH   3   4
ATOM      4  C   UNL     1      18.971 -42.562  25.425  1.00  0.00     0.000 C 
BRANCH   4   5
ATOM      5  C   UNL     1      18.092 -41.323  25.187  1.00  0.00     0.000 C 
BRANCH   5   6
ATOM      6  C   UNL     1      18.383 -40.194  26.189  1.00  0.00     0.000 C 
BRANCH   6   7
ATOM      7  C   UNL     1      17.176 -39.873  27.085  1.00  0.00     0.006 C 
BRANCH   7   8
ATOM      8  C   UNL     1      17.139 -40.729  28.359  1.00  0.00     0.053 C 
BRANCH   8   9
ATOM      9  C   UNL     1      17.566 -39.919  29.544  1.00  0.00     0.041 C 
ATOM     10  O   UNL     1      17.486 -40.404  30.704  1.00  0.00    -0.550 OA
ATOM     11  O   UNL     1      18.014 -38.615  29.371  1.00  0.00    -0.550 OA
ENDBRANCH   8   9
ENDBRANCH   7   8
ENDBRANCH   6   7
ENDBRANCH   5   6
ENDBRANCH   4   5
ENDBRANCH   3   4
ENDBRANCH   2   3
ENDBRANCH   1   2
BRANCH   1  12
ATOM     12  C   UNL     1      17.079 -45.422  27.680  1.00  0.00     0.000 C 
BRANCH  12  13
ATOM     13  C   UNL     1      17.531 -45.502  29.146  1.00  0.00    -0.000 C 
BRANCH  13  14
ATOM     14  C   UNL     1      17.698 -44.099  29.743  1.00  0.00    -0.000 C 
BRANCH  14  15
ATOM     15  C   UNL     1      16.865 -43.940  31.024  1.00  0.00    -0.000 C 
BRANCH  15  16
ATOM     16  C   UNL     1      15.845 -45.084  31.212  1.00  0.00    -0.000 C 
BRANCH  16  17
ATOM     17  C   UNL     1      14.389 -44.672  30.923  1.00  0.00    -0.000 C 
BRANCH  17  18
ATOM     18  C   UNL     1      13.785 -45.264  29.634  1.00  0.00    -0.000 C 
BRANCH  18  19
ATOM     19  C   UNL     1      13.252 -44.224  28.631  1.00  0.00    -0.003 C 
ATOM     20  C   UNL     1      13.586 -42.786  29.029  1.00  0.00     0.004 C 
ENDBRANCH  18  19
ENDBRANCH  17  18
ENDBRANCH  16  17
ENDBRANCH  15  16
ENDBRANCH  14  15
ENDBRANCH  13  14
ENDBRANCH  12  13
ENDBRANCH   1  12
TORSDOF 16
ENDMDL
MODEL 5
REMARK VINA RESULT:    -4.199      1.281      4.269
REMARK INTER + INTRA:         -10.982
REMARK INTER:                  -8.296
REMARK INTRA:                  -2.686
REMARK UNBOUND:                -2.855
REMARK SMILES CCCCCCCCCCCCCCCCCC(=O)[O-]
REMARK SMILES IDX 10 1 11 2 12 3 13 4 14 5 15 6 16 7 17 8 18 9 19 10 20 11
REMARK SMILES IDX 9 12 8 13 7 14 6 15 5 16 4 17 3 18 2 19 1 20
REMARK H PARENT
REMARK Flexibility Score: inf
ROOT
ATOM      1  C   UNL     1      18.596 -42.154  25.794  1.00  0.00     0.000 C 
ENDROOT
BRANCH   1   2
ATOM      2  C   UNL     1      18.208 -43.629  25.588  1.00  0.00     0.000 C 
BRANCH   2   3
ATOM      3  C   UNL     1      16.890 -43.992  26.291  1.00  0.00     0.000 C 
BRANCH   3   4
ATOM      4  C   UNL     1      17.098 -44.960  27.469  1.00  0.00     0.000 C 
BRANCH   4   5
ATOM      5  C   UNL     1      15.833 -45.131  28.326  1.00  0.00     0.000 C 
BRANCH   5   6
ATOM      6  C   UNL     1      16.142 -45.154  29.833  1.00  0.00     0.000 C 
BRANCH   6   7
ATOM      7  C   UNL     1      17.650 -45.156  30.127  1.00  0.00     0.006 C 
BRANCH   7   8
ATOM      8  C   UNL     1      17.979 -44.667  31.545  1.00  0.00     0.053 C 
BRANCH   8   9
ATOM      9  C   UNL     1      19.442 -44.376  31.670  1.00  0.00     0.041 C 
ATOM     10  O   UNL     1      20.187 -44.428  30.656  1.00  0.00    -0.550 OA
ATOM     11  O   UNL     1      19.990 -44.087  32.915  1.00  0.00    -0.550 OA
ENDBRANCH   8   9
ENDBRANCH   7   8
ENDBRANCH   6   7
ENDBRANCH   5   6
ENDBRANCH   4   5
ENDBRANCH   3   4
ENDBRANCH   2   3
ENDBRANCH   1   2
BRANCH   1  12
ATOM     12  C   UNL     1      18.383 -41.305  24.530  1.00  0.00     0.000 C 
BRANCH  12  13
ATOM     13  C   UNL     1      18.311 -39.799  24.829  1.00  0.00    -0.000 C 
BRANCH  13  14
ATOM     14  C   UNL     1      18.365 -39.540  26.340  1.00  0.00    -0.000 C 
BRANCH  14  15
ATOM     15  C   UNL     1      17.131 -38.754  26.810  1.00  0.00    -0.000 C 
BRANCH  15  16
ATOM     16  C   UNL     1      16.617 -39.228  28.186  1.00  0.00    -0.000 C 
BRANCH  16  17
ATOM     17  C   UNL     1      16.135 -40.692  28.200  1.00  0.00    -0.000 C 
BRANCH  17  18
ATOM     18  C   UNL     1      16.873 -41.615  29.189  1.00  0.00    -0.000 C 
BRANCH  18  19
ATOM     19  C   UNL     1      18.016 -40.942  29.973  1.00  0.00    -0.003 C 
ATOM     20  C   UNL     1      19.402 -41.330  29.458  1.00  0.00     0.004 C 
ENDBRANCH  18  19
ENDBRANCH  17  18
ENDBRANCH  16  17
ENDBRANCH  15  16
ENDBRANCH  14  15
ENDBRANCH  13  14
ENDBRANCH  12  13
ENDBRANCH   1  12
TORSDOF 16
ENDMDL
MODEL 6
REMARK VINA RESULT:    -4.189      2.452      5.246
REMARK INTER + INTRA:         -10.963
REMARK INTER:                  -8.444
REMARK INTRA:                  -2.518
REMARK UNBOUND:                -2.855
REMARK SMILES CCCCCCCCCCCCCCCCCC(=O)[O-]
REMARK SMILES IDX 10 1 11 2 12 3 13 4 14 5 15 6 16 7 17 8 18 9 19 10 20 11
REMARK SMILES IDX 9 12 8 13 7 14 6 15 5 16 4 17 3 18 2 19 1 20
REMARK H PARENT
REMARK Flexibility Score: inf
ROOT
ATOM      1  C   UNL     1      16.846 -44.552  28.954  1.00  0.00     0.000 C 
ENDROOT
BRANCH   1   2
ATOM      2  C   UNL     1      17.755 -45.121  30.057  1.00  0.00     0.000 C 
BRANCH   2   3
ATOM      3  C   UNL     1      19.013 -44.264  30.280  1.00  0.00     0.000 C 
BRANCH   3   4
ATOM      4  C   UNL     1      18.813 -43.198  31.372  1.00  0.00     0.000 C 
BRANCH   4   5
ATOM      5  C   UNL     1      18.222 -43.778  32.667  1.00  0.00     0.000 C 
BRANCH   5   6
ATOM      6  C   UNL     1      17.141 -42.871  33.278  1.00  0.00     0.000 C 
BRANCH   6   7
ATOM      7  C   UNL     1      15.855 -42.835  32.438  1.00  0.00     0.006 C 
BRANCH   7   8
ATOM      8  C   UNL     1      14.757 -43.752  32.993  1.00  0.00     0.053 C 
BRANCH   8   9
ATOM      9  C   UNL     1      14.921 -45.142  32.462  1.00  0.00     0.041 C 
ATOM     10  O   UNL     1      14.518 -45.428  31.302  1.00  0.00    -0.550 OA
ATOM     11  O   UNL     1      15.482 -46.132  33.261  1.00  0.00    -0.550 OA
ENDBRANCH   8   9
ENDBRANCH   7   8
ENDBRANCH   6   7
ENDBRANCH   5   6
ENDBRANCH   4   5
ENDBRANCH   3   4
ENDBRANCH   2   3
ENDBRANCH   1   2
BRANCH   1  12
ATOM     12  C   UNL     1      17.170 -45.126  27.566  1.00  0.00     0.000 C 
BRANCH  12  13
ATOM     13  C   UNL     1      16.881 -44.133  26.429  1.00  0.00    -0.000 C 
BRANCH  13  14
ATOM     14  C   UNL     1      18.031 -44.115  25.414  1.00  0.00    -0.000 C 
BRANCH  14  15
ATOM     15  C   UNL     1      18.786 -42.778  25.457  1.00  0.00    -0.000 C 
BRANCH  15  16
ATOM     16  C   UNL     1      17.842 -41.572  25.648  1.00  0.00    -0.000 C 
BRANCH  16  17
ATOM     17  C   UNL     1      18.295 -40.595  26.751  1.00  0.00    -0.000 C 
BRANCH  17  18
ATOM     18  C   UNL     1      18.345 -41.191  28.172  1.00  0.00    -0.000 C 
BRANCH  18  19
ATOM     19  C   UNL     1      17.099 -40.912  29.034  1.00  0.00    -0.003 C 
ATOM     20  C   UNL     1      17.388 -39.994  30.222  1.00  0.00     0.004 C 
ENDBRANCH  18  19
ENDBRANCH  17  18
ENDBRANCH  16  17
ENDBRANCH  15  16
ENDBRANCH  14  15
ENDBRANCH  13  14
ENDBRANCH  12  13
ENDBRANCH   1  12
TORSDOF 16
ENDMDL
MODEL 7
REMARK VINA RESULT:    -4.184      3.073      5.591
REMARK INTER + INTRA:         -10.951
REMARK INTER:                  -7.940
REMARK INTRA:                  -3.011
REMARK UNBOUND:                -2.855
REMARK SMILES CCCCCCCCCCCCCCCCCC(=O)[O-]
REMARK SMILES IDX 10 1 11 2 12 3 13 4 14 5 15 6 16 7 17 8 18 9 19 10 20 11
REMARK SMILES IDX 9 12 8 13 7 14 6 15 5 16 4 17 3 18 2 19 1 20
REMARK H PARENT
REMARK Flexibility Score: inf
ROOT
ATOM      1  C   UNL     1      16.203 -44.180  27.376  1.00  0.00     0.000 C 
ENDROOT
BRANCH   1   2
ATOM      2  C   UNL     1      17.152 -45.358  27.653  1.00  0.00     0.000 C 
BRANCH   2   3
ATOM      3  C   UNL     1      17.517 -45.481  29.142  1.00  0.00     0.000 C 
BRANCH   3   4
ATOM      4  C   UNL     1      16.364 -45.056  30.067  1.00  0.00     0.000 C 
BRANCH   4   5
ATOM      5  C   UNL     1      16.786 -43.986  31.088  1.00  0.00     0.000 C 
BRANCH   5   6
ATOM      6  C   UNL     1      15.620 -43.070  31.496  1.00  0.00     0.000 C 
BRANCH   6   7
ATOM      7  C   UNL     1      14.365 -43.292  30.637  1.00  0.00     0.006 C 
BRANCH   7   8
ATOM      8  C   UNL     1      14.092 -42.129  29.674  1.00  0.00     0.053 C 
BRANCH   8   9
ATOM      9  C   UNL     1      12.800 -41.457  30.020  1.00  0.00     0.041 C 
ATOM     10  O   UNL     1      12.485 -40.368  29.469  1.00  0.00    -0.550 OA
ATOM     11  O   UNL     1      11.961 -42.012  30.980  1.00  0.00    -0.550 OA
ENDBRANCH   8   9
ENDBRANCH   7   8
ENDBRANCH   6   7
ENDBRANCH   5   6
ENDBRANCH   4   5
ENDBRANCH   3   4
ENDBRANCH   2   3
ENDBRANCH   1   2
BRANCH   1  12
ATOM     12  C   UNL     1      16.586 -43.398  26.109  1.00  0.00     0.000 C 
BRANCH  12  13
ATOM     13  C   UNL     1      17.987 -43.755  25.589  1.00  0.00    -0.000 C 
BRANCH  13  14
ATOM     14  C   UNL     1      18.796 -42.488  25.284  1.00  0.00    -0.000 C 
BRANCH  14  15
ATOM     15  C   UNL     1      17.871 -41.299  24.988  1.00  0.00    -0.000 C 
BRANCH  15  16
ATOM     16  C   UNL     1      18.493 -39.948  25.399  1.00  0.00    -0.000 C 
BRANCH  16  17
ATOM     17  C   UNL     1      18.600 -39.749  26.923  1.00  0.00    -0.000 C 
BRANCH  17  18
ATOM     18  C   UNL     1      17.317 -40.071  27.716  1.00  0.00    -0.000 C 
BRANCH  18  19
ATOM     19  C   UNL     1      17.502 -41.080  28.865  1.00  0.00    -0.003 C 
ATOM     20  C   UNL     1      18.888 -41.726  28.874  1.00  0.00     0.004 C 
ENDBRANCH  18  19
ENDBRANCH  17  18
ENDBRANCH  16  17
ENDBRANCH  15  16
ENDBRANCH  14  15
ENDBRANCH  13  14
ENDBRANCH  12  13
ENDBRANCH   1  12
TORSDOF 16
ENDMDL
MODEL 8
REMARK VINA RESULT:    -4.174      1.683      4.781
REMARK INTER + INTRA:         -10.933
REMARK INTER:                  -8.468
REMARK INTRA:                  -2.464
REMARK UNBOUND:                -2.855
REMARK SMILES CCCCCCCCCCCCCCCCCC(=O)[O-]
REMARK SMILES IDX 10 1 11 2 12 3 13 4 14 5 15 6 16 7 17 8 18 9 19 10 20 11
REMARK SMILES IDX 9 12 8 13 7 14 6 15 5 16 4 17 3 18 2 19 1 20
REMARK H PARENT
REMARK Flexibility Score: inf
ROOT
ATOM      1  C   UNL     1      16.480 -45.218  29.031  1.00  0.00     0.000 C 
ENDROOT
BRANCH   1   2
ATOM      2  C   UNL     1      14.958 -45.438  29.003  1.00  0.00     0.000 C 
BRANCH   2   3
ATOM      3  C   UNL     1      14.175 -44.180  29.413  1.00  0.00     0.000 C 
BRANCH   3   4
ATOM      4  C   UNL     1      13.768 -44.197  30.897  1.00  0.00     0.000 C 
BRANCH   4   5
ATOM      5  C   UNL     1      14.532 -43.158  31.734  1.00  0.00     0.000 C 
BRANCH   5   6
ATOM      6  C   UNL     1      15.275 -43.791  32.922  1.00  0.00     0.000 C 
BRANCH   6   7
ATOM      7  C   UNL     1      16.802 -43.749  32.756  1.00  0.00     0.006 C 
BRANCH   7   8
ATOM      8  C   UNL     1      17.422 -45.145  32.608  1.00  0.00     0.053 C 
BRANCH   8   9
ATOM      9  C   UNL     1      18.889 -45.038  32.329  1.00  0.00     0.041 C 
ATOM     10  O   UNL     1      19.727 -45.375  33.209  1.00  0.00    -0.550 OA
ATOM     11  O   UNL     1      19.332 -44.528  31.114  1.00  0.00    -0.550 OA
ENDBRANCH   8   9
ENDBRANCH   7   8
ENDBRANCH   6   7
ENDBRANCH   5   6
ENDBRANCH   4   5
ENDBRANCH   3   4
ENDBRANCH   2   3
ENDBRANCH   1   2
BRANCH   1  12
ATOM     12  C   UNL     1      17.136 -45.442  27.659  1.00  0.00     0.000 C 
BRANCH  12  13
ATOM     13  C   UNL     1      16.823 -44.319  26.658  1.00  0.00    -0.000 C 
BRANCH  13  14
ATOM     14  C   UNL     1      17.904 -44.237  25.573  1.00  0.00    -0.000 C 
BRANCH  14  15
ATOM     15  C   UNL     1      18.637 -42.888  25.625  1.00  0.00    -0.000 C 
BRANCH  15  16
ATOM     16  C   UNL     1      17.745 -41.751  26.169  1.00  0.00    -0.000 C 
BRANCH  16  17
ATOM     17  C   UNL     1      18.395 -40.943  27.310  1.00  0.00    -0.000 C 
BRANCH  17  18
ATOM     18  C   UNL     1      18.638 -41.730  28.613  1.00  0.00    -0.000 C 
BRANCH  18  19
ATOM     19  C   UNL     1      17.402 -41.878  29.520  1.00  0.00    -0.003 C 
ATOM     20  C   UNL     1      17.277 -40.753  30.547  1.00  0.00     0.004 C 
ENDBRANCH  18  19
ENDBRANCH  17  18
ENDBRANCH  16  17
ENDBRANCH  15  16
ENDBRANCH  14  15
ENDBRANCH  13  14
ENDBRANCH  12  13
ENDBRANCH   1  12
TORSDOF 16
ENDMDL
MODEL 9
REMARK VINA RESULT:    -4.159      2.516      4.600
REMARK INTER + INTRA:         -10.904
REMARK INTER:                  -8.068
REMARK INTRA:                  -2.837
REMARK UNBOUND:                -2.855
REMARK SMILES CCCCCCCCCCCCCCCCCC(=O)[O-]
REMARK SMILES IDX 10 1 11 2 12 3 13 4 14 5 15 6 16 7 17 8 18 9 19 10 20 11
REMARK SMILES IDX 9 12 8 13 7 14 6 15 5 16 4 17 3 18 2 19 1 20
REMARK H PARENT
REMARK Flexibility Score: inf
ROOT
ATOM      1  C   UNL     1      17.711 -41.681  25.292  1.00  0.00     0.000 C 
ENDROOT
BRANCH   1   2
ATOM      2  C   UNL     1      18.599 -42.932  25.412  1.00  0.00     0.000 C 
BRANCH   2   3
ATOM      3  C   UNL     1      17.783 -44.208  25.675  1.00  0.00     0.000 C 
BRANCH   3   4
ATOM      4  C   UNL     1      16.931 -44.109  26.953  1.00  0.00     0.000 C 
BRANCH   4   5
ATOM      5  C   UNL     1      17.296 -45.180  27.994  1.00  0.00     0.000 C 
BRANCH   5   6
ATOM      6  C   UNL     1      16.373 -45.144  29.223  1.00  0.00     0.000 C 
BRANCH   6   7
ATOM      7  C   UNL     1      15.749 -43.759  29.454  1.00  0.00     0.006 C 
BRANCH   7   8
ATOM      8  C   UNL     1      15.584 -43.424  30.943  1.00  0.00     0.053 C 
BRANCH   8   9
ATOM      9  C   UNL     1      14.134 -43.408  31.316  1.00  0.00     0.041 C 
ATOM     10  O   UNL     1      13.744 -42.747  32.315  1.00  0.00    -0.550 OA
ATOM     11  O   UNL     1      13.218 -44.157  30.585  1.00  0.00    -0.550 OA
ENDBRANCH   8   9
ENDBRANCH   7   8
ENDBRANCH   6   7
ENDBRANCH   5   6
ENDBRANCH   4   5
ENDBRANCH   3   4
ENDBRANCH   2   3
ENDBRANCH   1   2
BRANCH   1  12
ATOM     12  C   UNL     1      18.524 -40.377  25.286  1.00  0.00     0.000 C 
BRANCH  12  13
ATOM     13  C   UNL     1      18.500 -39.654  26.642  1.00  0.00    -0.000 C 
BRANCH  13  14
ATOM     14  C   UNL     1      17.224 -39.996  27.421  1.00  0.00    -0.000 C 
BRANCH  14  15
ATOM     15  C   UNL     1      17.546 -40.358  28.878  1.00  0.00    -0.000 C 
BRANCH  15  16
ATOM     16  C   UNL     1      19.022 -40.765  29.075  1.00  0.00    -0.000 C 
BRANCH  16  17
ATOM     17  C   UNL     1      19.225 -42.276  29.302  1.00  0.00    -0.000 C 
BRANCH  17  18
ATOM     18  C   UNL     1      19.203 -42.724  30.776  1.00  0.00    -0.000 C 
BRANCH  18  19
ATOM     19  C   UNL     1      19.786 -44.127  31.035  1.00  0.00    -0.003 C 
ATOM     20  C   UNL     1      18.940 -44.956  32.001  1.00  0.00     0.004 C 
ENDBRANCH  18  19
ENDBRANCH  17  18
ENDBRANCH  16  17
ENDBRANCH  15  16
ENDBRANCH  14  15
ENDBRANCH  13  14
ENDBRANCH  12  13
ENDBRANCH   1  12
TORSDOF 16
ENDMDL
