MODEL 1
REMARK VINA RESULT:    -4.537      0.000      0.000
REMARK INTER + INTRA:          -5.796
REMARK INTER:                  -5.598
REMARK INTRA:                  -0.197
REMARK UNBOUND:                -0.197
REMARK SMILES C=CC[C@H](C)C(=O)CC
REMARK SMILES IDX 4 1 5 2 6 3 7 4 8 5 9 6 3 7 2 8 1 9
REMARK H PARENT
REMARK Flexibility Score: inf
ROOT
ATOM      1  C   UNL     1     -26.902  19.667 -33.564  1.00  0.00     0.057 C 
ATOM      2  C   UNL     1     -27.215  21.119 -33.951  1.00  0.00     0.016 C 
ENDROOT
BRANCH   1   3
ATOM      3  C   UNL     1     -28.010  19.116 -32.693  1.00  0.00     0.135 C 
ATOM      4  O   UNL     1     -27.831  18.078 -32.070  1.00  0.00    -0.299 OA
BRANCH   3   5
ATOM      5  C   UNL     1     -29.338  19.816 -32.584  1.00  0.00     0.072 C 
ATOM      6  C   UNL     1     -30.392  19.111 -33.433  1.00  0.00     0.012 C 
ENDBRANCH   3   5
ENDBRANCH   1   3
BRANCH   1   7
ATOM      7  C   UNL     1     -25.548  19.550 -32.832  1.00  0.00     0.038 C 
BRANCH   7   8
ATOM      8  C   UNL     1     -24.463  20.353 -33.499  1.00  0.00    -0.034 C 
ATOM      9  C   UNL     1     -23.532  21.003 -32.794  1.00  0.00     0.004 C 
ENDBRANCH   7   8
ENDBRANCH   1   7
TORSDOF 4
ENDMDL
MODEL 2
REMARK VINA RESULT:    -4.480      1.571      4.487
REMARK INTER + INTRA:          -5.725
REMARK INTER:                  -5.580
REMARK INTRA:                  -0.145
REMARK UNBOUND:                -0.197
REMARK SMILES C=CC[C@H](C)C(=O)CC
REMARK SMILES IDX 4 1 5 2 6 3 7 4 8 5 9 6 3 7 2 8 1 9
REMARK H PARENT
REMARK Flexibility Score: inf
ROOT
ATOM      1  C   UNL     1     -26.963  20.414 -33.333  1.00  0.00     0.057 C 
ATOM      2  C   UNL     1     -27.666  21.420 -34.254  1.00  0.00     0.016 C 
ENDROOT
BRANCH   1   3
ATOM      3  C   UNL     1     -25.607  20.055 -33.903  1.00  0.00     0.135 C 
ATOM      4  O   UNL     1     -25.450  20.024 -35.116  1.00  0.00    -0.299 OA
BRANCH   3   5
ATOM      5  C   UNL     1     -24.446  19.724 -33.004  1.00  0.00     0.072 C 
ATOM      6  C   UNL     1     -23.570  20.952 -32.778  1.00  0.00     0.012 C 
ENDBRANCH   3   5
ENDBRANCH   1   3
BRANCH   1   7
ATOM      7  C   UNL     1     -27.805  19.136 -33.133  1.00  0.00     0.038 C 
BRANCH   7   8
ATOM      8  C   UNL     1     -29.209  19.440 -32.679  1.00  0.00    -0.034 C 
ATOM      9  C   UNL     1     -30.275  19.093 -33.406  1.00  0.00     0.004 C 
ENDBRANCH   7   8
ENDBRANCH   1   7
TORSDOF 4
ENDMDL
MODEL 3
REMARK VINA RESULT:    -4.293      1.483      4.057
REMARK INTER + INTRA:          -5.494
REMARK INTER:                  -5.299
REMARK INTRA:                  -0.195
REMARK UNBOUND:                -0.197
REMARK SMILES C=CC[C@H](C)C(=O)CC
REMARK SMILES IDX 4 1 5 2 6 3 7 4 8 5 9 6 3 7 2 8 1 9
REMARK H PARENT
REMARK Flexibility Score: inf
ROOT
ATOM      1  C   UNL     1     -26.064  20.231 -33.525  1.00  0.00     0.057 C 
ATOM      2  C   UNL     1     -25.510  20.186 -34.955  1.00  0.00     0.016 C 
ENDROOT
BRANCH   1   3
ATOM      3  C   UNL     1     -25.190  19.401 -32.608  1.00  0.00     0.135 C 
ATOM      4  O   UNL     1     -25.700  18.543 -31.900  1.00  0.00    -0.299 OA
BRANCH   3   5
ATOM      5  C   UNL     1     -23.702  19.616 -32.543  1.00  0.00     0.072 C 
ATOM      6  C   UNL     1     -23.377  21.093 -32.339  1.00  0.00     0.012 C 
ENDBRANCH   3   5
ENDBRANCH   1   3
BRANCH   1   7
ATOM      7  C   UNL     1     -27.522  19.728 -33.460  1.00  0.00     0.038 C 
BRANCH   7   8
ATOM      8  C   UNL     1     -28.489  20.822 -33.093  1.00  0.00    -0.034 C 
ATOM      9  C   UNL     1     -28.126  22.108 -33.076  1.00  0.00     0.004 C 
ENDBRANCH   7   8
ENDBRANCH   1   7
TORSDOF 4
ENDMDL
MODEL 4
REMARK VINA RESULT:    -4.217      1.296      4.026
REMARK INTER + INTRA:          -5.401
REMARK INTER:                  -5.128
REMARK INTRA:                  -0.273
REMARK UNBOUND:                -0.197
REMARK SMILES C=CC[C@H](C)C(=O)CC
REMARK SMILES IDX 4 1 5 2 6 3 7 4 8 5 9 6 3 7 2 8 1 9
REMARK H PARENT
REMARK Flexibility Score: inf
ROOT
ATOM      1  C   UNL     1     -27.020  19.591 -33.717  1.00  0.00     0.057 C 
ATOM      2  C   UNL     1     -28.039  18.990 -32.740  1.00  0.00     0.016 C 
ENDROOT
BRANCH   1   3
ATOM      3  C   UNL     1     -25.634  19.539 -33.111  1.00  0.00     0.135 C 
ATOM      4  O   UNL     1     -25.425  18.830 -32.136  1.00  0.00    -0.299 OA
BRANCH   3   5
ATOM      5  C   UNL     1     -24.502  20.354 -33.680  1.00  0.00     0.072 C 
ATOM      6  C   UNL     1     -23.539  20.784 -32.579  1.00  0.00     0.012 C 
ENDBRANCH   3   5
ENDBRANCH   1   3
BRANCH   1   7
ATOM      7  C   UNL     1     -27.377  21.045 -34.093  1.00  0.00     0.038 C 
BRANCH   7   8
ATOM      8  C   UNL     1     -28.201  21.725 -33.033  1.00  0.00    -0.034 C 
ATOM      9  C   UNL     1     -28.424  23.043 -33.052  1.00  0.00     0.004 C 
ENDBRANCH   7   8
ENDBRANCH   1   7
TORSDOF 4
ENDMDL
MODEL 5
REMARK VINA RESULT:    -4.191      1.539      2.150
REMARK INTER + INTRA:          -5.368
REMARK INTER:                  -5.178
REMARK INTRA:                  -0.190
REMARK UNBOUND:                -0.197
REMARK SMILES C=CC[C@H](C)C(=O)CC
REMARK SMILES IDX 4 1 5 2 6 3 7 4 8 5 9 6 3 7 2 8 1 9
REMARK H PARENT
REMARK Flexibility Score: inf
ROOT
ATOM      1  C   UNL     1     -25.837  19.874 -32.901  1.00  0.00     0.057 C 
ATOM      2  C   UNL     1     -25.583  18.677 -31.975  1.00  0.00     0.016 C 
ENDROOT
BRANCH   1   3
ATOM      3  C   UNL     1     -27.215  19.763 -33.519  1.00  0.00     0.135 C 
ATOM      4  O   UNL     1     -27.788  18.682 -33.530  1.00  0.00    -0.299 OA
BRANCH   3   5
ATOM      5  C   UNL     1     -27.893  20.960 -34.131  1.00  0.00     0.072 C 
ATOM      6  C   UNL     1     -28.112  22.051 -33.088  1.00  0.00     0.012 C 
ENDBRANCH   3   5
ENDBRANCH   1   3
BRANCH   1   7
ATOM      7  C   UNL     1     -24.769  19.975 -34.010  1.00  0.00     0.038 C 
BRANCH   7   8
ATOM      8  C   UNL     1     -23.439  20.446 -33.484  1.00  0.00    -0.034 C 
ATOM      9  C   UNL     1     -23.348  21.310 -32.468  1.00  0.00     0.004 C 
ENDBRANCH   7   8
ENDBRANCH   1   7
TORSDOF 4
ENDMDL
MODEL 6
REMARK VINA RESULT:    -4.081      6.887      8.423
REMARK INTER + INTRA:          -5.232
REMARK INTER:                  -4.898
REMARK INTRA:                  -0.334
REMARK UNBOUND:                -0.197
REMARK SMILES C=CC[C@H](C)C(=O)CC
REMARK SMILES IDX 4 1 5 2 6 3 7 4 8 5 9 6 3 7 2 8 1 9
REMARK H PARENT
REMARK Flexibility Score: inf
ROOT
ATOM      1  C   UNL     1     -27.303  12.192 -30.232  1.00  0.00     0.057 C 
ATOM      2  C   UNL     1     -26.521  10.875 -30.337  1.00  0.00     0.016 C 
ENDROOT
BRANCH   1   3
ATOM      3  C   UNL     1     -26.518  13.310 -30.883  1.00  0.00     0.135 C 
ATOM      4  O   UNL     1     -26.505  13.410 -32.103  1.00  0.00    -0.299 OA
BRANCH   3   5
ATOM      5  C   UNL     1     -25.741  14.301 -30.058  1.00  0.00     0.072 C 
ATOM      6  C   UNL     1     -26.278  15.714 -30.263  1.00  0.00     0.012 C 
ENDBRANCH   3   5
ENDBRANCH   1   3
BRANCH   1   7
ATOM      7  C   UNL     1     -27.618  12.554 -28.765  1.00  0.00     0.038 C 
BRANCH   7   8
ATOM      8  C   UNL     1     -29.092  12.748 -28.525  1.00  0.00    -0.034 C 
ATOM      9  C   UNL     1     -30.008  12.358 -29.418  1.00  0.00     0.004 C 
ENDBRANCH   7   8
ENDBRANCH   1   7
TORSDOF 4
ENDMDL
MODEL 7
REMARK VINA RESULT:    -3.993     11.377     12.721
REMARK INTER + INTRA:          -5.124
REMARK INTER:                  -4.858
REMARK INTRA:                  -0.266
REMARK UNBOUND:                -0.197
REMARK SMILES C=CC[C@H](C)C(=O)CC
REMARK SMILES IDX 4 1 5 2 6 3 7 4 8 5 9 6 3 7 2 8 1 9
REMARK H PARENT
REMARK Flexibility Score: inf
ROOT
ATOM      1  C   UNL     1     -15.679  13.977 -31.761  1.00  0.00     0.057 C 
ATOM      2  C   UNL     1     -15.025  13.581 -33.092  1.00  0.00     0.016 C 
ENDROOT
BRANCH   1   3
ATOM      3  C   UNL     1     -17.178  14.088 -31.936  1.00  0.00     0.135 C 
ATOM      4  O   UNL     1     -17.633  14.815 -32.809  1.00  0.00    -0.299 OA
BRANCH   3   5
ATOM      5  C   UNL     1     -18.126  13.326 -31.049  1.00  0.00     0.072 C 
ATOM      6  C   UNL     1     -17.358  12.443 -30.070  1.00  0.00     0.012 C 
ENDBRANCH   3   5
ENDBRANCH   1   3
BRANCH   1   7
ATOM      7  C   UNL     1     -15.112  15.308 -31.220  1.00  0.00     0.038 C 
BRANCH   7   8
ATOM      8  C   UNL     1     -13.607  15.308 -31.162  1.00  0.00    -0.034 C 
ATOM      9  C   UNL     1     -12.944  14.947 -30.059  1.00  0.00     0.004 C 
ENDBRANCH   7   8
ENDBRANCH   1   7
TORSDOF 4
ENDMDL
MODEL 8
REMARK VINA RESULT:    -3.847     11.521     12.690
REMARK INTER + INTRA:          -4.943
REMARK INTER:                  -4.763
REMARK INTRA:                  -0.180
REMARK UNBOUND:                -0.197
REMARK SMILES C=CC[C@H](C)C(=O)CC
REMARK SMILES IDX 4 1 5 2 6 3 7 4 8 5 9 6 3 7 2 8 1 9
REMARK H PARENT
REMARK Flexibility Score: inf
ROOT
ATOM      1  C   UNL     1     -16.990  13.352 -30.830  1.00  0.00     0.057 C 
ATOM      2  C   UNL     1     -16.802  14.397 -29.721  1.00  0.00     0.016 C 
ENDROOT
BRANCH   1   3
ATOM      3  C   UNL     1     -16.649  13.961 -32.173  1.00  0.00     0.135 C 
ATOM      4  O   UNL     1     -17.438  14.728 -32.708  1.00  0.00    -0.299 OA
BRANCH   3   5
ATOM      5  C   UNL     1     -15.357  13.633 -32.873  1.00  0.00     0.072 C 
ATOM      6  C   UNL     1     -14.201  14.428 -32.275  1.00  0.00     0.012 C 
ENDBRANCH   3   5
ENDBRANCH   1   3
BRANCH   1   7
ATOM      7  C   UNL     1     -18.430  12.796 -30.853  1.00  0.00     0.038 C 
BRANCH   7   8
ATOM      8  C   UNL     1     -18.968  12.538 -29.471  1.00  0.00    -0.034 C 
ATOM      9  C   UNL     1     -18.955  11.317 -28.927  1.00  0.00     0.004 C 
ENDBRANCH   7   8
ENDBRANCH   1   7
TORSDOF 4
ENDMDL
MODEL 9
REMARK VINA RESULT:    -3.723     12.060     14.044
REMARK INTER + INTRA:          -4.791
REMARK INTER:                  -4.521
REMARK INTRA:                  -0.270
REMARK UNBOUND:                -0.197
REMARK SMILES C=CC[C@H](C)C(=O)CC
REMARK SMILES IDX 4 1 5 2 6 3 7 4 8 5 9 6 3 7 2 8 1 9
REMARK H PARENT
REMARK Flexibility Score: inf
ROOT
ATOM      1  C   UNL     1     -13.888  14.718 -32.067  1.00  0.00     0.057 C 
ATOM      2  C   UNL     1     -14.325  15.984 -31.318  1.00  0.00     0.016 C 
ENDROOT
BRANCH   1   3
ATOM      3  C   UNL     1     -15.101  13.888 -32.426  1.00  0.00     0.135 C 
ATOM      4  O   UNL     1     -15.475  13.833 -33.591  1.00  0.00    -0.299 OA
BRANCH   3   5
ATOM      5  C   UNL     1     -15.868  13.131 -31.374  1.00  0.00     0.072 C 
ATOM      6  C   UNL     1     -17.337  13.541 -31.377  1.00  0.00     0.012 C 
ENDBRANCH   3   5
ENDBRANCH   1   3
BRANCH   1   7
ATOM      7  C   UNL     1     -12.899  13.874 -31.235  1.00  0.00     0.038 C 
BRANCH   7   8
ATOM      8  C   UNL     1     -12.200  14.687 -30.178  1.00  0.00    -0.034 C 
ATOM      9  C   UNL     1     -12.108  14.268 -28.912  1.00  0.00     0.004 C 
ENDBRANCH   7   8
ENDBRANCH   1   7
TORSDOF 4
ENDMDL
