MODEL 1
REMARK VINA RESULT:     0.992      0.000      0.000
REMARK INTER + INTRA:           0.992
REMARK INTER:                   0.992
REMARK INTRA:                   0.000
REMARK UNBOUND:                 0.000
REMARK SMILES CC1(C)[C@@H]2CC[C@@]1(C)C(=O)C2
REMARK SMILES IDX 1 1 2 2 4 3 5 4 6 5 7 6 9 7 10 8 11 9 8 10 3 11
REMARK H PARENT
REMARK Flexibility Score: inf
ROOT
ATOM      1  C   UNL     1      16.692   3.952  14.901  1.00  0.00     0.012 C 
ATOM      2  C   UNL     1      15.133   3.909  14.864  1.00  0.00    -0.020 C 
ATOM      3  C   UNL     1      14.513   2.975  15.931  1.00  0.00     0.003 C 
ATOM      4  C   UNL     1      12.991   3.251  15.784  1.00  0.00     0.005 C 
ATOM      5  C   UNL     1      12.942   4.765  15.457  1.00  0.00     0.015 C 
ATOM      6  C   UNL     1      14.439   5.158  15.448  1.00  0.00     0.032 C 
ATOM      7  C   UNL     1      14.869   5.066  16.891  1.00  0.00     0.139 C 
ATOM      8  O   UNL     1      15.043   6.008  17.650  1.00  0.00    -0.299 OA
ATOM      9  C   UNL     1      14.947   3.622  17.276  1.00  0.00     0.080 C 
ATOM     10  C   UNL     1      14.748   6.495  14.763  1.00  0.00     0.020 C 
ATOM     11  C   UNL     1      14.738   3.544  13.401  1.00  0.00     0.012 C 
ENDROOT
TORSDOF 0
ENDMDL
MODEL 2
REMARK VINA RESULT:     1.084      1.735      3.187
REMARK INTER + INTRA:           1.084
REMARK INTER:                   1.084
REMARK INTRA:                   0.000
REMARK UNBOUND:                 0.000
REMARK SMILES CC1(C)[C@@H]2CC[C@@]1(C)C(=O)C2
REMARK SMILES IDX 1 1 2 2 4 3 5 4 6 5 7 6 9 7 10 8 11 9 8 10 3 11
REMARK H PARENT
REMARK Flexibility Score: inf
ROOT
ATOM      1  C   UNL     1      14.979   6.629  15.122  1.00  0.00     0.012 C 
ATOM      2  C   UNL     1      14.543   5.315  15.843  1.00  0.00    -0.020 C 
ATOM      3  C   UNL     1      13.105   4.863  15.491  1.00  0.00     0.003 C 
ATOM      4  C   UNL     1      13.001   3.480  16.191  1.00  0.00     0.005 C 
ATOM      5  C   UNL     1      14.429   2.899  16.028  1.00  0.00     0.015 C 
ATOM      6  C   UNL     1      15.168   4.026  15.267  1.00  0.00     0.032 C 
ATOM      7  C   UNL     1      14.564   4.017  13.884  1.00  0.00     0.139 C 
ATOM      8  O   UNL     1      15.080   3.553  12.879  1.00  0.00    -0.299 OA
ATOM      9  C   UNL     1      13.178   4.577  13.964  1.00  0.00     0.080 C 
ATOM     10  C   UNL     1      16.698   3.931  15.306  1.00  0.00     0.020 C 
ATOM     11  C   UNL     1      14.775   5.551  17.366  1.00  0.00     0.012 C 
ENDROOT
TORSDOF 0
ENDMDL
MODEL 3
REMARK VINA RESULT:     1.436      1.559      2.791
REMARK INTER + INTRA:           1.436
REMARK INTER:                   1.436
REMARK INTRA:                   0.000
REMARK UNBOUND:                 0.000
REMARK SMILES CC1(C)[C@@H]2CC[C@@]1(C)C(=O)C2
REMARK SMILES IDX 1 1 2 2 4 3 5 4 6 5 7 6 9 7 10 8 11 9 8 10 3 11
REMARK H PARENT
REMARK Flexibility Score: inf
ROOT
ATOM      1  C   UNL     1      14.736   5.631  17.274  1.00  0.00     0.012 C 
ATOM      2  C   UNL     1      14.828   5.255  15.762  1.00  0.00    -0.020 C 
ATOM      3  C   UNL     1      16.032   4.342  15.422  1.00  0.00     0.003 C 
ATOM      4  C   UNL     1      15.786   3.995  13.929  1.00  0.00     0.005 C 
ATOM      5  C   UNL     1      14.242   3.888  13.845  1.00  0.00     0.015 C 
ATOM      6  C   UNL     1      13.802   4.199  15.297  1.00  0.00     0.032 C 
ATOM      7  C   UNL     1      14.251   3.002  16.098  1.00  0.00     0.139 C 
ATOM      8  O   UNL     1      13.533   2.101  16.504  1.00  0.00    -0.299 OA
ATOM      9  C   UNL     1      15.741   3.045  16.228  1.00  0.00     0.080 C 
ATOM     10  C   UNL     1      12.322   4.568  15.454  1.00  0.00     0.020 C 
ATOM     11  C   UNL     1      14.814   6.599  14.972  1.00  0.00     0.012 C 
ENDROOT
TORSDOF 0
ENDMDL
MODEL 4
REMARK VINA RESULT:     1.772      1.496      3.015
REMARK INTER + INTRA:           1.772
REMARK INTER:                   1.772
REMARK INTRA:                   0.000
REMARK UNBOUND:                 0.000
REMARK SMILES CC1(C)[C@@H]2CC[C@@]1(C)C(=O)C2
REMARK SMILES IDX 1 1 2 2 4 3 5 4 6 5 7 6 9 7 10 8 11 9 8 10 3 11
REMARK H PARENT
REMARK Flexibility Score: inf
ROOT
ATOM      1  C   UNL     1      14.852   3.694  13.404  1.00  0.00     0.012 C 
ATOM      2  C   UNL     1      15.156   4.260  14.826  1.00  0.00    -0.020 C 
ATOM      3  C   UNL     1      14.959   5.791  14.939  1.00  0.00     0.003 C 
ATOM      4  C   UNL     1      15.155   6.049  16.458  1.00  0.00     0.005 C 
ATOM      5  C   UNL     1      14.529   4.789  17.109  1.00  0.00     0.015 C 
ATOM      6  C   UNL     1      14.067   3.968  15.881  1.00  0.00     0.032 C 
ATOM      7  C   UNL     1      12.909   4.750  15.310  1.00  0.00     0.139 C 
ATOM      8  O   UNL     1      11.726   4.472  15.434  1.00  0.00    -0.299 OA
ATOM      9  C   UNL     1      13.443   5.984  14.654  1.00  0.00     0.080 C 
ATOM     10  C   UNL     1      13.773   2.491  16.170  1.00  0.00     0.020 C 
ATOM     11  C   UNL     1      16.592   3.780  15.194  1.00  0.00     0.012 C 
ENDROOT
TORSDOF 0
ENDMDL
MODEL 5
REMARK VINA RESULT:     2.550      1.439      2.788
REMARK INTER + INTRA:           2.550
REMARK INTER:                   2.550
REMARK INTRA:                   0.000
REMARK UNBOUND:                 0.000
REMARK SMILES CC1(C)[C@@H]2CC[C@@]1(C)C(=O)C2
REMARK SMILES IDX 1 1 2 2 4 3 5 4 6 5 7 6 9 7 10 8 11 9 8 10 3 11
REMARK H PARENT
REMARK Flexibility Score: inf
ROOT
ATOM      1  C   UNL     1      14.775   6.322  14.988  1.00  0.00     0.012 C 
ATOM      2  C   UNL     1      14.115   4.918  15.162  1.00  0.00    -0.020 C 
ATOM      3  C   UNL     1      14.264   4.005  13.921  1.00  0.00     0.003 C 
ATOM      4  C   UNL     1      13.686   2.652  14.421  1.00  0.00     0.005 C 
ATOM      5  C   UNL     1      14.137   2.608  15.903  1.00  0.00     0.015 C 
ATOM      6  C   UNL     1      14.903   3.943  16.065  1.00  0.00     0.032 C 
ATOM      7  C   UNL     1      16.161   3.765  15.251  1.00  0.00     0.139 C 
ATOM      8  O   UNL     1      17.276   3.539  15.694  1.00  0.00    -0.299 OA
ATOM      9  C   UNL     1      15.801   3.807  13.799  1.00  0.00     0.080 C 
ATOM     10  C   UNL     1      15.127   4.384  17.516  1.00  0.00     0.020 C 
ATOM     11  C   UNL     1      12.637   5.175  15.582  1.00  0.00     0.012 C 
ENDROOT
TORSDOF 0
ENDMDL
MODEL 6
REMARK VINA RESULT:     2.630      1.478      2.730
REMARK INTER + INTRA:           2.630
REMARK INTER:                   2.630
REMARK INTRA:                   0.000
REMARK UNBOUND:                 0.000
REMARK SMILES CC1(C)[C@@H]2CC[C@@]1(C)C(=O)C2
REMARK SMILES IDX 1 1 2 2 4 3 5 4 6 5 7 6 9 7 10 8 11 9 8 10 3 11
REMARK H PARENT
REMARK Flexibility Score: inf
ROOT
ATOM      1  C   UNL     1      13.288   2.585  15.847  1.00  0.00     0.012 C 
ATOM      2  C   UNL     1      13.616   4.082  15.558  1.00  0.00    -0.020 C 
ATOM      3  C   UNL     1      14.195   4.838  16.778  1.00  0.00     0.003 C 
ATOM      4  C   UNL     1      14.582   6.216  16.176  1.00  0.00     0.005 C 
ATOM      5  C   UNL     1      15.072   5.849  14.752  1.00  0.00     0.015 C 
ATOM      6  C   UNL     1      14.893   4.311  14.719  1.00  0.00     0.032 C 
ATOM      7  C   UNL     1      15.945   3.782  15.662  1.00  0.00     0.139 C 
ATOM      8  O   UNL     1      17.001   3.260  15.338  1.00  0.00    -0.299 OA
ATOM      9  C   UNL     1      15.530   4.095  17.065  1.00  0.00     0.080 C 
ATOM     10  C   UNL     1      14.909   3.693  13.315  1.00  0.00     0.020 C 
ATOM     11  C   UNL     1      12.314   4.716  14.983  1.00  0.00     0.012 C 
ENDROOT
TORSDOF 0
ENDMDL
MODEL 7
REMARK VINA RESULT:     2.853      1.401      2.969
REMARK INTER + INTRA:           2.853
REMARK INTER:                   2.853
REMARK INTRA:                   0.000
REMARK UNBOUND:                 0.000
REMARK SMILES CC1(C)[C@@H]2CC[C@@]1(C)C(=O)C2
REMARK SMILES IDX 1 1 2 2 4 3 5 4 6 5 7 6 9 7 10 8 11 9 8 10 3 11
REMARK H PARENT
REMARK Flexibility Score: inf
ROOT
ATOM      1  C   UNL     1      13.007   3.010  16.250  1.00  0.00     0.012 C 
ATOM      2  C   UNL     1      14.493   3.263  15.847  1.00  0.00    -0.020 C 
ATOM      3  C   UNL     1      14.762   3.097  14.332  1.00  0.00     0.003 C 
ATOM      4  C   UNL     1      16.237   3.563  14.194  1.00  0.00     0.005 C 
ATOM      5  C   UNL     1      16.337   4.713  15.229  1.00  0.00     0.015 C 
ATOM      6  C   UNL     1      14.913   4.749  15.834  1.00  0.00     0.032 C 
ATOM      7  C   UNL     1      14.038   5.275  14.723  1.00  0.00     0.139 C 
ATOM      8  O   UNL     1      13.592   6.410  14.637  1.00  0.00    -0.299 OA
ATOM      9  C   UNL     1      13.889   4.208  13.685  1.00  0.00     0.080 C 
ATOM     10  C   UNL     1      14.799   5.504  17.163  1.00  0.00     0.020 C 
ATOM     11  C   UNL     1      15.358   2.330  16.747  1.00  0.00     0.012 C 
ENDROOT
TORSDOF 0
ENDMDL
MODEL 8
REMARK VINA RESULT:     3.563      1.429      2.452
REMARK INTER + INTRA:           3.563
REMARK INTER:                   3.563
REMARK INTRA:                   0.000
REMARK UNBOUND:                 0.000
REMARK SMILES CC1(C)[C@@H]2CC[C@@]1(C)C(=O)C2
REMARK SMILES IDX 1 1 2 2 4 3 5 4 6 5 7 6 9 7 10 8 11 9 8 10 3 11
REMARK H PARENT
REMARK Flexibility Score: inf
ROOT
ATOM      1  C   UNL     1      17.127   4.561  14.923  1.00  0.00     0.012 C 
ATOM      2  C   UNL     1      16.113   3.598  15.616  1.00  0.00    -0.020 C 
ATOM      3  C   UNL     1      15.493   4.177  16.910  1.00  0.00     0.003 C 
ATOM      4  C   UNL     1      14.424   3.113  17.283  1.00  0.00     0.005 C 
ATOM      5  C   UNL     1      13.899   2.648  15.900  1.00  0.00     0.015 C 
ATOM      6  C   UNL     1      14.740   3.496  14.916  1.00  0.00     0.032 C 
ATOM      7  C   UNL     1      14.232   4.906  15.092  1.00  0.00     0.139 C 
ATOM      8  O   UNL     1      13.484   5.499  14.330  1.00  0.00    -0.299 OA
ATOM      9  C   UNL     1      14.712   5.426  16.411  1.00  0.00     0.080 C 
ATOM     10  C   UNL     1      14.746   2.984  13.470  1.00  0.00     0.020 C 
ATOM     11  C   UNL     1      16.862   2.247  15.825  1.00  0.00     0.012 C 
ENDROOT
TORSDOF 0
ENDMDL
