MODEL 1
REMARK VINA RESULT:    -3.198      0.000      0.000
REMARK INTER + INTRA:          -4.242
REMARK INTER:                  -4.506
REMARK INTRA:                   0.264
REMARK UNBOUND:                 0.264
REMARK SMILES CC1=CCC(=C(C)C)C(=O)CC(C)=CCC1
REMARK SMILES IDX 12 1 14 2 13 3 15 4 16 5 2 6 1 7 3 8 11 10 9 11 10 12 5 13
REMARK SMILES IDX 6 14 7 15 8 16 4 17
REMARK H PARENT
REMARK Flexibility Score: 60.00
ROOT
ATOM      1  C   UNL     1      -0.659  -8.344 -37.649  1.00  0.00    -0.070 C 
ATOM      2  C   UNL     1      -0.689  -8.559 -36.315  1.00  0.00    -0.027 C 
ATOM      3  C   UNL     1      -0.959  -6.953 -38.147  1.00  0.00     0.039 C 
ENDROOT
BRANCH   2   4
ATOM      4  C   UNL     1      -0.512  -9.897 -35.632  1.00  0.00     0.032 C 
BRANCH   4   5
ATOM      5  C   UNL     1      -1.779 -10.777 -35.595  1.00  0.00     0.034 C 
BRANCH   5   6
ATOM      6  C   UNL     1      -1.563 -12.161 -36.181  1.00  0.00    -0.077 C 
ATOM      7  C   UNL     1      -0.692 -13.121 -35.410  1.00  0.00     0.039 C 
ATOM      8  C   UNL     1      -2.042 -12.565 -37.382  1.00  0.00    -0.023 CG0
ATOM      9  G   UNL     1      -2.947 -11.785 -38.316  1.00  0.00     0.000 G0
ENDBRANCH   5   6
ENDBRANCH   4   5
ENDBRANCH   2   4
BRANCH   1  10
ATOM     10  C   UNL     1      -0.431  -9.446 -38.663  1.00  0.00     0.111 C 
BRANCH  10  11
ATOM     11  C   UNL     1      -1.702  -9.805 -39.389  1.00  0.00     0.163 C 
ATOM     12  O   UNL     1      -2.396  -8.868 -39.868  1.00  0.00    -0.294 OA
BRANCH  11  13
ATOM     13  C   UNL     1      -2.189 -11.211 -39.504  1.00  0.00    -0.002 C 
ATOM     14  C   UNL     1      -2.030 -11.914 -40.667  1.00  0.00    -0.069 C 
ATOM     15  C   UNL     1      -1.222 -11.353 -41.817  1.00  0.00     0.039 C 
ATOM     16  C   UNL     1      -2.651 -13.279 -40.869  1.00  0.00     0.039 C 
BRANCH  13  17
ATOM     17  C   UNL     1      -2.946 -11.785 -38.317  1.00  0.00     0.066 CG0
ATOM     18  G   UNL     1      -2.041 -12.552 -37.373  1.00  0.00     0.000 G0
ENDBRANCH  13  17
ENDBRANCH  11  13
ENDBRANCH  10  11
ENDBRANCH   1  10
TORSDOF 0
ENDMDL
MODEL 2
REMARK VINA RESULT:    -3.162      6.683      9.696
REMARK INTER + INTRA:          -4.192
REMARK INTER:                  -4.414
REMARK INTRA:                   0.222
REMARK UNBOUND:                 0.264
REMARK SMILES CC1=CCC(=C(C)C)C(=O)CC(C)=CCC1
REMARK SMILES IDX 12 1 14 2 13 3 15 4 16 5 2 6 1 7 3 8 11 10 9 11 10 12 5 13
REMARK SMILES IDX 6 14 7 15 8 16 4 17
REMARK H PARENT
REMARK Flexibility Score: 60.00
ROOT
ATOM      1  C   UNL     1      -7.347 -10.645 -46.310  1.00  0.00    -0.070 C 
ATOM      2  C   UNL     1      -7.081 -10.048 -47.493  1.00  0.00    -0.027 C 
ATOM      3  C   UNL     1      -8.778 -11.019 -46.016  1.00  0.00     0.039 C 
ENDROOT
BRANCH   2   4
ATOM      4  C   UNL     1      -5.734  -9.514 -47.928  1.00  0.00     0.032 C 
BRANCH   4   5
ATOM      5  C   UNL     1      -5.520  -8.008 -47.668  1.00  0.00     0.034 C 
BRANCH   5   6
ATOM      6  C   UNL     1      -4.129  -7.682 -47.154  1.00  0.00    -0.077 C 
ATOM      7  C   UNL     1      -3.014  -7.579 -48.165  1.00  0.00     0.039 C 
ATOM      8  C   UNL     1      -3.811  -7.547 -45.844  1.00  0.00    -0.023 CG0
ATOM      9  G   UNL     1      -4.760  -7.591 -44.663  1.00  0.00     0.000 G0
ENDBRANCH   5   6
ENDBRANCH   4   5
ENDBRANCH   2   4
BRANCH   1  10
ATOM     10  C   UNL     1      -6.301 -10.871 -45.238  1.00  0.00     0.111 C 
BRANCH  10  11
ATOM     11  C   UNL     1      -6.199  -9.693 -44.304  1.00  0.00     0.163 C 
ATOM     12  O   UNL     1      -7.255  -9.276 -43.757  1.00  0.00    -0.294 OA
BRANCH  11  13
ATOM     13  C   UNL     1      -4.914  -8.976 -44.057  1.00  0.00    -0.002 C 
ATOM     14  C   UNL     1      -3.950  -9.522 -43.254  1.00  0.00    -0.069 C 
ATOM     15  C   UNL     1      -4.084 -10.931 -42.719  1.00  0.00     0.039 C 
ATOM     16  C   UNL     1      -2.709  -8.754 -42.857  1.00  0.00     0.039 C 
BRANCH  13  17
ATOM     17  C   UNL     1      -4.767  -7.585 -44.653  1.00  0.00     0.066 CG0
ATOM     18  G   UNL     1      -3.811  -7.559 -45.829  1.00  0.00     0.000 G0
ENDBRANCH  13  17
ENDBRANCH  11  13
ENDBRANCH  10  11
ENDBRANCH   1  10
TORSDOF 0
ENDMDL
MODEL 3
REMARK VINA RESULT:    -3.088     12.354     14.910
REMARK INTER + INTRA:          -4.087
REMARK INTER:                  -4.302
REMARK INTRA:                   0.215
REMARK UNBOUND:                 0.264
REMARK SMILES CC1=CCC(=C(C)C)C(=O)CC(C)=CCC1
REMARK SMILES IDX 12 1 14 2 13 3 15 4 16 5 2 6 1 7 3 8 11 10 9 11 10 12 5 13
REMARK SMILES IDX 6 14 7 15 8 16 4 17
REMARK H PARENT
REMARK Flexibility Score: 60.00
ROOT
ATOM      1  C   UNL     1       0.361 -24.021 -45.637  1.00  0.00    -0.070 C 
ATOM      2  C   UNL     1      -0.406 -23.020 -45.150  1.00  0.00    -0.027 C 
ATOM      3  C   UNL     1      -0.335 -25.182 -46.302  1.00  0.00     0.039 C 
ENDROOT
BRANCH   2   4
ATOM      4  C   UNL     1       0.095 -21.826 -44.368  1.00  0.00     0.032 C 
BRANCH   4   5
ATOM      5  C   UNL     1       0.031 -21.983 -42.835  1.00  0.00     0.034 C 
BRANCH   5   6
ATOM      6  C   UNL     1       1.332 -21.619 -42.142  1.00  0.00    -0.077 C 
ATOM      7  C   UNL     1       1.610 -20.157 -41.893  1.00  0.00     0.039 C 
ATOM      8  C   UNL     1       2.290 -22.514 -41.797  1.00  0.00    -0.023 CG0
ATOM      9  G   UNL     1       2.225 -24.022 -41.933  1.00  0.00     0.000 G0
ENDBRANCH   5   6
ENDBRANCH   4   5
ENDBRANCH   2   4
BRANCH   1  10
ATOM     10  C   UNL     1       1.865 -24.076 -45.465  1.00  0.00     0.111 C 
BRANCH  10  11
ATOM     11  C   UNL     1       2.263 -24.995 -44.340  1.00  0.00     0.163 C 
ATOM     12  O   UNL     1       1.885 -26.197 -44.392  1.00  0.00    -0.294 OA
BRANCH  11  13
ATOM     13  C   UNL     1       3.028 -24.519 -43.149  1.00  0.00    -0.002 C 
ATOM     14  C   UNL     1       4.392 -24.608 -43.113  1.00  0.00    -0.069 C 
ATOM     15  C   UNL     1       5.182 -25.042 -44.329  1.00  0.00     0.039 C 
ATOM     16  C   UNL     1       5.183 -24.284 -41.864  1.00  0.00     0.039 C 
BRANCH  13  17
ATOM     17  C   UNL     1       2.224 -24.027 -41.956  1.00  0.00     0.066 CG0
ATOM     18  G   UNL     1       2.290 -22.521 -41.798  1.00  0.00     0.000 G0
ENDBRANCH  13  17
ENDBRANCH  11  13
ENDBRANCH  10  11
ENDBRANCH   1  10
TORSDOF 0
ENDMDL
MODEL 4
REMARK VINA RESULT:    -3.083      2.695      4.099
REMARK INTER + INTRA:          -4.080
REMARK INTER:                  -4.585
REMARK INTRA:                   0.505
REMARK UNBOUND:                 0.264
REMARK SMILES CC1=CCC(=C(C)C)C(=O)CC(C)=CCC1
REMARK SMILES IDX 12 1 14 2 13 3 15 4 16 5 2 6 1 7 3 8 11 10 9 11 10 12 5 13
REMARK SMILES IDX 6 14 7 15 8 16 4 17
REMARK H PARENT
REMARK Flexibility Score: 60.00
ROOT
ATOM      1  C   UNL     1      -1.643  -8.975 -39.297  1.00  0.00    -0.070 C 
ATOM      2  C   UNL     1      -0.841  -9.999 -38.928  1.00  0.00    -0.027 C 
ATOM      3  C   UNL     1      -1.200  -7.574 -38.956  1.00  0.00     0.039 C 
ENDROOT
BRANCH   2   4
ATOM      4  C   UNL     1      -1.155 -11.469 -39.092  1.00  0.00     0.032 C 
BRANCH   4   5
ATOM      5  C   UNL     1      -0.285 -12.205 -40.133  1.00  0.00     0.034 C 
BRANCH   5   6
ATOM      6  C   UNL     1       0.022 -11.363 -41.358  1.00  0.00    -0.077 C 
ATOM      7  C   UNL     1       1.410 -10.784 -41.481  1.00  0.00     0.039 C 
ATOM      8  C   UNL     1      -0.887 -11.040 -42.310  1.00  0.00    -0.023 CG0
ATOM      9  G   UNL     1      -2.323 -11.516 -42.404  1.00  0.00     0.000 G0
ENDBRANCH   5   6
ENDBRANCH   4   5
ENDBRANCH   2   4
BRANCH   1  10
ATOM     10  C   UNL     1      -2.996  -9.173 -39.948  1.00  0.00     0.111 C 
BRANCH  10  11
ATOM     11  C   UNL     1      -2.892  -9.194 -41.451  1.00  0.00     0.163 C 
ATOM     12  O   UNL     1      -2.472  -8.157 -42.032  1.00  0.00    -0.294 OA
BRANCH  11  13
ATOM     13  C   UNL     1      -3.324 -10.367 -42.267  1.00  0.00    -0.002 C 
ATOM     14  C   UNL     1      -4.593 -10.438 -42.774  1.00  0.00    -0.069 C 
ATOM     15  C   UNL     1      -5.547  -9.268 -42.662  1.00  0.00     0.039 C 
ATOM     16  C   UNL     1      -5.110 -11.679 -43.468  1.00  0.00     0.039 C 
BRANCH  13  17
ATOM     17  C   UNL     1      -2.333 -11.508 -42.425  1.00  0.00     0.066 CG0
ATOM     18  G   UNL     1      -0.894 -11.041 -42.317  1.00  0.00     0.000 G0
ENDBRANCH  13  17
ENDBRANCH  11  13
ENDBRANCH  10  11
ENDBRANCH   1  10
TORSDOF 0
ENDMDL
MODEL 5
REMARK VINA RESULT:    -2.971      3.847      4.958
REMARK INTER + INTRA:          -3.923
REMARK INTER:                  -4.360
REMARK INTRA:                   0.437
REMARK UNBOUND:                 0.264
REMARK SMILES CC1=CCC(=C(C)C)C(=O)CC(C)=CCC1
REMARK SMILES IDX 12 1 14 2 13 3 15 4 16 5 2 6 1 7 3 8 11 10 9 11 10 12 5 13
REMARK SMILES IDX 6 14 7 15 8 16 4 17
REMARK H PARENT
REMARK Flexibility Score: 60.00
ROOT
ATOM      1  C   UNL     1      -3.949  -8.426 -41.088  1.00  0.00    -0.070 C 
ATOM      2  C   UNL     1      -4.791  -9.362 -40.596  1.00  0.00    -0.027 C 
ATOM      3  C   UNL     1      -4.545  -7.286 -41.875  1.00  0.00     0.039 C 
ENDROOT
BRANCH   2   4
ATOM      4  C   UNL     1      -4.380 -10.624 -39.869  1.00  0.00     0.032 C 
BRANCH   4   5
ATOM      5  C   UNL     1      -4.682 -11.934 -40.626  1.00  0.00     0.034 C 
BRANCH   5   6
ATOM      6  C   UNL     1      -4.335 -11.865 -42.102  1.00  0.00    -0.077 C 
ATOM      7  C   UNL     1      -5.471 -11.915 -43.093  1.00  0.00     0.039 C 
ATOM      8  C   UNL     1      -3.070 -11.834 -42.588  1.00  0.00    -0.023 CG0
ATOM      9  G   UNL     1      -1.784 -11.762 -41.789  1.00  0.00     0.000 G0
ENDBRANCH   5   6
ENDBRANCH   4   5
ENDBRANCH   2   4
BRANCH   1  10
ATOM     10  C   UNL     1      -2.442  -8.518 -40.967  1.00  0.00     0.111 C 
BRANCH  10  11
ATOM     11  C   UNL     1      -1.829  -9.206 -42.159  1.00  0.00     0.163 C 
ATOM     12  O   UNL     1      -2.057  -8.728 -43.303  1.00  0.00    -0.294 OA
BRANCH  11  13
ATOM     13  C   UNL     1      -1.023 -10.456 -42.035  1.00  0.00    -0.002 C 
ATOM     14  C   UNL     1       0.333 -10.435 -42.216  1.00  0.00    -0.069 C 
ATOM     15  C   UNL     1       1.080  -9.131 -42.391  1.00  0.00     0.039 C 
ATOM     16  C   UNL     1       1.155 -11.705 -42.254  1.00  0.00     0.039 C 
BRANCH  13  17
ATOM     17  C   UNL     1      -1.780 -11.752 -41.796  1.00  0.00     0.066 CG0
ATOM     18  G   UNL     1      -3.068 -11.823 -42.594  1.00  0.00     0.000 G0
ENDBRANCH  13  17
ENDBRANCH  11  13
ENDBRANCH  10  11
ENDBRANCH   1  10
TORSDOF 0
ENDMDL
MODEL 6
REMARK VINA RESULT:    -2.914      1.596      4.525
REMARK INTER + INTRA:          -3.842
REMARK INTER:                  -4.494
REMARK INTRA:                   0.652
REMARK UNBOUND:                 0.264
REMARK SMILES CC1=CCC(=C(C)C)C(=O)CC(C)=CCC1
REMARK SMILES IDX 12 1 14 2 13 3 15 4 16 5 2 6 1 7 3 8 11 10 9 11 10 12 5 13
REMARK SMILES IDX 6 14 7 15 8 16 4 17
REMARK H PARENT
REMARK Flexibility Score: 60.00
ROOT
ATOM      1  C   UNL     1      -0.400 -10.480 -41.498  1.00  0.00    -0.070 C 
ATOM      2  C   UNL     1      -1.118 -11.558 -41.886  1.00  0.00    -0.027 C 
ATOM      3  C   UNL     1       1.033 -10.699 -41.083  1.00  0.00     0.039 C 
ENDROOT
BRANCH   2   4
ATOM      4  C   UNL     1      -2.588 -11.557 -42.243  1.00  0.00     0.032 C 
BRANCH   4   5
ATOM      5  C   UNL     1      -3.456 -12.526 -41.414  1.00  0.00     0.034 C 
BRANCH   5   6
ATOM      6  C   UNL     1      -4.362 -11.817 -40.423  1.00  0.00    -0.077 C 
ATOM      7  C   UNL     1      -5.839 -11.779 -40.726  1.00  0.00     0.039 C 
ATOM      8  C   UNL     1      -3.923 -11.158 -39.323  1.00  0.00    -0.023 CG0
ATOM      9  G   UNL     1      -2.498 -11.077 -38.813  1.00  0.00     0.000 G0
ENDBRANCH   5   6
ENDBRANCH   4   5
ENDBRANCH   2   4
BRANCH   1  10
ATOM     10  C   UNL     1      -0.989  -9.090 -41.374  1.00  0.00     0.111 C 
BRANCH  10  11
ATOM     11  C   UNL     1      -2.041  -9.026 -40.297  1.00  0.00     0.163 C 
ATOM     12  O   UNL     1      -3.072  -8.334 -40.514  1.00  0.00    -0.294 OA
BRANCH  11  13
ATOM     13  C   UNL     1      -1.876  -9.699 -38.975  1.00  0.00    -0.002 C 
ATOM     14  C   UNL     1      -1.133  -9.120 -37.983  1.00  0.00    -0.069 C 
ATOM     15  C   UNL     1      -0.588  -7.716 -38.131  1.00  0.00     0.039 C 
ATOM     16  C   UNL     1      -0.816  -9.845 -36.694  1.00  0.00     0.039 C 
BRANCH  13  17
ATOM     17  C   UNL     1      -2.483 -11.084 -38.818  1.00  0.00     0.066 CG0
ATOM     18  G   UNL     1      -3.912 -11.148 -39.321  1.00  0.00     0.000 G0
ENDBRANCH  13  17
ENDBRANCH  11  13
ENDBRANCH  10  11
ENDBRANCH   1  10
TORSDOF 0
ENDMDL
MODEL 7
REMARK VINA RESULT:    -2.893     14.387     16.761
REMARK INTER + INTRA:          -3.812
REMARK INTER:                  -4.116
REMARK INTRA:                   0.303
REMARK UNBOUND:                 0.264
REMARK SMILES CC1=CCC(=C(C)C)C(=O)CC(C)=CCC1
REMARK SMILES IDX 12 1 14 2 13 3 15 4 16 5 2 6 1 7 3 8 11 10 9 11 10 12 5 13
REMARK SMILES IDX 6 14 7 15 8 16 4 17
REMARK H PARENT
REMARK Flexibility Score: 60.00
ROOT
ATOM      1  C   UNL     1       0.424 -24.733 -46.037  1.00  0.00    -0.070 C 
ATOM      2  C   UNL     1      -0.139 -25.341 -47.104  1.00  0.00    -0.027 C 
ATOM      3  C   UNL     1       1.919 -24.535 -46.045  1.00  0.00     0.039 C 
ENDROOT
BRANCH   2   4
ATOM      4  C   UNL     1      -1.599 -25.715 -47.239  1.00  0.00     0.032 C 
BRANCH   4   5
ATOM      5  C   UNL     1      -2.019 -26.977 -46.457  1.00  0.00     0.034 C 
BRANCH   5   6
ATOM      6  C   UNL     1      -3.166 -26.729 -45.495  1.00  0.00    -0.077 C 
ATOM      7  C   UNL     1      -4.513 -26.386 -46.081  1.00  0.00     0.039 C 
ATOM      8  C   UNL     1      -3.043 -26.728 -44.145  1.00  0.00    -0.023 CG0
ATOM      9  G   UNL     1      -1.803 -27.059 -43.338  1.00  0.00     0.000 G0
ENDBRANCH   5   6
ENDBRANCH   4   5
ENDBRANCH   2   4
BRANCH   1  10
ATOM     10  C   UNL     1      -0.357 -24.327 -44.803  1.00  0.00     0.111 C 
BRANCH  10  11
ATOM     11  C   UNL     1      -0.038 -25.213 -43.628  1.00  0.00     0.163 C 
ATOM     12  O   UNL     1       1.172 -25.478 -43.395  1.00  0.00    -0.294 OA
BRANCH  11  13
ATOM     13  C   UNL     1      -1.099 -25.829 -42.778  1.00  0.00    -0.002 C 
ATOM     14  C   UNL     1      -1.361 -25.346 -41.525  1.00  0.00    -0.069 C 
ATOM     15  C   UNL     1      -0.701 -24.082 -41.019  1.00  0.00     0.039 C 
ATOM     16  C   UNL     1      -2.316 -26.044 -40.581  1.00  0.00     0.039 C 
BRANCH  13  17
ATOM     17  C   UNL     1      -1.800 -27.063 -43.324  1.00  0.00     0.066 CG0
ATOM     18  G   UNL     1      -3.030 -26.714 -44.138  1.00  0.00     0.000 G0
ENDBRANCH  13  17
ENDBRANCH  11  13
ENDBRANCH  10  11
ENDBRANCH   1  10
TORSDOF 0
ENDMDL
MODEL 8
REMARK VINA RESULT:    -2.878      2.435      4.243
REMARK INTER + INTRA:          -3.792
REMARK INTER:                  -4.284
REMARK INTRA:                   0.492
REMARK UNBOUND:                 0.264
REMARK SMILES CC1=CCC(=C(C)C)C(=O)CC(C)=CCC1
REMARK SMILES IDX 12 1 14 2 13 3 15 4 16 5 2 6 1 7 3 8 11 10 9 11 10 12 5 13
REMARK SMILES IDX 6 14 7 15 8 16 4 17
REMARK H PARENT
REMARK Flexibility Score: 60.00
ROOT
ATOM      1  C   UNL     1       0.161 -10.850 -41.442  1.00  0.00    -0.070 C 
ATOM      2  C   UNL     1       0.068  -9.593 -40.954  1.00  0.00    -0.027 C 
ATOM      3  C   UNL     1       0.523 -11.016 -42.897  1.00  0.00     0.039 C 
ENDROOT
BRANCH   2   4
ATOM      4  C   UNL     1      -0.376  -9.219 -39.557  1.00  0.00     0.032 C 
BRANCH   4   5
ATOM      5  C   UNL     1      -1.672  -8.387 -39.490  1.00  0.00     0.034 C 
BRANCH   5   6
ATOM      6  C   UNL     1      -2.820  -9.003 -40.269  1.00  0.00    -0.077 C 
ATOM      7  C   UNL     1      -3.381  -8.221 -41.430  1.00  0.00     0.039 C 
ATOM      8  C   UNL     1      -3.418 -10.176 -39.946  1.00  0.00    -0.023 CG0
ATOM      9  G   UNL     1      -3.019 -11.134 -38.842  1.00  0.00     0.000 G0
ENDBRANCH   5   6
ENDBRANCH   4   5
ENDBRANCH   2   4
BRANCH   1  10
ATOM     10  C   UNL     1      -0.169 -12.084 -40.628  1.00  0.00     0.111 C 
BRANCH  10  11
ATOM     11  C   UNL     1      -1.647 -12.374 -40.632  1.00  0.00     0.163 C 
ATOM     12  O   UNL     1      -2.224 -12.505 -41.745  1.00  0.00    -0.294 OA
BRANCH  11  13
ATOM     13  C   UNL     1      -2.452 -12.448 -39.377  1.00  0.00    -0.002 C 
ATOM     14  C   UNL     1      -2.735 -13.655 -38.798  1.00  0.00    -0.069 C 
ATOM     15  C   UNL     1      -2.116 -14.936 -39.314  1.00  0.00     0.039 C 
ATOM     16  C   UNL     1      -3.676 -13.776 -37.620  1.00  0.00     0.039 C 
BRANCH  13  17
ATOM     17  C   UNL     1      -3.016 -11.146 -38.833  1.00  0.00     0.066 CG0
ATOM     18  G   UNL     1      -3.415 -10.185 -39.936  1.00  0.00     0.000 G0
ENDBRANCH  13  17
ENDBRANCH  11  13
ENDBRANCH  10  11
ENDBRANCH   1  10
TORSDOF 0
ENDMDL
MODEL 9
REMARK VINA RESULT:    -2.832      2.454      5.519
REMARK INTER + INTRA:          -3.727
REMARK INTER:                  -4.521
REMARK INTRA:                   0.795
REMARK UNBOUND:                 0.264
REMARK SMILES CC1=CCC(=C(C)C)C(=O)CC(C)=CCC1
REMARK SMILES IDX 12 1 14 2 13 3 15 4 16 5 2 6 1 7 3 8 11 10 9 11 10 12 5 13
REMARK SMILES IDX 6 14 7 15 8 16 4 17
REMARK H PARENT
REMARK Flexibility Score: 60.00
ROOT
ATOM      1  C   UNL     1      -0.778 -11.335 -41.337  1.00  0.00    -0.070 C 
ATOM      2  C   UNL     1      -1.127 -10.542 -42.374  1.00  0.00    -0.027 C 
ATOM      3  C   UNL     1       0.667 -11.752 -41.223  1.00  0.00     0.039 C 
ENDROOT
BRANCH   2   4
ATOM      4  C   UNL     1      -2.533 -10.100 -42.713  1.00  0.00     0.032 C 
BRANCH   4   5
ATOM      5  C   UNL     1      -2.730  -8.572 -42.793  1.00  0.00     0.034 C 
BRANCH   5   6
ATOM      6  C   UNL     1      -3.522  -8.009 -41.627  1.00  0.00    -0.077 C 
ATOM      7  C   UNL     1      -4.903  -7.474 -41.910  1.00  0.00     0.039 C 
ATOM      8  C   UNL     1      -3.042  -7.892 -40.364  1.00  0.00    -0.023 CG0
ATOM      9  G   UNL     1      -1.701  -8.372 -39.846  1.00  0.00     0.000 G0
ENDBRANCH   5   6
ENDBRANCH   4   5
ENDBRANCH   2   4
BRANCH   1  10
ATOM     10  C   UNL     1      -1.777 -11.894 -40.345  1.00  0.00     0.111 C 
BRANCH  10  11
ATOM     11  C   UNL     1      -2.514 -10.798 -39.620  1.00  0.00     0.163 C 
ATOM     12  O   UNL     1      -3.773 -10.850 -39.586  1.00  0.00    -0.294 OA
BRANCH  11  13
ATOM     13  C   UNL     1      -1.812  -9.634 -39.003  1.00  0.00    -0.002 C 
ATOM     14  C   UNL     1      -1.370  -9.689 -37.710  1.00  0.00    -0.069 C 
ATOM     15  C   UNL     1      -1.433 -10.975 -36.915  1.00  0.00     0.039 C 
ATOM     16  C   UNL     1      -0.800  -8.477 -37.006  1.00  0.00     0.039 C 
BRANCH  13  17
ATOM     17  C   UNL     1      -1.700  -8.367 -39.836  1.00  0.00     0.066 CG0
ATOM     18  G   UNL     1      -3.044  -7.896 -40.353  1.00  0.00     0.000 G0
ENDBRANCH  13  17
ENDBRANCH  11  13
ENDBRANCH  10  11
ENDBRANCH   1  10
TORSDOF 0
ENDMDL
