MODEL 1
REMARK VINA RESULT:    -4.293      0.000      0.000
REMARK INTER + INTRA:          -6.044
REMARK INTER:                  -5.548
REMARK INTRA:                  -0.496
REMARK UNBOUND:                -0.496
REMARK SMILES C=CC(=O)CCCCC
REMARK SMILES IDX 6 1 7 2 8 3 9 4 5 5 3 6 4 7 2 8 1 9
REMARK H PARENT
REMARK Flexibility Score: inf
ROOT
ATOM      1  C   UNL     1       4.421  15.160  -8.587  1.00  0.00     0.008 C 
ENDROOT
BRANCH   1   2
ATOM      2  C   UNL     1       2.986  14.712  -8.916  1.00  0.00     0.000 C 
BRANCH   2   3
ATOM      3  C   UNL     1       2.098  14.615  -7.666  1.00  0.00    -0.003 C 
ATOM      4  C   UNL     1       2.646  15.415  -6.486  1.00  0.00     0.004 C 
ENDBRANCH   2   3
ENDBRANCH   1   2
BRANCH   1   5
ATOM      5  C   UNL     1       5.445  14.039  -8.809  1.00  0.00     0.080 C 
BRANCH   5   6
ATOM      6  C   UNL     1       5.222  12.883  -7.876  1.00  0.00     0.155 C 
ATOM      7  O   UNL     1       5.287  13.075  -6.630  1.00  0.00    -0.295 OA
BRANCH   6   8
ATOM      8  C   UNL     1       4.958  11.534  -8.414  1.00  0.00     0.039 C 
ATOM      9  C   UNL     1       3.867  11.249  -9.123  1.00  0.00     0.012 C 
ENDBRANCH   6   8
ENDBRANCH   5   6
ENDBRANCH   1   5
TORSDOF 5
ENDMDL
MODEL 2
REMARK VINA RESULT:    -4.187      1.440      3.486
REMARK INTER + INTRA:          -5.907
REMARK INTER:                  -5.400
REMARK INTRA:                  -0.507
REMARK UNBOUND:                -0.496
REMARK SMILES C=CC(=O)CCCCC
REMARK SMILES IDX 6 1 7 2 8 3 9 4 5 5 3 6 4 7 2 8 1 9
REMARK H PARENT
REMARK Flexibility Score: inf
ROOT
ATOM      1  C   UNL     1       5.290  13.220  -7.066  1.00  0.00     0.008 C 
ENDROOT
BRANCH   1   2
ATOM      2  C   UNL     1       5.477  12.917  -8.563  1.00  0.00     0.000 C 
BRANCH   2   3
ATOM      3  C   UNL     1       4.502  11.845  -9.074  1.00  0.00    -0.003 C 
ATOM      4  C   UNL     1       3.585  11.307  -7.977  1.00  0.00     0.004 C 
ENDBRANCH   2   3
ENDBRANCH   1   2
BRANCH   1   5
ATOM      5  C   UNL     1       4.799  14.653  -6.821  1.00  0.00     0.080 C 
BRANCH   5   6
ATOM      6  C   UNL     1       3.461  14.678  -6.137  1.00  0.00     0.155 C 
ATOM      7  O   UNL     1       3.414  14.740  -4.878  1.00  0.00    -0.295 OA
BRANCH   6   8
ATOM      8  C   UNL     1       2.219  14.603  -6.931  1.00  0.00     0.039 C 
ATOM      9  C   UNL     1       2.220  14.643  -8.263  1.00  0.00     0.012 C 
ENDBRANCH   6   8
ENDBRANCH   5   6
ENDBRANCH   1   5
TORSDOF 5
ENDMDL
MODEL 3
REMARK VINA RESULT:    -4.134      1.250      3.861
REMARK INTER + INTRA:          -5.838
REMARK INTER:                  -5.320
REMARK INTRA:                  -0.518
REMARK UNBOUND:                -0.496
REMARK SMILES C=CC(=O)CCCCC
REMARK SMILES IDX 6 1 7 2 8 3 9 4 5 5 3 6 4 7 2 8 1 9
REMARK H PARENT
REMARK Flexibility Score: inf
ROOT
ATOM      1  C   UNL     1       3.122  13.975  -9.121  1.00  0.00     0.008 C 
ENDROOT
BRANCH   1   2
ATOM      2  C   UNL     1       4.579  14.454  -9.002  1.00  0.00     0.000 C 
BRANCH   2   3
ATOM      3  C   UNL     1       5.565  13.296  -8.783  1.00  0.00    -0.003 C 
ATOM      4  C   UNL     1       4.875  11.934  -8.719  1.00  0.00     0.004 C 
ENDBRANCH   2   3
ENDBRANCH   1   2
BRANCH   1   5
ATOM      5  C   UNL     1       2.210  14.619  -8.068  1.00  0.00     0.080 C 
BRANCH   5   6
ATOM      6  C   UNL     1       2.607  14.233  -6.671  1.00  0.00     0.155 C 
ATOM      7  O   UNL     1       2.525  13.024  -6.319  1.00  0.00    -0.295 OA
BRANCH   6   8
ATOM      8  C   UNL     1       3.060  15.264  -5.716  1.00  0.00     0.039 C 
ATOM      9  C   UNL     1       3.349  16.508  -6.093  1.00  0.00     0.012 C 
ENDBRANCH   6   8
ENDBRANCH   5   6
ENDBRANCH   1   5
TORSDOF 5
ENDMDL
MODEL 4
REMARK VINA RESULT:    -4.113      1.296      2.027
REMARK INTER + INTRA:          -5.811
REMARK INTER:                  -5.311
REMARK INTRA:                  -0.500
REMARK UNBOUND:                -0.496
REMARK SMILES C=CC(=O)CCCCC
REMARK SMILES IDX 6 1 7 2 8 3 9 4 5 5 3 6 4 7 2 8 1 9
REMARK H PARENT
REMARK Flexibility Score: inf
ROOT
ATOM      1  C   UNL     1       2.266  14.690  -8.044  1.00  0.00     0.008 C 
ENDROOT
BRANCH   1   2
ATOM      2  C   UNL     1       2.440  14.072  -6.646  1.00  0.00     0.000 C 
BRANCH   2   3
ATOM      3  C   UNL     1       2.913  15.096  -5.603  1.00  0.00    -0.003 C 
ATOM      4  C   UNL     1       3.222  16.463  -6.212  1.00  0.00     0.004 C 
ENDBRANCH   2   3
ENDBRANCH   1   2
BRANCH   1   5
ATOM      5  C   UNL     1       3.021  13.904  -9.125  1.00  0.00     0.080 C 
BRANCH   5   6
ATOM      6  C   UNL     1       4.504  13.893  -8.877  1.00  0.00     0.155 C 
ATOM      7  O   UNL     1       5.125  14.990  -8.813  1.00  0.00    -0.295 OA
BRANCH   6   8
ATOM      8  C   UNL     1       5.225  12.613  -8.741  1.00  0.00     0.039 C 
ATOM      9  C   UNL     1       4.598  11.463  -8.499  1.00  0.00     0.012 C 
ENDBRANCH   6   8
ENDBRANCH   5   6
ENDBRANCH   1   5
TORSDOF 5
ENDMDL
MODEL 5
REMARK VINA RESULT:    -4.030      1.526      3.818
REMARK INTER + INTRA:          -5.704
REMARK INTER:                  -5.239
REMARK INTRA:                  -0.465
REMARK UNBOUND:                -0.496
REMARK SMILES C=CC(=O)CCCCC
REMARK SMILES IDX 6 1 7 2 8 3 9 4 5 5 3 6 4 7 2 8 1 9
REMARK H PARENT
REMARK Flexibility Score: inf
ROOT
ATOM      1  C   UNL     1       5.552  14.155  -8.531  1.00  0.00     0.008 C 
ENDROOT
BRANCH   1   2
ATOM      2  C   UNL     1       5.262  12.895  -7.697  1.00  0.00     0.000 C 
BRANCH   2   3
ATOM      3  C   UNL     1       4.747  11.727  -8.553  1.00  0.00    -0.003 C 
ATOM      4  C   UNL     1       3.335  11.289  -8.169  1.00  0.00     0.004 C 
ENDBRANCH   2   3
ENDBRANCH   1   2
BRANCH   1   5
ATOM      5  C   UNL     1       4.275  14.766  -9.125  1.00  0.00     0.080 C 
BRANCH   5   6
ATOM      6  C   UNL     1       3.283  15.137  -8.059  1.00  0.00     0.155 C 
ATOM      7  O   UNL     1       2.117  14.657  -8.110  1.00  0.00    -0.295 OA
BRANCH   6   8
ATOM      8  C   UNL     1       3.662  16.075  -6.984  1.00  0.00     0.039 C 
ATOM      9  C   UNL     1       3.497  15.786  -5.694  1.00  0.00     0.012 C 
ENDBRANCH   6   8
ENDBRANCH   5   6
ENDBRANCH   1   5
TORSDOF 5
ENDMDL
MODEL 6
REMARK VINA RESULT:    -3.973      1.647      3.799
REMARK INTER + INTRA:          -5.629
REMARK INTER:                  -5.040
REMARK INTRA:                  -0.590
REMARK UNBOUND:                -0.496
REMARK SMILES C=CC(=O)CCCCC
REMARK SMILES IDX 6 1 7 2 8 3 9 4 5 5 3 6 4 7 2 8 1 9
REMARK H PARENT
REMARK Flexibility Score: inf
ROOT
ATOM      1  C   UNL     1       3.056  13.290  -9.110  1.00  0.00     0.008 C 
ENDROOT
BRANCH   1   2
ATOM      2  C   UNL     1       3.319  12.227  -8.030  1.00  0.00     0.000 C 
BRANCH   2   3
ATOM      3  C   UNL     1       4.810  11.880  -7.894  1.00  0.00    -0.003 C 
ATOM      4  C   UNL     1       5.524  12.734  -6.848  1.00  0.00     0.004 C 
ENDBRANCH   2   3
ENDBRANCH   1   2
BRANCH   1   5
ATOM      5  C   UNL     1       2.391  14.549  -8.538  1.00  0.00     0.080 C 
BRANCH   5   6
ATOM      6  C   UNL     1       3.387  15.451  -7.863  1.00  0.00     0.155 C 
ATOM      7  O   UNL     1       4.451  15.755  -8.468  1.00  0.00    -0.295 OA
BRANCH   6   8
ATOM      8  C   UNL     1       3.132  15.948  -6.496  1.00  0.00     0.039 C 
ATOM      9  C   UNL     1       2.987  15.130  -5.455  1.00  0.00     0.012 C 
ENDBRANCH   6   8
ENDBRANCH   5   6
ENDBRANCH   1   5
TORSDOF 5
ENDMDL
MODEL 7
REMARK VINA RESULT:    -3.943      1.491      2.266
REMARK INTER + INTRA:          -5.591
REMARK INTER:                  -5.033
REMARK INTRA:                  -0.558
REMARK UNBOUND:                -0.496
REMARK SMILES C=CC(=O)CCCCC
REMARK SMILES IDX 6 1 7 2 8 3 9 4 5 5 3 6 4 7 2 8 1 9
REMARK H PARENT
REMARK Flexibility Score: inf
ROOT
ATOM      1  C   UNL     1       2.621  14.740  -8.286  1.00  0.00     0.008 C 
ENDROOT
BRANCH   1   2
ATOM      2  C   UNL     1       2.139  14.377  -6.870  1.00  0.00     0.000 C 
BRANCH   2   3
ATOM      3  C   UNL     1       2.644  15.361  -5.805  1.00  0.00    -0.003 C 
ATOM      4  C   UNL     1       3.763  16.267  -6.318  1.00  0.00     0.004 C 
ENDBRANCH   2   3
ENDBRANCH   1   2
BRANCH   1   5
ATOM      5  C   UNL     1       2.950  13.498  -9.125  1.00  0.00     0.080 C 
BRANCH   5   6
ATOM      6  C   UNL     1       3.853  12.548  -8.389  1.00  0.00     0.155 C 
ATOM      7  O   UNL     1       3.435  11.391  -8.111  1.00  0.00    -0.295 OA
BRANCH   6   8
ATOM      8  C   UNL     1       5.203  12.978  -7.973  1.00  0.00     0.039 C 
ATOM      9  C   UNL     1       5.607  12.934  -6.705  1.00  0.00     0.012 C 
ENDBRANCH   6   8
ENDBRANCH   5   6
ENDBRANCH   1   5
TORSDOF 5
ENDMDL
MODEL 8
REMARK VINA RESULT:    -3.831      1.625      3.841
REMARK INTER + INTRA:          -5.447
REMARK INTER:                  -4.886
REMARK INTRA:                  -0.561
REMARK UNBOUND:                -0.496
REMARK SMILES C=CC(=O)CCCCC
REMARK SMILES IDX 6 1 7 2 8 3 9 4 5 5 3 6 4 7 2 8 1 9
REMARK H PARENT
REMARK Flexibility Score: inf
ROOT
ATOM      1  C   UNL     1       2.895  12.664  -6.756  1.00  0.00     0.008 C 
ENDROOT
BRANCH   1   2
ATOM      2  C   UNL     1       3.317  12.202  -8.162  1.00  0.00     0.000 C 
BRANCH   2   3
ATOM      3  C   UNL     1       4.842  12.187  -8.345  1.00  0.00    -0.003 C 
ATOM      4  C   UNL     1       5.595  12.593  -7.079  1.00  0.00     0.004 C 
ENDBRANCH   2   3
ENDBRANCH   1   2
BRANCH   1   5
ATOM      5  C   UNL     1       2.241  14.052  -6.772  1.00  0.00     0.080 C 
BRANCH   5   6
ATOM      6  C   UNL     1       3.149  15.106  -6.202  1.00  0.00     0.155 C 
ATOM      7  O   UNL     1       3.349  15.138  -4.957  1.00  0.00    -0.295 OA
BRANCH   6   8
ATOM      8  C   UNL     1       3.773  16.108  -7.088  1.00  0.00     0.039 C 
ATOM      9  C   UNL     1       4.157  15.821  -8.331  1.00  0.00     0.012 C 
ENDBRANCH   6   8
ENDBRANCH   5   6
ENDBRANCH   1   5
TORSDOF 5
ENDMDL
