MODEL 1
REMARK VINA RESULT:    -2.454      0.000      0.000
REMARK INTER + INTRA:          -5.829
REMARK INTER:                  -4.462
REMARK INTRA:                  -1.367
REMARK UNBOUND:                -1.367
REMARK SMILES CCCCCCCCCCCCCC[C@@H](C)C(=O)[O-]
REMARK SMILES IDX 9 1 10 2 11 3 12 4 13 5 14 6 15 7 16 8 17 9 18 10 19 11 8 12
REMARK SMILES IDX 7 13 6 14 5 15 4 16 3 17 2 18 1 19
REMARK H PARENT
REMARK Flexibility Score: inf
ROOT
ATOM      1  C   UNL     1     -53.651 120.865  -8.818  1.00  0.00     0.000 C 
ENDROOT
BRANCH   1   2
ATOM      2  C   UNL     1     -52.972 122.157  -8.349  1.00  0.00     0.000 C 
BRANCH   2   3
ATOM      3  C   UNL     1     -53.384 123.346  -9.229  1.00  0.00     0.000 C 
BRANCH   3   4
ATOM      4  C   UNL     1     -54.712 123.115  -9.972  1.00  0.00     0.000 C 
BRANCH   4   5
ATOM      5  C   UNL     1     -54.576 122.737 -11.459  1.00  0.00     0.001 C 
BRANCH   5   6
ATOM      6  C   UNL     1     -55.890 122.219 -12.069  1.00  0.00     0.009 C 
BRANCH   6   7
ATOM      7  C   UNL     1     -55.952 120.676 -12.125  1.00  0.00     0.032 C 
ATOM      8  C   UNL     1     -54.559 120.033 -12.072  1.00  0.00     0.014 C 
BRANCH   7   9
ATOM      9  C   UNL     1     -56.784 120.162 -10.981  1.00  0.00     0.044 C 
ATOM     10  O   UNL     1     -57.483 120.957 -10.299  1.00  0.00    -0.550 OA
ATOM     11  O   UNL     1     -56.785 118.807 -10.668  1.00  0.00    -0.550 OA
ENDBRANCH   7   9
ENDBRANCH   6   7
ENDBRANCH   5   6
ENDBRANCH   4   5
ENDBRANCH   3   4
ENDBRANCH   2   3
ENDBRANCH   1   2
BRANCH   1  12
ATOM     12  C   UNL     1     -52.617 119.847  -9.314  1.00  0.00     0.000 C 
BRANCH  12  13
ATOM     13  C   UNL     1     -51.288 120.534  -9.656  1.00  0.00    -0.000 C 
BRANCH  13  14
ATOM     14  C   UNL     1     -51.266 121.128 -11.077  1.00  0.00    -0.000 C 
BRANCH  14  15
ATOM     15  C   UNL     1     -49.861 121.431 -11.633  1.00  0.00    -0.000 C 
BRANCH  15  16
ATOM     16  C   UNL     1     -49.654 122.877 -12.124  1.00  0.00    -0.000 C 
BRANCH  16  17
ATOM     17  C   UNL     1     -48.903 123.774 -11.117  1.00  0.00    -0.000 C 
BRANCH  17  18
ATOM     18  C   UNL     1     -49.167 123.368  -9.658  1.00  0.00    -0.003 C 
ATOM     19  C   UNL     1     -49.263 124.594  -8.755  1.00  0.00     0.004 C 
ENDBRANCH  17  18
ENDBRANCH  16  17
ENDBRANCH  15  16
ENDBRANCH  14  15
ENDBRANCH  13  14
ENDBRANCH  12  13
ENDBRANCH   1  12
TORSDOF 14
ENDMDL
MODEL 2
REMARK VINA RESULT:    -2.107      2.926      6.458
REMARK INTER + INTRA:          -5.199
REMARK INTER:                  -4.345
REMARK INTRA:                  -0.854
REMARK UNBOUND:                -1.367
REMARK SMILES CCCCCCCCCCCCCC[C@@H](C)C(=O)[O-]
REMARK SMILES IDX 9 1 10 2 11 3 12 4 13 5 14 6 15 7 16 8 17 9 18 10 19 11 8 12
REMARK SMILES IDX 7 13 6 14 5 15 4 16 3 17 2 18 1 19
REMARK H PARENT
REMARK Flexibility Score: inf
ROOT
ATOM      1  C   UNL     1     -53.315 119.732 -10.375  1.00  0.00     0.000 C 
ENDROOT
BRANCH   1   2
ATOM      2  C   UNL     1     -52.584 120.200 -11.638  1.00  0.00     0.000 C 
BRANCH   2   3
ATOM      3  C   UNL     1     -51.948 121.582 -11.426  1.00  0.00     0.000 C 
BRANCH   3   4
ATOM      4  C   UNL     1     -50.519 121.681 -11.989  1.00  0.00     0.000 C 
BRANCH   4   5
ATOM      5  C   UNL     1     -49.414 121.107 -11.082  1.00  0.00     0.001 C 
BRANCH   5   6
ATOM      6  C   UNL     1     -49.356 121.787  -9.703  1.00  0.00     0.009 C 
BRANCH   6   7
ATOM      7  C   UNL     1     -48.885 123.256  -9.784  1.00  0.00     0.032 C 
ATOM      8  C   UNL     1     -49.132 123.874 -11.167  1.00  0.00     0.014 C 
BRANCH   7   9
ATOM      9  C   UNL     1     -49.594 124.073  -8.738  1.00  0.00     0.044 C 
ATOM     10  O   UNL     1     -48.977 124.980  -8.118  1.00  0.00    -0.550 OA
ATOM     11  O   UNL     1     -50.932 123.832  -8.447  1.00  0.00    -0.550 OA
ENDBRANCH   7   9
ENDBRANCH   6   7
ENDBRANCH   5   6
ENDBRANCH   4   5
ENDBRANCH   3   4
ENDBRANCH   2   3
ENDBRANCH   1   2
BRANCH   1  12
ATOM     12  C   UNL     1     -52.761 120.429  -9.126  1.00  0.00     0.000 C 
BRANCH  12  13
ATOM     13  C   UNL     1     -53.814 121.357  -8.502  1.00  0.00    -0.000 C 
BRANCH  13  14
ATOM     14  C   UNL     1     -54.179 122.547  -9.408  1.00  0.00    -0.000 C 
BRANCH  14  15
ATOM     15  C   UNL     1     -55.578 122.471 -10.049  1.00  0.00    -0.000 C 
BRANCH  15  16
ATOM     16  C   UNL     1     -55.587 122.370 -11.586  1.00  0.00    -0.000 C 
BRANCH  16  17
ATOM     17  C   UNL     1     -56.281 121.100 -12.122  1.00  0.00    -0.000 C 
BRANCH  17  18
ATOM     18  C   UNL     1     -57.218 120.461 -11.085  1.00  0.00    -0.003 C 
ATOM     19  C   UNL     1     -56.857 118.997 -10.848  1.00  0.00     0.004 C 
ENDBRANCH  17  18
ENDBRANCH  16  17
ENDBRANCH  15  16
ENDBRANCH  14  15
ENDBRANCH  13  14
ENDBRANCH  12  13
ENDBRANCH   1  12
TORSDOF 14
ENDMDL
MODEL 3
REMARK VINA RESULT:    -2.019      1.106      1.580
REMARK INTER + INTRA:          -5.038
REMARK INTER:                  -3.753
REMARK INTRA:                  -1.285
REMARK UNBOUND:                -1.367
REMARK SMILES CCCCCCCCCCCCCC[C@@H](C)C(=O)[O-]
REMARK SMILES IDX 9 1 10 2 11 3 12 4 13 5 14 6 15 7 16 8 17 9 18 10 19 11 8 12
REMARK SMILES IDX 7 13 6 14 5 15 4 16 3 17 2 18 1 19
REMARK H PARENT
REMARK Flexibility Score: inf
ROOT
ATOM      1  C   UNL     1     -52.331 119.941  -9.914  1.00  0.00     0.000 C 
ENDROOT
BRANCH   1   2
ATOM      2  C   UNL     1     -53.585 120.191  -9.068  1.00  0.00     0.000 C 
BRANCH   2   3
ATOM      3  C   UNL     1     -53.663 121.657  -8.618  1.00  0.00     0.000 C 
BRANCH   3   4
ATOM      4  C   UNL     1     -55.107 122.139  -8.383  1.00  0.00     0.000 C 
BRANCH   4   5
ATOM      5  C   UNL     1     -56.170 121.503  -9.299  1.00  0.00     0.001 C 
BRANCH   5   6
ATOM      6  C   UNL     1     -56.211 122.138 -10.700  1.00  0.00     0.009 C 
BRANCH   6   7
ATOM      7  C   UNL     1     -56.275 121.084 -11.828  1.00  0.00     0.032 C 
ATOM      8  C   UNL     1     -54.904 120.458 -12.121  1.00  0.00     0.014 C 
BRANCH   7   9
ATOM      9  C   UNL     1     -57.249 120.001 -11.455  1.00  0.00     0.044 C 
ATOM     10  O   UNL     1     -58.469 120.117 -11.749  1.00  0.00    -0.550 OA
ATOM     11  O   UNL     1     -56.813 118.866 -10.780  1.00  0.00    -0.550 OA
ENDBRANCH   7   9
ENDBRANCH   6   7
ENDBRANCH   5   6
ENDBRANCH   4   5
ENDBRANCH   3   4
ENDBRANCH   2   3
ENDBRANCH   1   2
BRANCH   1  12
ATOM     12  C   UNL     1     -51.442 121.190  -9.963  1.00  0.00     0.000 C 
BRANCH  12  13
ATOM     13  C   UNL     1     -51.410 121.786 -11.378  1.00  0.00    -0.000 C 
BRANCH  13  14
ATOM     14  C   UNL     1     -50.096 121.490 -12.125  1.00  0.00    -0.000 C 
BRANCH  14  15
ATOM     15  C   UNL     1     -48.875 122.294 -11.637  1.00  0.00    -0.000 C 
BRANCH  15  16
ATOM     16  C   UNL     1     -48.924 123.804 -11.942  1.00  0.00    -0.000 C 
BRANCH  16  17
ATOM     17  C   UNL     1     -49.395 124.664 -10.750  1.00  0.00    -0.000 C 
BRANCH  17  18
ATOM     18  C   UNL     1     -48.928 124.101  -9.399  1.00  0.00    -0.003 C 
ATOM     19  C   UNL     1     -49.841 124.563  -8.266  1.00  0.00     0.004 C 
ENDBRANCH  17  18
ENDBRANCH  16  17
ENDBRANCH  15  16
ENDBRANCH  14  15
ENDBRANCH  13  14
ENDBRANCH  12  13
ENDBRANCH   1  12
TORSDOF 14
ENDMDL
MODEL 4
REMARK VINA RESULT:    -1.986      1.416      2.384
REMARK INTER + INTRA:          -4.977
REMARK INTER:                  -4.190
REMARK INTRA:                  -0.787
REMARK UNBOUND:                -1.367
REMARK SMILES CCCCCCCCCCCCCC[C@@H](C)C(=O)[O-]
REMARK SMILES IDX 9 1 10 2 11 3 12 4 13 5 14 6 15 7 16 8 17 9 18 10 19 11 8 12
REMARK SMILES IDX 7 13 6 14 5 15 4 16 3 17 2 18 1 19
REMARK H PARENT
REMARK Flexibility Score: inf
ROOT
ATOM      1  C   UNL     1     -52.343 122.103  -9.280  1.00  0.00     0.000 C 
ENDROOT
BRANCH   1   2
ATOM      2  C   UNL     1     -53.617 121.262  -9.139  1.00  0.00     0.000 C 
BRANCH   2   3
ATOM      3  C   UNL     1     -53.312 119.767  -9.311  1.00  0.00     0.000 C 
BRANCH   3   4
ATOM      4  C   UNL     1     -53.388 119.300 -10.777  1.00  0.00     0.000 C 
BRANCH   4   5
ATOM      5  C   UNL     1     -54.297 120.145 -11.689  1.00  0.00     0.001 C 
BRANCH   5   6
ATOM      6  C   UNL     1     -55.758 119.659 -11.694  1.00  0.00     0.009 C 
BRANCH   6   7
ATOM      7  C   UNL     1     -56.758 120.788 -12.029  1.00  0.00     0.032 C 
ATOM      8  C   UNL     1     -58.215 120.304 -12.007  1.00  0.00     0.014 C 
BRANCH   7   9
ATOM      9  C   UNL     1     -56.592 121.918 -11.049  1.00  0.00     0.044 C 
ATOM     10  O   UNL     1     -56.017 122.982 -11.402  1.00  0.00    -0.550 OA
ATOM     11  O   UNL     1     -57.069 121.796  -9.749  1.00  0.00    -0.550 OA
ENDBRANCH   7   9
ENDBRANCH   6   7
ENDBRANCH   5   6
ENDBRANCH   4   5
ENDBRANCH   3   4
ENDBRANCH   2   3
ENDBRANCH   1   2
BRANCH   1  12
ATOM     12  C   UNL     1     -52.401 122.988 -10.531  1.00  0.00     0.000 C 
BRANCH  12  13
ATOM     13  C   UNL     1     -52.087 122.176 -11.795  1.00  0.00    -0.000 C 
BRANCH  13  14
ATOM     14  C   UNL     1     -50.729 121.451 -11.721  1.00  0.00    -0.000 C 
BRANCH  14  15
ATOM     15  C   UNL     1     -49.599 122.256 -11.052  1.00  0.00    -0.000 C 
BRANCH  15  16
ATOM     16  C   UNL     1     -49.345 123.650 -11.657  1.00  0.00    -0.000 C 
BRANCH  16  17
ATOM     17  C   UNL     1     -48.875 124.699 -10.626  1.00  0.00    -0.000 C 
BRANCH  17  18
ATOM     18  C   UNL     1     -48.879 124.153  -9.190  1.00  0.00    -0.003 C 
ATOM     19  C   UNL     1     -49.576 125.119  -8.236  1.00  0.00     0.004 C 
ENDBRANCH  17  18
ENDBRANCH  16  17
ENDBRANCH  15  16
ENDBRANCH  14  15
ENDBRANCH  13  14
ENDBRANCH  12  13
ENDBRANCH   1  12
TORSDOF 14
ENDMDL
MODEL 5
REMARK VINA RESULT:    -1.711      1.755      3.081
REMARK INTER + INTRA:          -4.478
REMARK INTER:                  -3.067
REMARK INTRA:                  -1.411
REMARK UNBOUND:                -1.367
REMARK SMILES CCCCCCCCCCCCCC[C@@H](C)C(=O)[O-]
REMARK SMILES IDX 9 1 10 2 11 3 12 4 13 5 14 6 15 7 16 8 17 9 18 10 19 11 8 12
REMARK SMILES IDX 7 13 6 14 5 15 4 16 3 17 2 18 1 19
REMARK H PARENT
REMARK Flexibility Score: inf
ROOT
ATOM      1  C   UNL     1     -54.453 120.812  -8.419  1.00  0.00     0.000 C 
ENDROOT
BRANCH   1   2
ATOM      2  C   UNL     1     -55.407 122.011  -8.434  1.00  0.00     0.000 C 
BRANCH   2   3
ATOM      3  C   UNL     1     -56.844 121.568  -8.745  1.00  0.00     0.000 C 
BRANCH   3   4
ATOM      4  C   UNL     1     -56.909 120.271  -9.572  1.00  0.00     0.000 C 
BRANCH   4   5
ATOM      5  C   UNL     1     -57.491 120.423 -10.990  1.00  0.00     0.001 C 
BRANCH   5   6
ATOM      6  C   UNL     1     -56.408 120.452 -12.083  1.00  0.00     0.009 C 
BRANCH   6   7
ATOM      7  C   UNL     1     -55.038 120.930 -11.551  1.00  0.00     0.032 C 
ATOM      8  C   UNL     1     -53.877 120.071 -12.071  1.00  0.00     0.014 C 
BRANCH   7   9
ATOM      9  C   UNL     1     -54.815 122.364 -11.946  1.00  0.00     0.044 C 
ATOM     10  O   UNL     1     -53.645 122.797 -12.125  1.00  0.00    -0.550 OA
ATOM     11  O   UNL     1     -55.895 123.223 -12.114  1.00  0.00    -0.550 OA
ENDBRANCH   7   9
ENDBRANCH   6   7
ENDBRANCH   5   6
ENDBRANCH   4   5
ENDBRANCH   3   4
ENDBRANCH   2   3
ENDBRANCH   1   2
BRANCH   1  12
ATOM     12  C   UNL     1     -53.022 121.240  -8.772  1.00  0.00     0.000 C 
BRANCH  12  13
ATOM     13  C   UNL     1     -52.871 122.766  -8.697  1.00  0.00    -0.000 C 
BRANCH  13  14
ATOM     14  C   UNL     1     -51.531 123.207  -8.079  1.00  0.00    -0.000 C 
BRANCH  14  15
ATOM     15  C   UNL     1     -50.683 124.140  -8.964  1.00  0.00    -0.000 C 
BRANCH  15  16
ATOM     16  C   UNL     1     -49.229 123.683  -9.188  1.00  0.00    -0.000 C 
BRANCH  16  17
ATOM     17  C   UNL     1     -48.946 123.190 -10.623  1.00  0.00    -0.000 C 
BRANCH  17  18
ATOM     18  C   UNL     1     -49.091 121.666 -10.760  1.00  0.00    -0.003 C 
ATOM     19  C   UNL     1     -50.450 121.294 -11.348  1.00  0.00     0.004 C 
ENDBRANCH  17  18
ENDBRANCH  16  17
ENDBRANCH  15  16
ENDBRANCH  14  15
ENDBRANCH  13  14
ENDBRANCH  12  13
ENDBRANCH   1  12
TORSDOF 14
ENDMDL
MODEL 6
REMARK VINA RESULT:    -1.619      1.889      3.321
REMARK INTER + INTRA:          -4.310
REMARK INTER:                  -3.417
REMARK INTRA:                  -0.893
REMARK UNBOUND:                -1.367
REMARK SMILES CCCCCCCCCCCCCC[C@@H](C)C(=O)[O-]
REMARK SMILES IDX 9 1 10 2 11 3 12 4 13 5 14 6 15 7 16 8 17 9 18 10 19 11 8 12
REMARK SMILES IDX 7 13 6 14 5 15 4 16 3 17 2 18 1 19
REMARK H PARENT
REMARK Flexibility Score: inf
ROOT
ATOM      1  C   UNL     1     -54.657 121.700  -8.519  1.00  0.00     0.000 C 
ENDROOT
BRANCH   1   2
ATOM      2  C   UNL     1     -56.181 121.737  -8.678  1.00  0.00     0.000 C 
BRANCH   2   3
ATOM      3  C   UNL     1     -56.629 120.901  -9.885  1.00  0.00     0.000 C 
BRANCH   3   4
ATOM      4  C   UNL     1     -56.721 121.720 -11.186  1.00  0.00     0.000 C 
BRANCH   4   5
ATOM      5  C   UNL     1     -55.505 121.602 -12.124  1.00  0.00     0.001 C 
BRANCH   5   6
ATOM      6  C   UNL     1     -54.807 120.234 -12.032  1.00  0.00     0.009 C 
BRANCH   6   7
ATOM      7  C   UNL     1     -53.280 120.358 -11.830  1.00  0.00     0.032 C 
ATOM      8  C   UNL     1     -52.778 121.794 -12.034  1.00  0.00     0.014 C 
BRANCH   7   9
ATOM      9  C   UNL     1     -52.912 119.892 -10.447  1.00  0.00     0.044 C 
ATOM     10  O   UNL     1     -53.646 119.066  -9.842  1.00  0.00    -0.550 OA
ATOM     11  O   UNL     1     -51.764 120.371  -9.827  1.00  0.00    -0.550 OA
ENDBRANCH   7   9
ENDBRANCH   6   7
ENDBRANCH   5   6
ENDBRANCH   4   5
ENDBRANCH   3   4
ENDBRANCH   2   3
ENDBRANCH   1   2
BRANCH   1  12
ATOM     12  C   UNL     1     -54.017 122.999  -9.024  1.00  0.00     0.000 C 
BRANCH  12  13
ATOM     13  C   UNL     1     -52.873 123.443  -8.101  1.00  0.00    -0.000 C 
BRANCH  13  14
ATOM     14  C   UNL     1     -51.528 123.585  -8.838  1.00  0.00    -0.000 C 
BRANCH  14  15
ATOM     15  C   UNL     1     -50.438 124.348  -8.060  1.00  0.00    -0.000 C 
BRANCH  15  16
ATOM     16  C   UNL     1     -49.196 124.733  -8.887  1.00  0.00    -0.000 C 
BRANCH  16  17
ATOM     17  C   UNL     1     -48.994 123.865 -10.147  1.00  0.00    -0.000 C 
BRANCH  17  18
ATOM     18  C   UNL     1     -48.876 122.369  -9.817  1.00  0.00    -0.003 C 
ATOM     19  C   UNL     1     -49.046 121.514 -11.070  1.00  0.00     0.004 C 
ENDBRANCH  17  18
ENDBRANCH  16  17
ENDBRANCH  15  16
ENDBRANCH  14  15
ENDBRANCH  13  14
ENDBRANCH  12  13
ENDBRANCH   1  12
TORSDOF 14
ENDMDL
