MODEL 1
REMARK VINA RESULT:    -2.800      0.000      0.000
REMARK INTER + INTRA:          -3.595
REMARK INTER:                  -3.373
REMARK INTRA:                  -0.222
REMARK UNBOUND:                -0.222
REMARK SMILES OCC(O)CO
REMARK SMILES IDX 3 1 5 2 6 3 2 5 1 6 4 8
REMARK H PARENT 6 4 1 7 4 9
REMARK Flexibility Score: inf
ROOT
ATOM      1  C   UNL     1      25.080  44.585 136.563  1.00  0.00     0.165 C 
ENDROOT
BRANCH   1   2
ATOM      2  C   UNL     1      25.630  44.367 137.980  1.00  0.00     0.190 C 
BRANCH   2   3
ATOM      3  O   UNL     1      26.757  45.172 138.190  1.00  0.00    -0.394 OA
ATOM      4  H   UNL     1      26.887  45.211 139.173  1.00  0.00     0.210 HD
ENDBRANCH   2   3
ENDBRANCH   1   2
BRANCH   1   5
ATOM      5  C   UNL     1      25.095  46.074 136.187  1.00  0.00     0.190 C 
BRANCH   5   6
ATOM      6  O   UNL     1      26.283  46.398 135.517  1.00  0.00    -0.394 OA
ATOM      7  H   UNL     1      26.026  46.933 134.721  1.00  0.00     0.210 HD
ENDBRANCH   5   6
ENDBRANCH   1   5
BRANCH   1   8
ATOM      8  O   UNL     1      25.862  43.871 135.641  1.00  0.00    -0.388 OA
ATOM      9  H   UNL     1      26.521  43.348 136.168  1.00  0.00     0.211 HD
ENDBRANCH   1   8
TORSDOF 5
ENDMDL
MODEL 2
REMARK VINA RESULT:    -2.768     15.268     16.178
REMARK INTER + INTRA:          -3.557
REMARK INTER:                  -3.336
REMARK INTRA:                  -0.220
REMARK UNBOUND:                -0.222
REMARK SMILES OCC(O)CO
REMARK SMILES IDX 3 1 5 2 6 3 2 5 1 6 4 8
REMARK H PARENT 6 4 1 7 4 9
REMARK Flexibility Score: inf
ROOT
ATOM      1  C   UNL     1      29.389  30.681 140.723  1.00  0.00     0.165 C 
ENDROOT
BRANCH   1   2
ATOM      2  C   UNL     1      29.837  29.224 140.543  1.00  0.00     0.190 C 
BRANCH   2   3
ATOM      3  O   UNL     1      30.628  28.825 141.629  1.00  0.00    -0.394 OA
ATOM      4  H   UNL     1      29.996  28.602 142.362  1.00  0.00     0.210 HD
ENDBRANCH   2   3
ENDBRANCH   1   2
BRANCH   1   5
ATOM      5  C   UNL     1      28.334  30.803 141.833  1.00  0.00     0.190 C 
BRANCH   5   6
ATOM      6  O   UNL     1      28.924  30.615 143.091  1.00  0.00    -0.394 OA
ATOM      7  H   UNL     1      29.771  30.120 142.940  1.00  0.00     0.210 HD
ENDBRANCH   5   6
ENDBRANCH   1   5
BRANCH   1   8
ATOM      8  O   UNL     1      30.499  31.475 141.055  1.00  0.00    -0.388 OA
ATOM      9  H   UNL     1      30.201  32.421 141.005  1.00  0.00     0.211 HD
ENDBRANCH   1   8
TORSDOF 5
ENDMDL
MODEL 3
REMARK VINA RESULT:    -2.694      0.634      2.519
REMARK INTER + INTRA:          -3.468
REMARK INTER:                  -3.244
REMARK INTRA:                  -0.223
REMARK UNBOUND:                -0.222
REMARK SMILES OCC(O)CO
REMARK SMILES IDX 3 1 5 2 6 3 2 5 1 6 4 8
REMARK H PARENT 6 4 1 7 4 9
REMARK Flexibility Score: inf
ROOT
ATOM      1  C   UNL     1      25.486  44.958 137.376  1.00  0.00     0.165 C 
ENDROOT
BRANCH   1   2
ATOM      2  C   UNL     1      25.270  45.979 136.250  1.00  0.00     0.190 C 
BRANCH   2   3
ATOM      3  O   UNL     1      26.500  46.342 135.685  1.00  0.00    -0.394 OA
ATOM      4  H   UNL     1      26.360  47.233 135.271  1.00  0.00     0.210 HD
ENDBRANCH   2   3
ENDBRANCH   1   2
BRANCH   1   5
ATOM      5  C   UNL     1      25.468  43.522 136.832  1.00  0.00     0.190 C 
BRANCH   5   6
ATOM      6  O   UNL     1      25.875  43.502 135.490  1.00  0.00    -0.394 OA
ATOM      7  H   UNL     1      25.513  42.666 135.093  1.00  0.00     0.210 HD
ENDBRANCH   5   6
ENDBRANCH   1   5
BRANCH   1   8
ATOM      8  O   UNL     1      26.722  45.199 137.996  1.00  0.00    -0.388 OA
ATOM      9  H   UNL     1      27.326  45.569 137.301  1.00  0.00     0.211 HD
ENDBRANCH   1   8
TORSDOF 5
ENDMDL
MODEL 4
REMARK VINA RESULT:    -2.682      0.877      2.364
REMARK INTER + INTRA:          -3.453
REMARK INTER:                  -3.241
REMARK INTRA:                  -0.212
REMARK UNBOUND:                -0.222
REMARK SMILES OCC(O)CO
REMARK SMILES IDX 3 1 5 2 6 3 2 5 1 6 4 8
REMARK H PARENT 6 4 1 7 4 9
REMARK Flexibility Score: inf
ROOT
ATOM      1  C   UNL     1      25.199  45.231 136.057  1.00  0.00     0.165 C 
ENDROOT
BRANCH   1   2
ATOM      2  C   UNL     1      25.255  43.894 135.306  1.00  0.00     0.190 C 
BRANCH   2   3
ATOM      3  O   UNL     1      26.044  42.975 136.012  1.00  0.00    -0.394 OA
ATOM      4  H   UNL     1      26.521  43.500 136.707  1.00  0.00     0.210 HD
ENDBRANCH   2   3
ENDBRANCH   1   2
BRANCH   1   5
ATOM      5  C   UNL     1      25.434  45.031 137.562  1.00  0.00     0.190 C 
BRANCH   5   6
ATOM      6  O   UNL     1      26.777  45.273 137.884  1.00  0.00    -0.394 OA
ATOM      7  H   UNL     1      27.083  44.503 138.433  1.00  0.00     0.210 HD
ENDBRANCH   5   6
ENDBRANCH   1   5
BRANCH   1   8
ATOM      8  O   UNL     1      26.183  46.095 135.550  1.00  0.00    -0.388 OA
ATOM      9  H   UNL     1      27.049  45.804 135.937  1.00  0.00     0.211 HD
ENDBRANCH   1   8
TORSDOF 5
ENDMDL
MODEL 5
REMARK VINA RESULT:    -2.668      5.697      7.240
REMARK INTER + INTRA:          -3.436
REMARK INTER:                  -3.426
REMARK INTRA:                  -0.010
REMARK UNBOUND:                -0.222
REMARK SMILES OCC(O)CO
REMARK SMILES IDX 3 1 5 2 6 3 2 5 1 6 4 8
REMARK H PARENT 6 4 1 7 4 9
REMARK Flexibility Score: inf
ROOT
ATOM      1  C   UNL     1      28.482  43.895 142.765  1.00  0.00     0.165 C 
ENDROOT
BRANCH   1   2
ATOM      2  C   UNL     1      27.213  44.706 142.467  1.00  0.00     0.190 C 
BRANCH   2   3
ATOM      3  O   UNL     1      27.450  45.605 141.418  1.00  0.00    -0.394 OA
ATOM      4  H   UNL     1      28.185  46.197 141.724  1.00  0.00     0.210 HD
ENDBRANCH   2   3
ENDBRANCH   1   2
BRANCH   1   5
ATOM      5  C   UNL     1      28.457  43.335 144.195  1.00  0.00     0.190 C 
BRANCH   5   6
ATOM      6  O   UNL     1      28.227  44.364 145.120  1.00  0.00    -0.394 OA
ATOM      7  H   UNL     1      28.422  43.990 146.019  1.00  0.00     0.210 HD
ENDBRANCH   5   6
ENDBRANCH   1   5
BRANCH   1   8
ATOM      8  O   UNL     1      28.582  42.830 141.856  1.00  0.00    -0.388 OA
ATOM      9  H   UNL     1      27.808  42.232 142.027  1.00  0.00     0.211 HD
ENDBRANCH   1   8
TORSDOF 5
ENDMDL
MODEL 6
REMARK VINA RESULT:    -2.664     14.360     15.370
REMARK INTER + INTRA:          -3.431
REMARK INTER:                  -3.250
REMARK INTRA:                  -0.181
REMARK UNBOUND:                -0.222
REMARK SMILES OCC(O)CO
REMARK SMILES IDX 3 1 5 2 6 3 2 5 1 6 4 8
REMARK H PARENT 6 4 1 7 4 9
REMARK Flexibility Score: inf
ROOT
ATOM      1  C   UNL     1      24.649  30.602 138.789  1.00  0.00     0.165 C 
ENDROOT
BRANCH   1   2
ATOM      2  C   UNL     1      23.368  31.404 138.518  1.00  0.00     0.190 C 
BRANCH   2   3
ATOM      3  O   UNL     1      22.549  30.713 137.614  1.00  0.00    -0.394 OA
ATOM      4  H   UNL     1      23.045  30.693 136.755  1.00  0.00     0.210 HD
ENDBRANCH   2   3
ENDBRANCH   1   2
BRANCH   1   5
ATOM      5  C   UNL     1      24.321  29.198 139.320  1.00  0.00     0.190 C 
BRANCH   5   6
ATOM      6  O   UNL     1      23.774  28.406 138.301  1.00  0.00    -0.394 OA
ATOM      7  H   UNL     1      23.496  29.024 137.575  1.00  0.00     0.210 HD
ENDBRANCH   5   6
ENDBRANCH   1   5
BRANCH   1   8
ATOM      8  O   UNL     1      25.389  30.484 137.602  1.00  0.00    -0.388 OA
ATOM      9  H   UNL     1      26.284  30.138 137.854  1.00  0.00     0.211 HD
ENDBRANCH   1   8
TORSDOF 5
ENDMDL
MODEL 7
REMARK VINA RESULT:    -2.646     15.221     16.158
REMARK INTER + INTRA:          -3.409
REMARK INTER:                  -3.185
REMARK INTRA:                  -0.224
REMARK UNBOUND:                -0.222
REMARK SMILES OCC(O)CO
REMARK SMILES IDX 3 1 5 2 6 3 2 5 1 6 4 8
REMARK H PARENT 6 4 1 7 4 9
REMARK Flexibility Score: inf
ROOT
ATOM      1  C   UNL     1      28.767  30.177 141.335  1.00  0.00     0.165 C 
ENDROOT
BRANCH   1   2
ATOM      2  C   UNL     1      29.226  31.616 141.060  1.00  0.00     0.190 C 
BRANCH   2   3
ATOM      3  O   UNL     1      30.626  31.687 141.076  1.00  0.00    -0.394 OA
ATOM      4  H   UNL     1      30.881  31.871 142.017  1.00  0.00     0.210 HD
ENDBRANCH   2   3
ENDBRANCH   1   2
BRANCH   1   5
ATOM      5  C   UNL     1      29.328  29.207 140.285  1.00  0.00     0.190 C 
BRANCH   5   6
ATOM      6  O   UNL     1      30.622  28.797 140.639  1.00  0.00    -0.394 OA
ATOM      7  H   UNL     1      30.688  27.831 140.416  1.00  0.00     0.210 HD
ENDBRANCH   5   6
ENDBRANCH   1   5
BRANCH   1   8
ATOM      8  O   UNL     1      29.206  29.780 142.608  1.00  0.00    -0.388 OA
ATOM      9  H   UNL     1      28.440  29.327 143.048  1.00  0.00     0.211 HD
ENDBRANCH   1   8
TORSDOF 5
ENDMDL
MODEL 8
REMARK VINA RESULT:    -2.605     15.545     16.346
REMARK INTER + INTRA:          -3.360
REMARK INTER:                  -3.326
REMARK INTRA:                  -0.033
REMARK UNBOUND:                -0.222
REMARK SMILES OCC(O)CO
REMARK SMILES IDX 3 1 5 2 6 3 2 5 1 6 4 8
REMARK H PARENT 6 4 1 7 4 9
REMARK Flexibility Score: inf
ROOT
ATOM      1  C   UNL     1      29.380  29.525 141.048  1.00  0.00     0.165 C 
ENDROOT
BRANCH   1   2
ATOM      2  C   UNL     1      28.631  29.904 142.333  1.00  0.00     0.190 C 
BRANCH   2   3
ATOM      3  O   UNL     1      29.328  29.434 143.454  1.00  0.00    -0.394 OA
ATOM      4  H   UNL     1      30.086  30.060 143.588  1.00  0.00     0.210 HD
ENDBRANCH   2   3
ENDBRANCH   1   2
BRANCH   1   5
ATOM      5  C   UNL     1      29.729  30.772 140.222  1.00  0.00     0.190 C 
BRANCH   5   6
ATOM      6  O   UNL     1      30.550  31.634 140.963  1.00  0.00    -0.394 OA
ATOM      7  H   UNL     1      30.976  31.086 141.673  1.00  0.00     0.210 HD
ENDBRANCH   5   6
ENDBRANCH   1   5
BRANCH   1   8
ATOM      8  O   UNL     1      30.564  28.846 141.378  1.00  0.00    -0.388 OA
ATOM      9  H   UNL     1      31.265  29.172 140.756  1.00  0.00     0.211 HD
ENDBRANCH   1   8
TORSDOF 5
ENDMDL
MODEL 9
REMARK VINA RESULT:    -2.594     14.156     15.145
REMARK INTER + INTRA:          -3.347
REMARK INTER:                  -3.152
REMARK INTRA:                  -0.195
REMARK UNBOUND:                -0.222
REMARK SMILES OCC(O)CO
REMARK SMILES IDX 3 1 5 2 6 3 2 5 1 6 4 8
REMARK H PARENT 6 4 1 7 4 9
REMARK Flexibility Score: inf
ROOT
ATOM      1  C   UNL     1      24.695  30.622 138.406  1.00  0.00     0.165 C 
ENDROOT
BRANCH   1   2
ATOM      2  C   UNL     1      24.540  29.281 139.137  1.00  0.00     0.190 C 
BRANCH   2   3
ATOM      3  O   UNL     1      23.759  28.403 138.373  1.00  0.00    -0.394 OA
ATOM      4  H   UNL     1      24.396  27.779 137.937  1.00  0.00     0.210 HD
ENDBRANCH   2   3
ENDBRANCH   1   2
BRANCH   1   5
ATOM      5  C   UNL     1      23.358  31.376 138.342  1.00  0.00     0.190 C 
BRANCH   5   6
ATOM      6  O   UNL     1      22.430  30.661 137.570  1.00  0.00    -0.394 OA
ATOM      7  H   UNL     1      22.275  31.191 136.745  1.00  0.00     0.210 HD
ENDBRANCH   5   6
ENDBRANCH   1   5
BRANCH   1   8
ATOM      8  O   UNL     1      25.638  31.416 139.078  1.00  0.00    -0.388 OA
ATOM      9  H   UNL     1      25.470  31.301 140.050  1.00  0.00     0.211 HD
ENDBRANCH   1   8
TORSDOF 5
ENDMDL
