MODEL 1
REMARK VINA RESULT:    -3.830      0.000      0.000
REMARK INTER + INTRA:          -5.103
REMARK INTER:                  -4.950
REMARK INTRA:                  -0.153
REMARK UNBOUND:                -0.153
REMARK SMILES CCCCCCC(=O)[O-]
REMARK SMILES IDX 5 1 6 2 7 3 8 4 9 5 4 6 3 7 2 8 1 9
REMARK H PARENT
REMARK Flexibility Score: inf
ROOT
ATOM      1  C   UNL     1      37.749  82.836  23.503  1.00  0.00     0.006 C 
ENDROOT
BRANCH   1   2
ATOM      2  C   UNL     1      36.713  81.757  23.846  1.00  0.00     0.053 C 
BRANCH   2   3
ATOM      3  C   UNL     1      35.623  81.735  22.821  1.00  0.00     0.041 C 
ATOM      4  O   UNL     1      34.586  82.429  22.985  1.00  0.00    -0.550 OA
ATOM      5  O   UNL     1      35.732  80.911  21.708  1.00  0.00    -0.550 OA
ENDBRANCH   2   3
ENDBRANCH   1   2
BRANCH   1   6
ATOM      6  C   UNL     1      39.146  82.512  24.057  1.00  0.00     0.000 C 
BRANCH   6   7
ATOM      7  C   UNL     1      39.099  81.923  25.474  1.00  0.00    -0.000 C 
BRANCH   7   8
ATOM      8  C   UNL     1      39.820  80.571  25.530  1.00  0.00    -0.003 C 
ATOM      9  C   UNL     1      41.334  80.756  25.583  1.00  0.00     0.004 C 
ENDBRANCH   7   8
ENDBRANCH   6   7
ENDBRANCH   1   6
TORSDOF 5
ENDMDL
MODEL 2
REMARK VINA RESULT:    -3.690     14.708     16.391
REMARK INTER + INTRA:          -4.922
REMARK INTER:                  -4.608
REMARK INTRA:                  -0.314
REMARK UNBOUND:                -0.153
REMARK SMILES CCCCCCC(=O)[O-]
REMARK SMILES IDX 5 1 6 2 7 3 8 4 9 5 4 6 3 7 2 8 1 9
REMARK H PARENT
REMARK Flexibility Score: inf
ROOT
ATOM      1  C   UNL     1      34.177  76.120   8.799  1.00  0.00     0.006 C 
ENDROOT
BRANCH   1   2
ATOM      2  C   UNL     1      34.767  75.811   7.416  1.00  0.00     0.053 C 
BRANCH   2   3
ATOM      3  C   UNL     1      36.075  75.098   7.555  1.00  0.00     0.041 C 
ATOM      4  O   UNL     1      36.805  75.304   8.560  1.00  0.00    -0.550 OA
ATOM      5  O   UNL     1      36.511  74.244   6.550  1.00  0.00    -0.550 OA
ENDBRANCH   2   3
ENDBRANCH   1   2
BRANCH   1   6
ATOM      6  C   UNL     1      33.860  77.612   8.987  1.00  0.00     0.000 C 
BRANCH   6   7
ATOM      7  C   UNL     1      34.262  78.132  10.375  1.00  0.00    -0.000 C 
BRANCH   7   8
ATOM      8  C   UNL     1      35.106  77.096  11.126  1.00  0.00    -0.003 C 
ATOM      9  C   UNL     1      36.484  77.654  11.472  1.00  0.00     0.004 C 
ENDBRANCH   7   8
ENDBRANCH   6   7
ENDBRANCH   1   6
TORSDOF 5
ENDMDL
MODEL 3
REMARK VINA RESULT:    -3.578     14.927     16.499
REMARK INTER + INTRA:          -4.777
REMARK INTER:                  -4.623
REMARK INTRA:                  -0.154
REMARK UNBOUND:                -0.153
REMARK SMILES CCCCCCC(=O)[O-]
REMARK SMILES IDX 5 1 6 2 7 3 8 4 9 5 4 6 3 7 2 8 1 9
REMARK H PARENT
REMARK Flexibility Score: inf
ROOT
ATOM      1  C   UNL     1      34.696  75.966   9.232  1.00  0.00     0.006 C 
ENDROOT
BRANCH   1   2
ATOM      2  C   UNL     1      35.936  76.201  10.104  1.00  0.00     0.053 C 
BRANCH   2   3
ATOM      3  C   UNL     1      35.741  77.401  10.976  1.00  0.00     0.041 C 
ATOM      4  O   UNL     1      36.615  77.716  11.825  1.00  0.00    -0.550 OA
ATOM      5  O   UNL     1      34.569  78.142  10.886  1.00  0.00    -0.550 OA
ENDBRANCH   2   3
ENDBRANCH   1   2
BRANCH   1   6
ATOM      6  C   UNL     1      35.034  75.299   7.889  1.00  0.00     0.000 C 
BRANCH   6   7
ATOM      7  C   UNL     1      36.543  75.094   7.693  1.00  0.00    -0.000 C 
BRANCH   7   8
ATOM      8  C   UNL     1      36.819  74.155   6.512  1.00  0.00    -0.003 C 
ATOM      9  C   UNL     1      38.221  73.559   6.599  1.00  0.00     0.004 C 
ENDBRANCH   7   8
ENDBRANCH   6   7
ENDBRANCH   1   6
TORSDOF 5
ENDMDL
MODEL 4
REMARK VINA RESULT:    -3.537      2.996      5.041
REMARK INTER + INTRA:          -4.724
REMARK INTER:                  -4.611
REMARK INTRA:                  -0.113
REMARK UNBOUND:                -0.153
REMARK SMILES CCCCCCC(=O)[O-]
REMARK SMILES IDX 5 1 6 2 7 3 8 4 9 5 4 6 3 7 2 8 1 9
REMARK H PARENT
REMARK Flexibility Score: inf
ROOT
ATOM      1  C   UNL     1      38.423  82.530  24.073  1.00  0.00     0.006 C 
ENDROOT
BRANCH   1   2
ATOM      2  C   UNL     1      39.277  82.280  25.324  1.00  0.00     0.053 C 
BRANCH   2   3
ATOM      3  C   UNL     1      40.158  81.087  25.124  1.00  0.00     0.041 C 
ATOM      4  O   UNL     1      39.912  80.010  25.727  1.00  0.00    -0.550 OA
ATOM      5  O   UNL     1      41.280  81.181  24.311  1.00  0.00    -0.550 OA
ENDBRANCH   2   3
ENDBRANCH   1   2
BRANCH   1   6
ATOM      6  C   UNL     1      37.294  81.500  23.911  1.00  0.00     0.000 C 
BRANCH   6   7
ATOM      7  C   UNL     1      36.099  82.052  23.120  1.00  0.00    -0.000 C 
BRANCH   7   8
ATOM      8  C   UNL     1      35.543  80.995  22.159  1.00  0.00    -0.003 C 
ATOM      9  C   UNL     1      34.028  80.874  22.288  1.00  0.00     0.004 C 
ENDBRANCH   7   8
ENDBRANCH   6   7
ENDBRANCH   1   6
TORSDOF 5
ENDMDL
MODEL 5
REMARK VINA RESULT:    -3.504     14.315     16.105
REMARK INTER + INTRA:          -4.681
REMARK INTER:                  -4.308
REMARK INTRA:                  -0.373
REMARK UNBOUND:                -0.153
REMARK SMILES CCCCCCC(=O)[O-]
REMARK SMILES IDX 5 1 6 2 7 3 8 4 9 5 4 6 3 7 2 8 1 9
REMARK H PARENT
REMARK Flexibility Score: inf
ROOT
ATOM      1  C   UNL     1      33.463  77.275   9.421  1.00  0.00     0.006 C 
ENDROOT
BRANCH   1   2
ATOM      2  C   UNL     1      34.273  77.950  10.536  1.00  0.00     0.053 C 
BRANCH   2   3
ATOM      3  C   UNL     1      35.287  77.001  11.093  1.00  0.00     0.041 C 
ATOM      4  O   UNL     1      36.465  77.387  11.307  1.00  0.00    -0.550 OA
ATOM      5  O   UNL     1      34.941  75.677  11.331  1.00  0.00    -0.550 OA
ENDBRANCH   2   3
ENDBRANCH   1   2
BRANCH   1   6
ATOM      6  C   UNL     1      34.304  76.993   8.166  1.00  0.00     0.000 C 
BRANCH   6   7
ATOM      7  C   UNL     1      34.226  75.527   7.717  1.00  0.00    -0.000 C 
BRANCH   7   8
ATOM      8  C   UNL     1      35.570  75.055   7.149  1.00  0.00    -0.003 C 
ATOM      9  C   UNL     1      36.681  75.177   8.187  1.00  0.00     0.004 C 
ENDBRANCH   7   8
ENDBRANCH   6   7
ENDBRANCH   1   6
TORSDOF 5
ENDMDL
MODEL 6
REMARK VINA RESULT:    -3.389     14.113     15.833
REMARK INTER + INTRA:          -4.533
REMARK INTER:                  -4.291
REMARK INTRA:                  -0.242
REMARK UNBOUND:                -0.153
REMARK SMILES CCCCCCC(=O)[O-]
REMARK SMILES IDX 5 1 6 2 7 3 8 4 9 5 4 6 3 7 2 8 1 9
REMARK H PARENT
REMARK Flexibility Score: inf
ROOT
ATOM      1  C   UNL     1      33.895  77.573   9.193  1.00  0.00     0.006 C 
ENDROOT
BRANCH   1   2
ATOM      2  C   UNL     1      34.670  77.742  10.507  1.00  0.00     0.053 C 
BRANCH   2   3
ATOM      3  C   UNL     1      33.815  77.350  11.670  1.00  0.00     0.041 C 
ATOM      4  O   UNL     1      33.453  78.214  12.510  1.00  0.00    -0.550 OA
ATOM      5  O   UNL     1      33.458  76.020  11.854  1.00  0.00    -0.550 OA
ENDBRANCH   2   3
ENDBRANCH   1   2
BRANCH   1   6
ATOM      6  C   UNL     1      34.487  76.476   8.294  1.00  0.00     0.000 C 
BRANCH   6   7
ATOM      7  C   UNL     1      35.692  75.772   8.933  1.00  0.00    -0.000 C 
BRANCH   7   8
ATOM      8  C   UNL     1      36.565  75.102   7.866  1.00  0.00    -0.003 C 
ATOM      9  C   UNL     1      35.778  74.859   6.582  1.00  0.00     0.004 C 
ENDBRANCH   7   8
ENDBRANCH   6   7
ENDBRANCH   1   6
TORSDOF 5
ENDMDL
MODEL 7
REMARK VINA RESULT:    -3.370     14.340     15.840
REMARK INTER + INTRA:          -4.508
REMARK INTER:                  -4.077
REMARK INTRA:                  -0.431
REMARK UNBOUND:                -0.153
REMARK SMILES CCCCCCC(=O)[O-]
REMARK SMILES IDX 5 1 6 2 7 3 8 4 9 5 4 6 3 7 2 8 1 9
REMARK H PARENT
REMARK Flexibility Score: inf
ROOT
ATOM      1  C   UNL     1      34.337  76.219   8.314  1.00  0.00     0.006 C 
ENDROOT
BRANCH   1   2
ATOM      2  C   UNL     1      35.655  75.844   9.005  1.00  0.00     0.053 C 
BRANCH   2   3
ATOM      3  C   UNL     1      35.530  75.999  10.488  1.00  0.00     0.041 C 
ATOM      4  O   UNL     1      34.694  75.310  11.128  1.00  0.00    -0.550 OA
ATOM      5  O   UNL     1      36.302  76.941  11.155  1.00  0.00    -0.550 OA
ENDBRANCH   2   3
ENDBRANCH   1   2
BRANCH   1   6
ATOM      6  C   UNL     1      33.887  77.653   8.636  1.00  0.00     0.000 C 
BRANCH   6   7
ATOM      7  C   UNL     1      32.369  77.768   8.833  1.00  0.00    -0.000 C 
BRANCH   7   8
ATOM      8  C   UNL     1      32.014  77.842  10.322  1.00  0.00    -0.003 C 
ATOM      9  C   UNL     1      33.012  78.709  11.085  1.00  0.00     0.004 C 
ENDBRANCH   7   8
ENDBRANCH   6   7
ENDBRANCH   1   6
TORSDOF 5
ENDMDL
MODEL 8
REMARK VINA RESULT:    -3.370     14.795     16.587
REMARK INTER + INTRA:          -4.508
REMARK INTER:                  -4.314
REMARK INTRA:                  -0.194
REMARK UNBOUND:                -0.153
REMARK SMILES CCCCCCC(=O)[O-]
REMARK SMILES IDX 5 1 6 2 7 3 8 4 9 5 4 6 3 7 2 8 1 9
REMARK H PARENT
REMARK Flexibility Score: inf
ROOT
ATOM      1  C   UNL     1      34.207  76.703   8.146  1.00  0.00     0.006 C 
ENDROOT
BRANCH   1   2
ATOM      2  C   UNL     1      35.369  75.795   8.569  1.00  0.00     0.053 C 
BRANCH   2   3
ATOM      3  C   UNL     1      35.958  75.110   7.376  1.00  0.00     0.041 C 
ATOM      4  O   UNL     1      35.242  74.861   6.371  1.00  0.00    -0.550 OA
ATOM      5  O   UNL     1      37.286  74.703   7.393  1.00  0.00    -0.550 OA
ENDBRANCH   2   3
ENDBRANCH   1   2
BRANCH   1   6
ATOM      6  C   UNL     1      33.873  77.768   9.202  1.00  0.00     0.000 C 
BRANCH   6   7
ATOM      7  C   UNL     1      34.555  77.498  10.552  1.00  0.00    -0.000 C 
BRANCH   7   8
ATOM      8  C   UNL     1      33.736  78.086  11.707  1.00  0.00    -0.003 C 
ATOM      9  C   UNL     1      32.490  78.800  11.192  1.00  0.00     0.004 C 
ENDBRANCH   7   8
ENDBRANCH   6   7
ENDBRANCH   1   6
TORSDOF 5
ENDMDL
MODEL 9
REMARK VINA RESULT:    -3.368     16.227     16.727
REMARK INTER + INTRA:          -4.506
REMARK INTER:                  -4.326
REMARK INTRA:                  -0.180
REMARK UNBOUND:                -0.153
REMARK SMILES CCCCCCC(=O)[O-]
REMARK SMILES IDX 5 1 6 2 7 3 8 4 9 5 4 6 3 7 2 8 1 9
REMARK H PARENT
REMARK Flexibility Score: inf
ROOT
ATOM      1  C   UNL     1      44.637  74.403  10.124  1.00  0.00     0.006 C 
ENDROOT
BRANCH   1   2
ATOM      2  C   UNL     1      43.239  73.988   9.647  1.00  0.00     0.053 C 
BRANCH   2   3
ATOM      3  C   UNL     1      43.342  73.004   8.524  1.00  0.00     0.041 C 
ATOM      4  O   UNL     1      42.467  72.982   7.619  1.00  0.00    -0.550 OA
ATOM      5  O   UNL     1      44.378  72.079   8.503  1.00  0.00    -0.550 OA
ENDBRANCH   2   3
ENDBRANCH   1   2
BRANCH   1   6
ATOM      6  C   UNL     1      44.913  73.990  11.578  1.00  0.00     0.000 C 
BRANCH   6   7
ATOM      7  C   UNL     1      44.860  75.177  12.551  1.00  0.00    -0.000 C 
BRANCH   7   8
ATOM      8  C   UNL     1      44.309  74.744  13.915  1.00  0.00    -0.003 C 
ATOM      9  C   UNL     1      42.870  75.214  14.102  1.00  0.00     0.004 C 
ENDBRANCH   7   8
ENDBRANCH   6   7
ENDBRANCH   1   6
TORSDOF 5
ENDMDL
