MODEL 1
REMARK VINA RESULT:    -2.922      0.000      0.000
REMARK INTER + INTRA:          -2.922
REMARK INTER:                  -2.922
REMARK INTRA:                   0.000
REMARK UNBOUND:                 0.000
REMARK SMILES c1cc[nH]c1
REMARK SMILES IDX 1 1 5 2 4 3 3 4 2 5
REMARK H PARENT 4 6
REMARK Flexibility Score: inf
ROOT
ATOM      1  C   UNL     1     150.787 144.612 163.925  1.00  0.00     0.019 A 
ATOM      2  C   UNL     1     150.377 144.941 165.201  1.00  0.00     0.082 A 
ATOM      3  N   UNL     1     149.284 144.230 165.530  1.00  0.00    -0.368 N 
ATOM      4  C   UNL     1     148.990 143.448 164.477  1.00  0.00     0.082 A 
ATOM      5  C   UNL     1     149.902 143.659 163.463  1.00  0.00     0.019 A 
ATOM      6  H   UNL     1     148.763 144.277 166.433  1.00  0.00     0.165 HD
ENDROOT
TORSDOF 0
ENDMDL
MODEL 2
REMARK VINA RESULT:    -2.921      6.366      6.700
REMARK INTER + INTRA:          -2.921
REMARK INTER:                  -2.921
REMARK INTRA:                   0.000
REMARK UNBOUND:                 0.000
REMARK SMILES c1cc[nH]c1
REMARK SMILES IDX 1 1 5 2 4 3 3 4 2 5
REMARK H PARENT 4 6
REMARK Flexibility Score: inf
ROOT
ATOM      1  C   UNL     1     146.133 150.797 163.935  1.00  0.00     0.019 A 
ATOM      2  C   UNL     1     145.804 150.377 165.208  1.00  0.00     0.082 A 
ATOM      3  N   UNL     1     146.524 149.289 165.532  1.00  0.00    -0.368 N 
ATOM      4  C   UNL     1     147.312 149.008 164.479  1.00  0.00     0.082 A 
ATOM      5  C   UNL     1     147.095 149.924 163.470  1.00  0.00     0.019 A 
ATOM      6  H   UNL     1     146.480 148.762 166.432  1.00  0.00     0.165 HD
ENDROOT
TORSDOF 0
ENDMDL
MODEL 3
REMARK VINA RESULT:    -2.917      6.378      6.700
REMARK INTER + INTRA:          -2.917
REMARK INTER:                  -2.917
REMARK INTRA:                   0.000
REMARK UNBOUND:                 0.000
REMARK SMILES c1cc[nH]c1
REMARK SMILES IDX 1 1 5 2 4 3 3 4 2 5
REMARK H PARENT 4 6
REMARK Flexibility Score: inf
ROOT
ATOM      1  C   UNL     1     144.637 139.961 163.900  1.00  0.00     0.019 A 
ATOM      2  C   UNL     1     144.935 140.356 165.188  1.00  0.00     0.082 A 
ATOM      3  N   UNL     1     144.197 141.429 165.522  1.00  0.00    -0.368 N 
ATOM      4  C   UNL     1     143.428 141.726 164.459  1.00  0.00     0.082 A 
ATOM      5  C   UNL     1     143.676 140.835 163.435  1.00  0.00     0.019 A 
ATOM      6  H   UNL     1     144.216 141.936 166.434  1.00  0.00     0.165 HD
ENDROOT
TORSDOF 0
ENDMDL
MODEL 4
REMARK VINA RESULT:    -2.907      6.354      6.710
REMARK INTER + INTRA:          -2.907
REMARK INTER:                  -2.907
REMARK INTRA:                   0.000
REMARK UNBOUND:                 0.000
REMARK SMILES c1cc[nH]c1
REMARK SMILES IDX 1 1 5 2 4 3 3 4 2 5
REMARK H PARENT 4 6
REMARK Flexibility Score: inf
ROOT
ATOM      1  C   UNL     1     147.147 149.903 163.527  1.00  0.00     0.019 A 
ATOM      2  C   UNL     1     147.317 149.001 164.558  1.00  0.00     0.082 A 
ATOM      3  N   UNL     1     146.489 149.302 165.573  1.00  0.00    -0.368 N 
ATOM      4  C   UNL     1     145.789 150.389 165.203  1.00  0.00     0.082 A 
ATOM      5  C   UNL     1     146.172 150.789 163.939  1.00  0.00     0.019 A 
ATOM      6  H   UNL     1     146.404 148.789 166.478  1.00  0.00     0.165 HD
ENDROOT
TORSDOF 0
ENDMDL
MODEL 5
REMARK VINA RESULT:    -2.907      8.768      9.364
REMARK INTER + INTRA:          -2.907
REMARK INTER:                  -2.907
REMARK INTRA:                   0.000
REMARK UNBOUND:                 0.000
REMARK SMILES c1cc[nH]c1
REMARK SMILES IDX 1 1 5 2 4 3 3 4 2 5
REMARK H PARENT 4 6
REMARK Flexibility Score: inf
ROOT
ATOM      1  C   UNL     1     140.827 147.125 163.521  1.00  0.00     0.019 A 
ATOM      2  C   UNL     1     141.756 147.279 164.530  1.00  0.00     0.082 A 
ATOM      3  N   UNL     1     141.463 146.457 165.553  1.00  0.00    -0.368 N 
ATOM      4  C   UNL     1     140.355 145.777 165.210  1.00  0.00     0.082 A 
ATOM      5  C   UNL     1     139.933 146.167 163.955  1.00  0.00     0.019 A 
ATOM      6  H   UNL     1     141.997 146.364 166.445  1.00  0.00     0.165 HD
ENDROOT
TORSDOF 0
ENDMDL
MODEL 6
REMARK VINA RESULT:    -2.904      0.082      1.624
REMARK INTER + INTRA:          -2.904
REMARK INTER:                  -2.904
REMARK INTRA:                   0.000
REMARK UNBOUND:                 0.000
REMARK SMILES c1cc[nH]c1
REMARK SMILES IDX 1 1 5 2 4 3 3 4 2 5
REMARK H PARENT 4 6
REMARK Flexibility Score: inf
ROOT
ATOM      1  C   UNL     1     149.908 143.581 163.551  1.00  0.00     0.019 A 
ATOM      2  C   UNL     1     148.982 143.446 164.566  1.00  0.00     0.082 A 
ATOM      3  N   UNL     1     149.269 144.300 165.565  1.00  0.00    -0.368 N 
ATOM      4  C   UNL     1     150.369 144.981 165.200  1.00  0.00     0.082 A 
ATOM      5  C   UNL     1     150.793 144.560 163.955  1.00  0.00     0.019 A 
ATOM      6  H   UNL     1     148.736 144.413 166.455  1.00  0.00     0.165 HD
ENDROOT
TORSDOF 0
ENDMDL
MODEL 7
REMARK VINA RESULT:    -2.768      6.720      7.012
REMARK INTER + INTRA:          -2.768
REMARK INTER:                  -2.768
REMARK INTRA:                   0.000
REMARK UNBOUND:                 0.000
REMARK SMILES c1cc[nH]c1
REMARK SMILES IDX 1 1 5 2 4 3 3 4 2 5
REMARK H PARENT 4 6
REMARK Flexibility Score: inf
ROOT
ATOM      1  C   UNL     1     143.189 142.543 163.561  1.00  0.00     0.019 A 
ATOM      2  C   UNL     1     143.415 142.950 164.861  1.00  0.00     0.082 A 
ATOM      3  N   UNL     1     143.481 141.879 165.672  1.00  0.00    -0.368 N 
ATOM      4  C   UNL     1     143.301 140.790 164.905  1.00  0.00     0.082 A 
ATOM      5  C   UNL     1     143.117 141.165 163.589  1.00  0.00     0.019 A 
ATOM      6  H   UNL     1     143.644 141.892 166.703  1.00  0.00     0.165 HD
ENDROOT
TORSDOF 0
ENDMDL
MODEL 8
REMARK VINA RESULT:    -2.764      5.634      6.708
REMARK INTER + INTRA:          -2.764
REMARK INTER:                  -2.764
REMARK INTRA:                   0.000
REMARK UNBOUND:                 0.000
REMARK SMILES c1cc[nH]c1
REMARK SMILES IDX 1 1 5 2 4 3 3 4 2 5
REMARK H PARENT 4 6
REMARK Flexibility Score: inf
ROOT
ATOM      1  C   UNL     1     143.207 140.474 164.917  1.00  0.00     0.019 A 
ATOM      2  C   UNL     1     143.316 141.842 165.065  1.00  0.00     0.082 A 
ATOM      3  N   UNL     1     144.612 142.201 165.070  1.00  0.00    -0.368 N 
ATOM      4  C   UNL     1     145.334 141.076 164.925  1.00  0.00     0.082 A 
ATOM      5  C   UNL     1     144.494 139.986 164.827  1.00  0.00     0.019 A 
ATOM      6  H   UNL     1     144.986 143.171 165.166  1.00  0.00     0.165 HD
ENDROOT
TORSDOF 0
ENDMDL
MODEL 9
REMARK VINA RESULT:    -2.610      1.236      1.831
REMARK INTER + INTRA:          -2.610
REMARK INTER:                  -2.610
REMARK INTRA:                   0.000
REMARK UNBOUND:                 0.000
REMARK SMILES c1cc[nH]c1
REMARK SMILES IDX 1 1 5 2 4 3 3 4 2 5
REMARK H PARENT 4 6
REMARK Flexibility Score: inf
ROOT
ATOM      1  C   UNL     1     150.590 145.030 163.294  1.00  0.00     0.019 A 
ATOM      2  C   UNL     1     149.760 144.001 162.897  1.00  0.00     0.082 A 
ATOM      3  N   UNL     1     149.599 143.126 163.905  1.00  0.00    -0.368 N 
ATOM      4  C   UNL     1     150.318 143.584 164.945  1.00  0.00     0.082 A 
ATOM      5  C   UNL     1     150.946 144.764 164.601  1.00  0.00     0.019 A 
ATOM      6  H   UNL     1     149.024 142.255 163.884  1.00  0.00     0.165 HD
ENDROOT
TORSDOF 0
ENDMDL
