MODEL 1
REMARK VINA RESULT:    -3.484      0.000      0.000
REMARK INTER + INTRA:          -4.943
REMARK INTER:                  -4.706
REMARK INTRA:                  -0.237
REMARK UNBOUND:                -0.237
REMARK SMILES [NH3+]CCCC[C@@H]([NH3+])C(=O)[O-]
REMARK SMILES IDX 4 1 3 2 2 3 1 4 5 8 6 9 7 10 8 14 9 15 10 16
REMARK H PARENT 1 5 1 6 1 7 7 11 7 12 7 13
REMARK Flexibility Score: inf
ROOT
ATOM      1  C   UNL     1     192.493 195.946 193.492  1.00  0.00     0.012 C 
ENDROOT
BRANCH   1   2
ATOM      2  C   UNL     1     192.101 195.404 194.872  1.00  0.00     0.061 C 
BRANCH   2   3
ATOM      3  C   UNL     1     190.947 194.399 194.765  1.00  0.00     0.258 C 
BRANCH   3   4
ATOM      4  N   UNL     1     191.392 193.053 195.124  1.00  0.00    -0.358 N 
ATOM      5  H   UNL     1     191.915 193.096 196.028  1.00  0.00     0.344 HD
ATOM      6  H   UNL     1     190.566 192.421 195.242  1.00  0.00     0.344 HD
ATOM      7  H   UNL     1     192.026 192.674 194.384  1.00  0.00     0.344 HD
ENDBRANCH   3   4
ENDBRANCH   2   3
ENDBRANCH   1   2
BRANCH   1   8
ATOM      8  C   UNL     1     193.991 195.727 193.222  1.00  0.00     0.072 C 
BRANCH   8   9
ATOM      9  C   UNL     1     194.526 194.350 193.678  1.00  0.00     0.227 C 
BRANCH   9  10
ATOM     10  N   UNL     1     194.113 193.270 192.772  1.00  0.00    -0.350 N 
ATOM     11  H   UNL     1     194.956 192.729 192.468  1.00  0.00     0.345 HD
ATOM     12  H   UNL     1     193.632 193.644 191.924  1.00  0.00     0.345 HD
ATOM     13  H   UNL     1     193.468 192.613 193.271  1.00  0.00     0.345 HD
ENDBRANCH   9  10
BRANCH   9  14
ATOM     14  C   UNL     1     196.022 194.369 193.863  1.00  0.00     0.099 C 
ATOM     15  O   UNL     1     196.523 194.961 194.856  1.00  0.00    -0.544 OA
ATOM     16  O   UNL     1     196.862 193.785 192.923  1.00  0.00    -0.544 OA
ENDBRANCH   9  14
ENDBRANCH   8   9
ENDBRANCH   1   8
TORSDOF 7
ENDMDL
MODEL 2
REMARK VINA RESULT:    -3.314      1.685      1.866
REMARK INTER + INTRA:          -4.713
REMARK INTER:                  -4.232
REMARK INTRA:                  -0.481
REMARK UNBOUND:                -0.237
REMARK SMILES [NH3+]CCCC[C@@H]([NH3+])C(=O)[O-]
REMARK SMILES IDX 4 1 3 2 2 3 1 4 5 8 6 9 7 10 8 14 9 15 10 16
REMARK H PARENT 1 5 1 6 1 7 7 11 7 12 7 13
REMARK Flexibility Score: inf
ROOT
ATOM      1  C   UNL     1     191.924 195.517 192.437  1.00  0.00     0.012 C 
ENDROOT
BRANCH   1   2
ATOM      2  C   UNL     1     191.098 194.379 193.049  1.00  0.00     0.061 C 
BRANCH   2   3
ATOM      3  C   UNL     1     191.155 194.417 194.581  1.00  0.00     0.258 C 
BRANCH   3   4
ATOM      4  N   UNL     1     191.512 193.106 195.123  1.00  0.00    -0.358 N 
ATOM      5  H   UNL     1     191.966 193.234 196.056  1.00  0.00     0.344 HD
ATOM      6  H   UNL     1     190.653 192.520 195.243  1.00  0.00     0.344 HD
ATOM      7  H   UNL     1     192.184 192.624 194.484  1.00  0.00     0.344 HD
ENDBRANCH   3   4
ENDBRANCH   2   3
ENDBRANCH   1   2
BRANCH   1   8
ATOM      8  C   UNL     1     192.949 196.058 193.449  1.00  0.00     0.072 C 
BRANCH   8   9
ATOM      9  C   UNL     1     194.424 195.807 193.056  1.00  0.00     0.227 C 
BRANCH   9  10
ATOM     10  N   UNL     1     195.237 197.027 193.157  1.00  0.00    -0.350 N 
ATOM     11  H   UNL     1     195.637 197.256 192.218  1.00  0.00     0.345 HD
ATOM     12  H   UNL     1     196.022 196.908 193.835  1.00  0.00     0.345 HD
ATOM     13  H   UNL     1     194.638 197.830 193.460  1.00  0.00     0.345 HD
ENDBRANCH   9  10
BRANCH   9  14
ATOM     14  C   UNL     1     195.026 194.678 193.855  1.00  0.00     0.099 C 
ATOM     15  O   UNL     1     196.113 194.855 194.467  1.00  0.00    -0.544 OA
ATOM     16  O   UNL     1     194.422 193.427 193.884  1.00  0.00    -0.544 OA
ENDBRANCH   9  14
ENDBRANCH   8   9
ENDBRANCH   1   8
TORSDOF 7
ENDMDL
MODEL 3
REMARK VINA RESULT:    -3.197      4.745      5.469
REMARK INTER + INTRA:          -4.555
REMARK INTER:                  -4.375
REMARK INTRA:                  -0.181
REMARK UNBOUND:                -0.237
REMARK SMILES [NH3+]CCCC[C@@H]([NH3+])C(=O)[O-]
REMARK SMILES IDX 4 1 3 2 2 3 1 4 5 8 6 9 7 10 8 14 9 15 10 16
REMARK H PARENT 1 5 1 6 1 7 7 11 7 12 7 13
REMARK Flexibility Score: inf
ROOT
ATOM      1  C   UNL     1     191.981 194.332 192.737  1.00  0.00     0.012 C 
ENDROOT
BRANCH   1   2
ATOM      2  C   UNL     1     191.886 195.243 193.967  1.00  0.00     0.061 C 
BRANCH   2   3
ATOM      3  C   UNL     1     191.160 194.541 195.122  1.00  0.00     0.258 C 
BRANCH   3   4
ATOM      4  N   UNL     1     191.395 193.097 195.085  1.00  0.00    -0.358 N 
ATOM      5  H   UNL     1     191.400 192.727 196.062  1.00  0.00     0.344 HD
ATOM      6  H   UNL     1     190.632 192.623 194.548  1.00  0.00     0.344 HD
ATOM      7  H   UNL     1     192.319 192.894 194.642  1.00  0.00     0.344 HD
ENDBRANCH   3   4
ENDBRANCH   2   3
ENDBRANCH   1   2
BRANCH   1   8
ATOM      8  C   UNL     1     190.943 194.733 191.675  1.00  0.00     0.072 C 
BRANCH   8   9
ATOM      9  C   UNL     1     190.295 193.539 190.935  1.00  0.00     0.227 C 
BRANCH   9  10
ATOM     10  N   UNL     1     189.886 192.474 191.860  1.00  0.00    -0.350 N 
ATOM     11  H   UNL     1     188.842 192.445 191.918  1.00  0.00     0.345 HD
ATOM     12  H   UNL     1     190.270 192.631 192.819  1.00  0.00     0.345 HD
ATOM     13  H   UNL     1     190.218 191.547 191.505  1.00  0.00     0.345 HD
ENDBRANCH   9  10
BRANCH   9  14
ATOM     14  C   UNL     1     189.145 193.984 190.067  1.00  0.00     0.099 C 
ATOM     15  O   UNL     1     188.766 193.257 189.109  1.00  0.00    -0.544 OA
ATOM     16  O   UNL     1     188.527 195.210 190.278  1.00  0.00    -0.544 OA
ENDBRANCH   9  14
ENDBRANCH   8   9
ENDBRANCH   1   8
TORSDOF 7
ENDMDL
MODEL 4
REMARK VINA RESULT:    -3.180      1.407      1.606
REMARK INTER + INTRA:          -4.531
REMARK INTER:                  -4.346
REMARK INTRA:                  -0.185
REMARK UNBOUND:                -0.237
REMARK SMILES [NH3+]CCCC[C@@H]([NH3+])C(=O)[O-]
REMARK SMILES IDX 4 1 3 2 2 3 1 4 5 8 6 9 7 10 8 14 9 15 10 16
REMARK H PARENT 1 5 1 6 1 7 7 11 7 12 7 13
REMARK Flexibility Score: inf
ROOT
ATOM      1  C   UNL     1     192.176 195.260 194.779  1.00  0.00     0.012 C 
ENDROOT
BRANCH   1   2
ATOM      2  C   UNL     1     190.981 194.424 194.302  1.00  0.00     0.061 C 
BRANCH   2   3
ATOM      3  C   UNL     1     190.930 194.356 192.770  1.00  0.00     0.258 C 
BRANCH   3   4
ATOM      4  N   UNL     1     190.288 193.121 192.323  1.00  0.00    -0.358 N 
ATOM      5  H   UNL     1     189.494 192.896 192.965  1.00  0.00     0.344 HD
ATOM      6  H   UNL     1     189.914 193.240 191.353  1.00  0.00     0.344 HD
ATOM      7  H   UNL     1     190.973 192.331 192.344  1.00  0.00     0.344 HD
ENDBRANCH   3   4
ENDBRANCH   2   3
ENDBRANCH   1   2
BRANCH   1   8
ATOM      8  C   UNL     1     193.256 195.347 193.687  1.00  0.00     0.072 C 
BRANCH   8   9
ATOM      9  C   UNL     1     194.432 194.361 193.876  1.00  0.00     0.227 C 
BRANCH   9  10
ATOM     10  N   UNL     1     194.410 193.278 192.883  1.00  0.00    -0.350 N 
ATOM     11  H   UNL     1     193.420 193.077 192.610  1.00  0.00     0.345 HD
ATOM     12  H   UNL     1     194.837 192.403 193.262  1.00  0.00     0.345 HD
ATOM     13  H   UNL     1     194.932 193.571 192.025  1.00  0.00     0.345 HD
ENDBRANCH   9  10
BRANCH   9  14
ATOM     14  C   UNL     1     195.760 195.077 193.878  1.00  0.00     0.099 C 
ATOM     15  O   UNL     1     195.830 196.267 193.472  1.00  0.00    -0.544 OA
ATOM     16  O   UNL     1     196.919 194.423 194.277  1.00  0.00    -0.544 OA
ENDBRANCH   9  14
ENDBRANCH   8   9
ENDBRANCH   1   8
TORSDOF 7
ENDMDL
MODEL 5
REMARK VINA RESULT:    -3.119      4.636      5.515
REMARK INTER + INTRA:          -4.450
REMARK INTER:                  -4.297
REMARK INTRA:                  -0.153
REMARK UNBOUND:                -0.237
REMARK SMILES [NH3+]CCCC[C@@H]([NH3+])C(=O)[O-]
REMARK SMILES IDX 4 1 3 2 2 3 1 4 5 8 6 9 7 10 8 14 9 15 10 16
REMARK H PARENT 1 5 1 6 1 7 7 11 7 12 7 13
REMARK Flexibility Score: inf
ROOT
ATOM      1  C   UNL     1     191.127 194.364 193.515  1.00  0.00     0.012 C 
ENDROOT
BRANCH   1   2
ATOM      2  C   UNL     1     192.440 194.809 194.171  1.00  0.00     0.061 C 
BRANCH   2   3
ATOM      3  C   UNL     1     193.631 194.591 193.228  1.00  0.00     0.258 C 
BRANCH   3   4
ATOM      4  N   UNL     1     194.319 193.338 193.538  1.00  0.00    -0.358 N 
ATOM      5  H   UNL     1     194.907 193.473 194.392  1.00  0.00     0.344 HD
ATOM      6  H   UNL     1     193.620 192.581 193.726  1.00  0.00     0.344 HD
ATOM      7  H   UNL     1     194.937 193.060 192.742  1.00  0.00     0.344 HD
ENDBRANCH   3   4
ENDBRANCH   2   3
ENDBRANCH   1   2
BRANCH   1   8
ATOM      8  C   UNL     1     191.191 194.532 191.987  1.00  0.00     0.072 C 
BRANCH   8   9
ATOM      9  C   UNL     1     190.153 193.690 191.211  1.00  0.00     0.227 C 
BRANCH   9  10
ATOM     10  N   UNL     1     189.861 192.417 191.883  1.00  0.00    -0.350 N 
ATOM     11  H   UNL     1     189.863 192.562 192.919  1.00  0.00     0.345 HD
ATOM     12  H   UNL     1     190.570 191.687 191.646  1.00  0.00     0.345 HD
ATOM     13  H   UNL     1     188.911 192.076 191.605  1.00  0.00     0.345 HD
ENDBRANCH   9  10
BRANCH   9  14
ATOM     14  C   UNL     1     188.891 194.473 190.945  1.00  0.00     0.099 C 
ATOM     15  O   UNL     1     187.816 194.138 191.510  1.00  0.00    -0.544 OA
ATOM     16  O   UNL     1     188.887 195.531 190.045  1.00  0.00    -0.544 OA
ENDBRANCH   9  14
ENDBRANCH   8   9
ENDBRANCH   1   8
TORSDOF 7
ENDMDL
MODEL 6
REMARK VINA RESULT:    -2.955      2.765      4.073
REMARK INTER + INTRA:          -4.228
REMARK INTER:                  -3.824
REMARK INTRA:                  -0.404
REMARK UNBOUND:                -0.237
REMARK SMILES [NH3+]CCCC[C@@H]([NH3+])C(=O)[O-]
REMARK SMILES IDX 4 1 3 2 2 3 1 4 5 8 6 9 7 10 8 14 9 15 10 16
REMARK H PARENT 1 5 1 6 1 7 7 11 7 12 7 13
REMARK Flexibility Score: inf
ROOT
ATOM      1  C   UNL     1     193.100 194.065 191.334  1.00  0.00     0.012 C 
ENDROOT
BRANCH   1   2
ATOM      2  C   UNL     1     194.420 194.812 191.557  1.00  0.00     0.061 C 
BRANCH   2   3
ATOM      3  C   UNL     1     195.277 194.115 192.622  1.00  0.00     0.258 C 
BRANCH   3   4
ATOM      4  N   UNL     1     194.440 193.357 193.551  1.00  0.00    -0.358 N 
ATOM      5  H   UNL     1     194.737 193.571 194.531  1.00  0.00     0.344 HD
ATOM      6  H   UNL     1     193.436 193.629 193.435  1.00  0.00     0.344 HD
ATOM      7  H   UNL     1     194.551 192.332 193.381  1.00  0.00     0.344 HD
ENDBRANCH   3   4
ENDBRANCH   2   3
ENDBRANCH   1   2
BRANCH   1   8
ATOM      8  C   UNL     1     191.896 194.991 191.580  1.00  0.00     0.072 C 
BRANCH   8   9
ATOM      9  C   UNL     1     190.961 194.529 192.722  1.00  0.00     0.227 C 
BRANCH   9  10
ATOM     10  N   UNL     1     190.464 193.163 192.509  1.00  0.00    -0.350 N 
ATOM     11  H   UNL     1     191.127 192.644 191.889  1.00  0.00     0.345 HD
ATOM     12  H   UNL     1     189.520 193.165 192.061  1.00  0.00     0.345 HD
ATOM     13  H   UNL     1     190.409 192.657 193.423  1.00  0.00     0.345 HD
ENDBRANCH   9  10
BRANCH   9  14
ATOM     14  C   UNL     1     191.622 194.668 194.070  1.00  0.00     0.099 C 
ATOM     15  O   UNL     1     192.247 195.724 194.355  1.00  0.00    -0.544 OA
ATOM     16  O   UNL     1     191.594 193.625 194.987  1.00  0.00    -0.544 OA
ENDBRANCH   9  14
ENDBRANCH   8   9
ENDBRANCH   1   8
TORSDOF 7
ENDMDL
MODEL 7
REMARK VINA RESULT:    -2.948      2.640      2.982
REMARK INTER + INTRA:          -4.218
REMARK INTER:                  -3.945
REMARK INTRA:                  -0.274
REMARK UNBOUND:                -0.237
REMARK SMILES [NH3+]CCCC[C@@H]([NH3+])C(=O)[O-]
REMARK SMILES IDX 4 1 3 2 2 3 1 4 5 8 6 9 7 10 8 14 9 15 10 16
REMARK H PARENT 1 5 1 6 1 7 7 11 7 12 7 13
REMARK Flexibility Score: inf
ROOT
ATOM      1  C   UNL     1     190.916 194.739 192.193  1.00  0.00     0.012 C 
ENDROOT
BRANCH   1   2
ATOM      2  C   UNL     1     191.025 194.324 190.721  1.00  0.00     0.061 C 
BRANCH   2   3
ATOM      3  C   UNL     1     190.569 192.873 190.519  1.00  0.00     0.258 C 
BRANCH   3   4
ATOM      4  N   UNL     1     189.926 192.356 191.726  1.00  0.00    -0.358 N 
ATOM      5  H   UNL     1     189.044 192.890 191.900  1.00  0.00     0.344 HD
ATOM      6  H   UNL     1     189.689 191.344 191.602  1.00  0.00     0.344 HD
ATOM      7  H   UNL     1     190.559 192.473 192.550  1.00  0.00     0.344 HD
ENDBRANCH   3   4
ENDBRANCH   2   3
ENDBRANCH   1   2
BRANCH   1   8
ATOM      8  C   UNL     1     192.233 195.361 192.688  1.00  0.00     0.072 C 
BRANCH   8   9
ATOM      9  C   UNL     1     192.972 194.520 193.756  1.00  0.00     0.227 C 
BRANCH   9  10
ATOM     10  N   UNL     1     192.086 193.537 194.394  1.00  0.00    -0.350 N 
ATOM     11  H   UNL     1     191.174 193.506 193.882  1.00  0.00     0.345 HD
ATOM     12  H   UNL     1     191.901 193.780 195.393  1.00  0.00     0.345 HD
ATOM     13  H   UNL     1     192.518 192.585 194.346  1.00  0.00     0.345 HD
ENDBRANCH   9  10
BRANCH   9  14
ATOM     14  C   UNL     1     194.204 193.862 193.187  1.00  0.00     0.099 C 
ATOM     15  O   UNL     1     195.194 193.637 193.933  1.00  0.00    -0.544 OA
ATOM     16  O   UNL     1     194.282 193.545 191.836  1.00  0.00    -0.544 OA
ENDBRANCH   9  14
ENDBRANCH   8   9
ENDBRANCH   1   8
TORSDOF 7
ENDMDL
MODEL 8
REMARK VINA RESULT:    -2.941      2.314      2.523
REMARK INTER + INTRA:          -4.209
REMARK INTER:                  -3.858
REMARK INTRA:                  -0.352
REMARK UNBOUND:                -0.237
REMARK SMILES [NH3+]CCCC[C@@H]([NH3+])C(=O)[O-]
REMARK SMILES IDX 4 1 3 2 2 3 1 4 5 8 6 9 7 10 8 14 9 15 10 16
REMARK H PARENT 1 5 1 6 1 7 7 11 7 12 7 13
REMARK Flexibility Score: inf
ROOT
ATOM      1  C   UNL     1     192.432 195.827 193.378  1.00  0.00     0.012 C 
ENDROOT
BRANCH   1   2
ATOM      2  C   UNL     1     191.976 195.578 194.821  1.00  0.00     0.061 C 
BRANCH   2   3
ATOM      3  C   UNL     1     191.337 194.191 194.967  1.00  0.00     0.258 C 
BRANCH   3   4
ATOM      4  N   UNL     1     190.934 193.661 193.665  1.00  0.00    -0.358 N 
ATOM      5  H   UNL     1     191.231 192.661 193.596  1.00  0.00     0.344 HD
ATOM      6  H   UNL     1     189.894 193.713 193.562  1.00  0.00     0.344 HD
ATOM      7  H   UNL     1     191.394 194.203 192.898  1.00  0.00     0.344 HD
ENDBRANCH   3   4
ENDBRANCH   2   3
ENDBRANCH   1   2
BRANCH   1   8
ATOM      8  C   UNL     1     193.967 195.790 193.273  1.00  0.00     0.072 C 
BRANCH   8   9
ATOM      9  C   UNL     1     194.521 194.589 192.471  1.00  0.00     0.227 C 
BRANCH   9  10
ATOM     10  N   UNL     1     194.390 193.325 193.208  1.00  0.00    -0.350 N 
ATOM     11  H   UNL     1     193.471 193.307 193.708  1.00  0.00     0.345 HD
ATOM     12  H   UNL     1     195.155 193.211 193.911  1.00  0.00     0.345 HD
ATOM     13  H   UNL     1     194.413 192.519 192.541  1.00  0.00     0.345 HD
ENDBRANCH   9  10
BRANCH   9  14
ATOM     14  C   UNL     1     193.887 194.496 191.105  1.00  0.00     0.099 C 
ATOM     15  O   UNL     1     194.115 195.390 190.247  1.00  0.00    -0.544 OA
ATOM     16  O   UNL     1     193.014 193.461 190.796  1.00  0.00    -0.544 OA
ENDBRANCH   9  14
ENDBRANCH   8   9
ENDBRANCH   1   8
TORSDOF 7
ENDMDL
