MODEL 1
REMARK VINA RESULT:    -4.638      0.000      0.000
REMARK INTER + INTRA:          -6.349
REMARK INTER:                  -5.994
REMARK INTRA:                  -0.355
REMARK UNBOUND:                -0.355
REMARK SMILES CCO[C@@H]1O[C@@H](CO)[C@@H](O)[C@@H](O)[C@H]1O
REMARK SMILES IDX 4 1 13 2 11 3 9 4 6 5 5 6 3 7 2 8 1 9 14 10 12 12 7 14 8 15
REMARK SMILES IDX 10 17
REMARK H PARENT 14 11 12 13 8 16 10 18
REMARK Flexibility Score: inf
ROOT
ATOM      1  C   UNL     1      10.845   1.775  -1.405  1.00  0.00     0.281 C 
ATOM      2  C   UNL     1      10.402   3.247  -1.235  1.00  0.00     0.202 C 
ATOM      3  C   UNL     1      11.113   4.157  -2.266  1.00  0.00     0.179 C 
ATOM      4  C   UNL     1      11.066   3.567  -3.691  1.00  0.00     0.177 C 
ATOM      5  C   UNL     1      11.521   2.092  -3.637  1.00  0.00     0.178 C 
ATOM      6  O   UNL     1      10.698   1.343  -2.754  1.00  0.00    -0.341 OA
ENDROOT
BRANCH   1   7
ATOM      7  O   UNL     1      12.181   1.618  -0.952  1.00  0.00    -0.350 OA
BRANCH   7   8
ATOM      8  C   UNL     1      12.240   0.781   0.188  1.00  0.00     0.160 C 
ATOM      9  C   UNL     1      13.474  -0.111   0.123  1.00  0.00     0.035 C 
ENDBRANCH   7   8
ENDBRANCH   1   7
BRANCH   2  10
ATOM     10  O   UNL     1       9.000   3.371  -1.306  1.00  0.00    -0.385 OA
ATOM     11  H   UNL     1       8.784   4.249  -1.710  1.00  0.00     0.211 HD
ENDBRANCH   2  10
BRANCH   3  12
ATOM     12  O   UNL     1      10.629   5.478  -2.226  1.00  0.00    -0.387 OA
ATOM     13  H   UNL     1      10.015   5.607  -2.994  1.00  0.00     0.211 HD
ENDBRANCH   3  12
BRANCH   5  14
ATOM     14  C   UNL     1      11.472   1.449  -5.030  1.00  0.00     0.191 C 
BRANCH  14  15
ATOM     15  O   UNL     1      11.764   2.399  -6.018  1.00  0.00    -0.394 OA
ATOM     16  H   UNL     1      11.137   2.231  -6.768  1.00  0.00     0.210 HD
ENDBRANCH  14  15
ENDBRANCH   5  14
BRANCH   4  17
ATOM     17  O   UNL     1       9.769   3.652  -4.228  1.00  0.00    -0.387 OA
ATOM     18  H   UNL     1       9.164   3.921  -3.489  1.00  0.00     0.211 HD
ENDBRANCH   4  17
TORSDOF 7
ENDMDL
MODEL 2
REMARK VINA RESULT:    -4.598      1.742      3.665
REMARK INTER + INTRA:          -6.297
REMARK INTER:                  -6.137
REMARK INTRA:                  -0.161
REMARK UNBOUND:                -0.355
REMARK SMILES CCO[C@@H]1O[C@@H](CO)[C@@H](O)[C@@H](O)[C@H]1O
REMARK SMILES IDX 4 1 13 2 11 3 9 4 6 5 5 6 3 7 2 8 1 9 14 10 12 12 7 14 8 15
REMARK SMILES IDX 10 17
REMARK H PARENT 14 11 12 13 8 16 10 18
REMARK Flexibility Score: inf
ROOT
ATOM      1  C   UNL     1      11.963   1.943  -0.578  1.00  0.00     0.281 C 
ATOM      2  C   UNL     1      12.025   1.812  -2.118  1.00  0.00     0.202 C 
ATOM      3  C   UNL     1      10.625   1.508  -2.701  1.00  0.00     0.179 C 
ATOM      4  C   UNL     1       9.538   2.434  -2.116  1.00  0.00     0.177 C 
ATOM      5  C   UNL     1       9.663   2.442  -0.577  1.00  0.00     0.178 C 
ATOM      6  O   UNL     1      10.957   2.868  -0.178  1.00  0.00    -0.341 OA
ENDROOT
BRANCH   1   7
ATOM      7  O   UNL     1      11.754   0.665   0.006  1.00  0.00    -0.350 OA
BRANCH   7   8
ATOM      8  C   UNL     1      12.984   0.029   0.297  1.00  0.00     0.160 C 
ATOM      9  C   UNL     1      12.990  -0.473   1.736  1.00  0.00     0.035 C 
ENDBRANCH   7   8
ENDBRANCH   1   7
BRANCH   2  10
ATOM     10  O   UNL     1      12.600   2.957  -2.705  1.00  0.00    -0.385 OA
ATOM     11  H   UNL     1      12.878   3.574  -1.980  1.00  0.00     0.211 HD
ENDBRANCH   2  10
BRANCH   3  12
ATOM     12  O   UNL     1      10.625   1.519  -4.109  1.00  0.00    -0.387 OA
ATOM     13  H   UNL     1      10.801   0.595  -4.426  1.00  0.00     0.211 HD
ENDBRANCH   3  12
BRANCH   5  14
ATOM     14  C   UNL     1       8.616   3.369   0.057  1.00  0.00     0.191 C 
BRANCH  14  15
ATOM     15  O   UNL     1       8.949   3.641   1.391  1.00  0.00    -0.394 OA
ATOM     16  H   UNL     1       9.226   2.779   1.797  1.00  0.00     0.210 HD
ENDBRANCH  14  15
ENDBRANCH   5  14
BRANCH   4  17
ATOM     17  O   UNL     1       9.670   3.743  -2.616  1.00  0.00    -0.387 OA
ATOM     18  H   UNL     1       8.846   4.236  -2.364  1.00  0.00     0.211 HD
ENDBRANCH   4  17
TORSDOF 7
ENDMDL
MODEL 3
REMARK VINA RESULT:    -4.584      1.345      4.009
REMARK INTER + INTRA:          -6.278
REMARK INTER:                  -6.106
REMARK INTRA:                  -0.172
REMARK UNBOUND:                -0.355
REMARK SMILES CCO[C@@H]1O[C@@H](CO)[C@@H](O)[C@@H](O)[C@H]1O
REMARK SMILES IDX 4 1 13 2 11 3 9 4 6 5 5 6 3 7 2 8 1 9 14 10 12 12 7 14 8 15
REMARK SMILES IDX 10 17
REMARK H PARENT 14 11 12 13 8 16 10 18
REMARK Flexibility Score: inf
ROOT
ATOM      1  C   UNL     1      11.950   2.258  -3.231  1.00  0.00     0.281 C 
ATOM      2  C   UNL     1      10.599   3.009  -3.241  1.00  0.00     0.202 C 
ATOM      3  C   UNL     1       9.582   2.325  -2.297  1.00  0.00     0.179 C 
ATOM      4  C   UNL     1      10.196   2.000  -0.919  1.00  0.00     0.177 C 
ATOM      5  C   UNL     1      11.544   1.276  -1.131  1.00  0.00     0.178 C 
ATOM      6  O   UNL     1      12.429   2.073  -1.902  1.00  0.00    -0.341 OA
ENDROOT
BRANCH   1   7
ATOM      7  O   UNL     1      11.818   1.018  -3.911  1.00  0.00    -0.350 OA
BRANCH   7   8
ATOM      8  C   UNL     1      11.537   1.215  -5.284  1.00  0.00     0.160 C 
ATOM      9  C   UNL     1      11.799  -0.068  -6.064  1.00  0.00     0.035 C 
ENDBRANCH   7   8
ENDBRANCH   1   7
BRANCH   2  10
ATOM     10  O   UNL     1      10.770   4.373  -2.928  1.00  0.00    -0.385 OA
ATOM     11  H   UNL     1      10.219   4.582  -2.131  1.00  0.00     0.211 HD
ENDBRANCH   2  10
BRANCH   3  12
ATOM     12  O   UNL     1       8.389   3.064  -2.181  1.00  0.00    -0.387 OA
ATOM     13  H   UNL     1       7.690   2.467  -1.808  1.00  0.00     0.211 HD
ENDBRANCH   3  12
BRANCH   5  14
ATOM     14  C   UNL     1      12.211   0.948   0.212  1.00  0.00     0.191 C 
BRANCH  14  15
ATOM     15  O   UNL     1      13.271   0.050   0.025  1.00  0.00    -0.394 OA
ATOM     16  H   UNL     1      12.979  -0.819   0.405  1.00  0.00     0.210 HD
ENDBRANCH  14  15
ENDBRANCH   5  14
BRANCH   4  17
ATOM     17  O   UNL     1      10.393   3.172  -0.167  1.00  0.00    -0.387 OA
ATOM     18  H   UNL     1       9.723   3.166   0.565  1.00  0.00     0.211 HD
ENDBRANCH   4  17
TORSDOF 7
ENDMDL
MODEL 4
REMARK VINA RESULT:    -4.385      1.890      3.697
REMARK INTER + INTRA:          -6.022
REMARK INTER:                  -5.879
REMARK INTRA:                  -0.143
REMARK UNBOUND:                -0.355
REMARK SMILES CCO[C@@H]1O[C@@H](CO)[C@@H](O)[C@@H](O)[C@H]1O
REMARK SMILES IDX 4 1 13 2 11 3 9 4 6 5 5 6 3 7 2 8 1 9 14 10 12 12 7 14 8 15
REMARK SMILES IDX 10 17
REMARK H PARENT 14 11 12 13 8 16 10 18
REMARK Flexibility Score: inf
ROOT
ATOM      1  C   UNL     1       9.181   3.546  -0.680  1.00  0.00     0.281 C 
ATOM      2  C   UNL     1       8.812   3.874  -2.145  1.00  0.00     0.202 C 
ATOM      3  C   UNL     1      10.077   3.918  -3.035  1.00  0.00     0.179 C 
ATOM      4  C   UNL     1      10.998   2.703  -2.796  1.00  0.00     0.177 C 
ATOM      5  C   UNL     1      11.221   2.536  -1.277  1.00  0.00     0.178 C 
ATOM      6  O   UNL     1       9.984   2.373  -0.600  1.00  0.00    -0.341 OA
ENDROOT
BRANCH   1   7
ATOM      7  O   UNL     1       9.829   4.660  -0.085  1.00  0.00    -0.350 OA
BRANCH   7   8
ATOM      8  C   UNL     1       9.676   4.649   1.322  1.00  0.00     0.160 C 
ATOM      9  C   UNL     1      10.109   5.988   1.909  1.00  0.00     0.035 C 
ENDBRANCH   7   8
ENDBRANCH   1   7
BRANCH   2  10
ATOM     10  O   UNL     1       7.851   2.972  -2.645  1.00  0.00    -0.385 OA
ATOM     11  H   UNL     1       8.316   2.299  -3.204  1.00  0.00     0.211 HD
ENDBRANCH   2  10
BRANCH   3  12
ATOM     12  O   UNL     1       9.760   4.080  -4.396  1.00  0.00    -0.387 OA
ATOM     13  H   UNL     1       9.374   3.229  -4.728  1.00  0.00     0.211 HD
ENDBRANCH   3  12
BRANCH   5  14
ATOM     14  C   UNL     1      12.115   1.324  -0.981  1.00  0.00     0.191 C 
BRANCH  14  15
ATOM     15  O   UNL     1      11.866   0.837   0.311  1.00  0.00    -0.394 OA
ATOM     16  H   UNL     1      10.988   1.205   0.589  1.00  0.00     0.210 HD
ENDBRANCH  14  15
ENDBRANCH   5  14
BRANCH   4  17
ATOM     17  O   UNL     1      10.433   1.531  -3.330  1.00  0.00    -0.387 OA
ATOM     18  H   UNL     1      10.673   1.504  -4.293  1.00  0.00     0.211 HD
ENDBRANCH   4  17
TORSDOF 7
ENDMDL
MODEL 5
REMARK VINA RESULT:    -4.360      2.015      3.950
REMARK INTER + INTRA:          -5.989
REMARK INTER:                  -5.596
REMARK INTRA:                  -0.393
REMARK UNBOUND:                -0.355
REMARK SMILES CCO[C@@H]1O[C@@H](CO)[C@@H](O)[C@@H](O)[C@H]1O
REMARK SMILES IDX 4 1 13 2 11 3 9 4 6 5 5 6 3 7 2 8 1 9 14 10 12 12 7 14 8 15
REMARK SMILES IDX 10 17
REMARK H PARENT 14 11 12 13 8 16 10 18
REMARK Flexibility Score: inf
ROOT
ATOM      1  C   UNL     1      10.411   3.112  -3.157  1.00  0.00     0.281 C 
ATOM      2  C   UNL     1       9.626   2.402  -2.030  1.00  0.00     0.202 C 
ATOM      3  C   UNL     1      10.022   2.966  -0.645  1.00  0.00     0.179 C 
ATOM      4  C   UNL     1      10.037   4.509  -0.629  1.00  0.00     0.177 C 
ATOM      5  C   UNL     1      10.848   5.014  -1.842  1.00  0.00     0.178 C 
ATOM      6  O   UNL     1      10.295   4.528  -3.056  1.00  0.00    -0.341 OA
ENDROOT
BRANCH   1   7
ATOM      7  O   UNL     1      11.770   2.700  -3.133  1.00  0.00    -0.350 OA
BRANCH   7   8
ATOM      8  C   UNL     1      11.885   1.305  -3.342  1.00  0.00     0.160 C 
ATOM      9  C   UNL     1      11.545   0.960  -4.787  1.00  0.00     0.035 C 
ENDBRANCH   7   8
ENDBRANCH   1   7
BRANCH   2  10
ATOM     10  O   UNL     1       8.236   2.478  -2.249  1.00  0.00    -0.385 OA
ATOM     11  H   UNL     1       7.773   2.189  -1.421  1.00  0.00     0.211 HD
ENDBRANCH   2  10
BRANCH   3  12
ATOM     12  O   UNL     1       9.227   2.436   0.389  1.00  0.00    -0.387 OA
ATOM     13  H   UNL     1       9.789   1.824   0.930  1.00  0.00     0.211 HD
ENDBRANCH   3  12
BRANCH   5  14
ATOM     14  C   UNL     1      10.876   6.548  -1.887  1.00  0.00     0.191 C 
BRANCH  14  15
ATOM     15  O   UNL     1      10.831   7.076  -0.589  1.00  0.00    -0.394 OA
ATOM     16  H   UNL     1      10.887   8.062  -0.681  1.00  0.00     0.210 HD
ENDBRANCH  14  15
ENDBRANCH   5  14
BRANCH   4  17
ATOM     17  O   UNL     1       8.730   5.026  -0.675  1.00  0.00    -0.387 OA
ATOM     18  H   UNL     1       8.800   6.009  -0.561  1.00  0.00     0.211 HD
ENDBRANCH   4  17
TORSDOF 7
ENDMDL
MODEL 6
REMARK VINA RESULT:    -4.345      1.872      4.978
REMARK INTER + INTRA:          -5.969
REMARK INTER:                  -5.572
REMARK INTRA:                  -0.398
REMARK UNBOUND:                -0.355
REMARK SMILES CCO[C@@H]1O[C@@H](CO)[C@@H](O)[C@@H](O)[C@H]1O
REMARK SMILES IDX 4 1 13 2 11 3 9 4 6 5 5 6 3 7 2 8 1 9 14 10 12 12 7 14 8 15
REMARK SMILES IDX 10 17
REMARK H PARENT 14 11 12 13 8 16 10 18
REMARK Flexibility Score: inf
ROOT
ATOM      1  C   UNL     1      10.035   3.900  -3.155  1.00  0.00     0.281 C 
ATOM      2  C   UNL     1      11.058   2.749  -3.018  1.00  0.00     0.202 C 
ATOM      3  C   UNL     1      11.575   2.643  -1.563  1.00  0.00     0.179 C 
ATOM      4  C   UNL     1      10.426   2.691  -0.534  1.00  0.00     0.177 C 
ATOM      5  C   UNL     1       9.512   3.892  -0.860  1.00  0.00     0.178 C 
ATOM      6  O   UNL     1       9.001   3.792  -2.181  1.00  0.00    -0.341 OA
ENDROOT
BRANCH   1   7
ATOM      7  O   UNL     1      10.702   5.152  -3.067  1.00  0.00    -0.350 OA
BRANCH   7   8
ATOM      8  C   UNL     1      10.197   6.068  -4.020  1.00  0.00     0.160 C 
ATOM      9  C   UNL     1      10.352   5.502  -5.427  1.00  0.00     0.035 C 
ENDBRANCH   7   8
ENDBRANCH   1   7
BRANCH   2  10
ATOM     10  O   UNL     1      10.519   1.529  -3.473  1.00  0.00    -0.385 OA
ATOM     11  H   UNL     1       9.648   1.386  -3.022  1.00  0.00     0.211 HD
ENDBRANCH   2  10
BRANCH   3  12
ATOM     12  O   UNL     1      12.403   1.521  -1.377  1.00  0.00    -0.387 OA
ATOM     13  H   UNL     1      12.975   1.420  -2.182  1.00  0.00     0.211 HD
ENDBRANCH   3  12
BRANCH   5  14
ATOM     14  C   UNL     1       8.336   3.973   0.123  1.00  0.00     0.191 C 
BRANCH  14  15
ATOM     15  O   UNL     1       8.680   3.382   1.347  1.00  0.00    -0.394 OA
ATOM     16  H   UNL     1       8.017   2.662   1.511  1.00  0.00     0.210 HD
ENDBRANCH  14  15
ENDBRANCH   5  14
BRANCH   4  17
ATOM     17  O   UNL     1       9.680   1.499  -0.556  1.00  0.00    -0.387 OA
ATOM     18  H   UNL     1       9.266   1.396   0.340  1.00  0.00     0.211 HD
ENDBRANCH   4  17
TORSDOF 7
ENDMDL
MODEL 7
REMARK VINA RESULT:    -4.344      1.686      4.045
REMARK INTER + INTRA:          -5.969
REMARK INTER:                  -5.617
REMARK INTRA:                  -0.351
REMARK UNBOUND:                -0.355
REMARK SMILES CCO[C@@H]1O[C@@H](CO)[C@@H](O)[C@@H](O)[C@H]1O
REMARK SMILES IDX 4 1 13 2 11 3 9 4 6 5 5 6 3 7 2 8 1 9 14 10 12 12 7 14 8 15
REMARK SMILES IDX 10 17
REMARK H PARENT 14 11 12 13 8 16 10 18
REMARK Flexibility Score: inf
ROOT
ATOM      1  C   UNL     1      10.165   4.690  -1.837  1.00  0.00     0.281 C 
ATOM      2  C   UNL     1       9.721   4.477  -3.302  1.00  0.00     0.202 C 
ATOM      3  C   UNL     1      10.811   3.725  -4.103  1.00  0.00     0.179 C 
ATOM      4  C   UNL     1      11.345   2.492  -3.342  1.00  0.00     0.177 C 
ATOM      5  C   UNL     1      11.707   2.913  -1.901  1.00  0.00     0.178 C 
ATOM      6  O   UNL     1      10.580   3.466  -1.238  1.00  0.00    -0.341 OA
ENDROOT
BRANCH   1   7
ATOM      7  O   UNL     1      11.193   5.668  -1.781  1.00  0.00    -0.350 OA
BRANCH   7   8
ATOM      8  C   UNL     1      10.680   6.927  -1.385  1.00  0.00     0.160 C 
ATOM      9  C   UNL     1       9.864   6.782  -0.106  1.00  0.00     0.035 C 
ENDBRANCH   7   8
ENDBRANCH   1   7
BRANCH   2  10
ATOM     10  O   UNL     1       8.476   3.821  -3.369  1.00  0.00    -0.385 OA
ATOM     11  H   UNL     1       8.372   3.438  -4.277  1.00  0.00     0.211 HD
ENDBRANCH   2  10
BRANCH   3  12
ATOM     12  O   UNL     1      10.380   3.396  -5.402  1.00  0.00    -0.387 OA
ATOM     13  H   UNL     1      10.861   3.979  -6.045  1.00  0.00     0.211 HD
ENDBRANCH   3  12
BRANCH   5  14
ATOM     14  C   UNL     1      12.224   1.716  -1.091  1.00  0.00     0.191 C 
BRANCH  14  15
ATOM     15  O   UNL     1      11.238   1.265  -0.202  1.00  0.00    -0.394 OA
ATOM     16  H   UNL     1      10.672   2.050   0.016  1.00  0.00     0.210 HD
ENDBRANCH  14  15
ENDBRANCH   5  14
BRANCH   4  17
ATOM     17  O   UNL     1      10.387   1.463  -3.316  1.00  0.00    -0.387 OA
ATOM     18  H   UNL     1       9.493   1.896  -3.302  1.00  0.00     0.211 HD
ENDBRANCH   4  17
TORSDOF 7
ENDMDL
MODEL 8
REMARK VINA RESULT:    -3.964      2.382      3.464
REMARK INTER + INTRA:          -5.477
REMARK INTER:                  -5.110
REMARK INTRA:                  -0.367
REMARK UNBOUND:                -0.355
REMARK SMILES CCO[C@@H]1O[C@@H](CO)[C@@H](O)[C@@H](O)[C@H]1O
REMARK SMILES IDX 4 1 13 2 11 3 9 4 6 5 5 6 3 7 2 8 1 9 14 10 12 12 7 14 8 15
REMARK SMILES IDX 10 17
REMARK H PARENT 14 11 12 13 8 16 10 18
REMARK Flexibility Score: inf
ROOT
ATOM      1  C   UNL     1       9.963   2.583  -0.762  1.00  0.00     0.281 C 
ATOM      2  C   UNL     1       9.789   3.318   0.587  1.00  0.00     0.202 C 
ATOM      3  C   UNL     1       9.637   4.842   0.367  1.00  0.00     0.179 C 
ATOM      4  C   UNL     1       8.623   5.170  -0.750  1.00  0.00     0.177 C 
ATOM      5  C   UNL     1       8.958   4.318  -1.994  1.00  0.00     0.178 C 
ATOM      6  O   UNL     1       8.932   2.934  -1.680  1.00  0.00    -0.341 OA
ENDROOT
BRANCH   1   7
ATOM      7  O   UNL     1      11.249   2.857  -1.299  1.00  0.00    -0.350 OA
BRANCH   7   8
ATOM      8  C   UNL     1      11.907   1.665  -1.684  1.00  0.00     0.160 C 
ATOM      9  C   UNL     1      12.400   0.915  -0.451  1.00  0.00     0.035 C 
ENDBRANCH   7   8
ENDBRANCH   1   7
BRANCH   2  10
ATOM     10  O   UNL     1       8.713   2.785   1.324  1.00  0.00    -0.385 OA
ATOM     11  H   UNL     1       7.890   2.863   0.777  1.00  0.00     0.211 HD
ENDBRANCH   2  10
BRANCH   3  12
ATOM     12  O   UNL     1       9.341   5.521   1.564  1.00  0.00    -0.387 OA
ATOM     13  H   UNL     1       8.502   6.034   1.430  1.00  0.00     0.211 HD
ENDBRANCH   3  12
BRANCH   5  14
ATOM     14  C   UNL     1       7.963   4.589  -3.131  1.00  0.00     0.191 C 
BRANCH  14  15
ATOM     15  O   UNL     1       6.939   3.631  -3.124  1.00  0.00    -0.394 OA
ATOM     16  H   UNL     1       6.883   3.268  -4.045  1.00  0.00     0.210 HD
ENDBRANCH  14  15
ENDBRANCH   5  14
BRANCH   4  17
ATOM     17  O   UNL     1       7.307   4.908  -0.327  1.00  0.00    -0.387 OA
ATOM     18  H   UNL     1       7.309   4.933   0.665  1.00  0.00     0.211 HD
ENDBRANCH   4  17
TORSDOF 7
ENDMDL
MODEL 9
REMARK VINA RESULT:    -3.928      2.136      4.175
REMARK INTER + INTRA:          -5.431
REMARK INTER:                  -5.065
REMARK INTRA:                  -0.365
REMARK UNBOUND:                -0.355
REMARK SMILES CCO[C@@H]1O[C@@H](CO)[C@@H](O)[C@@H](O)[C@H]1O
REMARK SMILES IDX 4 1 13 2 11 3 9 4 6 5 5 6 3 7 2 8 1 9 14 10 12 12 7 14 8 15
REMARK SMILES IDX 10 17
REMARK H PARENT 14 11 12 13 8 16 10 18
REMARK Flexibility Score: inf
ROOT
ATOM      1  C   UNL     1      11.004   3.256  -2.629  1.00  0.00     0.281 C 
ATOM      2  C   UNL     1      10.028   4.231  -3.327  1.00  0.00     0.202 C 
ATOM      3  C   UNL     1       8.614   4.132  -2.706  1.00  0.00     0.179 C 
ATOM      4  C   UNL     1       8.655   4.158  -1.163  1.00  0.00     0.177 C 
ATOM      5  C   UNL     1       9.702   3.135  -0.673  1.00  0.00     0.178 C 
ATOM      6  O   UNL     1      10.982   3.424  -1.215  1.00  0.00    -0.341 OA
ENDROOT
BRANCH   1   7
ATOM      7  O   UNL     1      10.696   1.919  -2.997  1.00  0.00    -0.350 OA
BRANCH   7   8
ATOM      8  C   UNL     1      11.820   1.273  -3.566  1.00  0.00     0.160 C 
ATOM      9  C   UNL     1      11.497   0.808  -4.981  1.00  0.00     0.035 C 
ENDBRANCH   7   8
ENDBRANCH   1   7
BRANCH   2  10
ATOM     10  O   UNL     1      10.520   5.551  -3.302  1.00  0.00    -0.385 OA
ATOM     11  H   UNL     1      11.442   5.548  -3.666  1.00  0.00     0.211 HD
ENDBRANCH   2  10
BRANCH   3  12
ATOM     12  O   UNL     1       7.739   5.103  -3.227  1.00  0.00    -0.387 OA
ATOM     13  H   UNL     1       6.879   5.040  -2.737  1.00  0.00     0.211 HD
ENDBRANCH   3  12
BRANCH   5  14
ATOM     14  C   UNL     1       9.799   3.136   0.859  1.00  0.00     0.191 C 
BRANCH  14  15
ATOM     15  O   UNL     1       8.599   3.589   1.425  1.00  0.00    -0.394 OA
ATOM     16  H   UNL     1       8.839   4.309   2.064  1.00  0.00     0.210 HD
ENDBRANCH  14  15
ENDBRANCH   5  14
BRANCH   4  17
ATOM     17  O   UNL     1       8.978   5.443  -0.690  1.00  0.00    -0.387 OA
ATOM     18  H   UNL     1       9.499   5.323   0.147  1.00  0.00     0.211 HD
ENDBRANCH   4  17
TORSDOF 7
ENDMDL
