MODEL 1
REMARK VINA RESULT:    -4.435      0.000      0.000
REMARK INTER + INTRA:          -6.878
REMARK INTER:                  -5.990
REMARK INTRA:                  -0.888
REMARK UNBOUND:                -0.888
REMARK SMILES CC(=O)CCC=C(C)CCC=C(C)C
REMARK SMILES IDX 7 1 6 2 8 3 9 4 10 5 11 6 13 7 12 8 14 9 5 10 4 11 2 12 3 13
REMARK SMILES IDX 1 14
REMARK H PARENT
REMARK Flexibility Score: inf
ROOT
ATOM      1  C   UNL     1      11.122 -22.534  40.555  1.00  0.00    -0.077 C 
ATOM      2  C   UNL     1      11.853 -22.990  39.513  1.00  0.00    -0.028 C 
ATOM      3  C   UNL     1      11.755 -21.795  41.711  1.00  0.00     0.039 C 
ENDROOT
BRANCH   1   4
ATOM      4  C   UNL     1       9.632 -22.791  40.575  1.00  0.00     0.034 C 
BRANCH   4   5
ATOM      5  C   UNL     1       9.294 -24.096  39.846  1.00  0.00     0.032 C 
BRANCH   5   6
ATOM      6  C   UNL     1       9.154 -25.235  40.825  1.00  0.00    -0.028 C 
ATOM      7  C   UNL     1       9.737 -27.397  41.881  1.00  0.00     0.039 C 
ATOM      8  C   UNL     1       9.948 -26.331  40.838  1.00  0.00    -0.080 C 
ATOM      9  C   UNL     1      11.026 -26.552  39.805  1.00  0.00     0.039 C 
ENDBRANCH   5   6
ENDBRANCH   4   5
ENDBRANCH   1   4
BRANCH   2  10
ATOM     10  C   UNL     1      13.337 -22.766  39.341  1.00  0.00     0.035 C 
BRANCH  10  11
ATOM     11  C   UNL     1      13.797 -23.081  37.911  1.00  0.00     0.079 C 
BRANCH  11  12
ATOM     12  C   UNL     1      13.916 -21.834  37.075  1.00  0.00     0.130 C 
ATOM     13  O   UNL     1      13.986 -21.924  35.857  1.00  0.00    -0.300 OA
ATOM     14  C   UNL     1      13.964 -20.485  37.726  1.00  0.00     0.087 C 
ENDBRANCH  11  12
ENDBRANCH  10  11
ENDBRANCH   2  10
TORSDOF 6
ENDMDL
MODEL 2
REMARK VINA RESULT:    -4.386      0.954      1.096
REMARK INTER + INTRA:          -6.812
REMARK INTER:                  -5.760
REMARK INTRA:                  -1.052
REMARK UNBOUND:                -0.888
REMARK SMILES CC(=O)CCC=C(C)CCC=C(C)C
REMARK SMILES IDX 7 1 6 2 8 3 9 4 10 5 11 6 13 7 12 8 14 9 5 10 4 11 2 12 3 13
REMARK SMILES IDX 1 14
REMARK H PARENT
REMARK Flexibility Score: inf
ROOT
ATOM      1  C   UNL     1      11.154 -22.457  41.039  1.00  0.00    -0.077 C 
ATOM      2  C   UNL     1      11.933 -22.246  39.954  1.00  0.00    -0.028 C 
ATOM      3  C   UNL     1      11.729 -22.522  42.434  1.00  0.00     0.039 C 
ENDROOT
BRANCH   1   4
ATOM      4  C   UNL     1       9.667 -22.656  40.847  1.00  0.00     0.034 C 
BRANCH   4   5
ATOM      5  C   UNL     1       9.390 -23.889  39.981  1.00  0.00     0.032 C 
BRANCH   5   6
ATOM      6  C   UNL     1       9.186 -25.112  40.839  1.00  0.00    -0.028 C 
ATOM      7  C   UNL     1       9.826 -27.228  41.954  1.00  0.00     0.039 C 
ATOM      8  C   UNL     1      10.129 -26.059  41.052  1.00  0.00    -0.080 C 
ATOM      9  C   UNL     1      11.477 -26.015  40.376  1.00  0.00     0.039 C 
ENDBRANCH   5   6
ENDBRANCH   4   5
ENDBRANCH   1   4
BRANCH   2  10
ATOM     10  C   UNL     1      13.421 -21.986  40.003  1.00  0.00     0.035 C 
BRANCH  10  11
ATOM     11  C   UNL     1      14.213 -23.087  39.285  1.00  0.00     0.079 C 
BRANCH  11  12
ATOM     12  C   UNL     1      14.014 -23.037  37.793  1.00  0.00     0.130 C 
ATOM     13  O   UNL     1      13.732 -24.058  37.184  1.00  0.00    -0.300 OA
ATOM     14  C   UNL     1      14.174 -21.746  37.049  1.00  0.00     0.087 C 
ENDBRANCH  11  12
ENDBRANCH  10  11
ENDBRANCH   2  10
TORSDOF 6
ENDMDL
MODEL 3
REMARK VINA RESULT:    -4.370      3.232      4.534
REMARK INTER + INTRA:          -6.790
REMARK INTER:                  -5.887
REMARK INTRA:                  -0.903
REMARK UNBOUND:                -0.888
REMARK SMILES CC(=O)CCC=C(C)CCC=C(C)C
REMARK SMILES IDX 7 1 6 2 8 3 9 4 10 5 11 6 13 7 12 8 14 9 5 10 4 11 2 12 3 13
REMARK SMILES IDX 1 14
REMARK H PARENT
REMARK Flexibility Score: inf
ROOT
ATOM      1  C   UNL     1      11.309 -22.393  41.050  1.00  0.00    -0.077 C 
ATOM      2  C   UNL     1      11.736 -22.490  42.330  1.00  0.00    -0.028 C 
ATOM      3  C   UNL     1      12.263 -22.138  39.907  1.00  0.00     0.039 C 
ENDROOT
BRANCH   1   4
ATOM      4  C   UNL     1       9.830 -22.520  40.759  1.00  0.00     0.034 C 
BRANCH   4   5
ATOM      5  C   UNL     1       9.550 -23.750  39.889  1.00  0.00     0.032 C 
BRANCH   5   6
ATOM      6  C   UNL     1       9.166 -24.933  40.742  1.00  0.00    -0.028 C 
ATOM      7  C   UNL     1       9.528 -27.056  41.963  1.00  0.00     0.039 C 
ATOM      8  C   UNL     1      10.011 -25.935  41.080  1.00  0.00    -0.080 C 
ATOM      9  C   UNL     1      11.427 -25.997  40.564  1.00  0.00     0.039 C 
ENDBRANCH   5   6
ENDBRANCH   4   5
ENDBRANCH   1   4
BRANCH   2  10
ATOM     10  C   UNL     1      13.184 -22.429  42.758  1.00  0.00     0.035 C 
BRANCH  10  11
ATOM     11  C   UNL     1      13.445 -21.257  43.712  1.00  0.00     0.079 C 
BRANCH  11  12
ATOM     12  C   UNL     1      13.907 -21.729  45.066  1.00  0.00     0.130 C 
ATOM     13  O   UNL     1      14.154 -22.913  45.244  1.00  0.00    -0.300 OA
ATOM     14  C   UNL     1      14.050 -20.760  46.200  1.00  0.00     0.087 C 
ENDBRANCH  11  12
ENDBRANCH  10  11
ENDBRANCH   2  10
TORSDOF 6
ENDMDL
MODEL 4
REMARK VINA RESULT:    -4.277      1.981      4.109
REMARK INTER + INTRA:          -6.665
REMARK INTER:                  -5.728
REMARK INTRA:                  -0.938
REMARK UNBOUND:                -0.888
REMARK SMILES CC(=O)CCC=C(C)CCC=C(C)C
REMARK SMILES IDX 7 1 6 2 8 3 9 4 10 5 11 6 13 7 12 8 14 9 5 10 4 11 2 12 3 13
REMARK SMILES IDX 1 14
REMARK H PARENT
REMARK Flexibility Score: inf
ROOT
ATOM      1  C   UNL     1      10.210 -25.395  40.511  1.00  0.00    -0.077 C 
ATOM      2  C   UNL     1      11.008 -25.323  39.422  1.00  0.00    -0.028 C 
ATOM      3  C   UNL     1      10.328 -26.519  41.513  1.00  0.00     0.039 C 
ENDROOT
BRANCH   1   4
ATOM      4  C   UNL     1       9.155 -24.332  40.720  1.00  0.00     0.034 C 
BRANCH   4   5
ATOM      5  C   UNL     1       9.692 -22.948  40.337  1.00  0.00     0.032 C 
BRANCH   5   6
ATOM      6  C   UNL     1      10.650 -22.437  41.383  1.00  0.00    -0.028 C 
ATOM      7  C   UNL     1      12.761 -21.466  42.239  1.00  0.00     0.039 C 
ATOM      8  C   UNL     1      11.897 -21.982  41.118  1.00  0.00    -0.080 C 
ATOM      9  C   UNL     1      12.483 -22.013  39.727  1.00  0.00     0.039 C 
ENDBRANCH   5   6
ENDBRANCH   4   5
ENDBRANCH   1   4
BRANCH   2  10
ATOM     10  C   UNL     1      12.130 -26.287  39.113  1.00  0.00     0.035 C 
BRANCH  10  11
ATOM     11  C   UNL     1      13.484 -25.572  39.024  1.00  0.00     0.079 C 
BRANCH  11  12
ATOM     12  C   UNL     1      14.195 -25.880  37.732  1.00  0.00     0.130 C 
ATOM     13  O   UNL     1      13.703 -25.530  36.669  1.00  0.00    -0.300 OA
ATOM     14  C   UNL     1      15.494 -26.628  37.740  1.00  0.00     0.087 C 
ENDBRANCH  11  12
ENDBRANCH  10  11
ENDBRANCH   2  10
TORSDOF 6
ENDMDL
MODEL 5
REMARK VINA RESULT:    -4.275      1.713      3.357
REMARK INTER + INTRA:          -6.663
REMARK INTER:                  -5.584
REMARK INTRA:                  -1.079
REMARK UNBOUND:                -0.888
REMARK SMILES CC(=O)CCC=C(C)CCC=C(C)C
REMARK SMILES IDX 7 1 6 2 8 3 9 4 10 5 11 6 13 7 12 8 14 9 5 10 4 11 2 12 3 13
REMARK SMILES IDX 1 14
REMARK H PARENT
REMARK Flexibility Score: inf
ROOT
ATOM      1  C   UNL     1      12.105 -24.205  39.685  1.00  0.00    -0.077 C 
ATOM      2  C   UNL     1      12.576 -23.396  38.709  1.00  0.00    -0.028 C 
ATOM      3  C   UNL     1      12.920 -25.351  40.236  1.00  0.00     0.039 C 
ENDROOT
BRANCH   1   4
ATOM      4  C   UNL     1      10.712 -23.969  40.225  1.00  0.00     0.034 C 
BRANCH   4   5
ATOM      5  C   UNL     1      10.623 -22.610  40.929  1.00  0.00     0.032 C 
BRANCH   5   6
ATOM      6  C   UNL     1      11.319 -22.653  42.266  1.00  0.00    -0.028 C 
ATOM      7  C   UNL     1      13.044 -22.062  43.940  1.00  0.00     0.039 C 
ATOM      8  C   UNL     1      12.449 -21.968  42.559  1.00  0.00    -0.080 C 
ATOM      9  C   UNL     1      13.171 -21.135  41.530  1.00  0.00     0.039 C 
ENDBRANCH   5   6
ENDBRANCH   4   5
ENDBRANCH   1   4
BRANCH   2  10
ATOM     10  C   UNL     1      13.961 -23.488  38.113  1.00  0.00     0.035 C 
BRANCH  10  11
ATOM     11  C   UNL     1      14.636 -22.112  38.031  1.00  0.00     0.079 C 
BRANCH  11  12
ATOM     12  C   UNL     1      14.207 -21.351  36.804  1.00  0.00     0.130 C 
ATOM     13  O   UNL     1      13.951 -21.956  35.773  1.00  0.00    -0.300 OA
ATOM     14  C   UNL     1      14.106 -19.856  36.835  1.00  0.00     0.087 C 
ENDBRANCH  11  12
ENDBRANCH  10  11
ENDBRANCH   2  10
TORSDOF 6
ENDMDL
MODEL 6
REMARK VINA RESULT:    -4.173      1.871      2.145
REMARK INTER + INTRA:          -6.524
REMARK INTER:                  -5.530
REMARK INTRA:                  -0.994
REMARK UNBOUND:                -0.888
REMARK SMILES CC(=O)CCC=C(C)CCC=C(C)C
REMARK SMILES IDX 7 1 6 2 8 3 9 4 10 5 11 6 13 7 12 8 14 9 5 10 4 11 2 12 3 13
REMARK SMILES IDX 1 14
REMARK H PARENT
REMARK Flexibility Score: inf
ROOT
ATOM      1  C   UNL     1      11.215 -22.335  40.981  1.00  0.00    -0.077 C 
ATOM      2  C   UNL     1      11.941 -22.256  39.843  1.00  0.00    -0.028 C 
ATOM      3  C   UNL     1      11.835 -22.110  42.341  1.00  0.00     0.039 C 
ENDROOT
BRANCH   1   4
ATOM      4  C   UNL     1       9.746 -22.683  40.892  1.00  0.00     0.034 C 
BRANCH   4   5
ATOM      5  C   UNL     1       9.523 -23.870  39.949  1.00  0.00     0.032 C 
BRANCH   5   6
ATOM      6  C   UNL     1       9.132 -25.103  40.724  1.00  0.00    -0.028 C 
ATOM      7  C   UNL     1       9.494 -27.271  41.863  1.00  0.00     0.039 C 
ATOM      8  C   UNL     1       9.988 -26.096  41.060  1.00  0.00    -0.080 C 
ATOM      9  C   UNL     1      11.430 -26.095  40.618  1.00  0.00     0.039 C 
ENDBRANCH   5   6
ENDBRANCH   4   5
ENDBRANCH   1   4
BRANCH   2  10
ATOM     10  C   UNL     1      13.402 -21.874  39.781  1.00  0.00     0.035 C 
BRANCH  10  11
ATOM     11  C   UNL     1      13.616 -20.575  38.994  1.00  0.00     0.079 C 
BRANCH  11  12
ATOM     12  C   UNL     1      14.085 -19.453  39.882  1.00  0.00     0.130 C 
ATOM     13  O   UNL     1      14.162 -18.317  39.437  1.00  0.00    -0.300 OA
ATOM     14  C   UNL     1      14.471 -19.722  41.305  1.00  0.00     0.087 C 
ENDBRANCH  11  12
ENDBRANCH  10  11
ENDBRANCH   2  10
TORSDOF 6
ENDMDL
MODEL 7
REMARK VINA RESULT:    -4.098      2.516      4.531
REMARK INTER + INTRA:          -6.423
REMARK INTER:                  -5.341
REMARK INTRA:                  -1.083
REMARK UNBOUND:                -0.888
REMARK SMILES CC(=O)CCC=C(C)CCC=C(C)C
REMARK SMILES IDX 7 1 6 2 8 3 9 4 10 5 11 6 13 7 12 8 14 9 5 10 4 11 2 12 3 13
REMARK SMILES IDX 1 14
REMARK H PARENT
REMARK Flexibility Score: inf
ROOT
ATOM      1  C   UNL     1       9.824 -24.344  40.314  1.00  0.00    -0.077 C 
ATOM      2  C   UNL     1      10.557 -25.251  40.999  1.00  0.00    -0.028 C 
ATOM      3  C   UNL     1       9.128 -24.693  39.020  1.00  0.00     0.039 C 
ENDROOT
BRANCH   1   4
ATOM      4  C   UNL     1       9.718 -22.933  40.849  1.00  0.00     0.034 C 
BRANCH   4   5
ATOM      5  C   UNL     1      11.078 -22.229  40.803  1.00  0.00     0.032 C 
BRANCH   5   6
ATOM      6  C   UNL     1      11.602 -21.985  42.196  1.00  0.00    -0.028 C 
ATOM      7  C   UNL     1      13.264 -22.029  44.031  1.00  0.00     0.039 C 
ATOM      8  C   UNL     1      12.833 -22.349  42.623  1.00  0.00    -0.080 C 
ATOM      9  C   UNL     1      13.792 -23.115  41.744  1.00  0.00     0.039 C 
ENDBRANCH   5   6
ENDBRANCH   4   5
ENDBRANCH   1   4
BRANCH   2  10
ATOM     10  C   UNL     1      10.710 -26.702  40.607  1.00  0.00     0.035 C 
BRANCH  10  11
ATOM     11  C   UNL     1      12.123 -27.005  40.090  1.00  0.00     0.079 C 
BRANCH  11  12
ATOM     12  C   UNL     1      12.380 -26.357  38.755  1.00  0.00     0.130 C 
ATOM     13  O   UNL     1      11.760 -26.730  37.770  1.00  0.00    -0.300 OA
ATOM     14  C   UNL     1      13.402 -25.268  38.624  1.00  0.00     0.087 C 
ENDBRANCH  11  12
ENDBRANCH  10  11
ENDBRANCH   2  10
TORSDOF 6
ENDMDL
MODEL 8
REMARK VINA RESULT:    -4.093      3.053      6.164
REMARK INTER + INTRA:          -6.416
REMARK INTER:                  -5.253
REMARK INTRA:                  -1.163
REMARK UNBOUND:                -0.888
REMARK SMILES CC(=O)CCC=C(C)CCC=C(C)C
REMARK SMILES IDX 7 1 6 2 8 3 9 4 10 5 11 6 13 7 12 8 14 9 5 10 4 11 2 12 3 13
REMARK SMILES IDX 1 14
REMARK H PARENT
REMARK Flexibility Score: inf
ROOT
ATOM      1  C   UNL     1       9.791 -24.192  40.490  1.00  0.00    -0.077 C 
ATOM      2  C   UNL     1      10.252 -25.102  41.379  1.00  0.00    -0.028 C 
ATOM      3  C   UNL     1       9.316 -24.592  39.113  1.00  0.00     0.039 C 
ENDROOT
BRANCH   1   4
ATOM      4  C   UNL     1       9.771 -22.731  40.879  1.00  0.00     0.034 C 
BRANCH   4   5
ATOM      5  C   UNL     1      11.167 -22.259  41.299  1.00  0.00     0.032 C 
BRANCH   5   6
ATOM      6  C   UNL     1      12.012 -21.947  40.089  1.00  0.00    -0.028 C 
ATOM      7  C   UNL     1      13.821 -22.304  38.437  1.00  0.00     0.039 C 
ATOM      8  C   UNL     1      13.063 -22.695  39.679  1.00  0.00    -0.080 C 
ATOM      9  C   UNL     1      13.540 -23.899  40.453  1.00  0.00     0.039 C 
ENDBRANCH   5   6
ENDBRANCH   4   5
ENDBRANCH   1   4
BRANCH   2  10
ATOM     10  C   UNL     1      10.285 -26.593  41.142  1.00  0.00     0.035 C 
BRANCH  10  11
ATOM     11  C   UNL     1       9.192 -27.319  41.937  1.00  0.00     0.079 C 
BRANCH  11  12
ATOM     12  C   UNL     1       7.910 -27.430  41.152  1.00  0.00     0.130 C 
ATOM     13  O   UNL     1       6.875 -26.971  41.613  1.00  0.00    -0.300 OA
ATOM     14  C   UNL     1       7.894 -28.113  39.818  1.00  0.00     0.087 C 
ENDBRANCH  11  12
ENDBRANCH  10  11
ENDBRANCH   2  10
TORSDOF 6
ENDMDL
MODEL 9
REMARK VINA RESULT:    -3.923      2.744      5.268
REMARK INTER + INTRA:          -6.187
REMARK INTER:                  -5.276
REMARK INTRA:                  -0.911
REMARK UNBOUND:                -0.888
REMARK SMILES CC(=O)CCC=C(C)CCC=C(C)C
REMARK SMILES IDX 7 1 6 2 8 3 9 4 10 5 11 6 13 7 12 8 14 9 5 10 4 11 2 12 3 13
REMARK SMILES IDX 1 14
REMARK H PARENT
REMARK Flexibility Score: inf
ROOT
ATOM      1  C   UNL     1      10.147 -26.384  40.436  1.00  0.00    -0.077 C 
ATOM      2  C   UNL     1      11.146 -26.640  39.562  1.00  0.00    -0.028 C 
ATOM      3  C   UNL     1      10.132 -26.974  41.827  1.00  0.00     0.039 C 
ENDROOT
BRANCH   1   4
ATOM      4  C   UNL     1       9.000 -25.499  40.001  1.00  0.00     0.034 C 
BRANCH   4   5
ATOM      5  C   UNL     1       9.520 -24.202  39.372  1.00  0.00     0.032 C 
BRANCH   5   6
ATOM      6  C   UNL     1      10.006 -23.248  40.435  1.00  0.00    -0.028 C 
ATOM      7  C   UNL     1      11.646 -21.817  41.614  1.00  0.00     0.039 C 
ATOM      8  C   UNL     1      11.276 -22.792  40.527  1.00  0.00    -0.080 C 
ATOM      9  C   UNL     1      12.367 -23.263  39.596  1.00  0.00     0.039 C 
ENDBRANCH   5   6
ENDBRANCH   4   5
ENDBRANCH   1   4
BRANCH   2  10
ATOM     10  C   UNL     1      12.372 -27.465  39.876  1.00  0.00     0.035 C 
BRANCH  10  11
ATOM     11  C   UNL     1      13.266 -27.647  38.642  1.00  0.00     0.079 C 
BRANCH  11  12
ATOM     12  C   UNL     1      13.914 -29.007  38.618  1.00  0.00     0.130 C 
ATOM     13  O   UNL     1      15.047 -29.131  38.176  1.00  0.00    -0.300 OA
ATOM     14  C   UNL     1      13.173 -30.210  39.116  1.00  0.00     0.087 C 
ENDBRANCH  11  12
ENDBRANCH  10  11
ENDBRANCH   2  10
TORSDOF 6
ENDMDL
