MODEL 1
REMARK VINA RESULT:    -6.480      0.000      0.000
REMARK INTER + INTRA:          -7.350
REMARK INTER:                  -7.048
REMARK INTRA:                  -0.301
REMARK UNBOUND:                -0.301
REMARK SMILES C=C1C[C@@]2(O)O[C@]3(C[C@H]2C(C)C)[C@@H]1CC[C@@H]3C
REMARK SMILES IDX 17 1 16 2 15 3 14 4 13 5 7 6 8 7 9 8 4 9 6 10 3 11 2 12 1 13
REMARK SMILES IDX 10 14 11 15 12 16 5 17
REMARK H PARENT 5 18
REMARK Flexibility Score: inf
ROOT
ATOM      1  C   UNL     1      26.166   1.944  57.836  1.00  0.00     0.011 C 
ATOM      2  C   UNL     1      25.920   2.403  59.283  1.00  0.00     0.019 C 
ATOM      3  C   UNL     1      25.192   1.314  60.115  1.00  0.00     0.007 C 
ATOM      4  C   UNL     1      26.214   0.730  61.110  1.00  0.00     0.011 C 
ATOM      5  C   UNL     1      27.552   1.265  60.624  1.00  0.00     0.047 C 
ATOM      6  C   UNL     1      27.224   2.650  60.063  1.00  0.00     0.081 C 
ATOM      7  C   UNL     1      27.034   3.727  61.169  1.00  0.00     0.046 C 
ATOM      8  C   UNL     1      28.366   4.469  61.169  1.00  0.00     0.054 C 
ATOM      9  C   UNL     1      29.236   3.539  60.299  1.00  0.00     0.173 C 
ATOM     10  O   UNL     1      28.340   3.062  59.305  1.00  0.00    -0.342 OA
ATOM     11  C   UNL     1      29.836   2.320  61.095  1.00  0.00     0.096 C 
ATOM     12  C   UNL     1      28.734   1.379  61.557  1.00  0.00    -0.066 C 
ATOM     13  C   UNL     1      28.911   0.558  62.601  1.00  0.00     0.008 C 
ENDROOT
BRANCH   8  14
ATOM     14  C   UNL     1      28.889   4.834  62.592  1.00  0.00    -0.009 C 
ATOM     15  C   UNL     1      27.717   5.056  63.564  1.00  0.00     0.008 C 
ATOM     16  C   UNL     1      29.754   6.104  62.565  1.00  0.00     0.008 C 
ENDBRANCH   8  14
BRANCH   9  17
ATOM     17  O   UNL     1      30.265   4.280  59.693  1.00  0.00    -0.365 OA
ATOM     18  H   UNL     1      31.124   3.918  60.033  1.00  0.00     0.214 HD
ENDBRANCH   9  17
TORSDOF 2
ENDMDL
MODEL 2
REMARK VINA RESULT:    -6.384      1.424      3.864
REMARK INTER + INTRA:          -7.246
REMARK INTER:                  -6.839
REMARK INTRA:                  -0.406
REMARK UNBOUND:                -0.301
REMARK SMILES C=C1C[C@@]2(O)O[C@]3(C[C@H]2C(C)C)[C@@H]1CC[C@@H]3C
REMARK SMILES IDX 17 1 16 2 15 3 14 4 13 5 7 6 8 7 9 8 4 9 6 10 3 11 2 12 1 13
REMARK SMILES IDX 10 14 11 15 12 16 5 17
REMARK H PARENT 5 18
REMARK Flexibility Score: inf
ROOT
ATOM      1  C   UNL     1      27.485   7.125  62.618  1.00  0.00     0.011 C 
ATOM      2  C   UNL     1      27.389   5.667  63.098  1.00  0.00     0.019 C 
ATOM      3  C   UNL     1      25.917   5.238  63.337  1.00  0.00     0.007 C 
ATOM      4  C   UNL     1      25.529   4.262  62.210  1.00  0.00     0.011 C 
ATOM      5  C   UNL     1      26.658   4.394  61.200  1.00  0.00     0.047 C 
ATOM      6  C   UNL     1      27.900   4.658  62.054  1.00  0.00     0.081 C 
ATOM      7  C   UNL     1      28.462   3.374  62.726  1.00  0.00     0.046 C 
ATOM      8  C   UNL     1      29.634   2.992  61.830  1.00  0.00     0.054 C 
ATOM      9  C   UNL     1      29.403   3.911  60.612  1.00  0.00     0.173 C 
ATOM     10  O   UNL     1      28.909   5.115  61.181  1.00  0.00    -0.342 OA
ATOM     11  C   UNL     1      28.349   3.340  59.593  1.00  0.00     0.096 C 
ATOM     12  C   UNL     1      26.963   3.289  60.217  1.00  0.00    -0.066 C 
ATOM     13  C   UNL     1      26.022   2.452  59.758  1.00  0.00     0.008 C 
ENDROOT
BRANCH   8  14
ATOM     14  C   UNL     1      29.764   1.460  61.572  1.00  0.00    -0.009 C 
ATOM     15  C   UNL     1      28.586   0.698  62.205  1.00  0.00     0.008 C 
ATOM     16  C   UNL     1      31.077   0.902  62.145  1.00  0.00     0.008 C 
ENDBRANCH   8  14
BRANCH   9  17
ATOM     17  O   UNL     1      30.625   4.158  59.964  1.00  0.00    -0.365 OA
ATOM     18  H   UNL     1      31.339   3.765  60.530  1.00  0.00     0.214 HD
ENDBRANCH   9  17
TORSDOF 2
ENDMDL
MODEL 3
REMARK VINA RESULT:    -6.075      2.046      4.005
REMARK INTER + INTRA:          -6.909
REMARK INTER:                  -6.542
REMARK INTRA:                  -0.367
REMARK UNBOUND:                -0.301
REMARK SMILES C=C1C[C@@]2(O)O[C@]3(C[C@H]2C(C)C)[C@@H]1CC[C@@H]3C
REMARK SMILES IDX 17 1 16 2 15 3 14 4 13 5 7 6 8 7 9 8 4 9 6 10 3 11 2 12 1 13
REMARK SMILES IDX 10 14 11 15 12 16 5 17
REMARK H PARENT 5 18
REMARK Flexibility Score: inf
ROOT
ATOM      1  C   UNL     1      28.715  -1.715  60.631  1.00  0.00     0.011 C 
ATOM      2  C   UNL     1      28.069  -0.599  61.470  1.00  0.00     0.019 C 
ATOM      3  C   UNL     1      29.054  -0.034  62.528  1.00  0.00     0.007 C 
ATOM      4  C   UNL     1      29.470   1.376  62.068  1.00  0.00     0.011 C 
ATOM      5  C   UNL     1      28.971   1.461  60.633  1.00  0.00     0.047 C 
ATOM      6  C   UNL     1      27.684   0.634  60.632  1.00  0.00     0.081 C 
ATOM      7  C   UNL     1      26.472   1.388  61.247  1.00  0.00     0.046 C 
ATOM      8  C   UNL     1      25.702   1.874  60.025  1.00  0.00     0.054 C 
ATOM      9  C   UNL     1      26.719   1.607  58.895  1.00  0.00     0.173 C 
ATOM     10  O   UNL     1      27.350   0.395  59.282  1.00  0.00    -0.342 OA
ATOM     11  C   UNL     1      27.801   2.741  58.750  1.00  0.00     0.096 C 
ATOM     12  C   UNL     1      28.699   2.794  59.977  1.00  0.00    -0.066 C 
ATOM     13  C   UNL     1      29.365   3.909  60.305  1.00  0.00     0.008 C 
ENDROOT
BRANCH   8  14
ATOM     14  C   UNL     1      25.133   3.319  60.166  1.00  0.00    -0.009 C 
ATOM     15  C   UNL     1      25.669   3.995  61.441  1.00  0.00     0.008 C 
ATOM     16  C   UNL     1      23.596   3.316  60.219  1.00  0.00     0.008 C 
ENDBRANCH   8  14
BRANCH   9  17
ATOM     17  O   UNL     1      26.040   1.422  57.679  1.00  0.00    -0.365 OA
ATOM     18  H   UNL     1      25.875   2.323  57.297  1.00  0.00     0.214 HD
ENDBRANCH   9  17
TORSDOF 2
ENDMDL
MODEL 4
REMARK VINA RESULT:    -5.916      8.779     11.572
REMARK INTER + INTRA:          -6.737
REMARK INTER:                  -6.401
REMARK INTRA:                  -0.336
REMARK UNBOUND:                -0.301
REMARK SMILES C=C1C[C@@]2(O)O[C@]3(C[C@H]2C(C)C)[C@@H]1CC[C@@H]3C
REMARK SMILES IDX 17 1 16 2 15 3 14 4 13 5 7 6 8 7 9 8 4 9 6 10 3 11 2 12 1 13
REMARK SMILES IDX 10 14 11 15 12 16 5 17
REMARK H PARENT 5 18
REMARK Flexibility Score: inf
ROOT
ATOM      1  C   UNL     1      22.089   2.668  49.241  1.00  0.00     0.011 C 
ATOM      2  C   UNL     1      22.278   1.383  50.065  1.00  0.00     0.019 C 
ATOM      3  C   UNL     1      23.775   1.116  50.374  1.00  0.00     0.007 C 
ATOM      4  C   UNL     1      23.994   1.393  51.874  1.00  0.00     0.011 C 
ATOM      5  C   UNL     1      22.719   2.098  52.312  1.00  0.00     0.047 C 
ATOM      6  C   UNL     1      21.623   1.461  51.455  1.00  0.00     0.081 C 
ATOM      7  C   UNL     1      21.190   0.057  51.964  1.00  0.00     0.046 C 
ATOM      8  C   UNL     1      19.897   0.340  52.719  1.00  0.00     0.054 C 
ATOM      9  C   UNL     1      19.923   1.880  52.808  1.00  0.00     0.173 C 
ATOM     10  O   UNL     1      20.483   2.285  51.567  1.00  0.00    -0.342 OA
ATOM     11  C   UNL     1      20.812   2.421  53.988  1.00  0.00     0.096 C 
ATOM     12  C   UNL     1      22.279   2.093  53.756  1.00  0.00    -0.066 C 
ATOM     13  C   UNL     1      23.147   2.026  54.775  1.00  0.00     0.008 C 
ENDROOT
BRANCH   8  14
ATOM     14  C   UNL     1      19.749  -0.464  54.047  1.00  0.00    -0.009 C 
ATOM     15  C   UNL     1      20.581  -1.757  53.999  1.00  0.00     0.008 C 
ATOM     16  C   UNL     1      18.281  -0.832  54.321  1.00  0.00     0.008 C 
ENDBRANCH   8  14
BRANCH   9  17
ATOM     17  O   UNL     1      18.611   2.372  52.919  1.00  0.00    -0.365 OA
ATOM     18  H   UNL     1      18.290   2.141  53.829  1.00  0.00     0.214 HD
ENDBRANCH   9  17
TORSDOF 2
ENDMDL
MODEL 5
REMARK VINA RESULT:    -5.881      2.343      4.407
REMARK INTER + INTRA:          -6.698
REMARK INTER:                  -6.274
REMARK INTRA:                  -0.424
REMARK UNBOUND:                -0.301
REMARK SMILES C=C1C[C@@]2(O)O[C@]3(C[C@H]2C(C)C)[C@@H]1CC[C@@H]3C
REMARK SMILES IDX 17 1 16 2 15 3 14 4 13 5 7 6 8 7 9 8 4 9 6 10 3 11 2 12 1 13
REMARK SMILES IDX 10 14 11 15 12 16 5 17
REMARK H PARENT 5 18
REMARK Flexibility Score: inf
ROOT
ATOM      1  C   UNL     1      27.661   4.209  61.324  1.00  0.00     0.011 C 
ATOM      2  C   UNL     1      27.124   2.782  61.120  1.00  0.00     0.019 C 
ATOM      3  C   UNL     1      26.379   2.637  59.767  1.00  0.00     0.007 C 
ATOM      4  C   UNL     1      27.269   1.792  58.835  1.00  0.00     0.011 C 
ATOM      5  C   UNL     1      28.609   1.737  59.552  1.00  0.00     0.047 C 
ATOM      6  C   UNL     1      28.243   1.728  61.037  1.00  0.00     0.081 C 
ATOM      7  C   UNL     1      27.759   0.338  61.538  1.00  0.00     0.046 C 
ATOM      8  C   UNL     1      28.988  -0.233  62.235  1.00  0.00     0.054 C 
ATOM      9  C   UNL     1      30.085   0.752  61.781  1.00  0.00     0.173 C 
ATOM     10  O   UNL     1      29.425   2.010  61.754  1.00  0.00    -0.342 OA
ATOM     11  C   UNL     1      30.660   0.429  60.352  1.00  0.00     0.096 C 
ATOM     12  C   UNL     1      29.596   0.626  59.282  1.00  0.00    -0.066 C 
ATOM     13  C   UNL     1      29.674   0.002  58.099  1.00  0.00     0.008 C 
ENDROOT
BRANCH   8  14
ATOM     14  C   UNL     1      29.220  -1.752  61.971  1.00  0.00    -0.009 C 
ATOM     15  C   UNL     1      28.100  -2.329  61.087  1.00  0.00     0.008 C 
ATOM     16  C   UNL     1      29.271  -2.550  63.284  1.00  0.00     0.008 C 
ENDBRANCH   8  14
BRANCH   9  17
ATOM     17  O   UNL     1      31.122   0.781  62.729  1.00  0.00    -0.365 OA
ATOM     18  H   UNL     1      31.253  -0.151  63.044  1.00  0.00     0.214 HD
ENDBRANCH   9  17
TORSDOF 2
ENDMDL
MODEL 6
REMARK VINA RESULT:    -5.864      1.683      4.283
REMARK INTER + INTRA:          -6.679
REMARK INTER:                  -6.371
REMARK INTRA:                  -0.308
REMARK UNBOUND:                -0.301
REMARK SMILES C=C1C[C@@]2(O)O[C@]3(C[C@H]2C(C)C)[C@@H]1CC[C@@H]3C
REMARK SMILES IDX 17 1 16 2 15 3 14 4 13 5 7 6 8 7 9 8 4 9 6 10 3 11 2 12 1 13
REMARK SMILES IDX 10 14 11 15 12 16 5 17
REMARK H PARENT 5 18
REMARK Flexibility Score: inf
ROOT
ATOM      1  C   UNL     1      30.728  -1.811  61.721  1.00  0.00     0.011 C 
ATOM      2  C   UNL     1      29.357  -1.206  62.066  1.00  0.00     0.019 C 
ATOM      3  C   UNL     1      29.265  -0.810  63.563  1.00  0.00     0.007 C 
ATOM      4  C   UNL     1      29.292   0.729  63.638  1.00  0.00     0.011 C 
ATOM      5  C   UNL     1      29.705   1.161  62.239  1.00  0.00     0.047 C 
ATOM      6  C   UNL     1      29.079   0.111  61.319  1.00  0.00     0.081 C 
ATOM      7  C   UNL     1      27.556   0.329  61.091  1.00  0.00     0.046 C 
ATOM      8  C   UNL     1      27.498   0.998  59.723  1.00  0.00     0.054 C 
ATOM      9  C   UNL     1      28.982   1.352  59.490  1.00  0.00     0.173 C 
ATOM     10  O   UNL     1      29.687   0.256  60.055  1.00  0.00    -0.342 OA
ATOM     11  C   UNL     1      29.425   2.684  60.201  1.00  0.00     0.096 C 
ATOM     12  C   UNL     1      29.369   2.537  61.714  1.00  0.00    -0.066 C 
ATOM     13  C   UNL     1      29.247   3.604  62.514  1.00  0.00     0.008 C 
ENDROOT
BRANCH   8  14
ATOM     14  C   UNL     1      26.452   2.151  59.624  1.00  0.00    -0.009 C 
ATOM     15  C   UNL     1      25.275   1.902  60.583  1.00  0.00     0.008 C 
ATOM     16  C   UNL     1      25.902   2.289  58.194  1.00  0.00     0.008 C 
ENDBRANCH   8  14
BRANCH   9  17
ATOM     17  O   UNL     1      29.243   1.423  58.111  1.00  0.00    -0.365 OA
ATOM     18  H   UNL     1      28.406   1.168  57.643  1.00  0.00     0.214 HD
ENDBRANCH   9  17
TORSDOF 2
ENDMDL
MODEL 7
REMARK VINA RESULT:    -5.847     11.105     12.752
REMARK INTER + INTRA:          -6.661
REMARK INTER:                  -6.256
REMARK INTRA:                  -0.405
REMARK UNBOUND:                -0.301
REMARK SMILES C=C1C[C@@]2(O)O[C@]3(C[C@H]2C(C)C)[C@@H]1CC[C@@H]3C
REMARK SMILES IDX 17 1 16 2 15 3 14 4 13 5 7 6 8 7 9 8 4 9 6 10 3 11 2 12 1 13
REMARK SMILES IDX 10 14 11 15 12 16 5 17
REMARK H PARENT 5 18
REMARK Flexibility Score: inf
ROOT
ATOM      1  C   UNL     1      25.318  -8.743  56.265  1.00  0.00     0.011 C 
ATOM      2  C   UNL     1      26.348  -9.747  56.809  1.00  0.00     0.019 C 
ATOM      3  C   UNL     1      26.627 -10.888  55.795  1.00  0.00     0.007 C 
ATOM      4  C   UNL     1      28.040 -10.665  55.222  1.00  0.00     0.011 C 
ATOM      5  C   UNL     1      28.406  -9.259  55.675  1.00  0.00     0.047 C 
ATOM      6  C   UNL     1      27.733  -9.116  57.041  1.00  0.00     0.081 C 
ATOM      7  C   UNL     1      28.506  -9.837  58.181  1.00  0.00     0.046 C 
ATOM      8  C   UNL     1      29.261  -8.704  58.866  1.00  0.00     0.054 C 
ATOM      9  C   UNL     1      29.070  -7.553  57.857  1.00  0.00     0.173 C 
ATOM     10  O   UNL     1      27.751  -7.743  57.366  1.00  0.00    -0.342 OA
ATOM     11  C   UNL     1      30.089  -7.600  56.657  1.00  0.00     0.096 C 
ATOM     12  C   UNL     1      29.847  -8.825  55.788  1.00  0.00    -0.066 C 
ATOM     13  C   UNL     1      30.817  -9.333  55.016  1.00  0.00     0.008 C 
ENDROOT
BRANCH   8  14
ATOM     14  C   UNL     1      30.718  -9.073  59.282  1.00  0.00    -0.009 C 
ATOM     15  C   UNL     1      31.087 -10.482  58.787  1.00  0.00     0.008 C 
ATOM     16  C   UNL     1      30.896  -9.025  60.809  1.00  0.00     0.008 C 
ENDBRANCH   8  14
BRANCH   9  17
ATOM     17  O   UNL     1      29.156  -6.318  58.522  1.00  0.00    -0.365 OA
ATOM     18  H   UNL     1      29.786  -5.752  58.005  1.00  0.00     0.214 HD
ENDBRANCH   9  17
TORSDOF 2
ENDMDL
MODEL 8
REMARK VINA RESULT:    -5.807      1.394      4.420
REMARK INTER + INTRA:          -6.617
REMARK INTER:                  -6.266
REMARK INTRA:                  -0.352
REMARK UNBOUND:                -0.301
REMARK SMILES C=C1C[C@@]2(O)O[C@]3(C[C@H]2C(C)C)[C@@H]1CC[C@@H]3C
REMARK SMILES IDX 17 1 16 2 15 3 14 4 13 5 7 6 8 7 9 8 4 9 6 10 3 11 2 12 1 13
REMARK SMILES IDX 10 14 11 15 12 16 5 17
REMARK H PARENT 5 18
REMARK Flexibility Score: inf
ROOT
ATOM      1  C   UNL     1      29.966   5.345  61.406  1.00  0.00     0.011 C 
ATOM      2  C   UNL     1      29.206   4.198  62.093  1.00  0.00     0.019 C 
ATOM      3  C   UNL     1      28.039   4.726  62.969  1.00  0.00     0.007 C 
ATOM      4  C   UNL     1      26.723   4.368  62.252  1.00  0.00     0.011 C 
ATOM      5  C   UNL     1      27.163   3.931  60.863  1.00  0.00     0.047 C 
ATOM      6  C   UNL     1      28.516   3.253  61.092  1.00  0.00     0.081 C 
ATOM      7  C   UNL     1      28.388   1.812  61.660  1.00  0.00     0.046 C 
ATOM      8  C   UNL     1      28.591   0.931  60.433  1.00  0.00     0.054 C 
ATOM      9  C   UNL     1      28.500   1.966  59.293  1.00  0.00     0.173 C 
ATOM     10  O   UNL     1      29.129   3.122  59.828  1.00  0.00    -0.342 OA
ATOM     11  C   UNL     1      27.020   2.314  58.884  1.00  0.00     0.096 C 
ATOM     12  C   UNL     1      26.298   3.028  60.016  1.00  0.00    -0.066 C 
ATOM     13  C   UNL     1      24.961   3.018  60.106  1.00  0.00     0.008 C 
ENDROOT
BRANCH   8  14
ATOM     14  C   UNL     1      27.640  -0.304  60.373  1.00  0.00    -0.009 C 
ATOM     15  C   UNL     1      26.554  -0.209  61.459  1.00  0.00     0.008 C 
ATOM     16  C   UNL     1      28.413  -1.619  60.563  1.00  0.00     0.008 C 
ENDBRANCH   8  14
BRANCH   9  17
ATOM     17  O   UNL     1      29.220   1.509  58.176  1.00  0.00    -0.365 OA
ATOM     18  H   UNL     1      28.693   0.772  57.771  1.00  0.00     0.214 HD
ENDBRANCH   9  17
TORSDOF 2
ENDMDL
MODEL 9
REMARK VINA RESULT:    -5.663      2.119      4.548
REMARK INTER + INTRA:          -6.460
REMARK INTER:                  -6.075
REMARK INTRA:                  -0.386
REMARK UNBOUND:                -0.301
REMARK SMILES C=C1C[C@@]2(O)O[C@]3(C[C@H]2C(C)C)[C@@H]1CC[C@@H]3C
REMARK SMILES IDX 17 1 16 2 15 3 14 4 13 5 7 6 8 7 9 8 4 9 6 10 3 11 2 12 1 13
REMARK SMILES IDX 10 14 11 15 12 16 5 17
REMARK H PARENT 5 18
REMARK Flexibility Score: inf
ROOT
ATOM      1  C   UNL     1      27.259   4.447  61.921  1.00  0.00     0.011 C 
ATOM      2  C   UNL     1      28.594   3.781  61.546  1.00  0.00     0.019 C 
ATOM      3  C   UNL     1      29.555   3.698  62.761  1.00  0.00     0.007 C 
ATOM      4  C   UNL     1      29.628   2.221  63.194  1.00  0.00     0.011 C 
ATOM      5  C   UNL     1      28.492   1.555  62.434  1.00  0.00     0.047 C 
ATOM      6  C   UNL     1      28.428   2.315  61.108  1.00  0.00     0.081 C 
ATOM      7  C   UNL     1      29.538   1.888  60.106  1.00  0.00     0.046 C 
ATOM      8  C   UNL     1      28.810   0.946  59.155  1.00  0.00     0.054 C 
ATOM      9  C   UNL     1      27.482   0.717  59.905  1.00  0.00     0.173 C 
ATOM     10  O   UNL     1      27.202   1.977  60.498  1.00  0.00    -0.342 OA
ATOM     11  C   UNL     1      27.582  -0.382  61.028  1.00  0.00     0.096 C 
ATOM     12  C   UNL     1      28.504   0.071  62.150  1.00  0.00    -0.066 C 
ATOM     13  C   UNL     1      29.106  -0.812  62.957  1.00  0.00     0.008 C 
ENDROOT
BRANCH   8  14
ATOM     14  C   UNL     1      29.640  -0.309  58.745  1.00  0.00    -0.009 C 
ATOM     15  C   UNL     1      30.951  -0.381  59.547  1.00  0.00     0.008 C 
ATOM     16  C   UNL     1      29.979  -0.294  57.245  1.00  0.00     0.008 C 
ENDBRANCH   8  14
BRANCH   9  17
ATOM     17  O   UNL     1      26.468   0.388  58.989  1.00  0.00    -0.365 OA
ATOM     18  H   UNL     1      25.645   0.215  59.516  1.00  0.00     0.214 HD
ENDBRANCH   9  17
TORSDOF 2
ENDMDL
