MODEL 1
REMARK VINA RESULT:    -5.511      0.000      0.000
REMARK INTER + INTRA:         -10.394
REMARK INTER:                  -9.377
REMARK INTRA:                  -1.017
REMARK UNBOUND:                -1.017
REMARK SMILES CCCCCCCCCCCCCC(=O)[O-]
REMARK SMILES IDX 8 1 9 2 10 3 11 4 12 5 13 6 14 7 15 8 16 9 7 10 6 11 5 12
REMARK SMILES IDX 4 13 3 14 2 15 1 16
REMARK H PARENT
REMARK Flexibility Score: inf
ROOT
ATOM      1  C   UNL     1      87.857 326.080 196.506  1.00  0.00     0.000 C 
ENDROOT
BRANCH   1   2
ATOM      2  C   UNL     1      88.473 326.175 197.911  1.00  0.00     0.000 C 
BRANCH   2   3
ATOM      3  C   UNL     1      88.889 324.804 198.470  1.00  0.00     0.000 C 
BRANCH   3   4
ATOM      4  C   UNL     1      89.727 324.921 199.756  1.00  0.00     0.000 C 
BRANCH   4   5
ATOM      5  C   UNL     1      89.650 326.322 200.390  1.00  0.00     0.006 C 
BRANCH   5   6
ATOM      6  C   UNL     1      90.596 326.534 201.582  1.00  0.00     0.053 C 
BRANCH   6   7
ATOM      7  C   UNL     1      89.854 326.633 202.879  1.00  0.00     0.041 C 
ATOM      8  O   UNL     1      88.949 325.801 203.157  1.00  0.00    -0.550 OA
ATOM      9  O   UNL     1      90.183 327.623 203.796  1.00  0.00    -0.550 OA
ENDBRANCH   6   7
ENDBRANCH   5   6
ENDBRANCH   4   5
ENDBRANCH   3   4
ENDBRANCH   2   3
ENDBRANCH   1   2
BRANCH   1  10
ATOM     10  C   UNL     1      88.869 326.500 195.433  1.00  0.00     0.000 C 
BRANCH  10  11
ATOM     11  C   UNL     1      88.172 326.757 194.089  1.00  0.00    -0.000 C 
BRANCH  11  12
ATOM     12  C   UNL     1      86.708 326.288 194.081  1.00  0.00    -0.000 C 
BRANCH  12  13
ATOM     13  C   UNL     1      86.494 325.027 193.231  1.00  0.00    -0.000 C 
BRANCH  13  14
ATOM     14  C   UNL     1      87.763 324.677 192.440  1.00  0.00    -0.000 C 
BRANCH  14  15
ATOM     15  C   UNL     1      88.254 323.247 192.713  1.00  0.00    -0.003 C 
ATOM     16  C   UNL     1      88.552 322.995 194.191  1.00  0.00     0.004 C 
ENDBRANCH  14  15
ENDBRANCH  13  14
ENDBRANCH  12  13
ENDBRANCH  11  12
ENDBRANCH  10  11
ENDBRANCH   1  10
TORSDOF 12
ENDMDL
MODEL 2
REMARK VINA RESULT:    -5.440      1.730      2.613
REMARK INTER + INTRA:         -10.274
REMARK INTER:                  -9.496
REMARK INTRA:                  -0.778
REMARK UNBOUND:                -1.017
REMARK SMILES CCCCCCCCCCCCCC(=O)[O-]
REMARK SMILES IDX 8 1 9 2 10 3 11 4 12 5 13 6 14 7 15 8 16 9 7 10 6 11 5 12
REMARK SMILES IDX 4 13 3 14 2 15 1 16
REMARK H PARENT
REMARK Flexibility Score: inf
ROOT
ATOM      1  C   UNL     1      86.782 326.534 194.791  1.00  0.00     0.000 C 
ENDROOT
BRANCH   1   2
ATOM      2  C   UNL     1      87.069 326.132 196.247  1.00  0.00     0.000 C 
BRANCH   2   3
ATOM      3  C   UNL     1      88.567 326.175 196.590  1.00  0.00     0.000 C 
BRANCH   3   4
ATOM      4  C   UNL     1      88.836 326.764 197.986  1.00  0.00     0.000 C 
BRANCH   4   5
ATOM      5  C   UNL     1      89.028 325.679 199.061  1.00  0.00     0.006 C 
BRANCH   5   6
ATOM      6  C   UNL     1      89.141 326.218 200.496  1.00  0.00     0.053 C 
BRANCH   6   7
ATOM      7  C   UNL     1      90.528 326.079 201.042  1.00  0.00     0.041 C 
ATOM      8  O   UNL     1      91.309 325.208 200.574  1.00  0.00    -0.550 OA
ATOM      9  O   UNL     1      90.971 326.931 202.045  1.00  0.00    -0.550 OA
ENDBRANCH   6   7
ENDBRANCH   5   6
ENDBRANCH   4   5
ENDBRANCH   3   4
ENDBRANCH   2   3
ENDBRANCH   1   2
BRANCH   1  10
ATOM     10  C   UNL     1      88.044 326.408 193.928  1.00  0.00     0.000 C 
BRANCH  10  11
ATOM     11  C   UNL     1      87.862 325.339 192.840  1.00  0.00    -0.000 C 
BRANCH  11  12
ATOM     12  C   UNL     1      88.417 323.967 193.258  1.00  0.00    -0.000 C 
BRANCH  12  13
ATOM     13  C   UNL     1      87.963 322.835 192.325  1.00  0.00    -0.000 C 
BRANCH  13  14
ATOM     14  C   UNL     1      87.155 323.390 191.143  1.00  0.00    -0.000 C 
BRANCH  14  15
ATOM     15  C   UNL     1      87.656 322.867 189.787  1.00  0.00    -0.003 C 
ATOM     16  C   UNL     1      88.921 323.578 189.309  1.00  0.00     0.004 C 
ENDBRANCH  14  15
ENDBRANCH  13  14
ENDBRANCH  12  13
ENDBRANCH  11  12
ENDBRANCH  10  11
ENDBRANCH   1  10
TORSDOF 12
ENDMDL
MODEL 3
REMARK VINA RESULT:    -5.429      1.300      2.135
REMARK INTER + INTRA:         -10.255
REMARK INTER:                  -9.804
REMARK INTRA:                  -0.451
REMARK UNBOUND:                -1.017
REMARK SMILES CCCCCCCCCCCCCC(=O)[O-]
REMARK SMILES IDX 8 1 9 2 10 3 11 4 12 5 13 6 14 7 15 8 16 9 7 10 6 11 5 12
REMARK SMILES IDX 4 13 3 14 2 15 1 16
REMARK H PARENT
REMARK Flexibility Score: inf
ROOT
ATOM      1  C   UNL     1      88.434 326.544 198.037  1.00  0.00     0.000 C 
ENDROOT
BRANCH   1   2
ATOM      2  C   UNL     1      89.113 325.626 199.066  1.00  0.00     0.000 C 
BRANCH   2   3
ATOM      3  C   UNL     1      89.627 326.391 200.296  1.00  0.00     0.000 C 
BRANCH   3   4
ATOM      4  C   UNL     1      88.751 326.165 201.541  1.00  0.00     0.000 C 
BRANCH   4   5
ATOM      5  C   UNL     1      89.571 326.124 202.844  1.00  0.00     0.006 C 
BRANCH   5   6
ATOM      6  C   UNL     1      89.308 327.299 203.799  1.00  0.00     0.053 C 
BRANCH   6   7
ATOM      7  C   UNL     1      89.226 326.856 205.227  1.00  0.00     0.041 C 
ATOM      8  O   UNL     1      88.280 326.119 205.609  1.00  0.00    -0.550 OA
ATOM      9  O   UNL     1      90.214 327.231 206.130  1.00  0.00    -0.550 OA
ENDBRANCH   6   7
ENDBRANCH   5   6
ENDBRANCH   4   5
ENDBRANCH   3   4
ENDBRANCH   2   3
ENDBRANCH   1   2
BRANCH   1  10
ATOM     10  C   UNL     1      88.079 325.770 196.761  1.00  0.00     0.000 C 
BRANCH  10  11
ATOM     11  C   UNL     1      88.911 326.265 195.568  1.00  0.00    -0.000 C 
BRANCH  11  12
ATOM     12  C   UNL     1      88.042 326.690 194.374  1.00  0.00    -0.000 C 
BRANCH  12  13
ATOM     13  C   UNL     1      86.686 325.969 194.341  1.00  0.00    -0.000 C 
BRANCH  13  14
ATOM     14  C   UNL     1      86.614 324.992 193.158  1.00  0.00    -0.000 C 
BRANCH  14  15
ATOM     15  C   UNL     1      87.983 324.755 192.502  1.00  0.00    -0.003 C 
ATOM     16  C   UNL     1      87.889 323.929 191.220  1.00  0.00     0.004 C 
ENDBRANCH  14  15
ENDBRANCH  13  14
ENDBRANCH  12  13
ENDBRANCH  11  12
ENDBRANCH  10  11
ENDBRANCH   1  10
TORSDOF 12
ENDMDL
MODEL 4
REMARK VINA RESULT:    -5.414     19.073     21.356
REMARK INTER + INTRA:         -10.229
REMARK INTER:                  -8.836
REMARK INTRA:                  -1.393
REMARK UNBOUND:                -1.017
REMARK SMILES CCCCCCCCCCCCCC(=O)[O-]
REMARK SMILES IDX 8 1 9 2 10 3 11 4 12 5 13 6 14 7 15 8 16 9 7 10 6 11 5 12
REMARK SMILES IDX 4 13 3 14 2 15 1 16
REMARK H PARENT
REMARK Flexibility Score: inf
ROOT
ATOM      1  C   UNL     1     104.161 312.834 191.992  1.00  0.00     0.000 C 
ENDROOT
BRANCH   1   2
ATOM      2  C   UNL     1     105.575 313.405 191.798  1.00  0.00     0.000 C 
BRANCH   2   3
ATOM      3  C   UNL     1     105.649 314.432 190.656  1.00  0.00     0.000 C 
BRANCH   3   4
ATOM      4  C   UNL     1     104.280 315.061 190.339  1.00  0.00     0.000 C 
BRANCH   4   5
ATOM      5  C   UNL     1     104.002 315.145 188.826  1.00  0.00     0.006 C 
BRANCH   5   6
ATOM      6  C   UNL     1     102.665 314.525 188.390  1.00  0.00     0.053 C 
BRANCH   6   7
ATOM      7  C   UNL     1     101.617 315.566 188.144  1.00  0.00     0.041 C 
ATOM      8  O   UNL     1     101.876 316.784 188.332  1.00  0.00    -0.550 OA
ATOM      9  O   UNL     1     100.363 315.194 187.676  1.00  0.00    -0.550 OA
ENDBRANCH   6   7
ENDBRANCH   5   6
ENDBRANCH   4   5
ENDBRANCH   3   4
ENDBRANCH   2   3
ENDBRANCH   1   2
BRANCH   1  10
ATOM     10  C   UNL     1     104.179 311.642 192.958  1.00  0.00     0.000 C 
BRANCH  10  11
ATOM     11  C   UNL     1     105.591 311.407 193.516  1.00  0.00    -0.000 C 
BRANCH  11  12
ATOM     12  C   UNL     1     105.708 311.769 195.006  1.00  0.00    -0.000 C 
BRANCH  12  13
ATOM     13  C   UNL     1     104.339 311.936 195.684  1.00  0.00    -0.000 C 
BRANCH  13  14
ATOM     14  C   UNL     1     104.206 313.331 196.312  1.00  0.00    -0.000 C 
BRANCH  14  15
ATOM     15  C   UNL     1     103.349 314.282 195.462  1.00  0.00    -0.003 C 
ATOM     16  C   UNL     1     104.187 315.307 194.696  1.00  0.00     0.004 C 
ENDBRANCH  14  15
ENDBRANCH  13  14
ENDBRANCH  12  13
ENDBRANCH  11  12
ENDBRANCH  10  11
ENDBRANCH   1  10
TORSDOF 12
ENDMDL
MODEL 5
REMARK VINA RESULT:    -5.377     19.371     21.477
REMARK INTER + INTRA:         -10.167
REMARK INTER:                  -8.492
REMARK INTRA:                  -1.675
REMARK UNBOUND:                -1.017
REMARK SMILES CCCCCCCCCCCCCC(=O)[O-]
REMARK SMILES IDX 8 1 9 2 10 3 11 4 12 5 13 6 14 7 15 8 16 9 7 10 6 11 5 12
REMARK SMILES IDX 4 13 3 14 2 15 1 16
REMARK H PARENT
REMARK Flexibility Score: inf
ROOT
ATOM      1  C   UNL     1     104.377 311.497 193.039  1.00  0.00     0.000 C 
ENDROOT
BRANCH   1   2
ATOM      2  C   UNL     1     104.139 312.654 192.055  1.00  0.00     0.000 C 
BRANCH   2   3
ATOM      3  C   UNL     1     105.419 313.451 191.755  1.00  0.00     0.000 C 
BRANCH   3   4
ATOM      4  C   UNL     1     105.232 314.456 190.604  1.00  0.00     0.000 C 
BRANCH   4   5
ATOM      5  C   UNL     1     103.845 314.352 189.945  1.00  0.00     0.006 C 
BRANCH   5   6
ATOM      6  C   UNL     1     103.311 315.676 189.375  1.00  0.00     0.053 C 
BRANCH   6   7
ATOM      7  C   UNL     1     104.316 316.356 188.497  1.00  0.00     0.041 C 
ATOM      8  O   UNL     1     104.637 315.849 187.390  1.00  0.00    -0.550 OA
ATOM      9  O   UNL     1     104.873 317.568 188.886  1.00  0.00    -0.550 OA
ENDBRANCH   6   7
ENDBRANCH   5   6
ENDBRANCH   4   5
ENDBRANCH   3   4
ENDBRANCH   2   3
ENDBRANCH   1   2
BRANCH   1  10
ATOM     10  C   UNL     1     105.803 311.543 193.604  1.00  0.00     0.000 C 
BRANCH  10  11
ATOM     11  C   UNL     1     105.785 311.640 195.137  1.00  0.00    -0.000 C 
BRANCH  11  12
ATOM     12  C   UNL     1     104.368 311.825 195.703  1.00  0.00    -0.000 C 
BRANCH  12  13
ATOM     13  C   UNL     1     104.219 313.121 196.514  1.00  0.00    -0.000 C 
BRANCH  13  14
ATOM     14  C   UNL     1     103.330 314.131 195.774  1.00  0.00    -0.000 C 
BRANCH  14  15
ATOM     15  C   UNL     1     104.134 315.060 194.850  1.00  0.00    -0.003 C 
ATOM     16  C   UNL     1     103.264 315.736 193.790  1.00  0.00     0.004 C 
ENDBRANCH  14  15
ENDBRANCH  13  14
ENDBRANCH  12  13
ENDBRANCH  11  12
ENDBRANCH  10  11
ENDBRANCH   1  10
TORSDOF 12
ENDMDL
MODEL 6
REMARK VINA RESULT:    -5.300     19.175     20.423
REMARK INTER + INTRA:         -10.036
REMARK INTER:                  -9.590
REMARK INTRA:                  -0.446
REMARK UNBOUND:                -1.017
REMARK SMILES CCCCCCCCCCCCCC(=O)[O-]
REMARK SMILES IDX 8 1 9 2 10 3 11 4 12 5 13 6 14 7 15 8 16 9 7 10 6 11 5 12
REMARK SMILES IDX 4 13 3 14 2 15 1 16
REMARK H PARENT
REMARK Flexibility Score: inf
ROOT
ATOM      1  C   UNL     1     103.477 311.842 194.506  1.00  0.00     0.000 C 
ENDROOT
BRANCH   1   2
ATOM      2  C   UNL     1     104.439 311.993 195.695  1.00  0.00     0.000 C 
BRANCH   2   3
ATOM      3  C   UNL     1     103.885 311.372 196.988  1.00  0.00     0.000 C 
BRANCH   3   4
ATOM      4  C   UNL     1     104.076 312.287 198.211  1.00  0.00     0.000 C 
BRANCH   4   5
ATOM      5  C   UNL     1     103.449 311.705 199.492  1.00  0.00     0.006 C 
BRANCH   5   6
ATOM      6  C   UNL     1     104.281 311.927 200.765  1.00  0.00     0.053 C 
BRANCH   6   7
ATOM      7  C   UNL     1     103.521 311.566 202.004  1.00  0.00     0.041 C 
ATOM      8  O   UNL     1     102.399 311.000 201.917  1.00  0.00    -0.550 OA
ATOM      9  O   UNL     1     104.066 311.825 203.255  1.00  0.00    -0.550 OA
ENDBRANCH   6   7
ENDBRANCH   5   6
ENDBRANCH   4   5
ENDBRANCH   3   4
ENDBRANCH   2   3
ENDBRANCH   1   2
BRANCH   1  10
ATOM     10  C   UNL     1     104.236 311.443 193.234  1.00  0.00     0.000 C 
BRANCH  10  11
ATOM     11  C   UNL     1     105.551 312.227 193.109  1.00  0.00    -0.000 C 
BRANCH  11  12
ATOM     12  C   UNL     1     105.440 313.425 192.152  1.00  0.00    -0.000 C 
BRANCH  12  13
ATOM     13  C   UNL     1     104.179 313.368 191.276  1.00  0.00    -0.000 C 
BRANCH  13  14
ATOM     14  C   UNL     1     104.002 314.671 190.484  1.00  0.00    -0.000 C 
BRANCH  14  15
ATOM     15  C   UNL     1     103.425 314.436 189.079  1.00  0.00    -0.003 C 
ATOM     16  C   UNL     1     102.421 315.511 188.664  1.00  0.00     0.004 C 
ENDBRANCH  14  15
ENDBRANCH  13  14
ENDBRANCH  12  13
ENDBRANCH  11  12
ENDBRANCH  10  11
ENDBRANCH   1  10
TORSDOF 12
ENDMDL
MODEL 7
REMARK VINA RESULT:    -5.279      6.523      9.382
REMARK INTER + INTRA:         -10.000
REMARK INTER:                  -8.729
REMARK INTRA:                  -1.271
REMARK UNBOUND:                -1.017
REMARK SMILES CCCCCCCCCCCCCC(=O)[O-]
REMARK SMILES IDX 8 1 9 2 10 3 11 4 12 5 13 6 14 7 15 8 16 9 7 10 6 11 5 12
REMARK SMILES IDX 4 13 3 14 2 15 1 16
REMARK H PARENT
REMARK Flexibility Score: inf
ROOT
ATOM      1  C   UNL     1      88.128 325.421 193.026  1.00  0.00     0.000 C 
ENDROOT
BRANCH   1   2
ATOM      2  C   UNL     1      86.911 324.483 192.974  1.00  0.00     0.000 C 
BRANCH   2   3
ATOM      3  C   UNL     1      86.921 323.566 191.741  1.00  0.00     0.000 C 
BRANCH   3   4
ATOM      4  C   UNL     1      88.102 323.858 190.798  1.00  0.00     0.000 C 
BRANCH   4   5
ATOM      5  C   UNL     1      88.102 322.955 189.550  1.00  0.00     0.006 C 
BRANCH   5   6
ATOM      6  C   UNL     1      86.818 322.132 189.360  1.00  0.00     0.053 C 
BRANCH   6   7
ATOM      7  C   UNL     1      86.841 321.340 188.089  1.00  0.00     0.041 C 
ATOM      8  O   UNL     1      85.875 321.406 187.284  1.00  0.00    -0.550 OA
ATOM      9  O   UNL     1      87.942 320.552 187.779  1.00  0.00    -0.550 OA
ENDBRANCH   6   7
ENDBRANCH   5   6
ENDBRANCH   4   5
ENDBRANCH   3   4
ENDBRANCH   2   3
ENDBRANCH   1   2
BRANCH   1  10
ATOM     10  C   UNL     1      87.883 326.584 193.997  1.00  0.00     0.000 C 
BRANCH  10  11
ATOM     11  C   UNL     1      86.540 326.421 194.724  1.00  0.00    -0.000 C 
BRANCH  11  12
ATOM     12  C   UNL     1      86.679 326.500 196.253  1.00  0.00    -0.000 C 
BRANCH  12  13
ATOM     13  C   UNL     1      88.095 326.152 196.737  1.00  0.00    -0.000 C 
BRANCH  13  14
ATOM     14  C   UNL     1      88.168 324.694 197.213  1.00  0.00    -0.000 C 
BRANCH  14  15
ATOM     15  C   UNL     1      89.357 323.933 196.606  1.00  0.00    -0.003 C 
ATOM     16  C   UNL     1      88.928 322.896 195.568  1.00  0.00     0.004 C 
ENDBRANCH  14  15
ENDBRANCH  13  14
ENDBRANCH  12  13
ENDBRANCH  11  12
ENDBRANCH  10  11
ENDBRANCH   1  10
TORSDOF 12
ENDMDL
MODEL 8
REMARK VINA RESULT:    -5.277     19.434     20.472
REMARK INTER + INTRA:          -9.996
REMARK INTER:                  -8.832
REMARK INTRA:                  -1.164
REMARK UNBOUND:                -1.017
REMARK SMILES CCCCCCCCCCCCCC(=O)[O-]
REMARK SMILES IDX 8 1 9 2 10 3 11 4 12 5 13 6 14 7 15 8 16 9 7 10 6 11 5 12
REMARK SMILES IDX 4 13 3 14 2 15 1 16
REMARK H PARENT
REMARK Flexibility Score: inf
ROOT
ATOM      1  C   UNL     1     103.473 313.004 195.079  1.00  0.00     0.000 C 
ENDROOT
BRANCH   1   2
ATOM      2  C   UNL     1     103.986 313.160 196.519  1.00  0.00     0.000 C 
BRANCH   2   3
ATOM      3  C   UNL     1     104.405 311.821 197.148  1.00  0.00     0.000 C 
BRANCH   3   4
ATOM      4  C   UNL     1     103.516 311.424 198.339  1.00  0.00     0.000 C 
BRANCH   4   5
ATOM      5  C   UNL     1     103.470 312.508 199.433  1.00  0.00     0.006 C 
BRANCH   5   6
ATOM      6  C   UNL     1     104.330 312.201 200.669  1.00  0.00     0.053 C 
BRANCH   6   7
ATOM      7  C   UNL     1     103.557 311.473 201.725  1.00  0.00     0.041 C 
ATOM      8  O   UNL     1     104.138 311.058 202.763  1.00  0.00    -0.550 OA
ATOM      9  O   UNL     1     102.188 311.282 201.580  1.00  0.00    -0.550 OA
ENDBRANCH   6   7
ENDBRANCH   5   6
ENDBRANCH   4   5
ENDBRANCH   3   4
ENDBRANCH   2   3
ENDBRANCH   1   2
BRANCH   1  10
ATOM     10  C   UNL     1     103.507 311.534 194.640  1.00  0.00     0.000 C 
BRANCH  10  11
ATOM     11  C   UNL     1     104.054 311.400 193.211  1.00  0.00    -0.000 C 
BRANCH  11  12
ATOM     12  C   UNL     1     105.500 311.902 193.079  1.00  0.00    -0.000 C 
BRANCH  12  13
ATOM     13  C   UNL     1     105.630 313.088 192.111  1.00  0.00    -0.000 C 
BRANCH  13  14
ATOM     14  C   UNL     1     104.275 313.425 191.473  1.00  0.00    -0.000 C 
BRANCH  14  15
ATOM     15  C   UNL     1     103.861 314.888 191.702  1.00  0.00    -0.003 C 
ATOM     16  C   UNL     1     104.681 315.570 192.797  1.00  0.00     0.004 C 
ENDBRANCH  14  15
ENDBRANCH  13  14
ENDBRANCH  12  13
ENDBRANCH  11  12
ENDBRANCH  10  11
ENDBRANCH   1  10
TORSDOF 12
ENDMDL
MODEL 9
REMARK VINA RESULT:    -5.273      1.058      2.382
REMARK INTER + INTRA:          -9.989
REMARK INTER:                  -8.707
REMARK INTRA:                  -1.282
REMARK UNBOUND:                -1.017
REMARK SMILES CCCCCCCCCCCCCC(=O)[O-]
REMARK SMILES IDX 8 1 9 2 10 3 11 4 12 5 13 6 14 7 15 8 16 9 7 10 6 11 5 12
REMARK SMILES IDX 4 13 3 14 2 15 1 16
REMARK H PARENT
REMARK Flexibility Score: inf
ROOT
ATOM      1  C   UNL     1      88.113 326.654 194.016  1.00  0.00     0.000 C 
ENDROOT
BRANCH   1   2
ATOM      2  C   UNL     1      88.946 326.499 195.299  1.00  0.00     0.000 C 
BRANCH   2   3
ATOM      3  C   UNL     1      88.103 326.046 196.502  1.00  0.00     0.000 C 
BRANCH   3   4
ATOM      4  C   UNL     1      88.502 326.760 197.805  1.00  0.00     0.000 C 
BRANCH   4   5
ATOM      5  C   UNL     1      88.880 325.778 198.929  1.00  0.00     0.006 C 
BRANCH   5   6
ATOM      6  C   UNL     1      89.613 326.422 200.117  1.00  0.00     0.053 C 
BRANCH   6   7
ATOM      7  C   UNL     1      88.978 326.072 201.427  1.00  0.00     0.041 C 
ATOM      8  O   UNL     1      88.122 325.150 201.490  1.00  0.00    -0.550 OA
ATOM      9  O   UNL     1      89.354 326.741 202.585  1.00  0.00    -0.550 OA
ENDBRANCH   6   7
ENDBRANCH   5   6
ENDBRANCH   4   5
ENDBRANCH   3   4
ENDBRANCH   2   3
ENDBRANCH   1   2
BRANCH   1  10
ATOM     10  C   UNL     1      86.661 326.216 194.248  1.00  0.00     0.000 C 
BRANCH  10  11
ATOM     11  C   UNL     1      86.280 325.059 193.312  1.00  0.00    -0.000 C 
BRANCH  11  12
ATOM     12  C   UNL     1      87.475 324.533 192.501  1.00  0.00    -0.000 C 
BRANCH  12  13
ATOM     13  C   UNL     1      87.830 323.079 192.847  1.00  0.00    -0.000 C 
BRANCH  13  14
ATOM     14  C   UNL     1      88.548 322.997 194.201  1.00  0.00    -0.000 C 
BRANCH  14  15
ATOM     15  C   UNL     1      87.642 322.457 195.319  1.00  0.00    -0.003 C 
ATOM     16  C   UNL     1      86.467 321.639 194.785  1.00  0.00     0.004 C 
ENDBRANCH  14  15
ENDBRANCH  13  14
ENDBRANCH  12  13
ENDBRANCH  11  12
ENDBRANCH  10  11
ENDBRANCH   1  10
TORSDOF 12
ENDMDL
