MODEL 1
REMARK VINA RESULT:    -2.659      0.000      0.000
REMARK INTER + INTRA:          -2.985
REMARK INTER:                  -2.814
REMARK INTRA:                  -0.171
REMARK UNBOUND:                -0.171
REMARK SMILES CC(C)[C@H]1CC[C@@H](C)CC1=O
REMARK SMILES IDX 8 1 7 2 6 3 5 4 4 5 10 6 11 7 9 8 2 9 1 10 3 11
REMARK H PARENT
REMARK Flexibility Score: inf
ROOT
ATOM      1  C   UNL     1     133.032 144.522 140.766  1.00  0.00     0.008 C 
ATOM      2  C   UNL     1     133.132 145.162 139.372  1.00  0.00    -0.007 C 
ATOM      3  C   UNL     1     132.598 146.613 139.363  1.00  0.00     0.004 C 
ATOM      4  C   UNL     1     131.062 146.692 139.489  1.00  0.00     0.012 C 
ATOM      5  C   UNL     1     130.348 145.859 138.396  1.00  0.00     0.058 C 
ATOM      6  C   UNL     1     130.932 144.457 138.437  1.00  0.00     0.136 C 
ATOM      7  O   UNL     1     130.242 143.475 138.662  1.00  0.00    -0.299 OA
ATOM      8  C   UNL     1     132.420 144.308 138.306  1.00  0.00     0.079 C 
ENDROOT
BRANCH   5   9
ATOM      9  C   UNL     1     128.790 145.873 138.530  1.00  0.00    -0.007 C 
ATOM     10  C   UNL     1     128.143 146.605 137.338  1.00  0.00     0.008 C 
ATOM     11  C   UNL     1     128.310 146.542 139.830  1.00  0.00     0.008 C 
ENDBRANCH   5   9
TORSDOF 1
ENDMDL
MODEL 2
REMARK VINA RESULT:    -2.580     10.625     11.885
REMARK INTER + INTRA:          -2.902
REMARK INTER:                  -2.748
REMARK INTRA:                  -0.154
REMARK UNBOUND:                -0.171
REMARK SMILES CC(C)[C@H]1CC[C@@H](C)CC1=O
REMARK SMILES IDX 8 1 7 2 6 3 5 4 4 5 10 6 11 7 9 8 2 9 1 10 3 11
REMARK H PARENT
REMARK Flexibility Score: inf
ROOT
ATOM      1  C   UNL     1     134.713 133.156 136.485  1.00  0.00     0.008 C 
ATOM      2  C   UNL     1     133.575 133.377 135.476  1.00  0.00    -0.007 C 
ATOM      3  C   UNL     1     133.081 134.843 135.476  1.00  0.00     0.004 C 
ATOM      4  C   UNL     1     132.277 135.210 136.741  1.00  0.00     0.012 C 
ATOM      5  C   UNL     1     131.083 134.250 136.967  1.00  0.00     0.058 C 
ATOM      6  C   UNL     1     131.626 132.831 136.931  1.00  0.00     0.136 C 
ATOM      7  O   UNL     1     131.522 132.074 137.884  1.00  0.00    -0.299 OA
ATOM      8  C   UNL     1     132.406 132.404 135.721  1.00  0.00     0.079 C 
ENDROOT
BRANCH   5   9
ATOM      9  C   UNL     1     130.280 134.560 138.272  1.00  0.00    -0.007 C 
ATOM     10  C   UNL     1     128.770 134.350 138.051  1.00  0.00     0.008 C 
ATOM     11  C   UNL     1     130.502 135.996 138.779  1.00  0.00     0.008 C 
ENDBRANCH   5   9
TORSDOF 1
ENDMDL
MODEL 3
REMARK VINA RESULT:    -2.558      8.201     10.422
REMARK INTER + INTRA:          -2.879
REMARK INTER:                  -2.719
REMARK INTRA:                  -0.160
REMARK UNBOUND:                -0.171
REMARK SMILES CC(C)[C@H]1CC[C@@H](C)CC1=O
REMARK SMILES IDX 8 1 7 2 6 3 5 4 4 5 10 6 11 7 9 8 2 9 1 10 3 11
REMARK H PARENT
REMARK Flexibility Score: inf
ROOT
ATOM      1  C   UNL     1     137.385 142.671 135.886  1.00  0.00     0.008 C 
ATOM      2  C   UNL     1     138.355 143.455 134.987  1.00  0.00    -0.007 C 
ATOM      3  C   UNL     1     139.730 142.757 134.876  1.00  0.00     0.004 C 
ATOM      4  C   UNL     1     140.564 142.854 136.170  1.00  0.00     0.012 C 
ATOM      5  C   UNL     1     140.751 144.321 136.630  1.00  0.00     0.058 C 
ATOM      6  C   UNL     1     139.373 144.958 136.695  1.00  0.00     0.136 C 
ATOM      7  O   UNL     1     138.921 145.418 137.732  1.00  0.00    -0.299 OA
ATOM      8  C   UNL     1     138.515 144.911 135.464  1.00  0.00     0.079 C 
ENDROOT
BRANCH   5   9
ATOM      9  C   UNL     1     141.545 144.451 137.971  1.00  0.00    -0.007 C 
ATOM     10  C   UNL     1     142.621 145.550 137.868  1.00  0.00     0.008 C 
ATOM     11  C   UNL     1     142.229 143.137 138.387  1.00  0.00     0.008 C 
ENDBRANCH   5   9
TORSDOF 1
ENDMDL
MODEL 4
REMARK VINA RESULT:    -2.542      2.022      2.773
REMARK INTER + INTRA:          -2.861
REMARK INTER:                  -2.693
REMARK INTRA:                  -0.168
REMARK UNBOUND:                -0.171
REMARK SMILES CC(C)[C@H]1CC[C@@H](C)CC1=O
REMARK SMILES IDX 8 1 7 2 6 3 5 4 4 5 10 6 11 7 9 8 2 9 1 10 3 11
REMARK H PARENT
REMARK Flexibility Score: inf
ROOT
ATOM      1  C   UNL     1     131.948 146.686 139.357  1.00  0.00     0.008 C 
ATOM      2  C   UNL     1     131.363 146.092 138.065  1.00  0.00    -0.007 C 
ATOM      3  C   UNL     1     129.826 146.247 138.004  1.00  0.00     0.004 C 
ATOM      4  C   UNL     1     129.085 145.313 138.984  1.00  0.00     0.012 C 
ATOM      5  C   UNL     1     129.476 143.830 138.778  1.00  0.00     0.058 C 
ATOM      6  C   UNL     1     130.993 143.747 138.822  1.00  0.00     0.136 C 
ATOM      7  O   UNL     1     131.580 143.068 139.651  1.00  0.00    -0.299 OA
ATOM      8  C   UNL     1     131.775 144.619 137.883  1.00  0.00     0.079 C 
ENDROOT
BRANCH   5   9
ATOM      9  C   UNL     1     128.785 142.862 139.794  1.00  0.00    -0.007 C 
ATOM     10  C   UNL     1     127.875 141.857 139.063  1.00  0.00     0.008 C 
ATOM     11  C   UNL     1     127.942 143.607 140.845  1.00  0.00     0.008 C 
ENDBRANCH   5   9
TORSDOF 1
ENDMDL
MODEL 5
REMARK VINA RESULT:    -2.517     10.476     12.452
REMARK INTER + INTRA:          -2.836
REMARK INTER:                  -2.661
REMARK INTRA:                  -0.175
REMARK UNBOUND:                -0.171
REMARK SMILES CC(C)[C@H]1CC[C@@H](C)CC1=O
REMARK SMILES IDX 8 1 7 2 6 3 5 4 4 5 10 6 11 7 9 8 2 9 1 10 3 11
REMARK H PARENT
REMARK Flexibility Score: inf
ROOT
ATOM      1  C   UNL     1     144.188 147.166 140.605  1.00  0.00     0.008 C 
ATOM      2  C   UNL     1     144.731 146.444 139.361  1.00  0.00    -0.007 C 
ATOM      3  C   UNL     1     143.764 146.559 138.160  1.00  0.00     0.004 C 
ATOM      4  C   UNL     1     142.490 145.704 138.324  1.00  0.00     0.012 C 
ATOM      5  C   UNL     1     142.823 144.217 138.595  1.00  0.00     0.058 C 
ATOM      6  C   UNL     1     143.792 144.171 139.765  1.00  0.00     0.136 C 
ATOM      7  O   UNL     1     143.526 143.584 140.803  1.00  0.00    -0.299 OA
ATOM      8  C   UNL     1     145.059 144.970 139.663  1.00  0.00     0.079 C 
ENDROOT
BRANCH   5   9
ATOM      9  C   UNL     1     141.553 143.332 138.823  1.00  0.00    -0.007 C 
ATOM     10  C   UNL     1     141.308 142.402 137.619  1.00  0.00     0.008 C 
ATOM     11  C   UNL     1     140.282 144.167 139.060  1.00  0.00     0.008 C 
ENDBRANCH   5   9
TORSDOF 1
ENDMDL
MODEL 6
REMARK VINA RESULT:    -2.513     15.952     16.991
REMARK INTER + INTRA:          -2.831
REMARK INTER:                  -2.679
REMARK INTRA:                  -0.152
REMARK UNBOUND:                -0.171
REMARK SMILES CC(C)[C@H]1CC[C@@H](C)CC1=O
REMARK SMILES IDX 8 1 7 2 6 3 5 4 4 5 10 6 11 7 9 8 2 9 1 10 3 11
REMARK H PARENT
REMARK Flexibility Score: inf
ROOT
ATOM      1  C   UNL     1     141.309 133.891 136.231  1.00  0.00     0.008 C 
ATOM      2  C   UNL     1     140.806 132.831 135.237  1.00  0.00    -0.007 C 
ATOM      3  C   UNL     1     139.263 132.816 135.142  1.00  0.00     0.004 C 
ATOM      4  C   UNL     1     138.585 132.226 136.397  1.00  0.00     0.012 C 
ATOM      5  C   UNL     1     139.108 130.806 136.723  1.00  0.00     0.058 C 
ATOM      6  C   UNL     1     140.625 130.879 136.777  1.00  0.00     0.136 C 
ATOM      7  O   UNL     1     141.251 130.591 137.786  1.00  0.00    -0.299 OA
ATOM      8  C   UNL     1     141.348 131.431 135.583  1.00  0.00     0.079 C 
ENDROOT
BRANCH   5   9
ATOM      9  C   UNL     1     138.482 130.201 138.023  1.00  0.00    -0.007 C 
ATOM     10  C   UNL     1     138.253 128.685 137.867  1.00  0.00     0.008 C 
ATOM     11  C   UNL     1     137.144 130.859 138.399  1.00  0.00     0.008 C 
ENDBRANCH   5   9
TORSDOF 1
ENDMDL
MODEL 7
REMARK VINA RESULT:    -2.512     15.344     17.644
REMARK INTER + INTRA:          -2.830
REMARK INTER:                  -2.656
REMARK INTRA:                  -0.174
REMARK UNBOUND:                -0.171
REMARK SMILES CC(C)[C@H]1CC[C@@H](C)CC1=O
REMARK SMILES IDX 8 1 7 2 6 3 5 4 4 5 10 6 11 7 9 8 2 9 1 10 3 11
REMARK H PARENT
REMARK Flexibility Score: inf
ROOT
ATOM      1  C   UNL     1     143.649 139.093 138.016  1.00  0.00     0.008 C 
ATOM      2  C   UNL     1     144.863 138.789 137.123  1.00  0.00    -0.007 C 
ATOM      3  C   UNL     1     144.764 137.389 136.475  1.00  0.00     0.004 C 
ATOM      4  C   UNL     1     144.986 136.239 137.480  1.00  0.00     0.012 C 
ATOM      5  C   UNL     1     146.331 136.380 138.233  1.00  0.00     0.058 C 
ATOM      6  C   UNL     1     146.380 137.779 138.824  1.00  0.00     0.136 C 
ATOM      7  O   UNL     1     146.480 137.971 140.026  1.00  0.00    -0.299 OA
ATOM      8  C   UNL     1     146.186 138.944 137.896  1.00  0.00     0.079 C 
ENDROOT
BRANCH   5   9
ATOM      9  C   UNL     1     146.561 135.261 139.301  1.00  0.00    -0.007 C 
ATOM     10  C   UNL     1     147.684 134.303 138.859  1.00  0.00     0.008 C 
ATOM     11  C   UNL     1     145.294 134.432 139.575  1.00  0.00     0.008 C 
ENDBRANCH   5   9
TORSDOF 1
ENDMDL
MODEL 8
REMARK VINA RESULT:    -2.509      2.236      4.104
REMARK INTER + INTRA:          -2.827
REMARK INTER:                  -2.650
REMARK INTRA:                  -0.176
REMARK UNBOUND:                -0.171
REMARK SMILES CC(C)[C@H]1CC[C@@H](C)CC1=O
REMARK SMILES IDX 8 1 7 2 6 3 5 4 4 5 10 6 11 7 9 8 2 9 1 10 3 11
REMARK H PARENT
REMARK Flexibility Score: inf
ROOT
ATOM      1  C   UNL     1     130.842 146.300 137.561  1.00  0.00     0.008 C 
ATOM      2  C   UNL     1     131.339 145.733 138.901  1.00  0.00    -0.007 C 
ATOM      3  C   UNL     1     132.570 144.815 138.718  1.00  0.00     0.004 C 
ATOM      4  C   UNL     1     132.222 143.460 138.066  1.00  0.00     0.012 C 
ATOM      5  C   UNL     1     131.114 142.710 138.844  1.00  0.00     0.058 C 
ATOM      6  C   UNL     1     129.947 143.669 139.014  1.00  0.00     0.136 C 
ATOM      7  O   UNL     1     128.837 143.423 138.567  1.00  0.00    -0.299 OA
ATOM      8  C   UNL     1     130.214 144.999 139.656  1.00  0.00     0.079 C 
ENDROOT
BRANCH   5   9
ATOM      9  C   UNL     1     130.698 141.358 138.177  1.00  0.00    -0.007 C 
ATOM     10  C   UNL     1     131.256 140.160 138.969  1.00  0.00     0.008 C 
ATOM     11  C   UNL     1     131.176 141.243 136.719  1.00  0.00     0.008 C 
ENDBRANCH   5   9
TORSDOF 1
ENDMDL
MODEL 9
REMARK VINA RESULT:    -2.504      2.062      4.183
REMARK INTER + INTRA:          -2.822
REMARK INTER:                  -2.645
REMARK INTRA:                  -0.177
REMARK UNBOUND:                -0.171
REMARK SMILES CC(C)[C@H]1CC[C@@H](C)CC1=O
REMARK SMILES IDX 8 1 7 2 6 3 5 4 4 5 10 6 11 7 9 8 2 9 1 10 3 11
REMARK H PARENT
REMARK Flexibility Score: inf
ROOT
ATOM      1  C   UNL     1     130.698 146.703 140.566  1.00  0.00     0.008 C 
ATOM      2  C   UNL     1     131.589 147.020 139.353  1.00  0.00    -0.007 C 
ATOM      3  C   UNL     1     131.190 146.189 138.112  1.00  0.00     0.004 C 
ATOM      4  C   UNL     1     131.572 144.699 138.234  1.00  0.00     0.012 C 
ATOM      5  C   UNL     1     133.079 144.511 138.535  1.00  0.00     0.058 C 
ATOM      6  C   UNL     1     133.414 145.369 139.744  1.00  0.00     0.136 C 
ATOM      7  O   UNL     1     133.855 144.888 140.776  1.00  0.00    -0.299 OA
ATOM      8  C   UNL     1     133.081 146.832 139.685  1.00  0.00     0.079 C 
ENDROOT
BRANCH   5   9
ATOM      9  C   UNL     1     133.490 143.013 138.721  1.00  0.00    -0.007 C 
ATOM     10  C   UNL     1     134.233 142.489 137.477  1.00  0.00     0.008 C 
ATOM     11  C   UNL     1     132.283 142.096 138.988  1.00  0.00     0.008 C 
ENDBRANCH   5   9
TORSDOF 1
ENDMDL
