MODEL 1
REMARK VINA RESULT:    -5.258      0.000      0.000
REMARK INTER + INTRA:          -5.657
REMARK INTER:                  -5.566
REMARK INTRA:                  -0.092
REMARK UNBOUND:                -0.092
REMARK SMILES C=C(C)[C@@H]1CC=C(C)C(=O)C1
REMARK SMILES IDX 8 1 7 2 6 3 5 4 4 5 11 6 9 7 10 8 2 9 1 10 3 11
REMARK H PARENT
REMARK Flexibility Score: inf
ROOT
ATOM      1  C   UNL     1     216.802 149.875 183.246  1.00  0.00     0.048 C 
ATOM      2  C   UNL     1     215.458 150.530 183.073  1.00  0.00    -0.012 C 
ATOM      3  C   UNL     1     214.678 150.748 184.147  1.00  0.00    -0.019 C 
ATOM      4  C   UNL     1     213.333 151.415 184.032  1.00  0.00     0.036 C 
ATOM      5  C   UNL     1     212.657 151.075 182.691  1.00  0.00     0.025 C 
ATOM      6  C   UNL     1     213.587 151.434 181.517  1.00  0.00     0.089 C 
ATOM      7  C   UNL     1     214.946 150.816 181.711  1.00  0.00     0.158 C 
ATOM      8  O   UNL     1     215.661 150.578 180.700  1.00  0.00    -0.295 OA
ENDROOT
BRANCH   5   9
ATOM      9  C   UNL     1     211.304 151.760 182.558  1.00  0.00    -0.077 C 
ATOM     10  C   UNL     1     210.383 151.273 181.713  1.00  0.00     0.008 C 
ATOM     11  C   UNL     1     210.965 152.992 183.360  1.00  0.00     0.039 C 
ENDBRANCH   5   9
TORSDOF 1
ENDMDL
MODEL 2
REMARK VINA RESULT:    -5.092      1.719      4.183
REMARK INTER + INTRA:          -5.481
REMARK INTER:                  -5.383
REMARK INTRA:                  -0.098
REMARK UNBOUND:                -0.092
REMARK SMILES C=C(C)[C@@H]1CC=C(C)C(=O)C1
REMARK SMILES IDX 8 1 7 2 6 3 5 4 4 5 11 6 9 7 10 8 2 9 1 10 3 11
REMARK H PARENT
REMARK Flexibility Score: inf
ROOT
ATOM      1  C   UNL     1     209.591 151.316 181.186  1.00  0.00     0.048 C 
ATOM      2  C   UNL     1     210.810 151.509 182.048  1.00  0.00    -0.012 C 
ATOM      3  C   UNL     1     210.811 152.458 183.000  1.00  0.00    -0.019 C 
ATOM      4  C   UNL     1     211.998 152.682 183.900  1.00  0.00     0.036 C 
ATOM      5  C   UNL     1     213.316 152.376 183.168  1.00  0.00     0.025 C 
ATOM      6  C   UNL     1     213.287 150.950 182.587  1.00  0.00     0.089 C 
ATOM      7  C   UNL     1     212.046 150.741 181.762  1.00  0.00     0.158 C 
ATOM      8  O   UNL     1     212.058 149.876 180.844  1.00  0.00    -0.295 OA
ENDROOT
BRANCH   5   9
ATOM      9  C   UNL     1     214.521 152.581 184.076  1.00  0.00    -0.077 C 
ATOM     10  C   UNL     1     215.645 151.877 183.873  1.00  0.00     0.008 C 
ATOM     11  C   UNL     1     214.485 153.568 185.217  1.00  0.00     0.039 C 
ENDBRANCH   5   9
TORSDOF 1
ENDMDL
MODEL 3
REMARK VINA RESULT:    -4.926      2.738      3.698
REMARK INTER + INTRA:          -5.305
REMARK INTER:                  -5.216
REMARK INTRA:                  -0.090
REMARK UNBOUND:                -0.092
REMARK SMILES C=C(C)[C@@H]1CC=C(C)C(=O)C1
REMARK SMILES IDX 8 1 7 2 6 3 5 4 4 5 11 6 9 7 10 8 2 9 1 10 3 11
REMARK H PARENT
REMARK Flexibility Score: inf
ROOT
ATOM      1  C   UNL     1     212.170 150.989 178.667  1.00  0.00     0.048 C 
ATOM      2  C   UNL     1     212.293 151.486 180.082  1.00  0.00    -0.012 C 
ATOM      3  C   UNL     1     211.948 150.684 181.104  1.00  0.00    -0.019 C 
ATOM      4  C   UNL     1     212.068 151.125 182.539  1.00  0.00     0.036 C 
ATOM      5  C   UNL     1     211.820 152.638 182.677  1.00  0.00     0.025 C 
ATOM      6  C   UNL     1     212.764 153.422 181.746  1.00  0.00     0.089 C 
ATOM      7  C   UNL     1     212.674 152.896 180.339  1.00  0.00     0.158 C 
ATOM      8  O   UNL     1     212.963 153.661 179.379  1.00  0.00    -0.295 OA
ENDROOT
BRANCH   5   9
ATOM      9  C   UNL     1     211.958 153.097 184.122  1.00  0.00    -0.077 C 
ATOM     10  C   UNL     1     211.149 154.053 184.605  1.00  0.00     0.008 C 
ATOM     11  C   UNL     1     212.995 152.499 185.041  1.00  0.00     0.039 C 
ENDBRANCH   5   9
TORSDOF 1
ENDMDL
MODEL 4
REMARK VINA RESULT:    -4.916      2.083      4.667
REMARK INTER + INTRA:          -5.295
REMARK INTER:                  -5.196
REMARK INTRA:                  -0.098
REMARK UNBOUND:                -0.092
REMARK SMILES C=C(C)[C@@H]1CC=C(C)C(=O)C1
REMARK SMILES IDX 8 1 7 2 6 3 5 4 4 5 11 6 9 7 10 8 2 9 1 10 3 11
REMARK H PARENT
REMARK Flexibility Score: inf
ROOT
ATOM      1  C   UNL     1     209.724 151.260 181.525  1.00  0.00     0.048 C 
ATOM      2  C   UNL     1     211.193 151.068 181.787  1.00  0.00    -0.012 C 
ATOM      3  C   UNL     1     211.887 150.163 181.076  1.00  0.00    -0.019 C 
ATOM      4  C   UNL     1     213.362 149.944 181.287  1.00  0.00     0.036 C 
ATOM      5  C   UNL     1     213.753 150.177 182.757  1.00  0.00     0.025 C 
ATOM      6  C   UNL     1     213.301 151.577 183.215  1.00  0.00     0.089 C 
ATOM      7  C   UNL     1     211.842 151.786 182.912  1.00  0.00     0.158 C 
ATOM      8  O   UNL     1     211.184 152.609 183.604  1.00  0.00    -0.295 OA
ENDROOT
BRANCH   5   9
ATOM      9  C   UNL     1     215.247 149.976 182.976  1.00  0.00    -0.077 C 
ATOM     10  C   UNL     1     216.073 149.875 181.924  1.00  0.00     0.008 C 
ATOM     11  C   UNL     1     215.832 149.885 184.363  1.00  0.00     0.039 C 
ENDBRANCH   5   9
TORSDOF 1
ENDMDL
MODEL 5
REMARK VINA RESULT:    -4.846      2.821      4.135
REMARK INTER + INTRA:          -5.221
REMARK INTER:                  -5.124
REMARK INTRA:                  -0.097
REMARK UNBOUND:                -0.092
REMARK SMILES C=C(C)[C@@H]1CC=C(C)C(=O)C1
REMARK SMILES IDX 8 1 7 2 6 3 5 4 4 5 11 6 9 7 10 8 2 9 1 10 3 11
REMARK H PARENT
REMARK Flexibility Score: inf
ROOT
ATOM      1  C   UNL     1     212.817 156.263 184.417  1.00  0.00     0.048 C 
ATOM      2  C   UNL     1     212.385 155.017 183.693  1.00  0.00    -0.012 C 
ATOM      3  C   UNL     1     211.578 154.133 184.306  1.00  0.00    -0.019 C 
ATOM      4  C   UNL     1     211.102 152.879 183.621  1.00  0.00     0.036 C 
ATOM      5  C   UNL     1     212.162 152.347 182.640  1.00  0.00     0.025 C 
ATOM      6  C   UNL     1     212.560 153.444 181.635  1.00  0.00     0.089 C 
ATOM      7  C   UNL     1     212.949 154.706 182.357  1.00  0.00     0.158 C 
ATOM      8  O   UNL     1     213.735 155.516 181.795  1.00  0.00    -0.295 OA
ENDROOT
BRANCH   5   9
ATOM      9  C   UNL     1     211.683 151.089 181.928  1.00  0.00    -0.077 C 
ATOM     10  C   UNL     1     210.448 151.042 181.405  1.00  0.00     0.008 C 
ATOM     11  C   UNL     1     212.569 149.875 181.794  1.00  0.00     0.039 C 
ENDBRANCH   5   9
TORSDOF 1
ENDMDL
MODEL 6
REMARK VINA RESULT:    -4.830      1.823      2.762
REMARK INTER + INTRA:          -5.204
REMARK INTER:                  -5.109
REMARK INTRA:                  -0.095
REMARK UNBOUND:                -0.092
REMARK SMILES C=C(C)[C@@H]1CC=C(C)C(=O)C1
REMARK SMILES IDX 8 1 7 2 6 3 5 4 4 5 11 6 9 7 10 8 2 9 1 10 3 11
REMARK H PARENT
REMARK Flexibility Score: inf
ROOT
ATOM      1  C   UNL     1     214.436 153.291 185.488  1.00  0.00     0.048 C 
ATOM      2  C   UNL     1     213.583 152.901 184.311  1.00  0.00    -0.012 C 
ATOM      3  C   UNL     1     212.249 153.051 184.373  1.00  0.00    -0.019 C 
ATOM      4  C   UNL     1     211.352 152.693 183.217  1.00  0.00     0.036 C 
ATOM      5  C   UNL     1     211.920 151.504 182.422  1.00  0.00     0.025 C 
ATOM      6  C   UNL     1     213.362 151.803 181.969  1.00  0.00     0.089 C 
ATOM      7  C   UNL     1     214.203 152.236 183.138  1.00  0.00     0.158 C 
ATOM      8  O   UNL     1     215.451 152.061 183.094  1.00  0.00    -0.295 OA
ENDROOT
BRANCH   5   9
ATOM      9  C   UNL     1     211.029 151.146 181.240  1.00  0.00    -0.077 C 
ATOM     10  C   UNL     1     209.704 151.024 181.409  1.00  0.00     0.008 C 
ATOM     11  C   UNL     1     211.603 150.921 179.863  1.00  0.00     0.039 C 
ENDBRANCH   5   9
TORSDOF 1
ENDMDL
MODEL 7
REMARK VINA RESULT:    -4.803      2.168      3.702
REMARK INTER + INTRA:          -5.175
REMARK INTER:                  -5.088
REMARK INTRA:                  -0.087
REMARK UNBOUND:                -0.092
REMARK SMILES C=C(C)[C@@H]1CC=C(C)C(=O)C1
REMARK SMILES IDX 8 1 7 2 6 3 5 4 4 5 11 6 9 7 10 8 2 9 1 10 3 11
REMARK H PARENT
REMARK Flexibility Score: inf
ROOT
ATOM      1  C   UNL     1     212.746 149.875 181.755  1.00  0.00     0.048 C 
ATOM      2  C   UNL     1     212.277 151.074 182.535  1.00  0.00    -0.012 C 
ATOM      3  C   UNL     1     211.193 151.755 182.125  1.00  0.00    -0.019 C 
ATOM      4  C   UNL     1     210.672 152.951 182.878  1.00  0.00     0.036 C 
ATOM      5  C   UNL     1     211.819 153.730 183.545  1.00  0.00     0.025 C 
ATOM      6  C   UNL     1     212.650 152.794 184.443  1.00  0.00     0.089 C 
ATOM      7  C   UNL     1     213.082 151.573 183.677  1.00  0.00     0.158 C 
ATOM      8  O   UNL     1     214.119 150.956 184.040  1.00  0.00    -0.295 OA
ENDROOT
BRANCH   5   9
ATOM      9  C   UNL     1     211.299 154.930 184.325  1.00  0.00    -0.077 C 
ATOM     10  C   UNL     1     211.662 156.172 183.969  1.00  0.00     0.008 C 
ATOM     11  C   UNL     1     210.374 154.760 185.505  1.00  0.00     0.039 C 
ENDBRANCH   5   9
TORSDOF 1
ENDMDL
MODEL 8
REMARK VINA RESULT:    -4.297      3.105      4.402
REMARK INTER + INTRA:          -4.640
REMARK INTER:                  -4.553
REMARK INTRA:                  -0.087
REMARK UNBOUND:                -0.092
REMARK SMILES C=C(C)[C@@H]1CC=C(C)C(=O)C1
REMARK SMILES IDX 8 1 7 2 6 3 5 4 4 5 11 6 9 7 10 8 2 9 1 10 3 11
REMARK H PARENT
REMARK Flexibility Score: inf
ROOT
ATOM      1  C   UNL     1     211.129 153.994 184.350  1.00  0.00     0.048 C 
ATOM      2  C   UNL     1     211.400 153.306 183.040  1.00  0.00    -0.012 C 
ATOM      3  C   UNL     1     210.753 152.167 182.736  1.00  0.00    -0.019 C 
ATOM      4  C   UNL     1     210.975 151.448 181.432  1.00  0.00     0.036 C 
ATOM      5  C   UNL     1     212.423 151.621 180.941  1.00  0.00     0.025 C 
ATOM      6  C   UNL     1     212.781 153.117 180.850  1.00  0.00     0.089 C 
ATOM      7  C   UNL     1     212.469 153.815 182.145  1.00  0.00     0.158 C 
ATOM      8  O   UNL     1     213.102 154.863 182.446  1.00  0.00    -0.295 OA
ENDROOT
BRANCH   5   9
ATOM      9  C   UNL     1     212.651 150.913 179.613  1.00  0.00    -0.077 C 
ATOM     10  C   UNL     1     213.499 149.875 179.540  1.00  0.00     0.008 C 
ATOM     11  C   UNL     1     211.942 151.352 178.356  1.00  0.00     0.039 C 
ENDBRANCH   5   9
TORSDOF 1
ENDMDL
