MODEL 1
REMARK VINA RESULT:    -3.722      0.000      0.000
REMARK INTER + INTRA:          -4.991
REMARK INTER:                  -4.809
REMARK INTRA:                  -0.182
REMARK UNBOUND:                -0.182
REMARK SMILES CCCCCCC(=O)[O-]
REMARK SMILES IDX 5 1 6 2 7 3 8 4 9 5 4 6 3 7 2 8 1 9
REMARK H PARENT
REMARK Flexibility Score: inf
ROOT
ATOM      1  C   UNL     1       7.227  19.148   1.500  1.00  0.00     0.006 C 
ENDROOT
BRANCH   1   2
ATOM      2  C   UNL     1       6.618  19.748   2.774  1.00  0.00     0.053 C 
BRANCH   2   3
ATOM      3  C   UNL     1       6.865  18.880   3.970  1.00  0.00     0.041 C 
ATOM      4  O   UNL     1       6.874  17.626   3.851  1.00  0.00    -0.550 OA
ATOM      5  O   UNL     1       7.049  19.454   5.221  1.00  0.00    -0.550 OA
ENDBRANCH   2   3
ENDBRANCH   1   2
BRANCH   1   6
ATOM      6  C   UNL     1       6.188  18.994   0.375  1.00  0.00     0.000 C 
BRANCH   6   7
ATOM      7  C   UNL     1       5.205  20.174   0.315  1.00  0.00    -0.000 C 
BRANCH   7   8
ATOM      8  C   UNL     1       4.729  20.473  -1.114  1.00  0.00    -0.003 C 
ATOM      9  C   UNL     1       5.507  21.637  -1.720  1.00  0.00     0.004 C 
ENDBRANCH   7   8
ENDBRANCH   6   7
ENDBRANCH   1   6
TORSDOF 5
ENDMDL
MODEL 2
REMARK VINA RESULT:    -3.616      3.292      4.860
REMARK INTER + INTRA:          -4.854
REMARK INTER:                  -4.614
REMARK INTRA:                  -0.240
REMARK UNBOUND:                -0.182
REMARK SMILES CCCCCCC(=O)[O-]
REMARK SMILES IDX 5 1 6 2 7 3 8 4 9 5 4 6 3 7 2 8 1 9
REMARK H PARENT
REMARK Flexibility Score: inf
ROOT
ATOM      1  C   UNL     1       6.252  18.969   0.505  1.00  0.00     0.006 C 
ENDROOT
BRANCH   1   2
ATOM      2  C   UNL     1       5.404  20.246   0.441  1.00  0.00     0.053 C 
BRANCH   2   3
ATOM      3  C   UNL     1       4.858  20.481  -0.935  1.00  0.00     0.041 C 
ATOM      4  O   UNL     1       4.389  19.521  -1.602  1.00  0.00    -0.550 OA
ATOM      5  O   UNL     1       4.899  21.752  -1.493  1.00  0.00    -0.550 OA
ENDBRANCH   2   3
ENDBRANCH   1   2
BRANCH   1   6
ATOM      6  C   UNL     1       7.436  19.106   1.479  1.00  0.00     0.000 C 
BRANCH   6   7
ATOM      7  C   UNL     1       7.007  18.988   2.950  1.00  0.00    -0.000 C 
BRANCH   7   8
ATOM      8  C   UNL     1       7.291  20.266   3.752  1.00  0.00    -0.003 C 
ATOM      9  C   UNL     1       6.006  21.041   4.026  1.00  0.00     0.004 C 
ENDBRANCH   7   8
ENDBRANCH   6   7
ENDBRANCH   1   6
TORSDOF 5
ENDMDL
MODEL 3
REMARK VINA RESULT:    -3.556      1.185      1.613
REMARK INTER + INTRA:          -4.777
REMARK INTER:                  -4.597
REMARK INTRA:                  -0.180
REMARK UNBOUND:                -0.182
REMARK SMILES CCCCCCC(=O)[O-]
REMARK SMILES IDX 5 1 6 2 7 3 8 4 9 5 4 6 3 7 2 8 1 9
REMARK H PARENT
REMARK Flexibility Score: inf
ROOT
ATOM      1  C   UNL     1       6.544  19.750   2.350  1.00  0.00     0.006 C 
ENDROOT
BRANCH   1   2
ATOM      2  C   UNL     1       7.465  18.718   1.685  1.00  0.00     0.053 C 
BRANCH   2   3
ATOM      3  C   UNL     1       7.712  17.538   2.576  1.00  0.00     0.041 C 
ATOM      4  O   UNL     1       7.801  16.382   2.085  1.00  0.00    -0.550 OA
ATOM      5  O   UNL     1       7.809  17.712   3.950  1.00  0.00    -0.550 OA
ENDBRANCH   2   3
ENDBRANCH   1   2
BRANCH   1   6
ATOM      6  C   UNL     1       5.433  20.233   1.402  1.00  0.00     0.000 C 
BRANCH   6   7
ATOM      7  C   UNL     1       5.572  19.655  -0.015  1.00  0.00    -0.000 C 
BRANCH   7   8
ATOM      8  C   UNL     1       4.700  20.392  -1.041  1.00  0.00    -0.003 C 
ATOM      9  C   UNL     1       5.446  21.577  -1.648  1.00  0.00     0.004 C 
ENDBRANCH   7   8
ENDBRANCH   6   7
ENDBRANCH   1   6
TORSDOF 5
ENDMDL
MODEL 4
REMARK VINA RESULT:    -3.282     14.589     15.369
REMARK INTER + INTRA:          -4.423
REMARK INTER:                  -4.242
REMARK INTRA:                  -0.181
REMARK UNBOUND:                -0.182
REMARK SMILES CCCCCCC(=O)[O-]
REMARK SMILES IDX 5 1 6 2 7 3 8 4 9 5 4 6 3 7 2 8 1 9
REMARK H PARENT
REMARK Flexibility Score: inf
ROOT
ATOM      1  C   UNL     1      -7.786  17.280   3.450  1.00  0.00     0.006 C 
ENDROOT
BRANCH   1   2
ATOM      2  C   UNL     1      -6.636  17.661   2.507  1.00  0.00     0.053 C 
BRANCH   2   3
ATOM      3  C   UNL     1      -6.573  16.756   1.315  1.00  0.00     0.041 C 
ATOM      4  O   UNL     1      -5.567  16.021   1.131  1.00  0.00    -0.550 OA
ATOM      5  O   UNL     1      -7.607  16.751   0.388  1.00  0.00    -0.550 OA
ENDBRANCH   2   3
ENDBRANCH   1   2
BRANCH   1   6
ATOM      6  C   UNL     1      -8.982  18.239   3.325  1.00  0.00     0.000 C 
BRANCH   6   7
ATOM      7  C   UNL     1     -10.195  17.585   2.644  1.00  0.00    -0.000 C 
BRANCH   7   8
ATOM      8  C   UNL     1     -11.510  17.866   3.383  1.00  0.00    -0.003 C 
ATOM      9  C   UNL     1     -11.800  19.363   3.442  1.00  0.00     0.004 C 
ENDBRANCH   7   8
ENDBRANCH   6   7
ENDBRANCH   1   6
TORSDOF 5
ENDMDL
MODEL 5
REMARK VINA RESULT:    -3.257     14.639     15.259
REMARK INTER + INTRA:          -4.390
REMARK INTER:                  -4.114
REMARK INTRA:                  -0.276
REMARK UNBOUND:                -0.182
REMARK SMILES CCCCCCC(=O)[O-]
REMARK SMILES IDX 5 1 6 2 7 3 8 4 9 5 4 6 3 7 2 8 1 9
REMARK H PARENT
REMARK Flexibility Score: inf
ROOT
ATOM      1  C   UNL     1      -8.154  17.052   3.431  1.00  0.00     0.006 C 
ENDROOT
BRANCH   1   2
ATOM      2  C   UNL     1      -6.825  17.818   3.435  1.00  0.00     0.053 C 
BRANCH   2   3
ATOM      3  C   UNL     1      -6.907  19.069   4.255  1.00  0.00     0.041 C 
ATOM      4  O   UNL     1      -7.643  20.022   3.885  1.00  0.00    -0.550 OA
ATOM      5  O   UNL     1      -6.144  19.198   5.408  1.00  0.00    -0.550 OA
ENDBRANCH   2   3
ENDBRANCH   1   2
BRANCH   1   6
ATOM      6  C   UNL     1      -8.883  17.158   2.080  1.00  0.00     0.000 C 
BRANCH   6   7
ATOM      7  C   UNL     1     -10.386  17.437   2.240  1.00  0.00    -0.000 C 
BRANCH   7   8
ATOM      8  C   UNL     1     -10.707  18.228   3.516  1.00  0.00    -0.003 C 
ATOM      9  C   UNL     1     -11.872  19.188   3.288  1.00  0.00     0.004 C 
ENDBRANCH   7   8
ENDBRANCH   6   7
ENDBRANCH   1   6
TORSDOF 5
ENDMDL
MODEL 6
REMARK VINA RESULT:    -3.210     15.622     16.554
REMARK INTER + INTRA:          -4.330
REMARK INTER:                  -4.162
REMARK INTRA:                  -0.168
REMARK UNBOUND:                -0.182
REMARK SMILES CCCCCCC(=O)[O-]
REMARK SMILES IDX 5 1 6 2 7 3 8 4 9 5 4 6 3 7 2 8 1 9
REMARK H PARENT
REMARK Flexibility Score: inf
ROOT
ATOM      1  C   UNL     1      -8.604  14.911  -4.021  1.00  0.00     0.006 C 
ENDROOT
BRANCH   1   2
ATOM      2  C   UNL     1      -8.395  15.746  -5.291  1.00  0.00     0.053 C 
BRANCH   2   3
ATOM      3  C   UNL     1      -7.354  15.145  -6.186  1.00  0.00     0.041 C 
ATOM      4  O   UNL     1      -7.572  15.028  -7.421  1.00  0.00    -0.550 OA
ATOM      5  O   UNL     1      -6.160  14.681  -5.652  1.00  0.00    -0.550 OA
ENDBRANCH   2   3
ENDBRANCH   1   2
BRANCH   1   6
ATOM      6  C   UNL     1      -8.070  15.620  -2.765  1.00  0.00     0.000 C 
BRANCH   6   7
ATOM      7  C   UNL     1      -8.791  16.948  -2.484  1.00  0.00    -0.000 C 
BRANCH   7   8
ATOM      8  C   UNL     1      -9.556  16.934  -1.153  1.00  0.00    -0.003 C 
ATOM      9  C   UNL     1      -8.631  16.584   0.009  1.00  0.00     0.004 C 
ENDBRANCH   7   8
ENDBRANCH   6   7
ENDBRANCH   1   6
TORSDOF 5
ENDMDL
MODEL 7
REMARK VINA RESULT:    -3.188     15.986     16.771
REMARK INTER + INTRA:          -4.301
REMARK INTER:                  -4.053
REMARK INTRA:                  -0.248
REMARK UNBOUND:                -0.182
REMARK SMILES CCCCCCC(=O)[O-]
REMARK SMILES IDX 5 1 6 2 7 3 8 4 9 5 4 6 3 7 2 8 1 9
REMARK H PARENT
REMARK Flexibility Score: inf
ROOT
ATOM      1  C   UNL     1      -7.442  14.774  -4.877  1.00  0.00     0.006 C 
ENDROOT
BRANCH   1   2
ATOM      2  C   UNL     1      -8.556  15.764  -4.511  1.00  0.00     0.053 C 
BRANCH   2   3
ATOM      3  C   UNL     1      -8.571  16.066  -3.043  1.00  0.00     0.041 C 
ATOM      4  O   UNL     1      -8.470  15.132  -2.204  1.00  0.00    -0.550 OA
ATOM      5  O   UNL     1      -8.732  17.372  -2.602  1.00  0.00    -0.550 OA
ENDBRANCH   2   3
ENDBRANCH   1   2
BRANCH   1   6
ATOM      6  C   UNL     1      -6.906  15.004  -6.301  1.00  0.00     0.000 C 
BRANCH   6   7
ATOM      7  C   UNL     1      -7.448  13.978  -7.309  1.00  0.00    -0.000 C 
BRANCH   7   8
ATOM      8  C   UNL     1      -8.382  14.610  -8.351  1.00  0.00    -0.003 C 
ATOM      9  C   UNL     1      -9.825  14.633  -7.854  1.00  0.00     0.004 C 
ENDBRANCH   7   8
ENDBRANCH   6   7
ENDBRANCH   1   6
TORSDOF 5
ENDMDL
MODEL 8
REMARK VINA RESULT:    -3.187     13.028     13.661
REMARK INTER + INTRA:          -4.300
REMARK INTER:                  -4.116
REMARK INTRA:                  -0.185
REMARK UNBOUND:                -0.182
REMARK SMILES CCCCCCC(=O)[O-]
REMARK SMILES IDX 5 1 6 2 7 3 8 4 9 5 4 6 3 7 2 8 1 9
REMARK H PARENT
REMARK Flexibility Score: inf
ROOT
ATOM      1  C   UNL     1      -6.471  17.598   2.010  1.00  0.00     0.006 C 
ENDROOT
BRANCH   1   2
ATOM      2  C   UNL     1      -6.484  17.430   3.535  1.00  0.00     0.053 C 
BRANCH   2   3
ATOM      3  C   UNL     1      -6.767  18.724   4.234  1.00  0.00     0.041 C 
ATOM      4  O   UNL     1      -7.639  19.512   3.780  1.00  0.00    -0.550 OA
ATOM      5  O   UNL     1      -6.044  19.078   5.365  1.00  0.00    -0.550 OA
ENDBRANCH   2   3
ENDBRANCH   1   2
BRANCH   1   6
ATOM      6  C   UNL     1      -5.986  16.328   1.289  1.00  0.00     0.000 C 
BRANCH   6   7
ATOM      7  C   UNL     1      -7.031  15.767   0.313  1.00  0.00    -0.000 C 
BRANCH   7   8
ATOM      8  C   UNL     1      -8.327  16.590   0.297  1.00  0.00    -0.003 C 
ATOM      9  C   UNL     1      -8.781  16.873  -1.132  1.00  0.00     0.004 C 
ENDBRANCH   7   8
ENDBRANCH   6   7
ENDBRANCH   1   6
TORSDOF 5
ENDMDL
MODEL 9
REMARK VINA RESULT:    -3.168     16.184     17.073
REMARK INTER + INTRA:          -4.276
REMARK INTER:                  -4.081
REMARK INTRA:                  -0.195
REMARK UNBOUND:                -0.182
REMARK SMILES CCCCCCC(=O)[O-]
REMARK SMILES IDX 5 1 6 2 7 3 8 4 9 5 4 6 3 7 2 8 1 9
REMARK H PARENT
REMARK Flexibility Score: inf
ROOT
ATOM      1  C   UNL     1      -8.199  15.301  -5.225  1.00  0.00     0.006 C 
ENDROOT
BRANCH   1   2
ATOM      2  C   UNL     1      -7.266  15.373  -6.441  1.00  0.00     0.053 C 
BRANCH   2   3
ATOM      3  C   UNL     1      -7.668  14.401  -7.508  1.00  0.00     0.041 C 
ATOM      4  O   UNL     1      -7.372  13.182  -7.398  1.00  0.00    -0.550 OA
ATOM      5  O   UNL     1      -8.336  14.847  -8.641  1.00  0.00    -0.550 OA
ENDBRANCH   2   3
ENDBRANCH   1   2
BRANCH   1   6
ATOM      6  C   UNL     1      -7.526  14.628  -4.016  1.00  0.00     0.000 C 
BRANCH   6   7
ATOM      7  C   UNL     1      -7.768  15.393  -2.704  1.00  0.00    -0.000 C 
BRANCH   7   8
ATOM      8  C   UNL     1      -8.732  16.574  -2.879  1.00  0.00    -0.003 C 
ATOM      9  C   UNL     1      -9.285  17.036  -1.534  1.00  0.00     0.004 C 
ENDBRANCH   7   8
ENDBRANCH   6   7
ENDBRANCH   1   6
TORSDOF 5
ENDMDL
