MODEL 1
REMARK VINA RESULT:    -8.629      0.000      0.000
REMARK INTER + INTRA:          -9.963
REMARK INTER:                  -9.890
REMARK INTRA:                  -0.073
REMARK UNBOUND:                -0.073
REMARK SMILES CC1(C)CC[C@@]23CO[C@]4(C=C[C@H]5[C@@]6(C)CC[C@@H](O)[C@](C)(CO)[C@H]6CC[C@@]5(C)[C@@]4(C)C[C@@H]2O)[C@@H]3C1
REMARK SMILES IDX 1 1 2 2 4 3 5 4 6 5 7 6 8 7 9 8 33 9 34 10 10 11 11 12 12 13
REMARK SMILES IDX 13 14 15 15 16 16 17 17 19 18 23 19 24 20 25 21 26 22 28 23
REMARK SMILES IDX 30 24 31 25 29 26 27 27 20 28 14 29 3 30 32 31 21 33 22 34
REMARK SMILES IDX 18 36
REMARK H PARENT 32 32 22 35 18 37
REMARK Flexibility Score: inf
ROOT
ATOM      1  C   UNL     1      36.151  27.125  40.232  1.00  0.00     0.011 C 
ATOM      2  C   UNL     1      35.673  26.219  41.390  1.00  0.00    -0.035 C 
ATOM      3  C   UNL     1      34.173  26.441  41.678  1.00  0.00     0.007 C 
ATOM      4  C   UNL     1      33.267  25.922  40.554  1.00  0.00     0.013 C 
ATOM      5  C   UNL     1      33.569  24.465  40.115  1.00  0.00     0.026 C 
ATOM      6  C   UNL     1      33.228  23.421  41.192  1.00  0.00     0.171 C 
ATOM      7  O   UNL     1      34.082  22.306  40.997  1.00  0.00    -0.369 OA
ATOM      8  C   UNL     1      34.945  22.598  39.916  1.00  0.00     0.096 C 
ATOM      9  C   UNL     1      35.043  24.158  39.915  1.00  0.00     0.037 C 
ATOM     10  C   UNL     1      35.932  24.726  41.068  1.00  0.00     0.014 C 
ATOM     11  C   UNL     1      36.292  21.935  40.124  1.00  0.00     0.005 C 
ATOM     12  C   UNL     1      36.456  20.621  39.950  1.00  0.00    -0.024 C 
ATOM     13  C   UNL     1      35.301  19.687  39.673  1.00  0.00     0.024 C 
ATOM     14  C   UNL     1      34.831  18.872  41.009  1.00  0.00    -0.022 C 
ATOM     15  C   UNL     1      35.286  19.619  42.313  1.00  0.00     0.010 C 
ATOM     16  C   UNL     1      34.747  19.048  43.623  1.00  0.00     0.033 C 
ATOM     17  C   UNL     1      33.220  19.036  43.628  1.00  0.00     0.123 C 
ATOM     18  C   UNL     1      32.645  18.142  42.491  1.00  0.00     0.020 C 
ATOM     19  C   UNL     1      33.263  18.541  41.062  1.00  0.00     0.006 C 
ATOM     20  C   UNL     1      32.447  19.637  40.336  1.00  0.00     0.005 C 
ATOM     21  C   UNL     1      32.852  19.719  38.876  1.00  0.00     0.008 C 
ATOM     22  C   UNL     1      34.260  20.334  38.630  1.00  0.00    -0.017 C 
ATOM     23  C   UNL     1      34.304  21.998  38.587  1.00  0.00     0.009 C 
ATOM     24  C   UNL     1      32.879  22.643  38.406  1.00  0.00     0.043 C 
ATOM     25  C   UNL     1      32.785  24.145  38.797  1.00  0.00     0.124 C 
ATOM     26  C   UNL     1      35.161  22.494  37.362  1.00  0.00     0.015 C 
ATOM     27  C   UNL     1      34.615  19.757  37.209  1.00  0.00     0.013 C 
ATOM     28  C   UNL     1      31.091  18.287  42.523  1.00  0.00     0.017 C 
ATOM     29  C   UNL     1      35.643  17.528  40.983  1.00  0.00     0.012 C 
ATOM     30  C   UNL     1      36.473  26.599  42.654  1.00  0.00     0.011 C 
ENDROOT
BRANCH  25  31
ATOM     31  O   UNL     1      33.233  24.962  37.745  1.00  0.00    -0.392 OA
ATOM     32  H   UNL     1      34.056  24.543  37.383  1.00  0.00     0.210 HD
ENDBRANCH  25  31
BRANCH  18  33
ATOM     33  C   UNL     1      32.910  16.628  42.792  1.00  0.00     0.165 C 
BRANCH  33  34
ATOM     34  O   UNL     1      32.176  16.186  43.907  1.00  0.00    -0.396 OA
ATOM     35  H   UNL     1      31.226  16.407  43.720  1.00  0.00     0.210 HD
ENDBRANCH  33  34
ENDBRANCH  18  33
BRANCH  17  36
ATOM     36  O   UNL     1      32.737  20.355  43.511  1.00  0.00    -0.392 OA
ATOM     37  H   UNL     1      33.512  20.930  43.280  1.00  0.00     0.210 HD
ENDBRANCH  17  36
TORSDOF 4
ENDMDL
MODEL 2
REMARK VINA RESULT:    -8.022     15.224     17.551
REMARK INTER + INTRA:          -9.268
REMARK INTER:                  -9.216
REMARK INTRA:                  -0.051
REMARK UNBOUND:                -0.073
REMARK SMILES CC1(C)CC[C@@]23CO[C@]4(C=C[C@H]5[C@@]6(C)CC[C@@H](O)[C@](C)(CO)[C@H]6CC[C@@]5(C)[C@@]4(C)C[C@@H]2O)[C@@H]3C1
REMARK SMILES IDX 1 1 2 2 4 3 5 4 6 5 7 6 8 7 9 8 33 9 34 10 10 11 11 12 12 13
REMARK SMILES IDX 13 14 15 15 16 16 17 17 19 18 23 19 24 20 25 21 26 22 28 23
REMARK SMILES IDX 30 24 31 25 29 26 27 27 20 28 14 29 3 30 32 31 21 33 22 34
REMARK SMILES IDX 18 36
REMARK H PARENT 32 32 22 35 18 37
REMARK Flexibility Score: inf
ROOT
ATOM      1  C   UNL     1      32.998  12.881  53.202  1.00  0.00     0.011 C 
ATOM      2  C   UNL     1      34.453  13.076  53.688  1.00  0.00    -0.035 C 
ATOM      3  C   UNL     1      34.676  12.382  55.049  1.00  0.00     0.007 C 
ATOM      4  C   UNL     1      34.641  10.852  54.950  1.00  0.00     0.013 C 
ATOM      5  C   UNL     1      35.549  10.264  53.837  1.00  0.00     0.026 C 
ATOM      6  C   UNL     1      37.050  10.446  54.117  1.00  0.00     0.171 C 
ATOM      7  O   UNL     1      37.719  10.494  52.868  1.00  0.00    -0.369 OA
ATOM      8  C   UNL     1      36.747  10.400  51.846  1.00  0.00     0.096 C 
ATOM      9  C   UNL     1      35.448  10.974  52.499  1.00  0.00     0.037 C 
ATOM     10  C   UNL     1      35.462  12.530  52.647  1.00  0.00     0.014 C 
ATOM     11  C   UNL     1      37.182  11.193  50.630  1.00  0.00     0.005 C 
ATOM     12  C   UNL     1      38.140  10.747  49.813  1.00  0.00    -0.024 C 
ATOM     13  C   UNL     1      38.948   9.505  50.110  1.00  0.00     0.024 C 
ATOM     14  C   UNL     1      40.424   9.858  50.716  1.00  0.00    -0.022 C 
ATOM     15  C   UNL     1      40.445  11.298  51.344  1.00  0.00     0.010 C 
ATOM     16  C   UNL     1      41.718  11.669  52.102  1.00  0.00     0.033 C 
ATOM     17  C   UNL     1      41.983  10.685  53.240  1.00  0.00     0.123 C 
ATOM     18  C   UNL     1      42.193   9.235  52.713  1.00  0.00     0.020 C 
ATOM     19  C   UNL     1      40.984   8.776  51.758  1.00  0.00     0.006 C 
ATOM     20  C   UNL     1      39.823   8.109  52.533  1.00  0.00     0.005 C 
ATOM     21  C   UNL     1      38.894   7.388  51.575  1.00  0.00     0.008 C 
ATOM     22  C   UNL     1      38.021   8.327  50.693  1.00  0.00    -0.017 C 
ATOM     23  C   UNL     1      36.622   8.871  51.414  1.00  0.00     0.009 C 
ATOM     24  C   UNL     1      36.229   8.040  52.693  1.00  0.00     0.043 C 
ATOM     25  C   UNL     1      35.224   8.744  53.648  1.00  0.00     0.124 C 
ATOM     26  C   UNL     1      35.405   8.739  50.423  1.00  0.00     0.015 C 
ATOM     27  C   UNL     1      37.661   7.384  49.485  1.00  0.00     0.013 C 
ATOM     28  C   UNL     1      42.350   8.304  53.956  1.00  0.00     0.017 C 
ATOM     29  C   UNL     1      41.380   9.922  49.472  1.00  0.00     0.012 C 
ATOM     30  C   UNL     1      34.698  14.590  53.868  1.00  0.00     0.011 C 
ENDROOT
BRANCH  25  31
ATOM     31  O   UNL     1      33.904   8.573  53.194  1.00  0.00    -0.392 OA
ATOM     32  H   UNL     1      33.587   9.460  52.886  1.00  0.00     0.210 HD
ENDBRANCH  25  31
BRANCH  18  33
ATOM     33  C   UNL     1      43.558   9.116  51.953  1.00  0.00     0.165 C 
BRANCH  33  34
ATOM     34  O   UNL     1      44.466   8.296  52.646  1.00  0.00    -0.396 OA
ATOM     35  H   UNL     1      44.103   7.373  52.593  1.00  0.00     0.210 HD
ENDBRANCH  33  34
ENDBRANCH  18  33
BRANCH  17  36
ATOM     36  O   UNL     1      40.916  10.725  54.158  1.00  0.00    -0.392 OA
ATOM     37  H   UNL     1      40.773  11.677  54.398  1.00  0.00     0.210 HD
ENDBRANCH  17  36
TORSDOF 4
ENDMDL
MODEL 3
REMARK VINA RESULT:    -7.868      2.589      4.323
REMARK INTER + INTRA:          -9.090
REMARK INTER:                  -9.003
REMARK INTRA:                  -0.088
REMARK UNBOUND:                -0.073
REMARK SMILES CC1(C)CC[C@@]23CO[C@]4(C=C[C@H]5[C@@]6(C)CC[C@@H](O)[C@](C)(CO)[C@H]6CC[C@@]5(C)[C@@]4(C)C[C@@H]2O)[C@@H]3C1
REMARK SMILES IDX 1 1 2 2 4 3 5 4 6 5 7 6 8 7 9 8 33 9 34 10 10 11 11 12 12 13
REMARK SMILES IDX 13 14 15 15 16 16 17 17 19 18 23 19 24 20 25 21 26 22 28 23
REMARK SMILES IDX 30 24 31 25 29 26 27 27 20 28 14 29 3 30 32 31 21 33 22 34
REMARK SMILES IDX 18 36
REMARK H PARENT 32 32 22 35 18 37
REMARK Flexibility Score: inf
ROOT
ATOM      1  C   UNL     1      40.677  25.205  39.562  1.00  0.00     0.011 C 
ATOM      2  C   UNL     1      40.365  23.692  39.628  1.00  0.00    -0.035 C 
ATOM      3  C   UNL     1      40.319  23.204  41.092  1.00  0.00     0.007 C 
ATOM      4  C   UNL     1      39.112  23.751  41.865  1.00  0.00     0.013 C 
ATOM      5  C   UNL     1      37.753  23.559  41.142  1.00  0.00     0.026 C 
ATOM      6  C   UNL     1      37.319  22.087  41.040  1.00  0.00     0.171 C 
ATOM      7  O   UNL     1      36.502  21.957  39.889  1.00  0.00    -0.369 OA
ATOM      8  C   UNL     1      36.434  23.218  39.254  1.00  0.00     0.096 C 
ATOM      9  C   UNL     1      37.764  23.927  39.668  1.00  0.00     0.037 C 
ATOM     10  C   UNL     1      39.022  23.373  38.925  1.00  0.00     0.014 C 
ATOM     11  C   UNL     1      36.314  23.046  37.753  1.00  0.00     0.005 C 
ATOM     12  C   UNL     1      35.169  22.656  37.186  1.00  0.00    -0.024 C 
ATOM     13  C   UNL     1      33.966  22.228  37.994  1.00  0.00     0.024 C 
ATOM     14  C   UNL     1      33.818  20.602  38.067  1.00  0.00    -0.022 C 
ATOM     15  C   UNL     1      35.192  19.898  37.780  1.00  0.00     0.010 C 
ATOM     16  C   UNL     1      35.219  18.388  38.000  1.00  0.00     0.033 C 
ATOM     17  C   UNL     1      34.833  18.037  39.435  1.00  0.00     0.123 C 
ATOM     18  C   UNL     1      33.387  18.504  39.776  1.00  0.00     0.020 C 
ATOM     19  C   UNL     1      33.178  20.061  39.434  1.00  0.00     0.006 C 
ATOM     20  C   UNL     1      33.540  20.992  40.616  1.00  0.00     0.005 C 
ATOM     21  C   UNL     1      32.997  22.388  40.374  1.00  0.00     0.008 C 
ATOM     22  C   UNL     1      33.742  23.187  39.266  1.00  0.00    -0.017 C 
ATOM     23  C   UNL     1      35.125  23.967  39.768  1.00  0.00     0.009 C 
ATOM     24  C   UNL     1      35.223  24.090  41.335  1.00  0.00     0.043 C 
ATOM     25  C   UNL     1      36.648  24.389  41.880  1.00  0.00     0.124 C 
ATOM     26  C   UNL     1      35.155  25.442  39.216  1.00  0.00     0.015 C 
ATOM     27  C   UNL     1      32.654  24.249  38.855  1.00  0.00     0.013 C 
ATOM     28  C   UNL     1      33.139  18.192  41.285  1.00  0.00     0.017 C 
ATOM     29  C   UNL     1      32.882  20.215  36.868  1.00  0.00     0.012 C 
ATOM     30  C   UNL     1      41.497  22.938  38.899  1.00  0.00     0.011 C 
ENDROOT
BRANCH  25  31
ATOM     31  O   UNL     1      36.930  25.764  41.805  1.00  0.00    -0.392 OA
ATOM     32  H   UNL     1      36.718  26.053  40.881  1.00  0.00     0.210 HD
ENDBRANCH  25  31
BRANCH  18  33
ATOM     33  C   UNL     1      32.332  17.635  39.012  1.00  0.00     0.165 C 
BRANCH  33  34
ATOM     34  O   UNL     1      32.488  16.266  39.291  1.00  0.00    -0.396 OA
ATOM     35  H   UNL     1      32.897  16.213  40.195  1.00  0.00     0.210 HD
ENDBRANCH  33  34
ENDBRANCH  18  33
BRANCH  17  36
ATOM     36  O   UNL     1      35.760  18.611  40.327  1.00  0.00    -0.392 OA
ATOM     37  H   UNL     1      35.826  18.005  41.110  1.00  0.00     0.210 HD
ENDBRANCH  17  36
TORSDOF 4
ENDMDL
MODEL 4
REMARK VINA RESULT:    -7.778     10.594     16.053
REMARK INTER + INTRA:          -8.987
REMARK INTER:                  -8.918
REMARK INTRA:                  -0.069
REMARK UNBOUND:                -0.073
REMARK SMILES CC1(C)CC[C@@]23CO[C@]4(C=C[C@H]5[C@@]6(C)CC[C@@H](O)[C@](C)(CO)[C@H]6CC[C@@]5(C)[C@@]4(C)C[C@@H]2O)[C@@H]3C1
REMARK SMILES IDX 1 1 2 2 4 3 5 4 6 5 7 6 8 7 9 8 33 9 34 10 10 11 11 12 12 13
REMARK SMILES IDX 13 14 15 15 16 16 17 17 19 18 23 19 24 20 25 21 26 22 28 23
REMARK SMILES IDX 30 24 31 25 29 26 27 27 20 28 14 29 3 30 32 31 21 33 22 34
REMARK SMILES IDX 18 36
REMARK H PARENT 32 32 22 35 18 37
REMARK Flexibility Score: inf
ROOT
ATOM      1  C   UNL     1      37.263   6.875  52.283  1.00  0.00     0.011 C 
ATOM      2  C   UNL     1      36.748   7.708  51.087  1.00  0.00    -0.035 C 
ATOM      3  C   UNL     1      35.279   7.357  50.764  1.00  0.00     0.007 C 
ATOM      4  C   UNL     1      34.302   7.829  51.847  1.00  0.00     0.013 C 
ATOM      5  C   UNL     1      34.471   9.317  52.254  1.00  0.00     0.026 C 
ATOM      6  C   UNL     1      34.078  10.301  51.139  1.00  0.00     0.171 C 
ATOM      7  O   UNL     1      34.832  11.487  51.326  1.00  0.00    -0.369 OA
ATOM      8  C   UNL     1      35.684  11.295  52.438  1.00  0.00     0.096 C 
ATOM      9  C   UNL     1      35.908   9.749  52.485  1.00  0.00     0.037 C 
ATOM     10  C   UNL     1      36.874   9.225  51.373  1.00  0.00     0.014 C 
ATOM     11  C   UNL     1      36.978  12.060  52.248  1.00  0.00     0.005 C 
ATOM     12  C   UNL     1      37.030  13.388  52.389  1.00  0.00    -0.024 C 
ATOM     13  C   UNL     1      35.795  14.230  52.609  1.00  0.00     0.024 C 
ATOM     14  C   UNL     1      35.300  14.970  51.237  1.00  0.00    -0.022 C 
ATOM     15  C   UNL     1      35.852  14.228  49.968  1.00  0.00     0.010 C 
ATOM     16  C   UNL     1      35.308  14.719  48.628  1.00  0.00     0.033 C 
ATOM     17  C   UNL     1      33.786  14.605  48.581  1.00  0.00     0.123 C 
ATOM     18  C   UNL     1      33.106  15.479  49.677  1.00  0.00     0.020 C 
ATOM     19  C   UNL     1      33.713  15.169  51.133  1.00  0.00     0.006 C 
ATOM     20  C   UNL     1      32.967  14.028  51.866  1.00  0.00     0.005 C 
ATOM     21  C   UNL     1      33.334  14.018  53.338  1.00  0.00     0.008 C 
ATOM     22  C   UNL     1      34.780  13.527  53.640  1.00  0.00    -0.017 C 
ATOM     23  C   UNL     1      34.958  11.874  53.731  1.00  0.00     0.009 C 
ATOM     24  C   UNL     1      33.585  11.119  53.892  1.00  0.00     0.043 C 
ATOM     25  C   UNL     1      33.625   9.605  53.540  1.00  0.00     0.124 C 
ATOM     26  C   UNL     1      35.815  11.482  54.993  1.00  0.00     0.015 C 
ATOM     27  C   UNL     1      35.044  14.168  55.054  1.00  0.00     0.013 C 
ATOM     28  C   UNL     1      31.571  15.206  49.606  1.00  0.00     0.017 C 
ATOM     29  C   UNL     1      35.999  16.375  51.247  1.00  0.00     0.012 C 
ATOM     30  C   UNL     1      37.613   7.363  49.856  1.00  0.00     0.011 C 
ENDROOT
BRANCH  25  31
ATOM     31  O   UNL     1      34.107   8.855  54.627  1.00  0.00    -0.392 OA
ATOM     32  H   UNL     1      34.584   9.486  55.224  1.00  0.00     0.210 HD
ENDBRANCH  25  31
BRANCH  18  33
ATOM     33  C   UNL     1      33.256  17.001  49.341  1.00  0.00     0.165 C 
BRANCH  33  34
ATOM     34  O   UNL     1      32.450  17.372  48.250  1.00  0.00    -0.396 OA
ATOM     35  H   UNL     1      31.926  18.161  48.549  1.00  0.00     0.210 HD
ENDBRANCH  33  34
ENDBRANCH  18  33
BRANCH  17  36
ATOM     36  O   UNL     1      33.409  13.256  48.722  1.00  0.00    -0.392 OA
ATOM     37  H   UNL     1      32.452  13.192  48.467  1.00  0.00     0.210 HD
ENDBRANCH  17  36
TORSDOF 4
ENDMDL
MODEL 5
REMARK VINA RESULT:    -7.664     12.294     17.047
REMARK INTER + INTRA:          -8.857
REMARK INTER:                  -8.791
REMARK INTRA:                  -0.066
REMARK UNBOUND:                -0.073
REMARK SMILES CC1(C)CC[C@@]23CO[C@]4(C=C[C@H]5[C@@]6(C)CC[C@@H](O)[C@](C)(CO)[C@H]6CC[C@@]5(C)[C@@]4(C)C[C@@H]2O)[C@@H]3C1
REMARK SMILES IDX 1 1 2 2 4 3 5 4 6 5 7 6 8 7 9 8 33 9 34 10 10 11 11 12 12 13
REMARK SMILES IDX 13 14 15 15 16 16 17 17 19 18 23 19 24 20 25 21 26 22 28 23
REMARK SMILES IDX 30 24 31 25 29 26 27 27 20 28 14 29 3 30 32 31 21 33 22 34
REMARK SMILES IDX 18 36
REMARK H PARENT 32 32 22 35 18 37
REMARK Flexibility Score: inf
ROOT
ATOM      1  C   UNL     1      41.537   7.798  53.193  1.00  0.00     0.011 C 
ATOM      2  C   UNL     1      41.211   9.284  52.920  1.00  0.00    -0.035 C 
ATOM      3  C   UNL     1      41.336   9.607  51.415  1.00  0.00     0.007 C 
ATOM      4  C   UNL     1      40.241   8.944  50.571  1.00  0.00     0.013 C 
ATOM      5  C   UNL     1      38.801   9.174  51.102  1.00  0.00     0.026 C 
ATOM      6  C   UNL     1      38.335  10.635  50.984  1.00  0.00     0.171 C 
ATOM      7  O   UNL     1      37.381  10.867  52.008  1.00  0.00    -0.369 OA
ATOM      8  C   UNL     1      37.257   9.682  52.768  1.00  0.00     0.096 C 
ATOM      9  C   UNL     1      38.638   8.971  52.598  1.00  0.00     0.037 C 
ATOM     10  C   UNL     1      39.788   9.640  53.418  1.00  0.00     0.014 C 
ATOM     11  C   UNL     1      36.953  10.014  54.215  1.00  0.00     0.005 C 
ATOM     12  C   UNL     1      35.742  10.430  54.595  1.00  0.00    -0.024 C 
ATOM     13  C   UNL     1      34.639  10.731  53.607  1.00  0.00     0.024 C 
ATOM     14  C   UNL     1      34.476  12.334  53.334  1.00  0.00    -0.022 C 
ATOM     15  C   UNL     1      35.793  13.105  53.702  1.00  0.00     0.010 C 
ATOM     16  C   UNL     1      35.823  14.583  53.318  1.00  0.00     0.033 C 
ATOM     17  C   UNL     1      35.609  14.762  51.816  1.00  0.00     0.123 C 
ATOM     18  C   UNL     1      34.222  14.218  51.361  1.00  0.00     0.020 C 
ATOM     19  C   UNL     1      33.998  12.703  51.848  1.00  0.00     0.006 C 
ATOM     20  C   UNL     1      34.515  11.659  50.831  1.00  0.00     0.005 C 
ATOM     21  C   UNL     1      33.969  10.283  51.161  1.00  0.00     0.008 C 
ATOM     22  C   UNL     1      34.586   9.632  52.433  1.00  0.00    -0.017 C 
ATOM     23  C   UNL     1      36.032   8.843  52.190  1.00  0.00     0.009 C 
ATOM     24  C   UNL     1      36.322   8.551  50.670  1.00  0.00     0.043 C 
ATOM     25  C   UNL     1      37.807   8.236  50.336  1.00  0.00     0.124 C 
ATOM     26  C   UNL     1      36.019   7.439  52.904  1.00  0.00     0.015 C 
ATOM     27  C   UNL     1      33.473   8.591  52.829  1.00  0.00     0.013 C 
ATOM     28  C   UNL     1      34.154  14.355  49.807  1.00  0.00     0.017 C 
ATOM     29  C   UNL     1      33.395  12.823  54.362  1.00  0.00     0.012 C 
ATOM     30  C   UNL     1      42.235  10.147  53.689  1.00  0.00     0.011 C 
ENDROOT
BRANCH  25  31
ATOM     31  O   UNL     1      38.100   6.886  50.598  1.00  0.00    -0.392 OA
ATOM     32  H   UNL     1      37.941   6.738  51.565  1.00  0.00     0.210 HD
ENDBRANCH  25  31
BRANCH  18  33
ATOM     33  C   UNL     1      33.068  15.135  51.891  1.00  0.00     0.165 C 
BRANCH  33  34
ATOM     34  O   UNL     1      32.023  15.244  50.957  1.00  0.00    -0.396 OA
ATOM     35  H   UNL     1      31.430  14.463  51.112  1.00  0.00     0.210 HD
ENDBRANCH  33  34
ENDBRANCH  18  33
BRANCH  17  36
ATOM     36  O   UNL     1      36.646  14.121  51.111  1.00  0.00    -0.392 OA
ATOM     37  H   UNL     1      37.392  13.986  51.750  1.00  0.00     0.210 HD
ENDBRANCH  17  36
TORSDOF 4
ENDMDL
MODEL 6
REMARK VINA RESULT:    -7.635      2.719      6.549
REMARK INTER + INTRA:          -8.823
REMARK INTER:                  -8.686
REMARK INTRA:                  -0.138
REMARK UNBOUND:                -0.073
REMARK SMILES CC1(C)CC[C@@]23CO[C@]4(C=C[C@H]5[C@@]6(C)CC[C@@H](O)[C@](C)(CO)[C@H]6CC[C@@]5(C)[C@@]4(C)C[C@@H]2O)[C@@H]3C1
REMARK SMILES IDX 1 1 2 2 4 3 5 4 6 5 7 6 8 7 9 8 33 9 34 10 10 11 11 12 12 13
REMARK SMILES IDX 13 14 15 15 16 16 17 17 19 18 23 19 24 20 25 21 26 22 28 23
REMARK SMILES IDX 30 24 31 25 29 26 27 27 20 28 14 29 3 30 32 31 21 33 22 34
REMARK SMILES IDX 18 36
REMARK H PARENT 32 32 22 35 18 37
REMARK Flexibility Score: inf
ROOT
ATOM      1  C   UNL     1      30.964  18.528  42.543  1.00  0.00     0.011 C 
ATOM      2  C   UNL     1      32.478  18.375  42.816  1.00  0.00    -0.035 C 
ATOM      3  C   UNL     1      33.044  17.131  42.096  1.00  0.00     0.007 C 
ATOM      4  C   UNL     1      33.072  17.288  40.571  1.00  0.00     0.013 C 
ATOM      5  C   UNL     1      33.734  18.602  40.078  1.00  0.00     0.026 C 
ATOM      6  C   UNL     1      35.247  18.660  40.347  1.00  0.00     0.171 C 
ATOM      7  O   UNL     1      35.610  20.025  40.477  1.00  0.00    -0.369 OA
ATOM      8  C   UNL     1      34.437  20.804  40.352  1.00  0.00     0.096 C 
ATOM      9  C   UNL     1      33.292  19.850  40.821  1.00  0.00     0.037 C 
ATOM     10  C   UNL     1      33.252  19.639  42.369  1.00  0.00     0.014 C 
ATOM     11  C   UNL     1      34.539  22.050  41.209  1.00  0.00     0.005 C 
ATOM     12  C   UNL     1      35.309  23.081  40.851  1.00  0.00    -0.024 C 
ATOM     13  C   UNL     1      36.231  23.030  39.655  1.00  0.00     0.024 C 
ATOM     14  C   UNL     1      37.785  22.758  40.084  1.00  0.00    -0.022 C 
ATOM     15  C   UNL     1      37.868  22.087  41.502  1.00  0.00     0.010 C 
ATOM     16  C   UNL     1      39.257  21.620  41.930  1.00  0.00     0.033 C 
ATOM     17  C   UNL     1      39.829  20.616  40.931  1.00  0.00     0.123 C 
ATOM     18  C   UNL     1      39.995  21.241  39.515  1.00  0.00     0.020 C 
ATOM     19  C   UNL     1      38.627  21.918  39.009  1.00  0.00     0.006 C 
ATOM     20  C   UNL     1      37.712  20.932  38.245  1.00  0.00     0.005 C 
ATOM     21  C   UNL     1      36.631  21.687  37.495  1.00  0.00     0.008 C 
ATOM     22  C   UNL     1      35.529  22.306  38.402  1.00  0.00    -0.017 C 
ATOM     23  C   UNL     1      34.303  21.264  38.833  1.00  0.00     0.009 C 
ATOM     24  C   UNL     1      34.259  19.968  37.939  1.00  0.00     0.043 C 
ATOM     25  C   UNL     1      33.460  18.781  38.546  1.00  0.00     0.124 C 
ATOM     26  C   UNL     1      32.901  21.960  38.653  1.00  0.00     0.015 C 
ATOM     27  C   UNL     1      34.957  23.444  37.475  1.00  0.00     0.013 C 
ATOM     28  C   UNL     1      40.482  20.109  38.558  1.00  0.00     0.017 C 
ATOM     29  C   UNL     1      38.427  24.181  40.248  1.00  0.00     0.012 C 
ATOM     30  C   UNL     1      32.672  18.187  44.336  1.00  0.00     0.011 C 
ENDROOT
BRANCH  25  31
ATOM     31  O   UNL     1      32.084  18.933  38.304  1.00  0.00    -0.392 OA
ATOM     32  H   UNL     1      31.621  18.793  39.169  1.00  0.00     0.210 HD
ENDBRANCH  25  31
BRANCH  18  33
ATOM     33  C   UNL     1      41.155  22.294  39.508  1.00  0.00     0.165 C 
BRANCH  33  34
ATOM     34  O   UNL     1      41.189  23.018  38.303  1.00  0.00    -0.396 OA
ATOM     35  H   UNL     1      41.024  23.967  38.545  1.00  0.00     0.210 HD
ENDBRANCH  33  34
ENDBRANCH  18  33
BRANCH  17  36
ATOM     36  O   UNL     1      38.998  19.480  40.874  1.00  0.00    -0.392 OA
ATOM     37  H   UNL     1      39.590  18.684  40.902  1.00  0.00     0.210 HD
ENDBRANCH  17  36
TORSDOF 4
ENDMDL
MODEL 7
REMARK VINA RESULT:    -7.548     11.232     15.665
REMARK INTER + INTRA:          -8.724
REMARK INTER:                  -8.587
REMARK INTRA:                  -0.137
REMARK UNBOUND:                -0.073
REMARK SMILES CC1(C)CC[C@@]23CO[C@]4(C=C[C@H]5[C@@]6(C)CC[C@@H](O)[C@](C)(CO)[C@H]6CC[C@@]5(C)[C@@]4(C)C[C@@H]2O)[C@@H]3C1
REMARK SMILES IDX 1 1 2 2 4 3 5 4 6 5 7 6 8 7 9 8 33 9 34 10 10 11 11 12 12 13
REMARK SMILES IDX 13 14 15 15 16 16 17 17 19 18 23 19 24 20 25 21 26 22 28 23
REMARK SMILES IDX 30 24 31 25 29 26 27 27 20 28 14 29 3 30 32 31 21 33 22 34
REMARK SMILES IDX 18 36
REMARK H PARENT 32 32 22 35 18 37
REMARK Flexibility Score: inf
ROOT
ATOM      1  C   UNL     1      31.565  14.483  49.319  1.00  0.00     0.011 C 
ATOM      2  C   UNL     1      33.090  14.599  49.093  1.00  0.00    -0.035 C 
ATOM      3  C   UNL     1      33.643  15.898  49.717  1.00  0.00     0.007 C 
ATOM      4  C   UNL     1      33.609  15.883  51.250  1.00  0.00     0.013 C 
ATOM      5  C   UNL     1      34.237  14.615  51.888  1.00  0.00     0.026 C 
ATOM      6  C   UNL     1      35.758  14.521  51.686  1.00  0.00     0.171 C 
ATOM      7  O   UNL     1      36.110  13.147  51.696  1.00  0.00    -0.369 OA
ATOM      8  C   UNL     1      34.925  12.392  51.846  1.00  0.00     0.096 C 
ATOM      9  C   UNL     1      33.809  13.307  51.246  1.00  0.00     0.037 C 
ATOM     10  C   UNL     1      33.832  13.375  49.685  1.00  0.00     0.014 C 
ATOM     11  C   UNL     1      35.046  11.071  51.112  1.00  0.00     0.005 C 
ATOM     12  C   UNL     1      35.789  10.072  51.594  1.00  0.00    -0.024 C 
ATOM     13  C   UNL     1      36.665  10.226  52.816  1.00  0.00     0.024 C 
ATOM     14  C   UNL     1      38.237  10.445  52.426  1.00  0.00    -0.022 C 
ATOM     15  C   UNL     1      38.382  10.981  50.957  1.00  0.00     0.010 C 
ATOM     16  C   UNL     1      39.792  11.396  50.542  1.00  0.00     0.033 C 
ATOM     17  C   UNL     1      40.337  12.483  51.467  1.00  0.00     0.123 C 
ATOM     18  C   UNL     1      40.440  11.990  52.941  1.00  0.00     0.020 C 
ATOM     19  C   UNL     1      39.046  11.374  53.452  1.00  0.00     0.006 C 
ATOM     20  C   UNL     1      38.113  12.434  54.085  1.00  0.00     0.005 C 
ATOM     21  C   UNL     1      36.995  11.760  54.857  1.00  0.00     0.008 C 
ATOM     22  C   UNL     1      35.922  11.068  53.968  1.00  0.00    -0.017 C 
ATOM     23  C   UNL     1      34.726  12.075  53.395  1.00  0.00     0.009 C 
ATOM     24  C   UNL     1      34.662  13.449  54.163  1.00  0.00     0.043 C 
ATOM     25  C   UNL     1      33.901  14.581  53.418  1.00  0.00     0.124 C 
ATOM     26  C   UNL     1      33.311  11.410  53.582  1.00  0.00     0.015 C 
ATOM     27  C   UNL     1      35.301  10.026  54.972  1.00  0.00     0.013 C 
ATOM     28  C   UNL     1      40.902  13.203  53.807  1.00  0.00     0.017 C 
ATOM     29  C   UNL     1      38.868   9.008  52.419  1.00  0.00     0.012 C 
ATOM     30  C   UNL     1      33.346  14.643  47.571  1.00  0.00     0.011 C 
ENDROOT
BRANCH  25  31
ATOM     31  O   UNL     1      32.515  14.463  53.617  1.00  0.00    -0.392 OA
ATOM     32  H   UNL     1      32.079  15.125  53.023  1.00  0.00     0.210 HD
ENDBRANCH  25  31
BRANCH  18  33
ATOM     33  C   UNL     1      41.586  10.934  53.090  1.00  0.00     0.165 C 
BRANCH  33  34
ATOM     34  O   UNL     1      41.557  10.314  54.352  1.00  0.00    -0.396 OA
ATOM     35  H   UNL     1      42.476   9.974  54.516  1.00  0.00     0.210 HD
ENDBRANCH  33  34
ENDBRANCH  18  33
BRANCH  17  36
ATOM     36  O   UNL     1      39.517  13.626  51.386  1.00  0.00    -0.392 OA
ATOM     37  H   UNL     1      39.982  14.353  51.875  1.00  0.00     0.210 HD
ENDBRANCH  17  36
TORSDOF 4
ENDMDL
MODEL 8
REMARK VINA RESULT:    -7.532      3.738      7.482
REMARK INTER + INTRA:          -8.705
REMARK INTER:                  -8.651
REMARK INTRA:                  -0.055
REMARK UNBOUND:                -0.073
REMARK SMILES CC1(C)CC[C@@]23CO[C@]4(C=C[C@H]5[C@@]6(C)CC[C@@H](O)[C@](C)(CO)[C@H]6CC[C@@]5(C)[C@@]4(C)C[C@@H]2O)[C@@H]3C1
REMARK SMILES IDX 1 1 2 2 4 3 5 4 6 5 7 6 8 7 9 8 33 9 34 10 10 11 11 12 12 13
REMARK SMILES IDX 13 14 15 15 16 16 17 17 19 18 23 19 24 20 25 21 26 22 28 23
REMARK SMILES IDX 30 24 31 25 29 26 27 27 20 28 14 29 3 30 32 31 21 33 22 34
REMARK SMILES IDX 18 36
REMARK H PARENT 32 32 22 35 18 37
REMARK Flexibility Score: inf
ROOT
ATOM      1  C   UNL     1      32.826  20.088  38.674  1.00  0.00     0.011 C 
ATOM      2  C   UNL     1      34.331  20.004  38.329  1.00  0.00    -0.035 C 
ATOM      3  C   UNL     1      34.635  20.743  37.009  1.00  0.00     0.007 C 
ATOM      4  C   UNL     1      34.483  22.265  37.129  1.00  0.00     0.013 C 
ATOM      5  C   UNL     1      35.236  22.886  38.335  1.00  0.00     0.026 C 
ATOM      6  C   UNL     1      36.767  22.814  38.200  1.00  0.00     0.171 C 
ATOM      7  O   UNL     1      37.314  22.782  39.508  1.00  0.00    -0.369 OA
ATOM      8  C   UNL     1      36.243  22.786  40.431  1.00  0.00     0.096 C 
ATOM      9  C   UNL     1      35.057  22.140  39.645  1.00  0.00     0.037 C 
ATOM     10  C   UNL     1      35.194  20.593  39.473  1.00  0.00     0.014 C 
ATOM     11  C   UNL     1      36.614  21.995  41.670  1.00  0.00     0.005 C 
ATOM     12  C   UNL     1      37.455  22.487  42.584  1.00  0.00    -0.024 C 
ATOM     13  C   UNL     1      38.199  23.788  42.389  1.00  0.00     0.024 C 
ATOM     14  C   UNL     1      39.748  23.550  41.925  1.00  0.00    -0.022 C 
ATOM     15  C   UNL     1      39.930  22.130  41.278  1.00  0.00     0.010 C 
ATOM     16  C   UNL     1      41.292  21.865  40.642  1.00  0.00     0.033 C 
ATOM     17  C   UNL     1      41.597  22.891  39.552  1.00  0.00     0.123 C 
ATOM     18  C   UNL     1      41.653  24.339  40.121  1.00  0.00     0.020 C 
ATOM     19  C   UNL     1      40.328  24.692  40.960  1.00  0.00     0.006 C 
ATOM     20  C   UNL     1      39.203  25.296  40.087  1.00  0.00     0.005 C 
ATOM     21  C   UNL     1      38.138  25.930  40.961  1.00  0.00     0.008 C 
ATOM     22  C   UNL     1      37.252  24.913  41.738  1.00  0.00    -0.017 C 
ATOM     23  C   UNL     1      35.971  24.292  40.874  1.00  0.00     0.009 C 
ATOM     24  C   UNL     1      35.646  25.124  39.577  1.00  0.00     0.043 C 
ATOM     25  C   UNL     1      34.789  24.376  38.517  1.00  0.00     0.124 C 
ATOM     26  C   UNL     1      34.657  24.317  41.744  1.00  0.00     0.015 C 
ATOM     27  C   UNL     1      36.712  25.801  42.921  1.00  0.00     0.013 C 
ATOM     28  C   UNL     1      41.863  25.307  38.915  1.00  0.00     0.017 C 
ATOM     29  C   UNL     1      40.581  23.522  43.255  1.00  0.00     0.012 C 
ATOM     30  C   UNL     1      34.697  18.515  38.149  1.00  0.00     0.011 C 
ENDROOT
BRANCH  25  31
ATOM     31  O   UNL     1      33.423  24.446  38.843  1.00  0.00    -0.392 OA
ATOM     32  H   UNL     1      32.919  24.369  37.994  1.00  0.00     0.210 HD
ENDBRANCH  25  31
BRANCH  18  33
ATOM     33  C   UNL     1      42.926  24.533  41.012  1.00  0.00     0.165 C 
BRANCH  33  34
ATOM     34  O   UNL     1      43.711  25.611  40.567  1.00  0.00    -0.396 OA
ATOM     35  H   UNL     1      43.937  26.142  41.375  1.00  0.00     0.210 HD
ENDBRANCH  33  34
ENDBRANCH  18  33
BRANCH  17  36
ATOM     36  O   UNL     1      40.628  22.799  38.533  1.00  0.00    -0.392 OA
ATOM     37  H   UNL     1      40.482  23.717  38.186  1.00  0.00     0.210 HD
ENDBRANCH  17  36
TORSDOF 4
ENDMDL
MODEL 9
REMARK VINA RESULT:    -7.487      9.090     14.246
REMARK INTER + INTRA:          -8.654
REMARK INTER:                  -8.587
REMARK INTRA:                  -0.067
REMARK UNBOUND:                -0.073
REMARK SMILES CC1(C)CC[C@@]23CO[C@]4(C=C[C@H]5[C@@]6(C)CC[C@@H](O)[C@](C)(CO)[C@H]6CC[C@@]5(C)[C@@]4(C)C[C@@H]2O)[C@@H]3C1
REMARK SMILES IDX 1 1 2 2 4 3 5 4 6 5 7 6 8 7 9 8 33 9 34 10 10 11 11 12 12 13
REMARK SMILES IDX 13 14 15 15 16 16 17 17 19 18 23 19 24 20 25 21 26 22 28 23
REMARK SMILES IDX 30 24 31 25 29 26 27 27 20 28 14 29 3 30 32 31 21 33 22 34
REMARK SMILES IDX 18 36
REMARK H PARENT 32 32 22 35 18 37
REMARK Flexibility Score: inf
ROOT
ATOM      1  C   UNL     1      35.873   9.626  54.674  1.00  0.00     0.011 C 
ATOM      2  C   UNL     1      34.746   9.743  53.622  1.00  0.00    -0.035 C 
ATOM      3  C   UNL     1      33.479  10.371  54.240  1.00  0.00     0.007 C 
ATOM      4  C   UNL     1      33.659  11.853  54.591  1.00  0.00     0.013 C 
ATOM      5  C   UNL     1      34.236  12.715  53.437  1.00  0.00     0.026 C 
ATOM      6  C   UNL     1      33.268  12.871  52.251  1.00  0.00     0.171 C 
ATOM      7  O   UNL     1      34.047  13.070  51.083  1.00  0.00    -0.369 OA
ATOM      8  C   UNL     1      35.411  13.007  51.449  1.00  0.00     0.096 C 
ATOM      9  C   UNL     1      35.424  12.099  52.721  1.00  0.00     0.037 C 
ATOM     10  C   UNL     1      35.210  10.583  52.406  1.00  0.00     0.014 C 
ATOM     11  C   UNL     1      36.233  12.426  50.316  1.00  0.00     0.005 C 
ATOM     12  C   UNL     1      36.519  13.142  49.225  1.00  0.00    -0.024 C 
ATOM     13  C   UNL     1      35.937  14.515  48.977  1.00  0.00     0.024 C 
ATOM     14  C   UNL     1      34.687  14.475  47.925  1.00  0.00    -0.022 C 
ATOM     15  C   UNL     1      34.053  13.039  47.858  1.00  0.00     0.010 C 
ATOM     16  C   UNL     1      32.765  12.924  47.047  1.00  0.00     0.033 C 
ATOM     17  C   UNL     1      31.688  13.859  47.594  1.00  0.00     0.123 C 
ATOM     18  C   UNL     1      32.124  15.352  47.515  1.00  0.00     0.020 C 
ATOM     19  C   UNL     1      33.559  15.580  48.201  1.00  0.00     0.006 C 
ATOM     20  C   UNL     1      33.462  15.900  49.712  1.00  0.00     0.005 C 
ATOM     21  C   UNL     1      34.781  16.449  50.222  1.00  0.00     0.008 C 
ATOM     22  C   UNL     1      35.923  15.398  50.322  1.00  0.00    -0.017 C 
ATOM     23  C   UNL     1      35.926  14.490  51.718  1.00  0.00     0.009 C 
ATOM     24  C   UNL     1      35.030  15.113  52.854  1.00  0.00     0.043 C 
ATOM     25  C   UNL     1      34.632  14.127  53.988  1.00  0.00     0.124 C 
ATOM     26  C   UNL     1      37.381  14.404  52.315  1.00  0.00     0.015 C 
ATOM     27  C   UNL     1      37.204  16.314  50.283  1.00  0.00     0.013 C 
ATOM     28  C   UNL     1      31.004  16.202  48.192  1.00  0.00     0.017 C 
ATOM     29  C   UNL     1      35.324  14.725  46.513  1.00  0.00     0.012 C 
ATOM     30  C   UNL     1      34.396   8.320  53.136  1.00  0.00     0.011 C 
ENDROOT
BRANCH  25  31
ATOM     31  O   UNL     1      35.666  14.016  54.934  1.00  0.00    -0.392 OA
ATOM     32  H   UNL     1      35.453  14.644  55.671  1.00  0.00     0.210 HD
ENDBRANCH  25  31
BRANCH  18  33
ATOM     33  C   UNL     1      32.150  15.841  46.027  1.00  0.00     0.165 C 
BRANCH  33  34
ATOM     34  O   UNL     1      31.060  15.336  45.298  1.00  0.00    -0.396 OA
ATOM     35  H   UNL     1      31.445  14.778  44.572  1.00  0.00     0.210 HD
ENDBRANCH  33  34
ENDBRANCH  18  33
BRANCH  17  36
ATOM     36  O   UNL     1      31.385  13.504  48.923  1.00  0.00    -0.392 OA
ATOM     37  H   UNL     1      31.277  12.518  48.944  1.00  0.00     0.210 HD
ENDBRANCH  17  36
TORSDOF 4
ENDMDL
