MODEL 1
REMARK VINA RESULT:    -3.766      0.000      0.000
REMARK INTER + INTRA:          -4.459
REMARK INTER:                  -4.426
REMARK INTRA:                  -0.033
REMARK UNBOUND:                -0.033
REMARK SMILES CCCCC(=O)[O-]
REMARK SMILES IDX 4 1 5 2 6 3 7 4 3 5 2 6 1 7
REMARK H PARENT
REMARK Flexibility Score: inf
ROOT
ATOM      1  C   UNL     1      17.389  69.086  33.734  1.00  0.00     0.053 C 
ENDROOT
BRANCH   1   2
ATOM      2  C   UNL     1      17.700  70.140  34.753  1.00  0.00     0.041 C 
ATOM      3  O   UNL     1      18.277  69.830  35.830  1.00  0.00    -0.550 OA
ATOM      4  O   UNL     1      17.381  71.467  34.501  1.00  0.00    -0.550 OA
ENDBRANCH   1   2
BRANCH   1   5
ATOM      5  C   UNL     1      16.534  69.641  32.587  1.00  0.00     0.006 C 
BRANCH   5   6
ATOM      6  C   UNL     1      15.230  68.851  32.400  1.00  0.00    -0.003 C 
ATOM      7  C   UNL     1      14.568  69.189  31.068  1.00  0.00     0.004 C 
ENDBRANCH   5   6
ENDBRANCH   1   5
TORSDOF 3
ENDMDL
MODEL 2
REMARK VINA RESULT:    -3.699      0.805      1.544
REMARK INTER + INTRA:          -4.380
REMARK INTER:                  -4.349
REMARK INTRA:                  -0.031
REMARK UNBOUND:                -0.033
REMARK SMILES CCCCC(=O)[O-]
REMARK SMILES IDX 4 1 5 2 6 3 7 4 3 5 2 6 1 7
REMARK H PARENT
REMARK Flexibility Score: inf
ROOT
ATOM      1  C   UNL     1      16.591  69.711  32.894  1.00  0.00     0.053 C 
ENDROOT
BRANCH   1   2
ATOM      2  C   UNL     1      17.160  70.319  34.140  1.00  0.00     0.041 C 
ATOM      3  O   UNL     1      17.220  71.571  34.265  1.00  0.00    -0.550 OA
ATOM      4  O   UNL     1      17.595  69.503  35.176  1.00  0.00    -0.550 OA
ENDBRANCH   1   2
BRANCH   1   5
ATOM      5  C   UNL     1      15.626  68.561  33.214  1.00  0.00     0.006 C 
BRANCH   5   6
ATOM      6  C   UNL     1      14.859  68.085  31.971  1.00  0.00    -0.003 C 
ATOM      7  C   UNL     1      14.543  69.251  31.039  1.00  0.00     0.004 C 
ENDBRANCH   5   6
ENDBRANCH   1   5
TORSDOF 3
ENDMDL
MODEL 3
REMARK VINA RESULT:    -3.505      9.043      9.680
REMARK INTER + INTRA:          -4.153
REMARK INTER:                  -4.135
REMARK INTRA:                  -0.018
REMARK UNBOUND:                -0.033
REMARK SMILES CCCCC(=O)[O-]
REMARK SMILES IDX 4 1 5 2 6 3 7 4 3 5 2 6 1 7
REMARK H PARENT
REMARK Flexibility Score: inf
ROOT
ATOM      1  C   UNL     1      23.524  69.090  27.508  1.00  0.00     0.053 C 
ENDROOT
BRANCH   1   2
ATOM      2  C   UNL     1      22.046  68.974  27.721  1.00  0.00     0.041 C 
ATOM      3  O   UNL     1      21.253  69.722  27.090  1.00  0.00    -0.550 OA
ATOM      4  O   UNL     1      21.542  68.019  28.595  1.00  0.00    -0.550 OA
ENDBRANCH   1   2
BRANCH   1   5
ATOM      5  C   UNL     1      24.054  70.463  27.942  1.00  0.00     0.006 C 
BRANCH   5   6
ATOM      6  C   UNL     1      25.476  70.726  27.426  1.00  0.00    -0.003 C 
ATOM      7  C   UNL     1      25.768  72.222  27.354  1.00  0.00     0.004 C 
ENDBRANCH   5   6
ENDBRANCH   1   5
TORSDOF 3
ENDMDL
MODEL 4
REMARK VINA RESULT:    -3.505      1.024      1.368
REMARK INTER + INTRA:          -4.152
REMARK INTER:                  -4.114
REMARK INTRA:                  -0.039
REMARK UNBOUND:                -0.033
REMARK SMILES CCCCC(=O)[O-]
REMARK SMILES IDX 4 1 5 2 6 3 7 4 3 5 2 6 1 7
REMARK H PARENT
REMARK Flexibility Score: inf
ROOT
ATOM      1  C   UNL     1      17.481  69.021  33.408  1.00  0.00     0.053 C 
ENDROOT
BRANCH   1   2
ATOM      2  C   UNL     1      17.322  69.141  34.893  1.00  0.00     0.041 C 
ATOM      3  O   UNL     1      18.047  69.938  35.546  1.00  0.00    -0.550 OA
ATOM      4  O   UNL     1      16.353  68.396  35.551  1.00  0.00    -0.550 OA
ENDBRANCH   1   2
BRANCH   1   5
ATOM      5  C   UNL     1      16.340  69.719  32.657  1.00  0.00     0.006 C 
BRANCH   5   6
ATOM      6  C   UNL     1      15.223  68.743  32.260  1.00  0.00    -0.003 C 
ATOM      7  C   UNL     1      14.509  69.208  30.994  1.00  0.00     0.004 C 
ENDBRANCH   5   6
ENDBRANCH   1   5
TORSDOF 3
ENDMDL
MODEL 5
REMARK VINA RESULT:    -3.467      9.495     10.232
REMARK INTER + INTRA:          -4.108
REMARK INTER:                  -4.026
REMARK INTRA:                  -0.082
REMARK UNBOUND:                -0.033
REMARK SMILES CCCCC(=O)[O-]
REMARK SMILES IDX 4 1 5 2 6 3 7 4 3 5 2 6 1 7
REMARK H PARENT
REMARK Flexibility Score: inf
ROOT
ATOM      1  C   UNL     1      23.330  72.706  28.134  1.00  0.00     0.053 C 
ENDROOT
BRANCH   1   2
ATOM      2  C   UNL     1      24.674  72.095  27.876  1.00  0.00     0.041 C 
ATOM      3  O   UNL     1      25.639  72.817  27.511  1.00  0.00    -0.550 OA
ATOM      4  O   UNL     1      24.868  70.734  28.068  1.00  0.00    -0.550 OA
ENDBRANCH   1   2
BRANCH   1   5
ATOM      5  C   UNL     1      23.452  74.125  28.706  1.00  0.00     0.006 C 
BRANCH   5   6
ATOM      6  C   UNL     1      23.628  74.122  30.231  1.00  0.00    -0.003 C 
ATOM      7  C   UNL     1      24.588  75.222  30.676  1.00  0.00     0.004 C 
ENDBRANCH   5   6
ENDBRANCH   1   5
TORSDOF 3
ENDMDL
MODEL 6
REMARK VINA RESULT:    -3.462      9.325      9.852
REMARK INTER + INTRA:          -4.102
REMARK INTER:                  -4.080
REMARK INTRA:                  -0.023
REMARK UNBOUND:                -0.033
REMARK SMILES CCCCC(=O)[O-]
REMARK SMILES IDX 4 1 5 2 6 3 7 4 3 5 2 6 1 7
REMARK H PARENT
REMARK Flexibility Score: inf
ROOT
ATOM      1  C   UNL     1      23.797  74.286  30.119  1.00  0.00     0.053 C 
ENDROOT
BRANCH   1   2
ATOM      2  C   UNL     1      24.653  75.356  30.725  1.00  0.00     0.041 C 
ATOM      3  O   UNL     1      25.716  75.717  30.154  1.00  0.00    -0.550 OA
ATOM      4  O   UNL     1      24.262  75.976  31.904  1.00  0.00    -0.550 OA
ENDBRANCH   1   2
BRANCH   1   5
ATOM      5  C   UNL     1      24.160  74.033  28.650  1.00  0.00     0.006 C 
BRANCH   5   6
ATOM      6  C   UNL     1      23.521  72.747  28.107  1.00  0.00    -0.003 C 
ATOM      7  C   UNL     1      24.542  71.615  28.029  1.00  0.00     0.004 C 
ENDBRANCH   5   6
ENDBRANCH   1   5
TORSDOF 3
ENDMDL
MODEL 7
REMARK VINA RESULT:    -3.425      9.475     10.370
REMARK INTER + INTRA:          -4.059
REMARK INTER:                  -4.021
REMARK INTRA:                  -0.037
REMARK UNBOUND:                -0.033
REMARK SMILES CCCCC(=O)[O-]
REMARK SMILES IDX 4 1 5 2 6 3 7 4 3 5 2 6 1 7
REMARK H PARENT
REMARK Flexibility Score: inf
ROOT
ATOM      1  C   UNL     1      23.795  74.098  29.483  1.00  0.00     0.053 C 
ENDROOT
BRANCH   1   2
ATOM      2  C   UNL     1      23.563  73.044  28.444  1.00  0.00     0.041 C 
ATOM      3  O   UNL     1      24.517  72.326  28.044  1.00  0.00    -0.550 OA
ATOM      4  O   UNL     1      22.286  72.834  27.939  1.00  0.00    -0.550 OA
ENDBRANCH   1   2
BRANCH   1   5
ATOM      5  C   UNL     1      25.042  74.936  29.172  1.00  0.00     0.006 C 
BRANCH   5   6
ATOM      6  C   UNL     1      25.566  75.679  30.409  1.00  0.00    -0.003 C 
ATOM      7  C   UNL     1      24.522  75.699  31.522  1.00  0.00     0.004 C 
ENDBRANCH   5   6
ENDBRANCH   1   5
TORSDOF 3
ENDMDL
MODEL 8
REMARK VINA RESULT:    -3.365      2.562      3.998
REMARK INTER + INTRA:          -3.988
REMARK INTER:                  -3.931
REMARK INTRA:                  -0.057
REMARK UNBOUND:                -0.033
REMARK SMILES CCCCC(=O)[O-]
REMARK SMILES IDX 4 1 5 2 6 3 7 4 3 5 2 6 1 7
REMARK H PARENT
REMARK Flexibility Score: inf
ROOT
ATOM      1  C   UNL     1      16.525  69.750  32.736  1.00  0.00     0.053 C 
ENDROOT
BRANCH   1   2
ATOM      2  C   UNL     1      15.388  68.835  32.396  1.00  0.00     0.041 C 
ATOM      3  O   UNL     1      14.633  69.096  31.423  1.00  0.00    -0.550 OA
ATOM      4  O   UNL     1      15.181  67.678  33.136  1.00  0.00    -0.550 OA
ENDBRANCH   1   2
BRANCH   1   5
ATOM      5  C   UNL     1      17.458  69.131  33.785  1.00  0.00     0.006 C 
BRANCH   5   6
ATOM      6  C   UNL     1      17.809  70.120  34.905  1.00  0.00    -0.003 C 
ATOM      7  C   UNL     1      17.442  71.549  34.513  1.00  0.00     0.004 C 
ENDBRANCH   5   6
ENDBRANCH   1   5
TORSDOF 3
ENDMDL
MODEL 9
REMARK VINA RESULT:    -3.348      9.405      9.859
REMARK INTER + INTRA:          -3.968
REMARK INTER:                  -3.932
REMARK INTRA:                  -0.036
REMARK UNBOUND:                -0.033
REMARK SMILES CCCCC(=O)[O-]
REMARK SMILES IDX 4 1 5 2 6 3 7 4 3 5 2 6 1 7
REMARK H PARENT
REMARK Flexibility Score: inf
ROOT
ATOM      1  C   UNL     1      23.877  71.725  28.140  1.00  0.00     0.053 C 
ENDROOT
BRANCH   1   2
ATOM      2  C   UNL     1      24.278  73.164  28.266  1.00  0.00     0.041 C 
ATOM      3  O   UNL     1      23.580  73.960  28.947  1.00  0.00    -0.550 OA
ATOM      4  O   UNL     1      25.440  73.618  27.656  1.00  0.00    -0.550 OA
ENDBRANCH   1   2
BRANCH   1   5
ATOM      5  C   UNL     1      25.070  70.834  27.771  1.00  0.00     0.006 C 
BRANCH   5   6
ATOM      6  C   UNL     1      24.635  69.412  27.389  1.00  0.00    -0.003 C 
ATOM      7  C   UNL     1      23.161  69.182  27.710  1.00  0.00     0.004 C 
ENDBRANCH   5   6
ENDBRANCH   1   5
TORSDOF 3
ENDMDL
