MODEL 1
REMARK VINA RESULT:    -3.560      0.000      0.000
REMARK INTER + INTRA:          -5.439
REMARK INTER:                  -5.016
REMARK INTRA:                  -0.423
REMARK UNBOUND:                -0.423
REMARK SMILES CCCCCCCCC(=O)[O-]
REMARK SMILES IDX 6 1 7 2 8 3 9 4 10 5 11 6 5 7 4 8 3 9 2 10 1 11
REMARK H PARENT
REMARK Flexibility Score: inf
ROOT
ATOM      1  C   UNL     1      41.241  11.956  13.505  1.00  0.00     0.000 C 
ENDROOT
BRANCH   1   2
ATOM      2  C   UNL     1      40.950  12.223  14.994  1.00  0.00     0.006 C 
BRANCH   2   3
ATOM      3  C   UNL     1      42.139  11.926  15.919  1.00  0.00     0.053 C 
BRANCH   3   4
ATOM      4  C   UNL     1      42.036  12.670  17.215  1.00  0.00     0.041 C 
ATOM      5  O   UNL     1      42.882  12.470  18.127  1.00  0.00    -0.550 OA
ATOM      6  O   UNL     1      40.999  13.569  17.426  1.00  0.00    -0.550 OA
ENDBRANCH   3   4
ENDBRANCH   2   3
ENDBRANCH   1   2
BRANCH   1   7
ATOM      7  C   UNL     1      40.018  12.198  12.588  1.00  0.00     0.000 C 
BRANCH   7   8
ATOM      8  C   UNL     1      39.830  11.105  11.522  1.00  0.00    -0.000 C 
BRANCH   8   9
ATOM      9  C   UNL     1      40.932  10.033  11.590  1.00  0.00    -0.000 C 
BRANCH   9  10
ATOM     10  C   UNL     1      40.362   8.610  11.705  1.00  0.00    -0.003 C 
ATOM     11  C   UNL     1      39.281   8.491  12.779  1.00  0.00     0.004 C 
ENDBRANCH   9  10
ENDBRANCH   8   9
ENDBRANCH   7   8
ENDBRANCH   1   7
TORSDOF 7
ENDMDL
MODEL 2
REMARK VINA RESULT:    -3.546      0.933      1.360
REMARK INTER + INTRA:          -5.421
REMARK INTER:                  -4.876
REMARK INTRA:                  -0.545
REMARK UNBOUND:                -0.423
REMARK SMILES CCCCCCCCC(=O)[O-]
REMARK SMILES IDX 6 1 7 2 8 3 9 4 10 5 11 6 5 7 4 8 3 9 2 10 1 11
REMARK H PARENT
REMARK Flexibility Score: inf
ROOT
ATOM      1  C   UNL     1      39.890  12.218  12.736  1.00  0.00     0.000 C 
ENDROOT
BRANCH   1   2
ATOM      2  C   UNL     1      40.339  11.544  14.046  1.00  0.00     0.006 C 
BRANCH   2   3
ATOM      3  C   UNL     1      41.749  11.953  14.499  1.00  0.00     0.053 C 
BRANCH   3   4
ATOM      4  C   UNL     1      41.739  12.568  15.865  1.00  0.00     0.041 C 
ATOM      5  O   UNL     1      42.369  12.021  16.809  1.00  0.00    -0.550 OA
ATOM      6  O   UNL     1      41.020  13.732  16.103  1.00  0.00    -0.550 OA
ENDBRANCH   3   4
ENDBRANCH   2   3
ENDBRANCH   1   2
BRANCH   1   7
ATOM      7  C   UNL     1      39.833  11.244  11.534  1.00  0.00     0.000 C 
BRANCH   7   8
ATOM      8  C   UNL     1      41.030  10.281  11.474  1.00  0.00    -0.000 C 
BRANCH   8   9
ATOM      9  C   UNL     1      40.594   8.808  11.564  1.00  0.00    -0.000 C 
BRANCH   9  10
ATOM     10  C   UNL     1      39.101   8.656  11.894  1.00  0.00    -0.003 C 
ATOM     11  C   UNL     1      38.860   8.015  13.261  1.00  0.00     0.004 C 
ENDBRANCH   9  10
ENDBRANCH   8   9
ENDBRANCH   7   8
ENDBRANCH   1   7
TORSDOF 7
ENDMDL
MODEL 3
REMARK VINA RESULT:    -3.472      1.236      1.683
REMARK INTER + INTRA:          -5.315
REMARK INTER:                  -4.782
REMARK INTRA:                  -0.533
REMARK UNBOUND:                -0.423
REMARK SMILES CCCCCCCCC(=O)[O-]
REMARK SMILES IDX 6 1 7 2 8 3 9 4 10 5 11 6 5 7 4 8 3 9 2 10 1 11
REMARK H PARENT
REMARK Flexibility Score: inf
ROOT
ATOM      1  C   UNL     1      41.596  11.676  13.430  1.00  0.00     0.000 C 
ENDROOT
BRANCH   1   2
ATOM      2  C   UNL     1      41.621  11.999  14.936  1.00  0.00     0.006 C 
BRANCH   2   3
ATOM      3  C   UNL     1      40.359  12.717  15.436  1.00  0.00     0.053 C 
BRANCH   3   4
ATOM      4  C   UNL     1      40.666  14.091  15.949  1.00  0.00     0.041 C 
ATOM      5  O   UNL     1      40.805  15.050  15.143  1.00  0.00    -0.550 OA
ATOM      6  O   UNL     1      40.818  14.312  17.311  1.00  0.00    -0.550 OA
ENDBRANCH   3   4
ENDBRANCH   2   3
ENDBRANCH   1   2
BRANCH   1   7
ATOM      7  C   UNL     1      40.280  12.097  12.734  1.00  0.00     0.000 C 
BRANCH   7   8
ATOM      8  C   UNL     1      39.709  11.014  11.804  1.00  0.00    -0.000 C 
BRANCH   8   9
ATOM      9  C   UNL     1      40.713   9.874  11.557  1.00  0.00    -0.000 C 
BRANCH   9  10
ATOM     10  C   UNL     1      40.074   8.485  11.708  1.00  0.00    -0.003 C 
ATOM     11  C   UNL     1      39.192   8.371  12.951  1.00  0.00     0.004 C 
ENDBRANCH   9  10
ENDBRANCH   8   9
ENDBRANCH   7   8
ENDBRANCH   1   7
TORSDOF 7
ENDMDL
MODEL 4
REMARK VINA RESULT:    -3.393      1.663      2.644
REMARK INTER + INTRA:          -5.205
REMARK INTER:                  -4.669
REMARK INTRA:                  -0.536
REMARK UNBOUND:                -0.423
REMARK SMILES CCCCCCCCC(=O)[O-]
REMARK SMILES IDX 6 1 7 2 8 3 9 4 10 5 11 6 5 7 4 8 3 9 2 10 1 11
REMARK H PARENT
REMARK Flexibility Score: inf
ROOT
ATOM      1  C   UNL     1      40.143  11.315  11.847  1.00  0.00     0.000 C 
ENDROOT
BRANCH   1   2
ATOM      2  C   UNL     1      40.754  11.815  13.169  1.00  0.00     0.006 C 
BRANCH   2   3
ATOM      3  C   UNL     1      40.086  13.084  13.718  1.00  0.00     0.053 C 
BRANCH   3   4
ATOM      4  C   UNL     1      40.874  13.688  14.841  1.00  0.00     0.041 C 
ATOM      5  O   UNL     1      40.861  14.934  15.023  1.00  0.00    -0.550 OA
ATOM      6  O   UNL     1      41.637  12.880  15.674  1.00  0.00    -0.550 OA
ENDBRANCH   3   4
ENDBRANCH   2   3
ENDBRANCH   1   2
BRANCH   1   7
ATOM      7  C   UNL     1      40.973  10.198  11.171  1.00  0.00     0.000 C 
BRANCH   7   8
ATOM      8  C   UNL     1      40.536   8.782  11.580  1.00  0.00    -0.000 C 
BRANCH   8   9
ATOM      9  C   UNL     1      39.026   8.701  11.867  1.00  0.00    -0.000 C 
BRANCH   9  10
ATOM     10  C   UNL     1      38.717   7.997  13.197  1.00  0.00    -0.003 C 
ATOM     11  C   UNL     1      38.591   8.971  14.368  1.00  0.00     0.004 C 
ENDBRANCH   9  10
ENDBRANCH   8   9
ENDBRANCH   7   8
ENDBRANCH   1   7
TORSDOF 7
ENDMDL
MODEL 5
REMARK VINA RESULT:    -3.352      1.242      2.011
REMARK INTER + INTRA:          -5.146
REMARK INTER:                  -4.709
REMARK INTRA:                  -0.437
REMARK UNBOUND:                -0.423
REMARK SMILES CCCCCCCCC(=O)[O-]
REMARK SMILES IDX 6 1 7 2 8 3 9 4 10 5 11 6 5 7 4 8 3 9 2 10 1 11
REMARK H PARENT
REMARK Flexibility Score: inf
ROOT
ATOM      1  C   UNL     1      40.683  11.788  14.957  1.00  0.00     0.000 C 
ENDROOT
BRANCH   1   2
ATOM      2  C   UNL     1      42.037  12.026  15.652  1.00  0.00     0.006 C 
BRANCH   2   3
ATOM      3  C   UNL     1      42.059  11.592  17.125  1.00  0.00     0.053 C 
BRANCH   3   4
ATOM      4  C   UNL     1      42.290  12.753  18.044  1.00  0.00     0.041 C 
ATOM      5  O   UNL     1      41.417  13.655  18.153  1.00  0.00    -0.550 OA
ATOM      6  O   UNL     1      43.473  12.852  18.764  1.00  0.00    -0.550 OA
ENDBRANCH   3   4
ENDBRANCH   2   3
ENDBRANCH   1   2
BRANCH   1   7
ATOM      7  C   UNL     1      40.154  13.032  14.203  1.00  0.00     0.000 C 
BRANCH   7   8
ATOM      8  C   UNL     1      39.847  12.761  12.721  1.00  0.00    -0.000 C 
BRANCH   8   9
ATOM      9  C   UNL     1      39.270  11.353  12.496  1.00  0.00    -0.000 C 
BRANCH   9  10
ATOM     10  C   UNL     1      39.955  10.614  11.335  1.00  0.00    -0.003 C 
ATOM     11  C   UNL     1      41.409  10.255  11.638  1.00  0.00     0.004 C 
ENDBRANCH   9  10
ENDBRANCH   8   9
ENDBRANCH   7   8
ENDBRANCH   1   7
TORSDOF 7
ENDMDL
MODEL 6
REMARK VINA RESULT:    -3.336      3.470      5.354
REMARK INTER + INTRA:          -5.124
REMARK INTER:                  -4.406
REMARK INTRA:                  -0.717
REMARK UNBOUND:                -0.423
REMARK SMILES CCCCCCCCC(=O)[O-]
REMARK SMILES IDX 6 1 7 2 8 3 9 4 10 5 11 6 5 7 4 8 3 9 2 10 1 11
REMARK H PARENT
REMARK Flexibility Score: inf
ROOT
ATOM      1  C   UNL     1      40.106  12.473  12.686  1.00  0.00     0.000 C 
ENDROOT
BRANCH   1   2
ATOM      2  C   UNL     1      41.035  11.244  12.685  1.00  0.00     0.006 C 
BRANCH   2   3
ATOM      3  C   UNL     1      40.900  10.369  11.431  1.00  0.00     0.053 C 
BRANCH   3   4
ATOM      4  C   UNL     1      39.950   9.230  11.646  1.00  0.00     0.041 C 
ATOM      5  O   UNL     1      38.708   9.415  11.542  1.00  0.00    -0.550 OA
ATOM      6  O   UNL     1      40.430   7.971  11.980  1.00  0.00    -0.550 OA
ENDBRANCH   3   4
ENDBRANCH   2   3
ENDBRANCH   1   2
BRANCH   1   7
ATOM      7  C   UNL     1      38.955  12.371  13.715  1.00  0.00     0.000 C 
BRANCH   7   8
ATOM      8  C   UNL     1      39.168  11.263  14.760  1.00  0.00    -0.000 C 
BRANCH   8   9
ATOM      9  C   UNL     1      39.595  11.829  16.125  1.00  0.00    -0.000 C 
BRANCH   9  10
ATOM     10  C   UNL     1      41.007  11.380  16.532  1.00  0.00    -0.003 C 
ATOM     11  C   UNL     1      42.092  12.354  16.075  1.00  0.00     0.004 C 
ENDBRANCH   9  10
ENDBRANCH   8   9
ENDBRANCH   7   8
ENDBRANCH   1   7
TORSDOF 7
ENDMDL
MODEL 7
REMARK VINA RESULT:    -3.273      1.488      1.852
REMARK INTER + INTRA:          -5.035
REMARK INTER:                  -4.444
REMARK INTRA:                  -0.591
REMARK UNBOUND:                -0.423
REMARK SMILES CCCCCCCCC(=O)[O-]
REMARK SMILES IDX 6 1 7 2 8 3 9 4 10 5 11 6 5 7 4 8 3 9 2 10 1 11
REMARK H PARENT
REMARK Flexibility Score: inf
ROOT
ATOM      1  C   UNL     1      39.007  11.254  14.593  1.00  0.00     0.000 C 
ENDROOT
BRANCH   1   2
ATOM      2  C   UNL     1      39.326  11.723  16.025  1.00  0.00     0.006 C 
BRANCH   2   3
ATOM      3  C   UNL     1      40.239  12.956  16.082  1.00  0.00     0.053 C 
BRANCH   3   4
ATOM      4  C   UNL     1      41.658  12.587  16.392  1.00  0.00     0.041 C 
ATOM      5  O   UNL     1      42.368  12.021  15.519  1.00  0.00    -0.550 OA
ATOM      6  O   UNL     1      42.191  12.847  17.647  1.00  0.00    -0.550 OA
ENDBRANCH   3   4
ENDBRANCH   2   3
ENDBRANCH   1   2
BRANCH   1   7
ATOM      7  C   UNL     1      38.857  12.419  13.585  1.00  0.00     0.000 C 
BRANCH   7   8
ATOM      8  C   UNL     1      39.808  12.308  12.381  1.00  0.00    -0.000 C 
BRANCH   8   9
ATOM      9  C   UNL     1      40.828  11.169  12.550  1.00  0.00    -0.000 C 
BRANCH   9  10
ATOM     10  C   UNL     1      40.866  10.228  11.337  1.00  0.00    -0.003 C 
ATOM     11  C   UNL     1      40.356   8.824  11.661  1.00  0.00     0.004 C 
ENDBRANCH   9  10
ENDBRANCH   8   9
ENDBRANCH   7   8
ENDBRANCH   1   7
TORSDOF 7
ENDMDL
MODEL 8
REMARK VINA RESULT:    -3.250      3.430      5.271
REMARK INTER + INTRA:          -5.003
REMARK INTER:                  -4.506
REMARK INTRA:                  -0.497
REMARK UNBOUND:                -0.423
REMARK SMILES CCCCCCCCC(=O)[O-]
REMARK SMILES IDX 6 1 7 2 8 3 9 4 10 5 11 6 5 7 4 8 3 9 2 10 1 11
REMARK H PARENT
REMARK Flexibility Score: inf
ROOT
ATOM      1  C   UNL     1      40.881  12.664  13.449  1.00  0.00     0.000 C 
ENDROOT
BRANCH   1   2
ATOM      2  C   UNL     1      39.776  12.056  12.564  1.00  0.00     0.006 C 
BRANCH   2   3
ATOM      3  C   UNL     1      39.640  10.533  12.705  1.00  0.00     0.053 C 
BRANCH   3   4
ATOM      4  C   UNL     1      40.445   9.804  11.673  1.00  0.00     0.041 C 
ATOM      5  O   UNL     1      40.559   8.551  11.730  1.00  0.00    -0.550 OA
ATOM      6  O   UNL     1      41.087  10.506  10.661  1.00  0.00    -0.550 OA
ENDBRANCH   3   4
ENDBRANCH   2   3
ENDBRANCH   1   2
BRANCH   1   7
ATOM      7  C   UNL     1      40.332  13.514  14.619  1.00  0.00     0.000 C 
BRANCH   7   8
ATOM      8  C   UNL     1      41.210  13.452  15.881  1.00  0.00    -0.000 C 
BRANCH   8   9
ATOM      9  C   UNL     1      42.118  12.211  15.895  1.00  0.00    -0.000 C 
BRANCH   9  10
ATOM     10  C   UNL     1      41.888  11.328  17.132  1.00  0.00    -0.003 C 
ATOM     11  C   UNL     1      40.548  10.594  17.095  1.00  0.00     0.004 C 
ENDBRANCH   9  10
ENDBRANCH   8   9
ENDBRANCH   7   8
ENDBRANCH   1   7
TORSDOF 7
ENDMDL
MODEL 9
REMARK VINA RESULT:    -3.194      1.375      2.146
REMARK INTER + INTRA:          -4.924
REMARK INTER:                  -4.223
REMARK INTRA:                  -0.701
REMARK UNBOUND:                -0.423
REMARK SMILES CCCCCCCCC(=O)[O-]
REMARK SMILES IDX 6 1 7 2 8 3 9 4 10 5 11 6 5 7 4 8 3 9 2 10 1 11
REMARK H PARENT
REMARK Flexibility Score: inf
ROOT
ATOM      1  C   UNL     1      38.914  12.684  13.583  1.00  0.00     0.000 C 
ENDROOT
BRANCH   1   2
ATOM      2  C   UNL     1      40.414  12.841  13.271  1.00  0.00     0.006 C 
BRANCH   2   3
ATOM      3  C   UNL     1      41.325  11.999  14.175  1.00  0.00     0.053 C 
BRANCH   3   4
ATOM      4  C   UNL     1      41.050  12.245  15.628  1.00  0.00     0.041 C 
ATOM      5  O   UNL     1      41.321  13.363  16.141  1.00  0.00    -0.550 OA
ATOM      6  O   UNL     1      40.516  11.237  16.419  1.00  0.00    -0.550 OA
ENDBRANCH   3   4
ENDBRANCH   2   3
ENDBRANCH   1   2
BRANCH   1   7
ATOM      7  C   UNL     1      38.367  11.270  13.274  1.00  0.00     0.000 C 
BRANCH   7   8
ATOM      8  C   UNL     1      38.656  10.807  11.836  1.00  0.00    -0.000 C 
BRANCH   8   9
ATOM      9  C   UNL     1      38.919   9.293  11.756  1.00  0.00    -0.000 C 
BRANCH   9  10
ATOM     10  C   UNL     1      40.413   8.963  11.609  1.00  0.00    -0.003 C 
ATOM     11  C   UNL     1      41.224  10.128  11.042  1.00  0.00     0.004 C 
ENDBRANCH   9  10
ENDBRANCH   8   9
ENDBRANCH   7   8
ENDBRANCH   1   7
TORSDOF 7
ENDMDL
