MODEL 1
REMARK VINA RESULT:    -6.404      0.000      0.000
REMARK INTER + INTRA:          -7.656
REMARK INTER:                  -7.527
REMARK INTRA:                  -0.129
REMARK UNBOUND:                -0.129
REMARK SMILES O=C([O-])C=Cc1ccc(O)c(O)c1
REMARK SMILES IDX 6 1 13 2 7 3 11 4 8 5 9 6 5 7 4 8 2 9 1 10 3 11 12 12 10 14
REMARK H PARENT 12 13 10 15
REMARK Flexibility Score: inf
ROOT
ATOM      1  C   UNL     1     126.436 134.601 109.152  1.00  0.00    -0.022 A 
ATOM      2  C   UNL     1     126.670 135.959 108.882  1.00  0.00     0.058 A 
ATOM      3  C   UNL     1     127.214 133.632 108.488  1.00  0.00     0.012 A 
ATOM      4  C   UNL     1     127.675 136.351 107.986  1.00  0.00     0.157 A 
ATOM      5  C   UNL     1     128.215 134.021 107.595  1.00  0.00     0.051 A 
ATOM      6  C   UNL     1     128.453 135.375 107.342  1.00  0.00     0.157 A 
ENDROOT
BRANCH   1   7
ATOM      7  C   UNL     1     125.352 134.241 110.100  1.00  0.00     0.010 C 
ATOM      8  C   UNL     1     125.014 134.986 111.162  1.00  0.00     0.025 C 
BRANCH   8   9
ATOM      9  C   UNL     1     123.923 134.603 112.076  1.00  0.00     0.064 C 
ATOM     10  O   UNL     1     122.792 135.154 112.007  1.00  0.00    -0.545 OA
ATOM     11  O   UNL     1     124.145 133.616 113.028  1.00  0.00    -0.545 OA
ENDBRANCH   8   9
ENDBRANCH   1   7
BRANCH   4  12
ATOM     12  O   UNL     1     127.903 137.702 107.735  1.00  0.00    -0.504 OA
ATOM     13  H   UNL     1     128.457 138.273 108.363  1.00  0.00     0.293 HD
ENDBRANCH   4  12
BRANCH   6  14
ATOM     14  O   UNL     1     129.462 135.731 106.447  1.00  0.00    -0.504 OA
ATOM     15  H   UNL     1     130.370 135.282 106.454  1.00  0.00     0.293 HD
ENDBRANCH   6  14
TORSDOF 4
ENDMDL
MODEL 2
REMARK VINA RESULT:    -6.394     10.552     11.584
REMARK INTER + INTRA:          -7.644
REMARK INTER:                  -7.514
REMARK INTRA:                  -0.130
REMARK UNBOUND:                -0.129
REMARK SMILES O=C([O-])C=Cc1ccc(O)c(O)c1
REMARK SMILES IDX 6 1 13 2 7 3 11 4 8 5 9 6 5 7 4 8 2 9 1 10 3 11 12 12 10 14
REMARK H PARENT 12 13 10 15
REMARK Flexibility Score: inf
ROOT
ATOM      1  C   UNL     1     136.483 134.640 113.757  1.00  0.00    -0.022 A 
ATOM      2  C   UNL     1     137.602 134.469 112.926  1.00  0.00     0.058 A 
ATOM      3  C   UNL     1     136.683 134.796 115.143  1.00  0.00     0.012 A 
ATOM      4  C   UNL     1     138.899 134.476 113.458  1.00  0.00     0.157 A 
ATOM      5  C   UNL     1     137.975 134.802 115.674  1.00  0.00     0.051 A 
ATOM      6  C   UNL     1     139.086 134.647 114.840  1.00  0.00     0.157 A 
ENDROOT
BRANCH   1   7
ATOM      7  C   UNL     1     135.131 134.614 113.144  1.00  0.00     0.010 C 
ATOM      8  C   UNL     1     134.751 133.724 112.217  1.00  0.00     0.025 C 
BRANCH   8   9
ATOM      9  C   UNL     1     133.397 133.720 111.639  1.00  0.00     0.064 C 
ATOM     10  O   UNL     1     133.083 132.919 110.717  1.00  0.00    -0.545 OA
ATOM     11  O   UNL     1     132.447 134.613 112.119  1.00  0.00    -0.545 OA
ENDBRANCH   8   9
ENDBRANCH   1   7
BRANCH   4  12
ATOM     12  O   UNL     1     140.001 134.314 112.621  1.00  0.00    -0.504 OA
ATOM     13  H   UNL     1     140.445 133.411 112.496  1.00  0.00     0.293 HD
ENDBRANCH   4  12
BRANCH   6  14
ATOM     14  O   UNL     1     140.363 134.660 115.400  1.00  0.00    -0.504 OA
ATOM     15  H   UNL     1     140.787 135.511 115.750  1.00  0.00     0.293 HD
ENDBRANCH   6  14
TORSDOF 4
ENDMDL
MODEL 3
REMARK VINA RESULT:    -6.367      4.768      5.790
REMARK INTER + INTRA:          -7.613
REMARK INTER:                  -7.480
REMARK INTRA:                  -0.133
REMARK UNBOUND:                -0.129
REMARK SMILES O=C([O-])C=Cc1ccc(O)c(O)c1
REMARK SMILES IDX 6 1 13 2 7 3 11 4 8 5 9 6 5 7 4 8 2 9 1 10 3 11 12 12 10 14
REMARK H PARENT 12 13 10 15
REMARK Flexibility Score: inf
ROOT
ATOM      1  C   UNL     1     129.880 133.304 111.038  1.00  0.00    -0.022 A 
ATOM      2  C   UNL     1     130.761 132.699 110.127  1.00  0.00     0.058 A 
ATOM      3  C   UNL     1     130.208 133.295 112.409  1.00  0.00     0.012 A 
ATOM      4  C   UNL     1     131.960 132.118 110.565  1.00  0.00     0.157 A 
ATOM      5  C   UNL     1     131.402 132.715 112.846  1.00  0.00     0.051 A 
ATOM      6  C   UNL     1     132.282 132.129 111.932  1.00  0.00     0.157 A 
ENDROOT
BRANCH   1   7
ATOM      7  C   UNL     1     128.620 133.895 110.523  1.00  0.00     0.010 C 
ATOM      8  C   UNL     1     128.176 133.727 109.269  1.00  0.00     0.025 C 
BRANCH   8   9
ATOM      9  C   UNL     1     126.914 134.319 108.796  1.00  0.00     0.064 C 
ATOM     10  O   UNL     1     125.802 133.925 109.239  1.00  0.00    -0.545 OA
ATOM     11  O   UNL     1     126.948 135.333 107.847  1.00  0.00    -0.545 OA
ENDBRANCH   8   9
ENDBRANCH   1   7
BRANCH   4  12
ATOM     12  O   UNL     1     132.830 131.530 109.648  1.00  0.00    -0.504 OA
ATOM     13  H   UNL     1     133.834 131.640 109.724  1.00  0.00     0.293 HD
ENDBRANCH   4  12
BRANCH   6  14
ATOM     14  O   UNL     1     133.466 131.561 112.399  1.00  0.00    -0.504 OA
ATOM     15  H   UNL     1     134.195 131.242 111.771  1.00  0.00     0.293 HD
ENDBRANCH   6  14
TORSDOF 4
ENDMDL
MODEL 4
REMARK VINA RESULT:    -6.292      3.200      5.001
REMARK INTER + INTRA:          -7.524
REMARK INTER:                  -7.398
REMARK INTRA:                  -0.126
REMARK UNBOUND:                -0.129
REMARK SMILES O=C([O-])C=Cc1ccc(O)c(O)c1
REMARK SMILES IDX 6 1 13 2 7 3 11 4 8 5 9 6 5 7 4 8 2 9 1 10 3 11 12 12 10 14
REMARK H PARENT 12 13 10 15
REMARK Flexibility Score: inf
ROOT
ATOM      1  C   UNL     1     128.495 134.164 108.881  1.00  0.00    -0.022 A 
ATOM      2  C   UNL     1     128.785 134.778 107.651  1.00  0.00     0.058 A 
ATOM      3  C   UNL     1     127.372 134.601 109.611  1.00  0.00     0.012 A 
ATOM      4  C   UNL     1     127.960 135.792 107.143  1.00  0.00     0.157 A 
ATOM      5  C   UNL     1     126.550 135.612 109.105  1.00  0.00     0.051 A 
ATOM      6  C   UNL     1     126.835 136.207 107.873  1.00  0.00     0.157 A 
ENDROOT
BRANCH   1   7
ATOM      7  C   UNL     1     129.407 133.105 109.379  1.00  0.00     0.010 C 
ATOM      8  C   UNL     1     130.482 133.345 110.143  1.00  0.00     0.025 C 
BRANCH   8   9
ATOM      9  C   UNL     1     131.359 132.266 110.629  1.00  0.00     0.064 C 
ATOM     10  O   UNL     1     131.082 131.624 111.678  1.00  0.00    -0.545 OA
ATOM     11  O   UNL     1     132.508 131.948 109.918  1.00  0.00    -0.545 OA
ENDBRANCH   8   9
ENDBRANCH   1   7
BRANCH   4  12
ATOM     12  O   UNL     1     128.254 136.385 105.917  1.00  0.00    -0.504 OA
ATOM     13  H   UNL     1     128.762 137.260 105.859  1.00  0.00     0.293 HD
ENDBRANCH   4  12
BRANCH   6  14
ATOM     14  O   UNL     1     125.994 137.211 107.394  1.00  0.00    -0.504 OA
ATOM     15  H   UNL     1     126.268 137.827 106.637  1.00  0.00     0.293 HD
ENDBRANCH   6  14
TORSDOF 4
ENDMDL
MODEL 5
REMARK VINA RESULT:    -6.288     10.780     11.771
REMARK INTER + INTRA:          -7.519
REMARK INTER:                  -7.391
REMARK INTRA:                  -0.129
REMARK UNBOUND:                -0.129
REMARK SMILES O=C([O-])C=Cc1ccc(O)c(O)c1
REMARK SMILES IDX 6 1 13 2 7 3 11 4 8 5 9 6 5 7 4 8 2 9 1 10 3 11 12 12 10 14
REMARK H PARENT 12 13 10 15
REMARK Flexibility Score: inf
ROOT
ATOM      1  C   UNL     1     136.803 134.640 113.501  1.00  0.00    -0.022 A 
ATOM      2  C   UNL     1     136.826 134.729 114.902  1.00  0.00     0.058 A 
ATOM      3  C   UNL     1     138.021 134.484 112.809  1.00  0.00     0.012 A 
ATOM      4  C   UNL     1     138.035 134.640 115.608  1.00  0.00     0.157 A 
ATOM      5  C   UNL     1     139.226 134.396 113.512  1.00  0.00     0.051 A 
ATOM      6  C   UNL     1     139.240 134.469 114.907  1.00  0.00     0.157 A 
ENDROOT
BRANCH   1   7
ATOM      7  C   UNL     1     135.498 134.752 112.802  1.00  0.00     0.010 C 
ATOM      8  C   UNL     1     134.835 133.705 112.291  1.00  0.00     0.025 C 
BRANCH   8   9
ATOM      9  C   UNL     1     133.535 133.852 111.615  1.00  0.00     0.064 C 
ATOM     10  O   UNL     1     132.636 132.977 111.733  1.00  0.00    -0.545 OA
ATOM     11  O   UNL     1     133.294 134.976 110.836  1.00  0.00    -0.545 OA
ENDBRANCH   8   9
ENDBRANCH   1   7
BRANCH   4  12
ATOM     12  O   UNL     1     138.041 134.720 116.999  1.00  0.00    -0.504 OA
ATOM     13  H   UNL     1     137.945 133.895 117.579  1.00  0.00     0.293 HD
ENDBRANCH   4  12
BRANCH   6  14
ATOM     14  O   UNL     1     140.458 134.375 115.579  1.00  0.00    -0.504 OA
ATOM     15  H   UNL     1     141.062 135.178 115.714  1.00  0.00     0.293 HD
ENDBRANCH   6  14
TORSDOF 4
ENDMDL
MODEL 6
REMARK VINA RESULT:    -6.143      4.366      5.113
REMARK INTER + INTRA:          -7.349
REMARK INTER:                  -7.216
REMARK INTRA:                  -0.134
REMARK UNBOUND:                -0.129
REMARK SMILES O=C([O-])C=Cc1ccc(O)c(O)c1
REMARK SMILES IDX 6 1 13 2 7 3 11 4 8 5 9 6 5 7 4 8 2 9 1 10 3 11 12 12 10 14
REMARK H PARENT 12 13 10 15
REMARK Flexibility Score: inf
ROOT
ATOM      1  C   UNL     1     129.760 133.038 109.256  1.00  0.00    -0.022 A 
ATOM      2  C   UNL     1     129.862 134.439 109.257  1.00  0.00     0.058 A 
ATOM      3  C   UNL     1     129.137 132.403 108.164  1.00  0.00     0.012 A 
ATOM      4  C   UNL     1     129.376 135.195 108.181  1.00  0.00     0.157 A 
ATOM      5  C   UNL     1     128.652 133.156 107.092  1.00  0.00     0.051 A 
ATOM      6  C   UNL     1     128.770 134.548 107.092  1.00  0.00     0.157 A 
ENDROOT
BRANCH   1   7
ATOM      7  C   UNL     1     130.281 132.287 110.425  1.00  0.00     0.010 C 
ATOM      8  C   UNL     1     131.104 132.814 111.343  1.00  0.00     0.025 C 
BRANCH   8   9
ATOM      9  C   UNL     1     131.592 132.041 112.498  1.00  0.00     0.064 C 
ATOM     10  O   UNL     1     131.727 130.790 112.435  1.00  0.00    -0.545 OA
ATOM     11  O   UNL     1     131.911 132.702 113.677  1.00  0.00    -0.545 OA
ENDBRANCH   8   9
ENDBRANCH   1   7
BRANCH   4  12
ATOM     12  O   UNL     1     129.492 136.584 108.192  1.00  0.00    -0.504 OA
ATOM     13  H   UNL     1     129.050 137.149 108.908  1.00  0.00     0.293 HD
ENDBRANCH   4  12
BRANCH   6  14
ATOM     14  O   UNL     1     128.278 135.272 106.006  1.00  0.00    -0.504 OA
ATOM     15  H   UNL     1     127.906 134.816 105.180  1.00  0.00     0.293 HD
ENDBRANCH   6  14
TORSDOF 4
ENDMDL
MODEL 7
REMARK VINA RESULT:    -6.074      3.576      4.930
REMARK INTER + INTRA:          -7.268
REMARK INTER:                  -7.141
REMARK INTRA:                  -0.127
REMARK UNBOUND:                -0.129
REMARK SMILES O=C([O-])C=Cc1ccc(O)c(O)c1
REMARK SMILES IDX 6 1 13 2 7 3 11 4 8 5 9 6 5 7 4 8 2 9 1 10 3 11 12 12 10 14
REMARK H PARENT 12 13 10 15
REMARK Flexibility Score: inf
ROOT
ATOM      1  C   UNL     1     128.785 134.139 109.166  1.00  0.00    -0.022 A 
ATOM      2  C   UNL     1     127.437 134.106 109.558  1.00  0.00     0.058 A 
ATOM      3  C   UNL     1     129.193 135.091 108.211  1.00  0.00     0.012 A 
ATOM      4  C   UNL     1     126.513 135.019 109.028  1.00  0.00     0.157 A 
ATOM      5  C   UNL     1     128.273 136.000 107.683  1.00  0.00     0.051 A 
ATOM      6  C   UNL     1     126.936 135.972 108.088  1.00  0.00     0.157 A 
ENDROOT
BRANCH   1   7
ATOM      7  C   UNL     1     129.719 133.143 109.749  1.00  0.00     0.010 C 
ATOM      8  C   UNL     1     130.185 133.205 111.005  1.00  0.00     0.025 C 
BRANCH   8   9
ATOM      9  C   UNL     1     131.102 132.191 111.554  1.00  0.00     0.064 C 
ATOM     10  O   UNL     1     131.931 131.594 110.816  1.00  0.00    -0.545 OA
ATOM     11  O   UNL     1     131.054 131.890 112.909  1.00  0.00    -0.545 OA
ENDBRANCH   8   9
ENDBRANCH   1   7
BRANCH   4  12
ATOM     12  O   UNL     1     125.180 134.980 109.433  1.00  0.00    -0.504 OA
ATOM     13  H   UNL     1     124.526 134.311 109.043  1.00  0.00     0.293 HD
ENDBRANCH   4  12
BRANCH   6  14
ATOM     14  O   UNL     1     126.042 136.895 107.544  1.00  0.00    -0.504 OA
ATOM     15  H   UNL     1     125.951 137.029 106.544  1.00  0.00     0.293 HD
ENDBRANCH   6  14
TORSDOF 4
ENDMDL
MODEL 8
REMARK VINA RESULT:    -6.033      4.259      5.232
REMARK INTER + INTRA:          -7.220
REMARK INTER:                  -7.087
REMARK INTRA:                  -0.133
REMARK UNBOUND:                -0.129
REMARK SMILES O=C([O-])C=Cc1ccc(O)c(O)c1
REMARK SMILES IDX 6 1 13 2 7 3 11 4 8 5 9 6 5 7 4 8 2 9 1 10 3 11 12 12 10 14
REMARK H PARENT 12 13 10 15
REMARK Flexibility Score: inf
ROOT
ATOM      1  C   UNL     1     129.126 133.247 109.706  1.00  0.00    -0.022 A 
ATOM      2  C   UNL     1     128.444 134.214 110.463  1.00  0.00     0.058 A 
ATOM      3  C   UNL     1     128.828 133.125 108.334  1.00  0.00     0.012 A 
ATOM      4  C   UNL     1     127.500 135.061 109.865  1.00  0.00     0.157 A 
ATOM      5  C   UNL     1     127.888 133.969 107.737  1.00  0.00     0.051 A 
ATOM      6  C   UNL     1     127.224 134.939 108.494  1.00  0.00     0.157 A 
ENDROOT
BRANCH   1   7
ATOM      7  C   UNL     1     130.107 132.369 110.391  1.00  0.00     0.010 C 
ATOM      8  C   UNL     1     130.659 132.654 111.578  1.00  0.00     0.025 C 
BRANCH   8   9
ATOM      9  C   UNL     1     131.621 131.752 112.235  1.00  0.00     0.064 C 
ATOM     10  O   UNL     1     132.242 132.105 113.273  1.00  0.00    -0.545 OA
ATOM     11  O   UNL     1     131.845 130.489 111.703  1.00  0.00    -0.545 OA
ENDBRANCH   8   9
ENDBRANCH   1   7
BRANCH   4  12
ATOM     12  O   UNL     1     126.838 136.022 110.627  1.00  0.00    -0.504 OA
ATOM     13  H   UNL     1     126.632 135.871 111.608  1.00  0.00     0.293 HD
ENDBRANCH   4  12
BRANCH   6  14
ATOM     14  O   UNL     1     126.293 135.767 107.868  1.00  0.00    -0.504 OA
ATOM     15  H   UNL     1     126.488 136.741 107.668  1.00  0.00     0.293 HD
ENDBRANCH   6  14
TORSDOF 4
ENDMDL
MODEL 9
REMARK VINA RESULT:    -5.956      0.835      1.901
REMARK INTER + INTRA:          -7.129
REMARK INTER:                  -6.998
REMARK INTRA:                  -0.131
REMARK UNBOUND:                -0.129
REMARK SMILES O=C([O-])C=Cc1ccc(O)c(O)c1
REMARK SMILES IDX 6 1 13 2 7 3 11 4 8 5 9 6 5 7 4 8 2 9 1 10 3 11 12 12 10 14
REMARK H PARENT 12 13 10 15
REMARK Flexibility Score: inf
ROOT
ATOM      1  C   UNL     1     126.305 134.665 109.159  1.00  0.00    -0.022 A 
ATOM      2  C   UNL     1     127.236 133.688 108.771  1.00  0.00     0.058 A 
ATOM      3  C   UNL     1     126.442 135.973 108.654  1.00  0.00     0.012 A 
ATOM      4  C   UNL     1     128.272 133.997 107.878  1.00  0.00     0.157 A 
ATOM      5  C   UNL     1     127.475 136.282 107.765  1.00  0.00     0.051 A 
ATOM      6  C   UNL     1     128.389 135.301 107.371  1.00  0.00     0.157 A 
ENDROOT
BRANCH   1   7
ATOM      7  C   UNL     1     125.234 134.287 110.114  1.00  0.00     0.010 C 
ATOM      8  C   UNL     1     125.005 134.928 111.269  1.00  0.00     0.025 C 
BRANCH   8   9
ATOM      9  C   UNL     1     123.925 134.533 112.188  1.00  0.00     0.064 C 
ATOM     10  O   UNL     1     122.811 135.122 112.177  1.00  0.00    -0.545 OA
ATOM     11  O   UNL     1     124.135 133.490 113.081  1.00  0.00    -0.545 OA
ENDBRANCH   8   9
ENDBRANCH   1   7
BRANCH   4  12
ATOM     12  O   UNL     1     129.184 133.015 107.496  1.00  0.00    -0.504 OA
ATOM     13  H   UNL     1     129.782 132.553 108.171  1.00  0.00     0.293 HD
ENDBRANCH   4  12
BRANCH   6  14
ATOM     14  O   UNL     1     129.408 135.641 106.481  1.00  0.00    -0.504 OA
ATOM     15  H   UNL     1     130.207 136.196 106.764  1.00  0.00     0.293 HD
ENDBRANCH   6  14
TORSDOF 4
ENDMDL
