MODEL 1
REMARK VINA RESULT:    -2.970      0.000      0.000
REMARK INTER + INTRA:          -3.322
REMARK INTER:                  -3.317
REMARK INTRA:                  -0.005
REMARK UNBOUND:                -0.005
REMARK SMILES CCCC(=O)[O-]
REMARK SMILES IDX 3 1 4 2 5 3 6 4 2 5 1 6
REMARK H PARENT
REMARK Flexibility Score: inf
ROOT
ATOM      1  C   UNL     1      -1.342 -10.019  -4.303  1.00  0.00     0.052 C 
ENDROOT
BRANCH   1   2
ATOM      2  C   UNL     1      -1.686  -9.437  -2.968  1.00  0.00     0.041 C 
ATOM      3  O   UNL     1      -1.627  -8.192  -2.785  1.00  0.00    -0.550 OA
ATOM      4  O   UNL     1      -2.025 -10.272  -1.911  1.00  0.00    -0.550 OA
ENDBRANCH   1   2
BRANCH   1   5
ATOM      5  C   UNL     1       0.156 -10.323  -4.384  1.00  0.00     0.003 C 
ATOM      6  C   UNL     1       0.514 -10.965  -5.722  1.00  0.00     0.004 C 
ENDBRANCH   1   5
TORSDOF 2
ENDMDL
MODEL 2
REMARK VINA RESULT:    -2.863     13.421     14.031
REMARK INTER + INTRA:          -3.203
REMARK INTER:                  -3.194
REMARK INTRA:                  -0.009
REMARK UNBOUND:                -0.005
REMARK SMILES CCCC(=O)[O-]
REMARK SMILES IDX 3 1 4 2 5 3 6 4 2 5 1 6
REMARK H PARENT
REMARK Flexibility Score: inf
ROOT
ATOM      1  C   UNL     1      -1.153   3.127  -8.065  1.00  0.00     0.052 C 
ENDROOT
BRANCH   1   2
ATOM      2  C   UNL     1      -0.076   2.108  -7.862  1.00  0.00     0.041 C 
ATOM      3  O   UNL     1       0.176   1.673  -6.708  1.00  0.00    -0.550 OA
ATOM      4  O   UNL     1       0.683   1.674  -8.942  1.00  0.00    -0.550 OA
ENDBRANCH   1   2
BRANCH   1   5
ATOM      5  C   UNL     1      -0.622   4.313  -8.873  1.00  0.00     0.003 C 
ATOM      6  C   UNL     1      -0.979   5.637  -8.204  1.00  0.00     0.004 C 
ENDBRANCH   1   5
TORSDOF 2
ENDMDL
MODEL 3
REMARK VINA RESULT:    -2.815     12.821     13.437
REMARK INTER + INTRA:          -3.149
REMARK INTER:                  -3.137
REMARK INTRA:                  -0.012
REMARK UNBOUND:                -0.005
REMARK SMILES CCCC(=O)[O-]
REMARK SMILES IDX 3 1 4 2 5 3 6 4 2 5 1 6
REMARK H PARENT
REMARK Flexibility Score: inf
ROOT
ATOM      1  C   UNL     1      -1.104   3.160  -8.097  1.00  0.00     0.052 C 
ENDROOT
BRANCH   1   2
ATOM      2  C   UNL     1      -0.095   2.088  -7.829  1.00  0.00     0.041 C 
ATOM      3  O   UNL     1       0.132   1.711  -6.649  1.00  0.00    -0.550 OA
ATOM      4  O   UNL     1       0.631   1.539  -8.879  1.00  0.00    -0.550 OA
ENDBRANCH   1   2
BRANCH   1   5
ATOM      5  C   UNL     1      -1.819   2.902  -9.425  1.00  0.00     0.003 C 
ATOM      6  C   UNL     1      -3.334   2.946  -9.252  1.00  0.00     0.004 C 
ENDBRANCH   1   5
TORSDOF 2
ENDMDL
MODEL 4
REMARK VINA RESULT:    -2.778     13.719     14.259
REMARK INTER + INTRA:          -3.107
REMARK INTER:                  -3.089
REMARK INTRA:                  -0.019
REMARK UNBOUND:                -0.005
REMARK SMILES CCCC(=O)[O-]
REMARK SMILES IDX 3 1 4 2 5 3 6 4 2 5 1 6
REMARK H PARENT
REMARK Flexibility Score: inf
ROOT
ATOM      1  C   UNL     1      -0.960   3.914  -8.452  1.00  0.00     0.052 C 
ENDROOT
BRANCH   1   2
ATOM      2  C   UNL     1      -2.441   3.937  -8.664  1.00  0.00     0.041 C 
ATOM      3  O   UNL     1      -3.040   2.905  -9.066  1.00  0.00    -0.550 OA
ATOM      4  O   UNL     1      -3.154   5.113  -8.464  1.00  0.00    -0.550 OA
ENDBRANCH   1   2
BRANCH   1   5
ATOM      5  C   UNL     1      -0.518   2.552  -7.911  1.00  0.00     0.003 C 
ATOM      6  C   UNL     1       0.218   1.749  -8.980  1.00  0.00     0.004 C 
ENDBRANCH   1   5
TORSDOF 2
ENDMDL
MODEL 5
REMARK VINA RESULT:    -2.776     14.067     14.590
REMARK INTER + INTRA:          -3.105
REMARK INTER:                  -3.080
REMARK INTRA:                  -0.025
REMARK UNBOUND:                -0.005
REMARK SMILES CCCC(=O)[O-]
REMARK SMILES IDX 3 1 4 2 5 3 6 4 2 5 1 6
REMARK H PARENT
REMARK Flexibility Score: inf
ROOT
ATOM      1  C   UNL     1      -1.831   3.206  -8.767  1.00  0.00     0.052 C 
ENDROOT
BRANCH   1   2
ATOM      2  C   UNL     1      -2.021   4.661  -8.475  1.00  0.00     0.041 C 
ATOM      3  O   UNL     1      -1.031   5.386  -8.191  1.00  0.00    -0.550 OA
ATOM      4  O   UNL     1      -3.298   5.208  -8.469  1.00  0.00    -0.550 OA
ENDBRANCH   1   2
BRANCH   1   5
ATOM      5  C   UNL     1      -0.568   2.683  -8.078  1.00  0.00     0.003 C 
ATOM      6  C   UNL     1       0.185   1.708  -8.978  1.00  0.00     0.004 C 
ENDBRANCH   1   5
TORSDOF 2
ENDMDL
MODEL 6
REMARK VINA RESULT:    -2.720     14.182     14.690
REMARK INTER + INTRA:          -3.043
REMARK INTER:                  -3.032
REMARK INTRA:                  -0.011
REMARK UNBOUND:                -0.005
REMARK SMILES CCCC(=O)[O-]
REMARK SMILES IDX 3 1 4 2 5 3 6 4 2 5 1 6
REMARK H PARENT
REMARK Flexibility Score: inf
ROOT
ATOM      1  C   UNL     1      -4.285   2.717  -9.277  1.00  0.00     0.052 C 
ENDROOT
BRANCH   1   2
ATOM      2  C   UNL     1      -5.708   2.292  -9.095  1.00  0.00     0.041 C 
ATOM      3  O   UNL     1      -6.237   1.484  -9.904  1.00  0.00    -0.550 OA
ATOM      4  O   UNL     1      -6.466   2.824  -8.060  1.00  0.00    -0.550 OA
ENDBRANCH   1   2
BRANCH   1   5
ATOM      5  C   UNL     1      -4.142   4.222  -9.038  1.00  0.00     0.003 C 
ATOM      6  C   UNL     1      -2.693   4.596  -8.740  1.00  0.00     0.004 C 
ENDBRANCH   1   5
TORSDOF 2
ENDMDL
MODEL 7
REMARK VINA RESULT:    -2.502     14.017     14.788
REMARK INTER + INTRA:          -2.799
REMARK INTER:                  -2.780
REMARK INTRA:                  -0.019
REMARK UNBOUND:                -0.005
REMARK SMILES CCCC(=O)[O-]
REMARK SMILES IDX 3 1 4 2 5 3 6 4 2 5 1 6
REMARK H PARENT
REMARK Flexibility Score: inf
ROOT
ATOM      1  C   UNL     1      -4.166   2.921  -9.834  1.00  0.00     0.052 C 
ENDROOT
BRANCH   1   2
ATOM      2  C   UNL     1      -3.187   3.648  -8.966  1.00  0.00     0.041 C 
ATOM      3  O   UNL     1      -2.108   3.095  -8.627  1.00  0.00    -0.550 OA
ATOM      4  O   UNL     1      -3.489   4.919  -8.493  1.00  0.00    -0.550 OA
ENDBRANCH   1   2
BRANCH   1   5
ATOM      5  C   UNL     1      -5.189   2.173  -8.977  1.00  0.00     0.003 C 
ATOM      6  C   UNL     1      -6.383   3.062  -8.645  1.00  0.00     0.004 C 
ENDBRANCH   1   5
TORSDOF 2
ENDMDL
MODEL 8
REMARK VINA RESULT:    -2.488     15.057     15.650
REMARK INTER + INTRA:          -2.784
REMARK INTER:                  -2.762
REMARK INTRA:                  -0.022
REMARK UNBOUND:                -0.005
REMARK SMILES CCCC(=O)[O-]
REMARK SMILES IDX 3 1 4 2 5 3 6 4 2 5 1 6
REMARK H PARENT
REMARK Flexibility Score: inf
ROOT
ATOM      1  C   UNL     1      -1.149   4.318  -8.445  1.00  0.00     0.052 C 
ENDROOT
BRANCH   1   2
ATOM      2  C   UNL     1      -2.592   4.017  -8.707  1.00  0.00     0.041 C 
ATOM      3  O   UNL     1      -2.932   2.895  -9.167  1.00  0.00    -0.550 OA
ATOM      4  O   UNL     1      -3.556   4.993  -8.488  1.00  0.00    -0.550 OA
ENDBRANCH   1   2
BRANCH   1   5
ATOM      5  C   UNL     1      -0.956   5.810  -8.165  1.00  0.00     0.003 C 
ATOM      6  C   UNL     1       0.164   6.390  -9.023  1.00  0.00     0.004 C 
ENDBRANCH   1   5
TORSDOF 2
ENDMDL
MODEL 9
REMARK VINA RESULT:    -2.425      2.740      3.507
REMARK INTER + INTRA:          -2.714
REMARK INTER:                  -2.659
REMARK INTRA:                  -0.055
REMARK UNBOUND:                -0.005
REMARK SMILES CCCC(=O)[O-]
REMARK SMILES IDX 3 1 4 2 5 3 6 4 2 5 1 6
REMARK H PARENT
REMARK Flexibility Score: inf
ROOT
ATOM      1  C   UNL     1      -0.646 -11.039  -4.074  1.00  0.00     0.052 C 
ENDROOT
BRANCH   1   2
ATOM      2  C   UNL     1       0.522 -10.762  -4.968  1.00  0.00     0.041 C 
ATOM      3  O   UNL     1       0.426 -10.943  -6.210  1.00  0.00    -0.550 OA
ATOM      4  O   UNL     1       1.732 -10.351  -4.424  1.00  0.00    -0.550 OA
ENDBRANCH   1   2
BRANCH   1   5
ATOM      5  C   UNL     1      -1.772 -10.037  -4.339  1.00  0.00     0.003 C 
ATOM      6  C   UNL     1      -1.546  -8.740  -3.568  1.00  0.00     0.004 C 
ENDBRANCH   1   5
TORSDOF 2
ENDMDL
