MODEL 1
REMARK VINA RESULT:    25.280      0.000      0.000
REMARK INTER + INTRA:          42.055
REMARK INTER:                  39.320
REMARK INTRA:                   2.735
REMARK UNBOUND:                 2.735
REMARK SMILES C[C@@]12C[C@@]3(O)O[C@@H](O1)[C@]1(COC(=O)c4ccccc4)[C@H]3C[C@@]12O[C@H]1O[C@H](CO)[C@@H](O)[C@@H](O)[C@@H]1O
REMARK SMILES IDX 1 1 2 2 3 3 4 4 20 5 21 6 22 7 9 8 7 9 8 10 6 11 23 12 24 13
REMARK SMILES IDX 33 14 25 15 31 16 26 17 29 18 34 19 32 21 27 23 28 24 30 26
REMARK SMILES IDX 5 28 10 30 11 31 12 32 13 33 14 34 15 35 19 36 16 37 18 38
REMARK SMILES IDX 17 39
REMARK H PARENT 34 20 32 22 28 25 30 27 5 29
REMARK Flexibility Score: inf
ROOT
ATOM      1  C   UNL     1     143.772 169.903 177.150  1.00  0.00     0.046 C 
ATOM      2  C   UNL     1     143.212 171.333 176.981  1.00  0.00     0.104 C 
ATOM      3  C   UNL     1     142.927 172.015 178.374  1.00  0.00     0.104 C 
ATOM      4  C   UNL     1     142.304 173.402 177.989  1.00  0.00     0.175 C 
ATOM      5  C   UNL     1     141.165 173.222 176.930  1.00  0.00     0.070 C 
ATOM      6  C   UNL     1     140.638 171.778 176.857  1.00  0.00     0.050 C 
ATOM      7  C   UNL     1     141.931 171.439 176.067  1.00  0.00     0.115 C 
ATOM      8  C   UNL     1     142.047 172.930 175.716  1.00  0.00     0.096 C 
ATOM      9  C   UNL     1     143.452 173.362 176.095  1.00  0.00     0.267 C 
ATOM     10  O   UNL     1     144.168 172.167 176.349  1.00  0.00    -0.342 OA
ATOM     11  O   UNL     1     143.319 174.101 177.299  1.00  0.00    -0.320 OA
ENDROOT
BRANCH   7  12
ATOM     12  O   UNL     1     141.939 170.609 174.905  1.00  0.00    -0.339 OA
BRANCH  12  13
ATOM     13  C   UNL     1     141.152 169.434 175.003  1.00  0.00     0.282 C 
ATOM     14  C   UNL     1     141.146 169.009 176.512  1.00  0.00     0.202 C 
ATOM     15  O   UNL     1     141.750 168.436 174.187  1.00  0.00    -0.341 OA
ATOM     16  C   UNL     1     141.661 167.561 176.683  1.00  0.00     0.179 C 
ATOM     17  C   UNL     1     141.083 167.180 174.237  1.00  0.00     0.178 C 
ATOM     18  C   UNL     1     140.898 166.665 175.695  1.00  0.00     0.177 C 
BRANCH  14  19
ATOM     19  O   UNL     1     139.853 169.101 177.055  1.00  0.00    -0.385 OA
ATOM     20  H   UNL     1     139.821 168.501 177.854  1.00  0.00     0.211 HD
ENDBRANCH  14  19
BRANCH  16  21
ATOM     21  O   UNL     1     143.051 167.513 176.438  1.00  0.00    -0.387 OA
ATOM     22  H   UNL     1     143.456 168.264 176.949  1.00  0.00     0.211 HD
ENDBRANCH  16  21
BRANCH  17  23
ATOM     23  C   UNL     1     139.761 167.207 173.444  1.00  0.00     0.191 C 
BRANCH  23  24
ATOM     24  O   UNL     1     139.475 165.917 172.974  1.00  0.00    -0.394 OA
ATOM     25  H   UNL     1     138.695 166.005 172.365  1.00  0.00     0.210 HD
ENDBRANCH  23  24
ENDBRANCH  17  23
BRANCH  18  26
ATOM     26  O   UNL     1     141.256 165.305 175.824  1.00  0.00    -0.387 OA
ATOM     27  H   UNL     1     140.729 164.918 176.577  1.00  0.00     0.211 HD
ENDBRANCH  18  26
ENDBRANCH  12  13
ENDBRANCH   7  12
BRANCH   4  28
ATOM     28  O   UNL     1     141.875 174.107 179.124  1.00  0.00    -0.365 OA
ATOM     29  H   UNL     1     140.903 174.284 179.009  1.00  0.00     0.214 HD
ENDBRANCH   4  28
BRANCH   8  30
ATOM     30  C   UNL     1     141.569 173.420 174.323  1.00  0.00     0.249 C 
BRANCH  30  31
ATOM     31  O   UNL     1     141.953 174.771 174.079  1.00  0.00    -0.461 OA
BRANCH  31  32
ATOM     32  C   UNL     1     142.539 175.150 172.864  1.00  0.00     0.338 C 
ATOM     33  O   UNL     1     141.837 175.206 171.818  1.00  0.00    -0.246 OA
BRANCH  32  34
ATOM     34  C   UNL     1     143.968 175.480 172.798  1.00  0.00     0.060 A 
ATOM     35  C   UNL     1     144.613 175.533 171.552  1.00  0.00     0.015 A 
ATOM     36  C   UNL     1     144.702 175.732 173.966  1.00  0.00     0.015 A 
ATOM     37  C   UNL     1     145.975 175.854 171.473  1.00  0.00     0.001 A 
ATOM     38  C   UNL     1     146.057 176.070 173.887  1.00  0.00     0.001 A 
ATOM     39  C   UNL     1     146.697 176.123 172.643  1.00  0.00     0.000 A 
ENDBRANCH  32  34
ENDBRANCH  31  32
ENDBRANCH  30  31
ENDBRANCH   8  30
TORSDOF 12
ENDMDL
MODEL 2
REMARK VINA RESULT:    25.500      1.420      2.552
REMARK INTER + INTRA:          42.397
REMARK INTER:                  41.326
REMARK INTRA:                   1.071
REMARK UNBOUND:                 2.735
REMARK SMILES C[C@@]12C[C@@]3(O)O[C@@H](O1)[C@]1(COC(=O)c4ccccc4)[C@H]3C[C@@]12O[C@H]1O[C@H](CO)[C@@H](O)[C@@H](O)[C@@H]1O
REMARK SMILES IDX 1 1 2 2 3 3 4 4 20 5 21 6 22 7 9 8 7 9 8 10 6 11 23 12 24 13
REMARK SMILES IDX 33 14 25 15 31 16 26 17 29 18 34 19 32 21 27 23 28 24 30 26
REMARK SMILES IDX 5 28 10 30 11 31 12 32 13 33 14 34 15 35 19 36 16 37 18 38
REMARK SMILES IDX 17 39
REMARK H PARENT 34 20 32 22 28 25 30 27 5 29
REMARK Flexibility Score: inf
ROOT
ATOM      1  C   UNL     1     143.748 169.151 177.043  1.00  0.00     0.046 C 
ATOM      2  C   UNL     1     143.766 170.688 177.194  1.00  0.00     0.104 C 
ATOM      3  C   UNL     1     144.936 171.167 178.138  1.00  0.00     0.104 C 
ATOM      4  C   UNL     1     144.735 172.721 178.220  1.00  0.00     0.175 C 
ATOM      5  C   UNL     1     143.243 173.070 178.542  1.00  0.00     0.070 C 
ATOM      6  C   UNL     1     142.462 171.879 179.123  1.00  0.00     0.050 C 
ATOM      7  C   UNL     1     142.404 171.323 177.675  1.00  0.00     0.115 C 
ATOM      8  C   UNL     1     142.649 172.752 177.170  1.00  0.00     0.096 C 
ATOM      9  C   UNL     1     143.818 172.682 176.203  1.00  0.00     0.267 C 
ATOM     10  O   UNL     1     144.022 171.305 175.944  1.00  0.00    -0.342 OA
ATOM     11  O   UNL     1     144.935 173.203 176.907  1.00  0.00    -0.320 OA
ENDROOT
BRANCH   7  12
ATOM     12  O   UNL     1     141.227 170.745 177.109  1.00  0.00    -0.339 OA
BRANCH  12  13
ATOM     13  C   UNL     1     141.451 169.608 176.293  1.00  0.00     0.282 C 
ATOM     14  C   UNL     1     141.460 170.103 174.805  1.00  0.00     0.202 C 
ATOM     15  O   UNL     1     140.395 168.685 176.525  1.00  0.00    -0.341 OA
ATOM     16  C   UNL     1     140.408 169.346 173.962  1.00  0.00     0.179 C 
ATOM     17  C   UNL     1     140.472 167.513 175.723  1.00  0.00     0.178 C 
ATOM     18  C   UNL     1     140.597 167.840 174.205  1.00  0.00     0.177 C 
BRANCH  14  19
ATOM     19  O   UNL     1     142.727 169.924 174.223  1.00  0.00    -0.385 OA
ATOM     20  H   UNL     1     142.765 168.989 173.872  1.00  0.00     0.211 HD
ENDBRANCH  14  19
BRANCH  16  21
ATOM     21  O   UNL     1     139.108 169.757 174.332  1.00  0.00    -0.387 OA
ATOM     22  H   UNL     1     138.804 170.399 173.635  1.00  0.00     0.211 HD
ENDBRANCH  16  21
BRANCH  17  23
ATOM     23  C   UNL     1     141.576 166.558 176.218  1.00  0.00     0.191 C 
BRANCH  23  24
ATOM     24  O   UNL     1     141.528 165.368 175.476  1.00  0.00    -0.394 OA
ATOM     25  H   UNL     1     142.458 165.181 175.182  1.00  0.00     0.210 HD
ENDBRANCH  23  24
ENDBRANCH  17  23
BRANCH  18  26
ATOM     26  O   UNL     1     139.719 167.060 173.422  1.00  0.00    -0.387 OA
ATOM     27  H   UNL     1     138.824 167.071 173.860  1.00  0.00     0.211 HD
ENDBRANCH  18  26
ENDBRANCH  12  13
ENDBRANCH   7  12
BRANCH   4  28
ATOM     28  O   UNL     1     145.632 173.308 179.125  1.00  0.00    -0.365 OA
ATOM     29  H   UNL     1     145.211 174.149 179.450  1.00  0.00     0.214 HD
ENDBRANCH   4  28
BRANCH   8  30
ATOM     30  C   UNL     1     141.446 173.598 176.675  1.00  0.00     0.249 C 
BRANCH  30  31
ATOM     31  O   UNL     1     141.859 174.638 175.792  1.00  0.00    -0.461 OA
BRANCH  31  32
ATOM     32  C   UNL     1     141.803 174.476 174.402  1.00  0.00     0.338 C 
ATOM     33  O   UNL     1     140.850 173.832 173.884  1.00  0.00    -0.246 OA
BRANCH  32  34
ATOM     34  C   UNL     1     142.847 175.046 173.542  1.00  0.00     0.060 A 
ATOM     35  C   UNL     1     144.122 175.300 174.072  1.00  0.00     0.015 A 
ATOM     36  C   UNL     1     142.583 175.354 172.200  1.00  0.00     0.015 A 
ATOM     37  C   UNL     1     145.131 175.838 173.261  1.00  0.00     0.001 A 
ATOM     38  C   UNL     1     143.594 175.873 171.385  1.00  0.00     0.001 A 
ATOM     39  C   UNL     1     144.866 176.125 171.915  1.00  0.00     0.000 A 
ENDBRANCH  32  34
ENDBRANCH  31  32
ENDBRANCH  30  31
ENDBRANCH   8  30
TORSDOF 12
ENDMDL
MODEL 3
REMARK VINA RESULT:    25.996      1.919      7.133
REMARK INTER + INTRA:          43.169
REMARK INTER:                  37.561
REMARK INTRA:                   5.608
REMARK UNBOUND:                 2.735
REMARK SMILES C[C@@]12C[C@@]3(O)O[C@@H](O1)[C@]1(COC(=O)c4ccccc4)[C@H]3C[C@@]12O[C@H]1O[C@H](CO)[C@@H](O)[C@@H](O)[C@@H]1O
REMARK SMILES IDX 1 1 2 2 3 3 4 4 20 5 21 6 22 7 9 8 7 9 8 10 6 11 23 12 24 13
REMARK SMILES IDX 33 14 25 15 31 16 26 17 29 18 34 19 32 21 27 23 28 24 30 26
REMARK SMILES IDX 5 28 10 30 11 31 12 32 13 33 14 34 15 35 19 36 16 37 18 38
REMARK SMILES IDX 17 39
REMARK H PARENT 34 20 32 22 28 25 30 27 5 29
REMARK Flexibility Score: inf
ROOT
ATOM      1  C   UNL     1     140.807 175.596 177.875  1.00  0.00     0.046 C 
ATOM      2  C   UNL     1     141.367 174.166 177.714  1.00  0.00     0.104 C 
ATOM      3  C   UNL     1     142.525 173.875 178.745  1.00  0.00     0.104 C 
ATOM      4  C   UNL     1     143.001 172.427 178.371  1.00  0.00     0.175 C 
ATOM      5  C   UNL     1     143.243 172.305 176.829  1.00  0.00     0.070 C 
ATOM      6  C   UNL     1     143.395 173.672 176.137  1.00  0.00     0.050 C 
ATOM      7  C   UNL     1     141.853 173.805 176.257  1.00  0.00     0.115 C 
ATOM      8  C   UNL     1     141.781 172.277 176.385  1.00  0.00     0.096 C 
ATOM      9  C   UNL     1     140.962 171.978 177.628  1.00  0.00     0.267 C 
ATOM     10  O   UNL     1     140.365 173.206 178.001  1.00  0.00    -0.342 OA
ATOM     11  O   UNL     1     141.896 171.584 178.622  1.00  0.00    -0.320 OA
ENDROOT
BRANCH   7  12
ATOM     12  O   UNL     1     141.029 174.297 175.199  1.00  0.00    -0.339 OA
BRANCH  12  13
ATOM     13  C   UNL     1     141.637 174.301 173.919  1.00  0.00     0.282 C 
ATOM     14  C   UNL     1     143.110 173.797 174.107  1.00  0.00     0.202 C 
ATOM     15  O   UNL     1     141.605 175.631 173.421  1.00  0.00    -0.341 OA
ATOM     16  C   UNL     1     144.123 174.832 173.566  1.00  0.00     0.179 C 
ATOM     17  C   UNL     1     142.235 175.785 172.155  1.00  0.00     0.178 C 
ATOM     18  C   UNL     1     143.689 175.226 172.145  1.00  0.00     0.177 C 
BRANCH  14  19
ATOM     19  O   UNL     1     143.310 172.573 173.447  1.00  0.00    -0.385 OA
ATOM     20  H   UNL     1     144.282 172.511 173.221  1.00  0.00     0.211 HD
ENDBRANCH  14  19
BRANCH  16  21
ATOM     21  O   UNL     1     144.158 175.961 174.414  1.00  0.00    -0.387 OA
ATOM     22  H   UNL     1     143.219 176.278 174.504  1.00  0.00     0.211 HD
ENDBRANCH  16  21
BRANCH  17  23
ATOM     23  C   UNL     1     141.370 175.211 171.016  1.00  0.00     0.191 C 
BRANCH  23  24
ATOM     24  O   UNL     1     142.180 174.956 169.900  1.00  0.00    -0.394 OA
ATOM     25  H   UNL     1     143.027 175.452 170.047  1.00  0.00     0.210 HD
ENDBRANCH  23  24
ENDBRANCH  17  23
BRANCH  18  26
ATOM     26  O   UNL     1     144.597 176.123 171.540  1.00  0.00    -0.387 OA
ATOM     27  H   UNL     1     144.753 176.877 172.174  1.00  0.00     0.211 HD
ENDBRANCH  18  26
ENDBRANCH  12  13
ENDBRANCH   7  12
BRANCH   4  28
ATOM     28  O   UNL     1     144.121 172.044 179.123  1.00  0.00    -0.365 OA
ATOM     29  H   UNL     1     144.920 172.173 178.545  1.00  0.00     0.214 HD
ENDBRANCH   4  28
BRANCH   8  30
ATOM     30  C   UNL     1     141.406 171.428 175.141  1.00  0.00     0.249 C 
BRANCH  30  31
ATOM     31  O   UNL     1     140.778 170.202 175.507  1.00  0.00    -0.461 OA
BRANCH  31  32
ATOM     32  C   UNL     1     141.528 169.040 175.730  1.00  0.00     0.338 C 
ATOM     33  O   UNL     1     142.515 169.072 176.514  1.00  0.00    -0.246 OA
BRANCH  32  34
ATOM     34  C   UNL     1     141.176 167.785 175.055  1.00  0.00     0.060 A 
ATOM     35  C   UNL     1     140.770 167.808 173.711  1.00  0.00     0.015 A 
ATOM     36  C   UNL     1     141.229 166.562 175.739  1.00  0.00     0.015 A 
ATOM     37  C   UNL     1     140.439 166.617 173.051  1.00  0.00     0.001 A 
ATOM     38  C   UNL     1     140.916 165.371 175.077  1.00  0.00     0.001 A 
ATOM     39  C   UNL     1     140.512 165.397 173.736  1.00  0.00     0.000 A 
ENDBRANCH  32  34
ENDBRANCH  31  32
ENDBRANCH  30  31
ENDBRANCH   8  30
TORSDOF 12
ENDMDL
MODEL 4
REMARK VINA RESULT:    26.554      1.021      1.620
REMARK INTER + INTRA:          44.037
REMARK INTER:                  41.711
REMARK INTRA:                   2.326
REMARK UNBOUND:                 2.735
REMARK SMILES C[C@@]12C[C@@]3(O)O[C@@H](O1)[C@]1(COC(=O)c4ccccc4)[C@H]3C[C@@]12O[C@H]1O[C@H](CO)[C@@H](O)[C@@H](O)[C@@H]1O
REMARK SMILES IDX 1 1 2 2 3 3 4 4 20 5 21 6 22 7 9 8 7 9 8 10 6 11 23 12 24 13
REMARK SMILES IDX 33 14 25 15 31 16 26 17 29 18 34 19 32 21 27 23 28 24 30 26
REMARK SMILES IDX 5 28 10 30 11 31 12 32 13 33 14 34 15 35 19 36 16 37 18 38
REMARK SMILES IDX 17 39
REMARK H PARENT 34 20 32 22 28 25 30 27 5 29
REMARK Flexibility Score: inf
ROOT
ATOM      1  C   UNL     1     144.138 170.182 177.460  1.00  0.00     0.046 C 
ATOM      2  C   UNL     1     143.387 171.505 177.188  1.00  0.00     0.104 C 
ATOM      3  C   UNL     1     142.992 172.237 178.528  1.00  0.00     0.104 C 
ATOM      4  C   UNL     1     142.187 173.493 178.044  1.00  0.00     0.175 C 
ATOM      5  C   UNL     1     141.098 173.082 176.997  1.00  0.00     0.070 C 
ATOM      6  C   UNL     1     140.778 171.577 177.026  1.00  0.00     0.050 C 
ATOM      7  C   UNL     1     142.115 171.367 176.265  1.00  0.00     0.115 C 
ATOM      8  C   UNL     1     142.027 172.831 175.810  1.00  0.00     0.096 C 
ATOM      9  C   UNL     1     143.354 173.480 176.160  1.00  0.00     0.267 C 
ATOM     10  O   UNL     1     144.225 172.418 176.500  1.00  0.00    -0.342 OA
ATOM     11  O   UNL     1     143.105 174.276 177.308  1.00  0.00    -0.320 OA
ENDROOT
BRANCH   7  12
ATOM     12  O   UNL     1     142.252 170.467 175.165  1.00  0.00    -0.339 OA
BRANCH  12  13
ATOM     13  C   UNL     1     141.418 169.323 175.220  1.00  0.00     0.282 C 
ATOM     14  C   UNL     1     141.387 168.846 176.714  1.00  0.00     0.202 C 
ATOM     15  O   UNL     1     141.978 168.329 174.372  1.00  0.00    -0.341 OA
ATOM     16  C   UNL     1     141.841 167.373 176.836  1.00  0.00     0.179 C 
ATOM     17  C   UNL     1     141.260 167.101 174.376  1.00  0.00     0.178 C 
ATOM     18  C   UNL     1     141.047 166.543 175.814  1.00  0.00     0.177 C 
BRANCH  14  19
ATOM     19  O   UNL     1     140.096 168.972 177.255  1.00  0.00    -0.385 OA
ATOM     20  H   UNL     1     139.952 169.940 177.460  1.00  0.00     0.211 HD
ENDBRANCH  14  19
BRANCH  16  21
ATOM     21  O   UNL     1     143.230 167.276 176.594  1.00  0.00    -0.387 OA
ATOM     22  H   UNL     1     143.350 167.321 175.607  1.00  0.00     0.211 HD
ENDBRANCH  16  21
BRANCH  17  23
ATOM     23  C   UNL     1     139.944 167.210 173.580  1.00  0.00     0.191 C 
BRANCH  23  24
ATOM     24  O   UNL     1     139.713 166.006 172.898  1.00  0.00    -0.394 OA
ATOM     25  H   UNL     1     138.993 165.535 173.393  1.00  0.00     0.210 HD
ENDBRANCH  23  24
ENDBRANCH  17  23
BRANCH  18  26
ATOM     26  O   UNL     1     141.348 165.166 175.898  1.00  0.00    -0.387 OA
ATOM     27  H   UNL     1     142.182 165.001 175.378  1.00  0.00     0.211 HD
ENDBRANCH  18  26
ENDBRANCH  12  13
ENDBRANCH   7  12
BRANCH   4  28
ATOM     28  O   UNL     1     141.651 174.209 179.124  1.00  0.00    -0.365 OA
ATOM     29  H   UNL     1     142.228 175.007 179.262  1.00  0.00     0.214 HD
ENDBRANCH   4  28
BRANCH   8  30
ATOM     30  C   UNL     1     141.503 173.151 174.384  1.00  0.00     0.249 C 
BRANCH  30  31
ATOM     31  O   UNL     1     141.309 174.550 174.195  1.00  0.00    -0.461 OA
BRANCH  31  32
ATOM     32  C   UNL     1     142.367 175.386 173.815  1.00  0.00     0.338 C 
ATOM     33  O   UNL     1     143.088 175.924 174.699  1.00  0.00    -0.246 OA
BRANCH  32  34
ATOM     34  C   UNL     1     142.642 175.643 172.397  1.00  0.00     0.060 A 
ATOM     35  C   UNL     1     143.960 175.881 171.975  1.00  0.00     0.015 A 
ATOM     36  C   UNL     1     141.602 175.666 171.456  1.00  0.00     0.015 A 
ATOM     37  C   UNL     1     144.239 176.121 170.623  1.00  0.00     0.001 A 
ATOM     38  C   UNL     1     141.881 175.887 170.104  1.00  0.00     0.001 A 
ATOM     39  C   UNL     1     143.197 176.124 169.686  1.00  0.00     0.000 A 
ENDBRANCH  32  34
ENDBRANCH  31  32
ENDBRANCH  30  31
ENDBRANCH   8  30
TORSDOF 12
ENDMDL
MODEL 5
REMARK VINA RESULT:    26.713      0.914      1.245
REMARK INTER + INTRA:          44.284
REMARK INTER:                  42.372
REMARK INTRA:                   1.912
REMARK UNBOUND:                 2.735
REMARK SMILES C[C@@]12C[C@@]3(O)O[C@@H](O1)[C@]1(COC(=O)c4ccccc4)[C@H]3C[C@@]12O[C@H]1O[C@H](CO)[C@@H](O)[C@@H](O)[C@@H]1O
REMARK SMILES IDX 1 1 2 2 3 3 4 4 20 5 21 6 22 7 9 8 7 9 8 10 6 11 23 12 24 13
REMARK SMILES IDX 33 14 25 15 31 16 26 17 29 18 34 19 32 21 27 23 28 24 30 26
REMARK SMILES IDX 5 28 10 30 11 31 12 32 13 33 14 34 15 35 19 36 16 37 18 38
REMARK SMILES IDX 17 39
REMARK H PARENT 34 20 32 22 28 25 30 27 5 29
REMARK Flexibility Score: inf
ROOT
ATOM      1  C   UNL     1     144.256 171.186 178.192  1.00  0.00     0.046 C 
ATOM      2  C   UNL     1     143.411 172.349 177.630  1.00  0.00     0.104 C 
ATOM      3  C   UNL     1     142.725 173.181 178.782  1.00  0.00     0.104 C 
ATOM      4  C   UNL     1     141.868 174.246 178.012  1.00  0.00     0.175 C 
ATOM      5  C   UNL     1     141.014 173.564 176.891  1.00  0.00     0.070 C 
ATOM      6  C   UNL     1     140.870 172.045 177.090  1.00  0.00     0.050 C 
ATOM      7  C   UNL     1     142.326 171.926 176.565  1.00  0.00     0.115 C 
ATOM      8  C   UNL     1     142.143 173.296 175.897  1.00  0.00     0.096 C 
ATOM      9  C   UNL     1     143.313 174.159 176.335  1.00  0.00     0.267 C 
ATOM     10  O   UNL     1     144.236 173.275 176.945  1.00  0.00    -0.342 OA
ATOM     11  O   UNL     1     142.794 175.049 177.310  1.00  0.00    -0.320 OA
ENDROOT
BRANCH   7  12
ATOM     12  O   UNL     1     142.741 170.923 175.637  1.00  0.00    -0.339 OA
BRANCH  12  13
ATOM     13  C   UNL     1     141.777 169.919 175.369  1.00  0.00     0.282 C 
ATOM     14  C   UNL     1     141.231 169.424 176.754  1.00  0.00     0.202 C 
ATOM     15  O   UNL     1     142.421 168.868 174.662  1.00  0.00    -0.341 OA
ATOM     16  C   UNL     1     141.417 167.897 176.910  1.00  0.00     0.179 C 
ATOM     17  C   UNL     1     141.571 167.765 174.376  1.00  0.00     0.178 C 
ATOM     18  C   UNL     1     140.859 167.218 175.648  1.00  0.00     0.177 C 
BRANCH  14  19
ATOM     19  O   UNL     1     139.868 169.736 176.898  1.00  0.00    -0.385 OA
ATOM     20  H   UNL     1     139.359 169.140 176.277  1.00  0.00     0.211 HD
ENDBRANCH  14  19
BRANCH  16  21
ATOM     21  O   UNL     1     142.786 167.594 177.082  1.00  0.00    -0.387 OA
ATOM     22  H   UNL     1     142.826 166.754 177.614  1.00  0.00     0.211 HD
ENDBRANCH  16  21
BRANCH  17  23
ATOM     23  C   UNL     1     140.584 168.089 173.236  1.00  0.00     0.191 C 
BRANCH  23  24
ATOM     24  O   UNL     1     141.243 167.974 172.004  1.00  0.00    -0.394 OA
ATOM     25  H   UNL     1     141.505 168.893 171.736  1.00  0.00     0.210 HD
ENDBRANCH  23  24
ENDBRANCH  17  23
BRANCH  18  26
ATOM     26  O   UNL     1     140.925 165.810 175.728  1.00  0.00    -0.387 OA
ATOM     27  H   UNL     1     141.886 165.547 175.741  1.00  0.00     0.211 HD
ENDBRANCH  18  26
ENDBRANCH  12  13
ENDBRANCH   7  12
BRANCH   4  28
ATOM     28  O   UNL     1     141.087 175.010 178.892  1.00  0.00    -0.365 OA
ATOM     29  H   UNL     1     141.158 174.588 179.790  1.00  0.00     0.214 HD
ENDBRANCH   4  28
BRANCH   8  30
ATOM     30  C   UNL     1     141.820 173.363 174.380  1.00  0.00     0.249 C 
BRANCH  30  31
ATOM     31  O   UNL     1     141.643 174.705 173.935  1.00  0.00    -0.461 OA
BRANCH  31  32
ATOM     32  C   UNL     1     142.281 175.178 172.781  1.00  0.00     0.338 C 
ATOM     33  O   UNL     1     141.623 175.318 171.714  1.00  0.00    -0.246 OA
BRANCH  32  34
ATOM     34  C   UNL     1     143.711 175.507 172.802  1.00  0.00     0.060 A 
ATOM     35  C   UNL     1     144.365 175.693 174.031  1.00  0.00     0.015 A 
ATOM     36  C   UNL     1     144.432 175.652 171.608  1.00  0.00     0.015 A 
ATOM     37  C   UNL     1     145.732 176.000 174.066  1.00  0.00     0.001 A 
ATOM     38  C   UNL     1     145.800 175.941 171.642  1.00  0.00     0.001 A 
ATOM     39  C   UNL     1     146.450 176.125 172.870  1.00  0.00     0.000 A 
ENDBRANCH  32  34
ENDBRANCH  31  32
ENDBRANCH  30  31
ENDBRANCH   8  30
TORSDOF 12
ENDMDL
