MODEL 1
REMARK VINA RESULT:    -3.341      0.000      0.000
REMARK INTER + INTRA:         -13.980
REMARK INTER:                  -8.711
REMARK INTRA:                  -5.269
REMARK UNBOUND:                -5.269
REMARK SMILES CCCCCCCCCCCCCCCCCCCCCCCCCCCCCO
REMARK SMILES IDX 16 1 15 2 14 3 13 4 12 5 11 6 10 7 9 8 8 9 7 10 6 11 5 12
REMARK SMILES IDX 4 13 3 14 2 15 1 16 17 17 18 18 19 19 20 20 21 21 22 22
REMARK SMILES IDX 23 23 24 24 25 25 26 26 27 27 28 28 29 29 30 30
REMARK H PARENT 30 31
REMARK Flexibility Score: inf
ROOT
ATOM      1  C   UNL     1      26.979 -19.614  24.741  1.00  0.00     0.000 C 
ENDROOT
BRANCH   1   2
ATOM      2  C   UNL     1      28.171 -18.647  24.643  1.00  0.00     0.000 C 
BRANCH   2   3
ATOM      3  C   UNL     1      28.052 -17.469  25.634  1.00  0.00     0.000 C 
BRANCH   3   4
ATOM      4  C   UNL     1      29.145 -16.399  25.469  1.00  0.00     0.000 C 
BRANCH   4   5
ATOM      5  C   UNL     1      30.254 -16.814  24.490  1.00  0.00     0.000 C 
BRANCH   5   6
ATOM      6  C   UNL     1      31.139 -15.627  24.052  1.00  0.00     0.000 C 
BRANCH   6   7
ATOM      7  C   UNL     1      32.544 -15.618  24.685  1.00  0.00     0.000 C 
BRANCH   7   8
ATOM      8  C   UNL     1      32.622 -15.038  26.110  1.00  0.00    -0.000 C 
BRANCH   8   9
ATOM      9  C   UNL     1      33.129 -16.017  27.186  1.00  0.00    -0.000 C 
BRANCH   9  10
ATOM     10  C   UNL     1      32.239 -16.033  28.443  1.00  0.00    -0.000 C 
BRANCH  10  11
ATOM     11  C   UNL     1      31.171 -17.138  28.400  1.00  0.00    -0.000 C 
BRANCH  11  12
ATOM     12  C   UNL     1      31.667 -18.465  29.005  1.00  0.00    -0.000 C 
BRANCH  12  13
ATOM     13  C   UNL     1      30.658 -19.615  28.822  1.00  0.00    -0.000 C 
BRANCH  13  14
ATOM     14  C   UNL     1      30.582 -20.178  27.389  1.00  0.00    -0.000 C 
BRANCH  14  15
ATOM     15  C   UNL     1      29.294 -20.977  27.134  1.00  0.00    -0.003 C 
ATOM     16  C   UNL     1      28.312 -20.820  28.292  1.00  0.00     0.004 C 
ENDBRANCH  14  15
ENDBRANCH  13  14
ENDBRANCH  12  13
ENDBRANCH  11  12
ENDBRANCH  10  11
ENDBRANCH   9  10
ENDBRANCH   8   9
ENDBRANCH   7   8
ENDBRANCH   6   7
ENDBRANCH   5   6
ENDBRANCH   4   5
ENDBRANCH   3   4
ENDBRANCH   2   3
ENDBRANCH   1   2
BRANCH   1  17
ATOM     17  C   UNL     1      26.714 -20.382  23.430  1.00  0.00     0.000 C 
BRANCH  17  18
ATOM     18  C   UNL     1      26.985 -21.898  23.494  1.00  0.00     0.000 C 
BRANCH  18  19
ATOM     19  C   UNL     1      28.451 -22.232  23.818  1.00  0.00     0.000 C 
BRANCH  19  20
ATOM     20  C   UNL     1      29.362 -22.187  22.583  1.00  0.00     0.000 C 
BRANCH  20  21
ATOM     21  C   UNL     1      30.448 -21.100  22.688  1.00  0.00     0.000 C 
BRANCH  21  22
ATOM     22  C   UNL     1      30.119 -19.854  21.851  1.00  0.00     0.000 C 
BRANCH  22  23
ATOM     23  C   UNL     1      29.056 -20.130  20.774  1.00  0.00     0.000 C 
BRANCH  23  24
ATOM     24  C   UNL     1      28.413 -18.838  20.242  1.00  0.00     0.000 C 
BRANCH  24  25
ATOM     25  C   UNL     1      28.582 -17.655  21.209  1.00  0.00     0.000 C 
BRANCH  25  26
ATOM     26  C   UNL     1      27.254 -16.915  21.410  1.00  0.00     0.000 C 
BRANCH  26  27
ATOM     27  C   UNL     1      27.469 -15.601  22.176  1.00  0.00     0.002 C 
BRANCH  27  28
ATOM     28  C   UNL     1      28.677 -14.804  21.658  1.00  0.00     0.028 C 
BRANCH  28  29
ATOM     29  C   UNL     1      28.747 -13.375  22.204  1.00  0.00     0.156 C 
BRANCH  29  30
ATOM     30  O   UNL     1      29.304 -12.515  21.248  1.00  0.00    -0.396 OA
ATOM     31  H   UNL     1      30.226 -12.317  21.557  1.00  0.00     0.210 HD
ENDBRANCH  29  30
ENDBRANCH  28  29
ENDBRANCH  27  28
ENDBRANCH  26  27
ENDBRANCH  25  26
ENDBRANCH  24  25
ENDBRANCH  23  24
ENDBRANCH  22  23
ENDBRANCH  21  22
ENDBRANCH  20  21
ENDBRANCH  19  20
ENDBRANCH  18  19
ENDBRANCH  17  18
ENDBRANCH   1  17
TORSDOF 28
ENDMDL
MODEL 2
REMARK VINA RESULT:    -3.317      2.459      7.655
REMARK INTER + INTRA:         -13.919
REMARK INTER:                  -9.451
REMARK INTRA:                  -4.468
REMARK UNBOUND:                -5.269
REMARK SMILES CCCCCCCCCCCCCCCCCCCCCCCCCCCCCO
REMARK SMILES IDX 16 1 15 2 14 3 13 4 12 5 11 6 10 7 9 8 8 9 7 10 6 11 5 12
REMARK SMILES IDX 4 13 3 14 2 15 1 16 17 17 18 18 19 19 20 20 21 21 22 22
REMARK SMILES IDX 23 23 24 24 25 25 26 26 27 27 28 28 29 29 30 30
REMARK H PARENT 30 31
REMARK Flexibility Score: inf
ROOT
ATOM      1  C   UNL     1      27.745 -20.230  25.142  1.00  0.00     0.000 C 
ENDROOT
BRANCH   1   2
ATOM      2  C   UNL     1      28.850 -21.240  24.791  1.00  0.00     0.000 C 
BRANCH   2   3
ATOM      3  C   UNL     1      28.457 -22.149  23.606  1.00  0.00     0.000 C 
BRANCH   3   4
ATOM      4  C   UNL     1      29.485 -22.166  22.462  1.00  0.00     0.000 C 
BRANCH   4   5
ATOM      5  C   UNL     1      30.468 -20.985  22.516  1.00  0.00     0.000 C 
BRANCH   5   6
ATOM      6  C   UNL     1      30.018 -19.793  21.644  1.00  0.00     0.000 C 
BRANCH   6   7
ATOM      7  C   UNL     1      29.015 -20.166  20.535  1.00  0.00     0.000 C 
BRANCH   7   8
ATOM      8  C   UNL     1      27.930 -19.112  20.244  1.00  0.00    -0.000 C 
BRANCH   8   9
ATOM      9  C   UNL     1      28.102 -17.775  20.989  1.00  0.00    -0.000 C 
BRANCH   9  10
ATOM     10  C   UNL     1      26.889 -17.421  21.869  1.00  0.00    -0.000 C 
BRANCH  10  11
ATOM     11  C   UNL     1      26.845 -15.932  22.248  1.00  0.00    -0.000 C 
BRANCH  11  12
ATOM     12  C   UNL     1      28.079 -15.157  21.748  1.00  0.00    -0.000 C 
BRANCH  12  13
ATOM     13  C   UNL     1      27.772 -13.676  21.455  1.00  0.00    -0.000 C 
BRANCH  13  14
ATOM     14  C   UNL     1      28.918 -12.704  21.799  1.00  0.00    -0.000 C 
BRANCH  14  15
ATOM     15  C   UNL     1      30.048 -13.378  22.593  1.00  0.00    -0.003 C 
ATOM     16  C   UNL     1      30.519 -12.491  23.742  1.00  0.00     0.004 C 
ENDBRANCH  14  15
ENDBRANCH  13  14
ENDBRANCH  12  13
ENDBRANCH  11  12
ENDBRANCH  10  11
ENDBRANCH   9  10
ENDBRANCH   8   9
ENDBRANCH   7   8
ENDBRANCH   6   7
ENDBRANCH   5   6
ENDBRANCH   4   5
ENDBRANCH   3   4
ENDBRANCH   2   3
ENDBRANCH   1   2
BRANCH   1  17
ATOM     17  C   UNL     1      28.104 -18.781  24.755  1.00  0.00     0.000 C 
BRANCH  17  18
ATOM     18  C   UNL     1      29.577 -18.388  24.985  1.00  0.00     0.000 C 
BRANCH  18  19
ATOM     19  C   UNL     1      30.007 -17.163  24.161  1.00  0.00     0.000 C 
BRANCH  19  20
ATOM     20  C   UNL     1      30.616 -16.047  25.023  1.00  0.00     0.000 C 
BRANCH  20  21
ATOM     21  C   UNL     1      32.054 -15.692  24.601  1.00  0.00     0.000 C 
BRANCH  21  22
ATOM     22  C   UNL     1      32.934 -15.281  25.792  1.00  0.00     0.000 C 
BRANCH  22  23
ATOM     23  C   UNL     1      32.993 -16.362  26.884  1.00  0.00     0.000 C 
BRANCH  23  24
ATOM     24  C   UNL     1      32.704 -15.795  28.284  1.00  0.00     0.000 C 
BRANCH  24  25
ATOM     25  C   UNL     1      31.844 -16.742  29.137  1.00  0.00     0.000 C 
BRANCH  25  26
ATOM     26  C   UNL     1      31.059 -17.719  28.254  1.00  0.00     0.000 C 
BRANCH  26  27
ATOM     27  C   UNL     1      31.302 -19.171  28.691  1.00  0.00     0.002 C 
BRANCH  27  28
ATOM     28  C   UNL     1      30.454 -20.178  27.897  1.00  0.00     0.028 C 
BRANCH  28  29
ATOM     29  C   UNL     1      29.466 -20.964  28.764  1.00  0.00     0.156 C 
BRANCH  29  30
ATOM     30  O   UNL     1      30.146 -21.643  29.784  1.00  0.00    -0.396 OA
ATOM     31  H   UNL     1      30.064 -22.610  29.575  1.00  0.00     0.210 HD
ENDBRANCH  29  30
ENDBRANCH  28  29
ENDBRANCH  27  28
ENDBRANCH  26  27
ENDBRANCH  25  26
ENDBRANCH  24  25
ENDBRANCH  23  24
ENDBRANCH  22  23
ENDBRANCH  21  22
ENDBRANCH  20  21
ENDBRANCH  19  20
ENDBRANCH  18  19
ENDBRANCH  17  18
ENDBRANCH   1  17
TORSDOF 28
ENDMDL
MODEL 3
REMARK VINA RESULT:    -3.193      2.696      7.208
REMARK INTER + INTRA:         -13.594
REMARK INTER:                  -8.499
REMARK INTRA:                  -5.095
REMARK UNBOUND:                -5.269
REMARK SMILES CCCCCCCCCCCCCCCCCCCCCCCCCCCCCO
REMARK SMILES IDX 16 1 15 2 14 3 13 4 12 5 11 6 10 7 9 8 8 9 7 10 6 11 5 12
REMARK SMILES IDX 4 13 3 14 2 15 1 16 17 17 18 18 19 19 20 20 21 21 22 22
REMARK SMILES IDX 23 23 24 24 25 25 26 26 27 27 28 28 29 29 30 30
REMARK H PARENT 30 31
REMARK Flexibility Score: inf
ROOT
ATOM      1  C   UNL     1      30.145 -12.506  25.256  1.00  0.00     0.000 C 
ENDROOT
BRANCH   1   2
ATOM      2  C   UNL     1      30.954 -12.308  23.963  1.00  0.00     0.000 C 
BRANCH   2   3
ATOM      3  C   UNL     1      30.306 -13.014  22.752  1.00  0.00     0.000 C 
BRANCH   3   4
ATOM      4  C   UNL     1      28.896 -13.563  23.028  1.00  0.00     0.000 C 
BRANCH   4   5
ATOM      5  C   UNL     1      28.487 -14.690  22.066  1.00  0.00     0.000 C 
BRANCH   5   6
ATOM      6  C   UNL     1      27.383 -15.599  22.646  1.00  0.00     0.000 C 
BRANCH   6   7
ATOM      7  C   UNL     1      27.437 -17.056  22.147  1.00  0.00     0.000 C 
BRANCH   7   8
ATOM      8  C   UNL     1      28.640 -17.403  21.250  1.00  0.00    -0.000 C 
BRANCH   8   9
ATOM      9  C   UNL     1      28.907 -18.909  21.068  1.00  0.00    -0.000 C 
BRANCH   9  10
ATOM     10  C   UNL     1      29.953 -19.453  22.058  1.00  0.00    -0.000 C 
BRANCH  10  11
ATOM     11  C   UNL     1      30.463 -20.851  21.673  1.00  0.00    -0.000 C 
BRANCH  11  12
ATOM     12  C   UNL     1      30.042 -21.935  22.684  1.00  0.00    -0.000 C 
BRANCH  12  13
ATOM     13  C   UNL     1      28.529 -22.223  22.650  1.00  0.00    -0.000 C 
BRANCH  13  14
ATOM     14  C   UNL     1      27.932 -22.676  23.997  1.00  0.00    -0.000 C 
BRANCH  14  15
ATOM     15  C   UNL     1      26.727 -21.826  24.426  1.00  0.00    -0.003 C 
ATOM     16  C   UNL     1      26.743 -20.462  23.741  1.00  0.00     0.004 C 
ENDBRANCH  14  15
ENDBRANCH  13  14
ENDBRANCH  12  13
ENDBRANCH  11  12
ENDBRANCH  10  11
ENDBRANCH   9  10
ENDBRANCH   8   9
ENDBRANCH   7   8
ENDBRANCH   6   7
ENDBRANCH   5   6
ENDBRANCH   4   5
ENDBRANCH   3   4
ENDBRANCH   2   3
ENDBRANCH   1   2
BRANCH   1  17
ATOM     17  C   UNL     1      31.032 -12.751  26.493  1.00  0.00     0.000 C 
BRANCH  17  18
ATOM     18  C   UNL     1      32.450 -13.272  26.188  1.00  0.00     0.000 C 
BRANCH  18  19
ATOM     19  C   UNL     1      32.820 -14.522  27.005  1.00  0.00     0.000 C 
BRANCH  19  20
ATOM     20  C   UNL     1      32.532 -15.832  26.257  1.00  0.00     0.000 C 
BRANCH  20  21
ATOM     21  C   UNL     1      32.389 -15.625  24.737  1.00  0.00     0.000 C 
BRANCH  21  22
ATOM     22  C   UNL     1      31.119 -16.277  24.169  1.00  0.00     0.000 C 
BRANCH  22  23
ATOM     23  C   UNL     1      30.017 -16.445  25.229  1.00  0.00     0.000 C 
BRANCH  23  24
ATOM     24  C   UNL     1      29.403 -17.855  25.217  1.00  0.00     0.000 C 
BRANCH  24  25
ATOM     25  C   UNL     1      29.927 -18.735  26.364  1.00  0.00     0.000 C 
BRANCH  25  26
ATOM     26  C   UNL     1      29.515 -20.198  26.167  1.00  0.00     0.000 C 
BRANCH  26  27
ATOM     27  C   UNL     1      29.330 -20.903  27.519  1.00  0.00     0.002 C 
BRANCH  27  28
ATOM     28  C   UNL     1      29.147 -19.914  28.682  1.00  0.00     0.028 C 
BRANCH  28  29
ATOM     29  C   UNL     1      29.641 -20.453  30.028  1.00  0.00     0.156 C 
BRANCH  29  30
ATOM     30  O   UNL     1      30.109 -21.766  29.884  1.00  0.00    -0.396 OA
ATOM     31  H   UNL     1      29.431 -22.244  29.340  1.00  0.00     0.210 HD
ENDBRANCH  29  30
ENDBRANCH  28  29
ENDBRANCH  27  28
ENDBRANCH  26  27
ENDBRANCH  25  26
ENDBRANCH  24  25
ENDBRANCH  23  24
ENDBRANCH  22  23
ENDBRANCH  21  22
ENDBRANCH  20  21
ENDBRANCH  19  20
ENDBRANCH  18  19
ENDBRANCH  17  18
ENDBRANCH   1  17
TORSDOF 28
ENDMDL
MODEL 4
REMARK VINA RESULT:    -3.161      1.688      5.219
REMARK INTER + INTRA:         -13.512
REMARK INTER:                  -7.859
REMARK INTRA:                  -5.654
REMARK UNBOUND:                -5.269
REMARK SMILES CCCCCCCCCCCCCCCCCCCCCCCCCCCCCO
REMARK SMILES IDX 16 1 15 2 14 3 13 4 12 5 11 6 10 7 9 8 8 9 7 10 6 11 5 12
REMARK SMILES IDX 4 13 3 14 2 15 1 16 17 17 18 18 19 19 20 20 21 21 22 22
REMARK SMILES IDX 23 23 24 24 25 25 26 26 27 27 28 28 29 29 30 30
REMARK H PARENT 30 31
REMARK Flexibility Score: inf
ROOT
ATOM      1  C   UNL     1      30.670 -20.536  22.127  1.00  0.00     0.000 C 
ENDROOT
BRANCH   1   2
ATOM      2  C   UNL     1      30.349 -21.579  21.043  1.00  0.00     0.000 C 
BRANCH   2   3
ATOM      3  C   UNL     1      29.395 -22.680  21.554  1.00  0.00     0.000 C 
BRANCH   3   4
ATOM      4  C   UNL     1      29.203 -22.684  23.080  1.00  0.00     0.000 C 
BRANCH   4   5
ATOM      5  C   UNL     1      27.727 -22.610  23.503  1.00  0.00     0.000 C 
BRANCH   5   6
ATOM      6  C   UNL     1      26.906 -21.631  22.636  1.00  0.00     0.000 C 
BRANCH   6   7
ATOM      7  C   UNL     1      26.557 -20.305  23.340  1.00  0.00     0.000 C 
BRANCH   7   8
ATOM      8  C   UNL     1      27.295 -20.047  24.667  1.00  0.00    -0.000 C 
BRANCH   8   9
ATOM      9  C   UNL     1      26.391 -19.671  25.856  1.00  0.00    -0.000 C 
BRANCH   9  10
ATOM     10  C   UNL     1      26.734 -20.453  27.137  1.00  0.00    -0.000 C 
BRANCH  10  11
ATOM     11  C   UNL     1      27.958 -21.367  26.965  1.00  0.00    -0.000 C 
BRANCH  11  12
ATOM     12  C   UNL     1      29.161 -20.911  27.811  1.00  0.00    -0.000 C 
BRANCH  12  13
ATOM     13  C   UNL     1      30.256 -20.228  26.968  1.00  0.00    -0.000 C 
BRANCH  13  14
ATOM     14  C   UNL     1      30.068 -18.710  26.782  1.00  0.00    -0.000 C 
BRANCH  14  15
ATOM     15  C   UNL     1      29.493 -18.027  28.032  1.00  0.00    -0.003 C 
ATOM     16  C   UNL     1      28.384 -17.046  27.663  1.00  0.00     0.004 C 
ENDBRANCH  14  15
ENDBRANCH  13  14
ENDBRANCH  12  13
ENDBRANCH  11  12
ENDBRANCH  10  11
ENDBRANCH   9  10
ENDBRANCH   8   9
ENDBRANCH   7   8
ENDBRANCH   6   7
ENDBRANCH   5   6
ENDBRANCH   4   5
ENDBRANCH   3   4
ENDBRANCH   2   3
ENDBRANCH   1   2
BRANCH   1  17
ATOM     17  C   UNL     1      29.866 -19.230  21.966  1.00  0.00     0.000 C 
BRANCH  17  18
ATOM     18  C   UNL     1      29.000 -19.147  20.694  1.00  0.00     0.000 C 
BRANCH  18  19
ATOM     19  C   UNL     1      27.874 -18.104  20.800  1.00  0.00     0.000 C 
BRANCH  19  20
ATOM     20  C   UNL     1      28.307 -16.831  21.540  1.00  0.00     0.000 C 
BRANCH  20  21
ATOM     21  C   UNL     1      27.275 -16.377  22.591  1.00  0.00     0.000 C 
BRANCH  21  22
ATOM     22  C   UNL     1      27.806 -16.496  24.028  1.00  0.00     0.000 C 
BRANCH  22  23
ATOM     23  C   UNL     1      29.337 -16.376  24.104  1.00  0.00     0.000 C 
BRANCH  23  24
ATOM     24  C   UNL     1      29.794 -14.968  24.518  1.00  0.00     0.000 C 
BRANCH  24  25
ATOM     25  C   UNL     1      30.905 -14.417  23.610  1.00  0.00     0.000 C 
BRANCH  25  26
ATOM     26  C   UNL     1      30.511 -13.058  23.019  1.00  0.00     0.000 C 
BRANCH  26  27
ATOM     27  C   UNL     1      29.313 -13.200  22.069  1.00  0.00     0.002 C 
BRANCH  27  28
ATOM     28  C   UNL     1      28.020 -12.606  22.653  1.00  0.00     0.028 C 
BRANCH  28  29
ATOM     29  C   UNL     1      27.842 -11.115  22.353  1.00  0.00     0.156 C 
BRANCH  29  30
ATOM     30  O   UNL     1      28.117 -10.853  21.004  1.00  0.00    -0.396 OA
ATOM     31  H   UNL     1      28.909 -11.404  20.771  1.00  0.00     0.210 HD
ENDBRANCH  29  30
ENDBRANCH  28  29
ENDBRANCH  27  28
ENDBRANCH  26  27
ENDBRANCH  25  26
ENDBRANCH  24  25
ENDBRANCH  23  24
ENDBRANCH  22  23
ENDBRANCH  21  22
ENDBRANCH  20  21
ENDBRANCH  19  20
ENDBRANCH  18  19
ENDBRANCH  17  18
ENDBRANCH   1  17
TORSDOF 28
ENDMDL
MODEL 5
REMARK VINA RESULT:    -3.159      1.429      3.688
REMARK INTER + INTRA:         -13.508
REMARK INTER:                  -8.291
REMARK INTRA:                  -5.216
REMARK UNBOUND:                -5.269
REMARK SMILES CCCCCCCCCCCCCCCCCCCCCCCCCCCCCO
REMARK SMILES IDX 16 1 15 2 14 3 13 4 12 5 11 6 10 7 9 8 8 9 7 10 6 11 5 12
REMARK SMILES IDX 4 13 3 14 2 15 1 16 17 17 18 18 19 19 20 20 21 21 22 22
REMARK SMILES IDX 23 23 24 24 25 25 26 26 27 27 28 28 29 29 30 30
REMARK H PARENT 30 31
REMARK Flexibility Score: inf
ROOT
ATOM      1  C   UNL     1      26.527 -22.181  24.624  1.00  0.00     0.000 C 
ENDROOT
BRANCH   1   2
ATOM      2  C   UNL     1      27.259 -22.308  25.971  1.00  0.00     0.000 C 
BRANCH   2   3
ATOM      3  C   UNL     1      27.613 -20.934  26.577  1.00  0.00     0.000 C 
BRANCH   3   4
ATOM      4  C   UNL     1      29.036 -20.852  27.157  1.00  0.00     0.000 C 
BRANCH   4   5
ATOM      5  C   UNL     1      30.005 -20.057  26.267  1.00  0.00     0.000 C 
BRANCH   5   6
ATOM      6  C   UNL     1      29.898 -18.532  26.481  1.00  0.00     0.000 C 
BRANCH   6   7
ATOM      7  C   UNL     1      29.685 -18.114  27.949  1.00  0.00     0.000 C 
BRANCH   7   8
ATOM      8  C   UNL     1      30.692 -17.084  28.495  1.00  0.00    -0.000 C 
BRANCH   8   9
ATOM      9  C   UNL     1      32.125 -17.218  27.948  1.00  0.00    -0.000 C 
BRANCH   9  10
ATOM     10  C   UNL     1      32.662 -15.904  27.352  1.00  0.00    -0.000 C 
BRANCH  10  11
ATOM     11  C   UNL     1      32.801 -15.961  25.822  1.00  0.00    -0.000 C 
BRANCH  11  12
ATOM     12  C   UNL     1      31.495 -15.588  25.094  1.00  0.00    -0.000 C 
BRANCH  12  13
ATOM     13  C   UNL     1      31.346 -14.069  24.880  1.00  0.00    -0.000 C 
BRANCH  13  14
ATOM     14  C   UNL     1      30.355 -13.381  25.839  1.00  0.00    -0.000 C 
BRANCH  14  15
ATOM     15  C   UNL     1      28.928 -13.936  25.714  1.00  0.00    -0.003 C 
ATOM     16  C   UNL     1      28.468 -14.570  27.024  1.00  0.00     0.004 C 
ENDBRANCH  14  15
ENDBRANCH  13  14
ENDBRANCH  12  13
ENDBRANCH  11  12
ENDBRANCH  10  11
ENDBRANCH   9  10
ENDBRANCH   8   9
ENDBRANCH   7   8
ENDBRANCH   6   7
ENDBRANCH   5   6
ENDBRANCH   4   5
ENDBRANCH   3   4
ENDBRANCH   2   3
ENDBRANCH   1   2
BRANCH   1  17
ATOM     17  C   UNL     1      27.351 -22.717  23.436  1.00  0.00     0.000 C 
BRANCH  17  18
ATOM     18  C   UNL     1      28.880 -22.674  23.627  1.00  0.00     0.000 C 
BRANCH  18  19
ATOM     19  C   UNL     1      29.641 -22.403  22.318  1.00  0.00     0.000 C 
BRANCH  19  20
ATOM     20  C   UNL     1      30.672 -21.273  22.449  1.00  0.00     0.000 C 
BRANCH  20  21
ATOM     21  C   UNL     1      30.180 -19.950  21.832  1.00  0.00     0.000 C 
BRANCH  21  22
ATOM     22  C   UNL     1      29.484 -19.042  22.858  1.00  0.00     0.000 C 
BRANCH  22  23
ATOM     23  C   UNL     1      27.950 -19.145  22.793  1.00  0.00     0.000 C 
BRANCH  23  24
ATOM     24  C   UNL     1      27.259 -18.244  23.829  1.00  0.00     0.000 C 
BRANCH  24  25
ATOM     25  C   UNL     1      27.921 -16.861  23.941  1.00  0.00     0.000 C 
BRANCH  25  26
ATOM     26  C   UNL     1      27.345 -15.890  22.903  1.00  0.00     0.000 C 
BRANCH  26  27
ATOM     27  C   UNL     1      28.276 -15.771  21.687  1.00  0.00     0.002 C 
BRANCH  27  28
ATOM     28  C   UNL     1      29.313 -14.647  21.843  1.00  0.00     0.028 C 
BRANCH  28  29
ATOM     29  C   UNL     1      28.690 -13.269  22.084  1.00  0.00     0.156 C 
BRANCH  29  30
ATOM     30  O   UNL     1      29.309 -12.306  21.275  1.00  0.00    -0.396 OA
ATOM     31  H   UNL     1      28.734 -11.499  21.317  1.00  0.00     0.210 HD
ENDBRANCH  29  30
ENDBRANCH  28  29
ENDBRANCH  27  28
ENDBRANCH  26  27
ENDBRANCH  25  26
ENDBRANCH  24  25
ENDBRANCH  23  24
ENDBRANCH  22  23
ENDBRANCH  21  22
ENDBRANCH  20  21
ENDBRANCH  19  20
ENDBRANCH  18  19
ENDBRANCH  17  18
ENDBRANCH   1  17
TORSDOF 28
ENDMDL
MODEL 6
REMARK VINA RESULT:    -3.133      1.675      5.200
REMARK INTER + INTRA:         -13.439
REMARK INTER:                  -7.727
REMARK INTRA:                  -5.711
REMARK UNBOUND:                -5.269
REMARK SMILES CCCCCCCCCCCCCCCCCCCCCCCCCCCCCO
REMARK SMILES IDX 16 1 15 2 14 3 13 4 12 5 11 6 10 7 9 8 8 9 7 10 6 11 5 12
REMARK SMILES IDX 4 13 3 14 2 15 1 16 17 17 18 18 19 19 20 20 21 21 22 22
REMARK SMILES IDX 23 23 24 24 25 25 26 26 27 27 28 28 29 29 30 30
REMARK H PARENT 30 31
REMARK Flexibility Score: inf
ROOT
ATOM      1  C   UNL     1      27.625 -21.415  24.574  1.00  0.00     0.000 C 
ENDROOT
BRANCH   1   2
ATOM      2  C   UNL     1      27.841 -22.683  23.730  1.00  0.00     0.000 C 
BRANCH   2   3
ATOM      3  C   UNL     1      28.538 -22.380  22.386  1.00  0.00     0.000 C 
BRANCH   3   4
ATOM      4  C   UNL     1      30.051 -22.127  22.509  1.00  0.00     0.000 C 
BRANCH   4   5
ATOM      5  C   UNL     1      30.476 -20.743  21.991  1.00  0.00     0.000 C 
BRANCH   5   6
ATOM      6  C   UNL     1      29.294 -19.932  21.418  1.00  0.00     0.000 C 
BRANCH   6   7
ATOM      7  C   UNL     1      28.901 -18.706  22.265  1.00  0.00     0.000 C 
BRANCH   7   8
ATOM      8  C   UNL     1      29.756 -18.471  23.524  1.00  0.00    -0.000 C 
BRANCH   8   9
ATOM      9  C   UNL     1      29.017 -17.804  24.700  1.00  0.00    -0.000 C 
BRANCH   9  10
ATOM     10  C   UNL     1      27.486 -17.842  24.541  1.00  0.00    -0.000 C 
BRANCH  10  11
ATOM     11  C   UNL     1      26.756 -18.039  25.880  1.00  0.00    -0.000 C 
BRANCH  11  12
ATOM     12  C   UNL     1      27.520 -17.425  27.068  1.00  0.00    -0.000 C 
BRANCH  12  13
ATOM     13  C   UNL     1      27.185 -18.108  28.407  1.00  0.00    -0.000 C 
BRANCH  13  14
ATOM     14  C   UNL     1      27.746 -17.390  29.650  1.00  0.00    -0.000 C 
BRANCH  14  15
ATOM     15  C   UNL     1      28.353 -18.364  30.672  1.00  0.00    -0.003 C 
ATOM     16  C   UNL     1      27.432 -19.557  30.911  1.00  0.00     0.004 C 
ENDBRANCH  14  15
ENDBRANCH  13  14
ENDBRANCH  12  13
ENDBRANCH  11  12
ENDBRANCH  10  11
ENDBRANCH   9  10
ENDBRANCH   8   9
ENDBRANCH   7   8
ENDBRANCH   6   7
ENDBRANCH   5   6
ENDBRANCH   4   5
ENDBRANCH   3   4
ENDBRANCH   2   3
ENDBRANCH   1   2
BRANCH   1  17
ATOM     17  C   UNL     1      28.002 -21.605  26.058  1.00  0.00     0.000 C 
BRANCH  17  18
ATOM     18  C   UNL     1      29.280 -20.868  26.507  1.00  0.00     0.000 C 
BRANCH  18  19
ATOM     19  C   UNL     1      29.461 -20.860  28.035  1.00  0.00     0.000 C 
BRANCH  19  20
ATOM     20  C   UNL     1      30.744 -20.143  28.480  1.00  0.00     0.000 C 
BRANCH  20  21
ATOM     21  C   UNL     1      30.858 -18.720  27.901  1.00  0.00     0.000 C 
BRANCH  21  22
ATOM     22  C   UNL     1      31.592 -17.756  28.845  1.00  0.00     0.000 C 
BRANCH  22  23
ATOM     23  C   UNL     1      31.377 -16.280  28.466  1.00  0.00     0.000 C 
BRANCH  23  24
ATOM     24  C   UNL     1      31.015 -16.104  26.982  1.00  0.00     0.000 C 
BRANCH  24  25
ATOM     25  C   UNL     1      32.116 -15.381  26.189  1.00  0.00     0.000 C 
BRANCH  25  26
ATOM     26  C   UNL     1      31.994 -15.671  24.689  1.00  0.00     0.000 C 
BRANCH  26  27
ATOM     27  C   UNL     1      31.394 -14.469  23.945  1.00  0.00     0.002 C 
BRANCH  27  28
ATOM     28  C   UNL     1      29.890 -14.631  23.674  1.00  0.00     0.028 C 
BRANCH  28  29
ATOM     29  C   UNL     1      29.472 -14.204  22.263  1.00  0.00     0.156 C 
BRANCH  29  30
ATOM     30  O   UNL     1      29.522 -15.298  21.389  1.00  0.00    -0.396 OA
ATOM     31  H   UNL     1      29.913 -14.960  20.543  1.00  0.00     0.210 HD
ENDBRANCH  29  30
ENDBRANCH  28  29
ENDBRANCH  27  28
ENDBRANCH  26  27
ENDBRANCH  25  26
ENDBRANCH  24  25
ENDBRANCH  23  24
ENDBRANCH  22  23
ENDBRANCH  21  22
ENDBRANCH  20  21
ENDBRANCH  19  20
ENDBRANCH  18  19
ENDBRANCH  17  18
ENDBRANCH   1  17
TORSDOF 28
ENDMDL
MODEL 7
REMARK VINA RESULT:    -3.125      2.589      6.122
REMARK INTER + INTRA:         -13.418
REMARK INTER:                  -8.497
REMARK INTRA:                  -4.921
REMARK UNBOUND:                -5.269
REMARK SMILES CCCCCCCCCCCCCCCCCCCCCCCCCCCCCO
REMARK SMILES IDX 16 1 15 2 14 3 13 4 12 5 11 6 10 7 9 8 8 9 7 10 6 11 5 12
REMARK SMILES IDX 4 13 3 14 2 15 1 16 17 17 18 18 19 19 20 20 21 21 22 22
REMARK SMILES IDX 23 23 24 24 25 25 26 26 27 27 28 28 29 29 30 30
REMARK H PARENT 30 31
REMARK Flexibility Score: inf
ROOT
ATOM      1  C   UNL     1      29.198 -22.698  21.612  1.00  0.00     0.000 C 
ENDROOT
BRANCH   1   2
ATOM      2  C   UNL     1      30.474 -21.951  21.187  1.00  0.00     0.000 C 
BRANCH   2   3
ATOM      3  C   UNL     1      30.767 -20.733  22.089  1.00  0.00     0.000 C 
BRANCH   3   4
ATOM      4  C   UNL     1      29.861 -19.520  21.817  1.00  0.00     0.000 C 
BRANCH   4   5
ATOM      5  C   UNL     1      29.702 -18.599  23.038  1.00  0.00     0.000 C 
BRANCH   5   6
ATOM      6  C   UNL     1      28.233 -18.204  23.300  1.00  0.00     0.000 C 
BRANCH   6   7
ATOM      7  C   UNL     1      27.556 -17.473  22.125  1.00  0.00     0.000 C 
BRANCH   7   8
ATOM      8  C   UNL     1      28.222 -16.152  21.696  1.00  0.00    -0.000 C 
BRANCH   8   9
ATOM      9  C   UNL     1      27.660 -14.887  22.370  1.00  0.00    -0.000 C 
BRANCH   9  10
ATOM     10  C   UNL     1      28.657 -14.238  23.347  1.00  0.00    -0.000 C 
BRANCH  10  11
ATOM     11  C   UNL     1      30.112 -14.333  22.859  1.00  0.00    -0.000 C 
BRANCH  11  12
ATOM     12  C   UNL     1      31.025 -15.067  23.859  1.00  0.00    -0.000 C 
BRANCH  12  13
ATOM     13  C   UNL     1      30.286 -15.481  25.147  1.00  0.00    -0.000 C 
BRANCH  13  14
ATOM     14  C   UNL     1      30.905 -16.685  25.882  1.00  0.00    -0.000 C 
BRANCH  14  15
ATOM     15  C   UNL     1      32.038 -16.278  26.836  1.00  0.00    -0.003 C 
ATOM     16  C   UNL     1      32.040 -17.146  28.091  1.00  0.00     0.004 C 
ENDBRANCH  14  15
ENDBRANCH  13  14
ENDBRANCH  12  13
ENDBRANCH  11  12
ENDBRANCH  10  11
ENDBRANCH   9  10
ENDBRANCH   8   9
ENDBRANCH   7   8
ENDBRANCH   6   7
ENDBRANCH   5   6
ENDBRANCH   4   5
ENDBRANCH   3   4
ENDBRANCH   2   3
ENDBRANCH   1   2
BRANCH   1  17
ATOM     17  C   UNL     1      28.140 -22.774  20.492  1.00  0.00     0.000 C 
BRANCH  17  18
ATOM     18  C   UNL     1      26.697 -22.458  20.934  1.00  0.00     0.000 C 
BRANCH  18  19
ATOM     19  C   UNL     1      26.521 -21.007  21.416  1.00  0.00     0.000 C 
BRANCH  19  20
ATOM     20  C   UNL     1      25.540 -20.883  22.590  1.00  0.00     0.000 C 
BRANCH  20  21
ATOM     21  C   UNL     1      25.385 -22.201  23.373  1.00  0.00     0.000 C 
BRANCH  21  22
ATOM     22  C   UNL     1      25.970 -22.117  24.791  1.00  0.00     0.000 C 
BRANCH  22  23
ATOM     23  C   UNL     1      27.358 -22.772  24.897  1.00  0.00     0.000 C 
BRANCH  23  24
ATOM     24  C   UNL     1      28.493 -21.734  24.918  1.00  0.00     0.000 C 
BRANCH  24  25
ATOM     25  C   UNL     1      28.355 -20.733  26.076  1.00  0.00     0.000 C 
BRANCH  25  26
ATOM     26  C   UNL     1      29.694 -20.049  26.374  1.00  0.00     0.000 C 
BRANCH  26  27
ATOM     27  C   UNL     1      30.211 -20.437  27.767  1.00  0.00     0.002 C 
BRANCH  27  28
ATOM     28  C   UNL     1      29.147 -21.155  28.614  1.00  0.00     0.028 C 
BRANCH  28  29
ATOM     29  C   UNL     1      29.127 -20.707  30.079  1.00  0.00     0.156 C 
BRANCH  29  30
ATOM     30  O   UNL     1      28.032 -19.866  30.316  1.00  0.00    -0.396 OA
ATOM     31  H   UNL     1      28.409 -19.003  30.628  1.00  0.00     0.210 HD
ENDBRANCH  29  30
ENDBRANCH  28  29
ENDBRANCH  27  28
ENDBRANCH  26  27
ENDBRANCH  25  26
ENDBRANCH  24  25
ENDBRANCH  23  24
ENDBRANCH  22  23
ENDBRANCH  21  22
ENDBRANCH  20  21
ENDBRANCH  19  20
ENDBRANCH  18  19
ENDBRANCH  17  18
ENDBRANCH   1  17
TORSDOF 28
ENDMDL
MODEL 8
REMARK VINA RESULT:    -3.113      1.503      6.341
REMARK INTER + INTRA:         -13.387
REMARK INTER:                  -8.327
REMARK INTRA:                  -5.060
REMARK UNBOUND:                -5.269
REMARK SMILES CCCCCCCCCCCCCCCCCCCCCCCCCCCCCO
REMARK SMILES IDX 16 1 15 2 14 3 13 4 12 5 11 6 10 7 9 8 8 9 7 10 6 11 5 12
REMARK SMILES IDX 4 13 3 14 2 15 1 16 17 17 18 18 19 19 20 20 21 21 22 22
REMARK SMILES IDX 23 23 24 24 25 25 26 26 27 27 28 28 29 29 30 30
REMARK H PARENT 30 31
REMARK Flexibility Score: inf
ROOT
ATOM      1  C   UNL     1      29.059 -20.905  26.315  1.00  0.00     0.000 C 
ENDROOT
BRANCH   1   2
ATOM      2  C   UNL     1      28.015 -21.103  25.203  1.00  0.00     0.000 C 
BRANCH   2   3
ATOM      3  C   UNL     1      27.604 -22.583  25.043  1.00  0.00     0.000 C 
BRANCH   3   4
ATOM      4  C   UNL     1      26.739 -22.862  23.802  1.00  0.00     0.000 C 
BRANCH   4   5
ATOM      5  C   UNL     1      26.437 -21.599  22.979  1.00  0.00     0.000 C 
BRANCH   5   6
ATOM      6  C   UNL     1      26.902 -21.718  21.512  1.00  0.00     0.000 C 
BRANCH   6   7
ATOM      7  C   UNL     1      27.776 -22.954  21.225  1.00  0.00     0.000 C 
BRANCH   7   8
ATOM      8  C   UNL     1      29.270 -22.666  20.984  1.00  0.00    -0.000 C 
BRANCH   8   9
ATOM      9  C   UNL     1      30.068 -22.264  22.238  1.00  0.00    -0.000 C 
BRANCH   9  10
ATOM     10  C   UNL     1      30.808 -20.924  22.071  1.00  0.00    -0.000 C 
BRANCH  10  11
ATOM     11  C   UNL     1      29.965 -19.721  22.525  1.00  0.00    -0.000 C 
BRANCH  11  12
ATOM     12  C   UNL     1      29.295 -18.988  21.347  1.00  0.00    -0.000 C 
BRANCH  12  13
ATOM     13  C   UNL     1      28.096 -18.126  21.787  1.00  0.00    -0.000 C 
BRANCH  13  14
ATOM     14  C   UNL     1      27.896 -18.039  23.313  1.00  0.00    -0.000 C 
BRANCH  14  15
ATOM     15  C   UNL     1      26.415 -18.077  23.719  1.00  0.00    -0.003 C 
ATOM     16  C   UNL     1      26.245 -17.794  25.209  1.00  0.00     0.004 C 
ENDBRANCH  14  15
ENDBRANCH  13  14
ENDBRANCH  12  13
ENDBRANCH  11  12
ENDBRANCH  10  11
ENDBRANCH   9  10
ENDBRANCH   8   9
ENDBRANCH   7   8
ENDBRANCH   6   7
ENDBRANCH   5   6
ENDBRANCH   4   5
ENDBRANCH   3   4
ENDBRANCH   2   3
ENDBRANCH   1   2
BRANCH   1  17
ATOM     17  C   UNL     1      28.427 -20.628  27.695  1.00  0.00     0.000 C 
BRANCH  17  18
ATOM     18  C   UNL     1      29.170 -21.254  28.892  1.00  0.00     0.000 C 
BRANCH  18  19
ATOM     19  C   UNL     1      29.901 -20.213  29.757  1.00  0.00     0.000 C 
BRANCH  19  20
ATOM     20  C   UNL     1      31.112 -19.590  29.047  1.00  0.00     0.000 C 
BRANCH  20  21
ATOM     21  C   UNL     1      31.116 -18.052  29.126  1.00  0.00     0.000 C 
BRANCH  21  22
ATOM     22  C   UNL     1      31.706 -17.398  27.867  1.00  0.00     0.000 C 
BRANCH  22  23
ATOM     23  C   UNL     1      30.765 -17.496  26.654  1.00  0.00     0.000 C 
BRANCH  23  24
ATOM     24  C   UNL     1      29.352 -16.975  26.967  1.00  0.00     0.000 C 
BRANCH  24  25
ATOM     25  C   UNL     1      29.226 -15.456  26.764  1.00  0.00     0.000 C 
BRANCH  25  26
ATOM     26  C   UNL     1      30.529 -14.864  26.214  1.00  0.00     0.000 C 
BRANCH  26  27
ATOM     27  C   UNL     1      30.293 -14.185  24.856  1.00  0.00     0.002 C 
BRANCH  27  28
ATOM     28  C   UNL     1      29.975 -15.192  23.739  1.00  0.00     0.028 C 
BRANCH  28  29
ATOM     29  C   UNL     1      29.157 -14.593  22.590  1.00  0.00     0.156 C 
BRANCH  29  30
ATOM     30  O   UNL     1      29.631 -15.063  21.358  1.00  0.00    -0.396 OA
ATOM     31  H   UNL     1      30.498 -15.506  21.545  1.00  0.00     0.210 HD
ENDBRANCH  29  30
ENDBRANCH  28  29
ENDBRANCH  27  28
ENDBRANCH  26  27
ENDBRANCH  25  26
ENDBRANCH  24  25
ENDBRANCH  23  24
ENDBRANCH  22  23
ENDBRANCH  21  22
ENDBRANCH  20  21
ENDBRANCH  19  20
ENDBRANCH  18  19
ENDBRANCH  17  18
ENDBRANCH   1  17
TORSDOF 28
ENDMDL
MODEL 9
REMARK VINA RESULT:    -3.105      2.947      6.033
REMARK INTER + INTRA:         -13.366
REMARK INTER:                  -8.317
REMARK INTRA:                  -5.048
REMARK UNBOUND:                -5.269
REMARK SMILES CCCCCCCCCCCCCCCCCCCCCCCCCCCCCO
REMARK SMILES IDX 16 1 15 2 14 3 13 4 12 5 11 6 10 7 9 8 8 9 7 10 6 11 5 12
REMARK SMILES IDX 4 13 3 14 2 15 1 16 17 17 18 18 19 19 20 20 21 21 22 22
REMARK SMILES IDX 23 23 24 24 25 25 26 26 27 27 28 28 29 29 30 30
REMARK H PARENT 30 31
REMARK Flexibility Score: inf
ROOT
ATOM      1  C   UNL     1      29.931 -13.169  27.187  1.00  0.00     0.000 C 
ENDROOT
BRANCH   1   2
ATOM      2  C   UNL     1      31.285 -12.452  27.048  1.00  0.00     0.000 C 
BRANCH   2   3
ATOM      3  C   UNL     1      31.504 -11.886  25.628  1.00  0.00     0.000 C 
BRANCH   3   4
ATOM      4  C   UNL     1      30.462 -12.354  24.599  1.00  0.00     0.000 C 
BRANCH   4   5
ATOM      5  C   UNL     1      31.005 -13.417  23.630  1.00  0.00     0.000 C 
BRANCH   5   6
ATOM      6  C   UNL     1      30.627 -14.854  24.049  1.00  0.00     0.000 C 
BRANCH   6   7
ATOM      7  C   UNL     1      31.836 -15.778  24.293  1.00  0.00     0.000 C 
BRANCH   7   8
ATOM      8  C   UNL     1      32.481 -15.668  25.688  1.00  0.00    -0.000 C 
BRANCH   8   9
ATOM      9  C   UNL     1      33.782 -14.846  25.743  1.00  0.00    -0.000 C 
BRANCH   9  10
ATOM     10  C   UNL     1      34.326 -14.685  27.174  1.00  0.00    -0.000 C 
BRANCH  10  11
ATOM     11  C   UNL     1      33.423 -15.344  28.230  1.00  0.00    -0.000 C 
BRANCH  11  12
ATOM     12  C   UNL     1      33.422 -14.580  29.568  1.00  0.00    -0.000 C 
BRANCH  12  13
ATOM     13  C   UNL     1      33.063 -15.481  30.766  1.00  0.00    -0.000 C 
BRANCH  13  14
ATOM     14  C   UNL     1      34.272 -15.959  31.594  1.00  0.00    -0.000 C 
BRANCH  14  15
ATOM     15  C   UNL     1      33.919 -17.111  32.546  1.00  0.00    -0.003 C 
ATOM     16  C   UNL     1      32.671 -17.852  32.075  1.00  0.00     0.004 C 
ENDBRANCH  14  15
ENDBRANCH  13  14
ENDBRANCH  12  13
ENDBRANCH  11  12
ENDBRANCH  10  11
ENDBRANCH   9  10
ENDBRANCH   8   9
ENDBRANCH   7   8
ENDBRANCH   6   7
ENDBRANCH   5   6
ENDBRANCH   4   5
ENDBRANCH   3   4
ENDBRANCH   2   3
ENDBRANCH   1   2
BRANCH   1  17
ATOM     17  C   UNL     1      29.969 -14.345  28.184  1.00  0.00     0.000 C 
BRANCH  17  18
ATOM     18  C   UNL     1      29.353 -15.660  27.667  1.00  0.00     0.000 C 
BRANCH  18  19
ATOM     19  C   UNL     1      29.125 -16.695  28.782  1.00  0.00     0.000 C 
BRANCH  19  20
ATOM     20  C   UNL     1      30.408 -17.438  29.179  1.00  0.00     0.000 C 
BRANCH  20  21
ATOM     21  C   UNL     1      31.064 -18.164  27.989  1.00  0.00     0.000 C 
BRANCH  21  22
ATOM     22  C   UNL     1      30.724 -19.662  27.951  1.00  0.00     0.000 C 
BRANCH  22  23
ATOM     23  C   UNL     1      30.039 -20.079  26.638  1.00  0.00     0.000 C 
BRANCH  23  24
ATOM     24  C   UNL     1      29.644 -18.869  25.775  1.00  0.00     0.000 C 
BRANCH  24  25
ATOM     25  C   UNL     1      29.055 -19.282  24.416  1.00  0.00     0.000 C 
BRANCH  25  26
ATOM     26  C   UNL     1      29.853 -18.666  23.260  1.00  0.00     0.000 C 
BRANCH  26  27
ATOM     27  C   UNL     1      30.079 -19.694  22.141  1.00  0.00     0.002 C 
BRANCH  27  28
ATOM     28  C   UNL     1      29.238 -20.967  22.328  1.00  0.00     0.028 C 
BRANCH  28  29
ATOM     29  C   UNL     1      30.059 -22.258  22.257  1.00  0.00     0.156 C 
BRANCH  29  30
ATOM     30  O   UNL     1      29.711 -23.115  23.311  1.00  0.00    -0.396 OA
ATOM     31  H   UNL     1      30.168 -23.976  23.129  1.00  0.00     0.210 HD
ENDBRANCH  29  30
ENDBRANCH  28  29
ENDBRANCH  27  28
ENDBRANCH  26  27
ENDBRANCH  25  26
ENDBRANCH  24  25
ENDBRANCH  23  24
ENDBRANCH  22  23
ENDBRANCH  21  22
ENDBRANCH  20  21
ENDBRANCH  19  20
ENDBRANCH  18  19
ENDBRANCH  17  18
ENDBRANCH   1  17
TORSDOF 28
ENDMDL
