MODEL 1
REMARK VINA RESULT:    -5.843      0.000      0.000
REMARK INTER + INTRA:          -9.844
REMARK INTER:                  -8.918
REMARK INTRA:                  -0.927
REMARK UNBOUND:                -0.927
REMARK SMILES CC(=O)CCC=C(C)CCC=C(C)CCC=C(C)C
REMARK SMILES IDX 10 1 11 2 12 3 13 4 14 5 15 6 16 7 18 8 17 9 19 10 9 11 7 12
REMARK SMILES IDX 6 13 8 14 5 15 4 16 2 17 3 18 1 19
REMARK H PARENT
REMARK Flexibility Score: inf
ROOT
ATOM      1  C   UNL     1      23.335  52.133   0.682  1.00  0.00     0.032 C 
ENDROOT
BRANCH   1   2
ATOM      2  C   UNL     1      22.923  51.485  -0.620  1.00  0.00    -0.028 C 
ATOM      3  C   UNL     1      22.317  50.279  -0.719  1.00  0.00    -0.077 C 
ATOM      4  C   UNL     1      22.007  49.443   0.501  1.00  0.00     0.039 C 
BRANCH   3   5
ATOM      5  C   UNL     1      21.990  49.719  -2.092  1.00  0.00     0.034 C 
BRANCH   5   6
ATOM      6  C   UNL     1      22.985  50.179  -3.169  1.00  0.00     0.032 C 
BRANCH   6   7
ATOM      7  C   UNL     1      22.317  51.021  -4.232  1.00  0.00    -0.028 C 
ATOM      8  C   UNL     1      23.973  50.384  -5.999  1.00  0.00     0.039 C 
ATOM      9  C   UNL     1      22.779  51.155  -5.496  1.00  0.00    -0.080 C 
ATOM     10  C   UNL     1      22.110  52.113  -6.447  1.00  0.00     0.039 C 
ENDBRANCH   6   7
ENDBRANCH   5   6
ENDBRANCH   3   5
ENDBRANCH   1   2
BRANCH   1  11
ATOM     11  C   UNL     1      24.831  51.949   0.963  1.00  0.00     0.034 C 
BRANCH  11  12
ATOM     12  C   UNL     1      25.582  53.260   0.869  1.00  0.00    -0.077 C 
ATOM     13  C   UNL     1      25.595  53.935  -0.302  1.00  0.00    -0.028 C 
ATOM     14  C   UNL     1      26.299  53.784   2.087  1.00  0.00     0.039 C 
BRANCH  13  15
ATOM     15  C   UNL     1      26.301  55.257  -0.483  1.00  0.00     0.035 C 
BRANCH  15  16
ATOM     16  C   UNL     1      27.164  55.256  -1.748  1.00  0.00     0.079 C 
BRANCH  16  17
ATOM     17  C   UNL     1      28.479  55.950  -1.500  1.00  0.00     0.130 C 
ATOM     18  O   UNL     1      29.409  55.776  -2.276  1.00  0.00    -0.300 OA
ATOM     19  C   UNL     1      28.669  56.871  -0.327  1.00  0.00     0.087 C 
ENDBRANCH  16  17
ENDBRANCH  15  16
ENDBRANCH  13  15
ENDBRANCH  11  12
ENDBRANCH   1  11
TORSDOF 9
ENDMDL
MODEL 2
REMARK VINA RESULT:    -5.791      2.446      7.101
REMARK INTER + INTRA:          -9.765
REMARK INTER:                  -8.961
REMARK INTRA:                  -0.804
REMARK UNBOUND:                -0.927
REMARK SMILES CC(=O)CCC=C(C)CCC=C(C)CCC=C(C)C
REMARK SMILES IDX 10 1 11 2 12 3 13 4 14 5 15 6 16 7 18 8 17 9 19 10 9 11 7 12
REMARK SMILES IDX 6 13 8 14 5 15 4 16 2 17 3 18 1 19
REMARK H PARENT
REMARK Flexibility Score: inf
ROOT
ATOM      1  C   UNL     1      22.879  51.603  -0.951  1.00  0.00     0.032 C 
ENDROOT
BRANCH   1   2
ATOM      2  C   UNL     1      23.939  52.637  -0.652  1.00  0.00    -0.028 C 
ATOM      3  C   UNL     1      24.752  52.612   0.430  1.00  0.00    -0.077 C 
ATOM      4  C   UNL     1      24.654  51.523   1.473  1.00  0.00     0.039 C 
BRANCH   3   5
ATOM      5  C   UNL     1      25.752  53.736   0.637  1.00  0.00     0.034 C 
BRANCH   5   6
ATOM      6  C   UNL     1      25.903  54.628  -0.604  1.00  0.00     0.032 C 
BRANCH   6   7
ATOM      7  C   UNL     1      26.928  55.719  -0.395  1.00  0.00    -0.028 C 
ATOM      8  C   UNL     1      28.462  54.836  -2.167  1.00  0.00     0.039 C 
ATOM      9  C   UNL     1      28.103  55.797  -1.061  1.00  0.00    -0.080 C 
ATOM     10  C   UNL     1      29.111  56.854  -0.694  1.00  0.00     0.039 C 
ENDBRANCH   6   7
ENDBRANCH   5   6
ENDBRANCH   3   5
ENDBRANCH   1   2
BRANCH   1  11
ATOM     11  C   UNL     1      23.383  50.533  -1.926  1.00  0.00     0.034 C 
BRANCH  11  12
ATOM     12  C   UNL     1      22.455  50.378  -3.112  1.00  0.00    -0.077 C 
ATOM     13  C   UNL     1      22.570  51.224  -4.160  1.00  0.00    -0.028 C 
ATOM     14  C   UNL     1      21.422  49.280  -3.097  1.00  0.00     0.039 C 
BRANCH  13  15
ATOM     15  C   UNL     1      21.702  51.133  -5.391  1.00  0.00     0.035 C 
BRANCH  15  16
ATOM     16  C   UNL     1      22.390  51.766  -6.604  1.00  0.00     0.079 C 
BRANCH  16  17
ATOM     17  C   UNL     1      21.695  53.041  -7.010  1.00  0.00     0.130 C 
ATOM     18  O   UNL     1      21.190  53.752  -6.151  1.00  0.00    -0.300 OA
ATOM     19  C   UNL     1      21.626  53.471  -8.448  1.00  0.00     0.087 C 
ENDBRANCH  16  17
ENDBRANCH  15  16
ENDBRANCH  13  15
ENDBRANCH  11  12
ENDBRANCH   1  11
TORSDOF 9
ENDMDL
MODEL 3
REMARK VINA RESULT:    -5.685      2.920      5.533
REMARK INTER + INTRA:          -9.603
REMARK INTER:                  -8.872
REMARK INTRA:                  -0.731
REMARK UNBOUND:                -0.927
REMARK SMILES CC(=O)CCC=C(C)CCC=C(C)CCC=C(C)C
REMARK SMILES IDX 10 1 11 2 12 3 13 4 14 5 15 6 16 7 18 8 17 9 19 10 9 11 7 12
REMARK SMILES IDX 6 13 8 14 5 15 4 16 2 17 3 18 1 19
REMARK H PARENT
REMARK Flexibility Score: inf
ROOT
ATOM      1  C   UNL     1      23.547  51.965   0.270  1.00  0.00     0.032 C 
ENDROOT
BRANCH   1   2
ATOM      2  C   UNL     1      22.364  51.637   1.152  1.00  0.00    -0.028 C 
ATOM      3  C   UNL     1      21.547  50.573   0.976  1.00  0.00    -0.077 C 
ATOM      4  C   UNL     1      21.743  49.601  -0.166  1.00  0.00     0.039 C 
BRANCH   3   5
ATOM      5  C   UNL     1      20.367  50.377   1.910  1.00  0.00     0.034 C 
BRANCH   5   6
ATOM      6  C   UNL     1      20.463  49.073   2.716  1.00  0.00     0.032 C 
BRANCH   6   7
ATOM      7  C   UNL     1      19.797  49.193   4.067  1.00  0.00    -0.028 C 
ATOM      8  C   UNL     1      17.610  48.290   3.246  1.00  0.00     0.039 C 
ATOM      9  C   UNL     1      18.501  48.886   4.306  1.00  0.00    -0.080 C 
ATOM     10  C   UNL     1      17.899  49.156   5.660  1.00  0.00     0.039 C 
ENDBRANCH   6   7
ENDBRANCH   5   6
ENDBRANCH   3   5
ENDBRANCH   1   2
BRANCH   1  11
ATOM     11  C   UNL     1      24.859  51.995   1.061  1.00  0.00     0.034 C 
BRANCH  11  12
ATOM     12  C   UNL     1      25.571  53.323   0.912  1.00  0.00    -0.077 C 
ATOM     13  C   UNL     1      25.541  53.962  -0.279  1.00  0.00    -0.028 C 
ATOM     14  C   UNL     1      26.299  53.902   2.098  1.00  0.00     0.039 C 
BRANCH  13  15
ATOM     15  C   UNL     1      26.205  55.296  -0.513  1.00  0.00     0.035 C 
BRANCH  15  16
ATOM     16  C   UNL     1      27.305  55.190  -1.574  1.00  0.00     0.079 C 
BRANCH  16  17
ATOM     17  C   UNL     1      28.469  56.084  -1.232  1.00  0.00     0.130 C 
ATOM     18  O   UNL     1      28.535  56.589  -0.119  1.00  0.00    -0.300 OA
ATOM     19  C   UNL     1      29.566  56.354  -2.223  1.00  0.00     0.087 C 
ENDBRANCH  16  17
ENDBRANCH  15  16
ENDBRANCH  13  15
ENDBRANCH  11  12
ENDBRANCH   1  11
TORSDOF 9
ENDMDL
MODEL 4
REMARK VINA RESULT:    -5.663      1.488      2.413
REMARK INTER + INTRA:          -9.569
REMARK INTER:                  -8.126
REMARK INTRA:                  -1.444
REMARK UNBOUND:                -0.927
REMARK SMILES CC(=O)CCC=C(C)CCC=C(C)CCC=C(C)C
REMARK SMILES IDX 10 1 11 2 12 3 13 4 14 5 15 6 16 7 18 8 17 9 19 10 9 11 7 12
REMARK SMILES IDX 6 13 8 14 5 15 4 16 2 17 3 18 1 19
REMARK H PARENT
REMARK Flexibility Score: inf
ROOT
ATOM      1  C   UNL     1      22.914  51.620   1.621  1.00  0.00     0.032 C 
ENDROOT
BRANCH   1   2
ATOM      2  C   UNL     1      21.951  50.743   0.854  1.00  0.00    -0.028 C 
ATOM      3  C   UNL     1      21.765  49.423   1.085  1.00  0.00    -0.077 C 
ATOM      4  C   UNL     1      22.542  48.685   2.151  1.00  0.00     0.039 C 
BRANCH   3   5
ATOM      5  C   UNL     1      20.795  48.643   0.215  1.00  0.00     0.034 C 
BRANCH   5   6
ATOM      6  C   UNL     1      21.460  48.075  -1.048  1.00  0.00     0.032 C 
BRANCH   6   7
ATOM      7  C   UNL     1      21.411  49.053  -2.200  1.00  0.00    -0.028 C 
ATOM      8  C   UNL     1      23.886  49.437  -2.184  1.00  0.00     0.039 C 
ATOM      9  C   UNL     1      22.491  49.705  -2.690  1.00  0.00    -0.080 C 
ATOM     10  C   UNL     1      22.319  50.750  -3.761  1.00  0.00     0.039 C 
ENDBRANCH   6   7
ENDBRANCH   5   6
ENDBRANCH   3   5
ENDBRANCH   1   2
BRANCH   1  11
ATOM     11  C   UNL     1      24.331  51.555   1.042  1.00  0.00     0.034 C 
BRANCH  11  12
ATOM     12  C   UNL     1      24.607  52.714   0.108  1.00  0.00    -0.077 C 
ATOM     13  C   UNL     1      25.627  53.558   0.381  1.00  0.00    -0.028 C 
ATOM     14  C   UNL     1      23.734  52.900  -1.107  1.00  0.00     0.039 C 
BRANCH  13  15
ATOM     15  C   UNL     1      25.986  54.728  -0.502  1.00  0.00     0.035 C 
BRANCH  15  16
ATOM     16  C   UNL     1      27.150  55.530   0.086  1.00  0.00     0.079 C 
BRANCH  16  17
ATOM     17  C   UNL     1      28.182  55.831  -0.972  1.00  0.00     0.130 C 
ATOM     18  O   UNL     1      28.803  56.885  -0.926  1.00  0.00    -0.300 OA
ATOM     19  C   UNL     1      28.481  54.854  -2.074  1.00  0.00     0.087 C 
ENDBRANCH  16  17
ENDBRANCH  15  16
ENDBRANCH  13  15
ENDBRANCH  11  12
ENDBRANCH   1  11
TORSDOF 9
ENDMDL
MODEL 5
REMARK VINA RESULT:    -5.632      3.605      6.999
REMARK INTER + INTRA:          -9.522
REMARK INTER:                  -8.249
REMARK INTRA:                  -1.273
REMARK UNBOUND:                -0.927
REMARK SMILES CC(=O)CCC=C(C)CCC=C(C)CCC=C(C)C
REMARK SMILES IDX 10 1 11 2 12 3 13 4 14 5 15 6 16 7 18 8 17 9 19 10 9 11 7 12
REMARK SMILES IDX 6 13 8 14 5 15 4 16 2 17 3 18 1 19
REMARK H PARENT
REMARK Flexibility Score: inf
ROOT
ATOM      1  C   UNL     1      21.873  48.735   0.115  1.00  0.00     0.032 C 
ENDROOT
BRANCH   1   2
ATOM      2  C   UNL     1      20.468  48.586   0.654  1.00  0.00    -0.028 C 
ATOM      3  C   UNL     1      19.889  49.439   1.531  1.00  0.00    -0.077 C 
ATOM      4  C   UNL     1      20.626  50.641   2.077  1.00  0.00     0.039 C 
BRANCH   3   5
ATOM      5  C   UNL     1      18.483  49.155   2.028  1.00  0.00     0.034 C 
BRANCH   5   6
ATOM      6  C   UNL     1      18.450  48.076   3.120  1.00  0.00     0.032 C 
BRANCH   6   7
ATOM      7  C   UNL     1      17.745  48.556   4.368  1.00  0.00    -0.028 C 
ATOM      8  C   UNL     1      19.873  49.251   5.492  1.00  0.00     0.039 C 
ATOM      9  C   UNL     1      18.379  49.046   5.459  1.00  0.00    -0.080 C 
ATOM     10  C   UNL     1      17.596  49.385   6.699  1.00  0.00     0.039 C 
ENDBRANCH   6   7
ENDBRANCH   5   6
ENDBRANCH   3   5
ENDBRANCH   1   2
BRANCH   1  11
ATOM     11  C   UNL     1      21.877  49.176  -1.353  1.00  0.00     0.034 C 
BRANCH  11  12
ATOM     12  C   UNL     1      22.612  50.487  -1.539  1.00  0.00    -0.077 C 
ATOM     13  C   UNL     1      23.247  51.048  -0.486  1.00  0.00    -0.028 C 
ATOM     14  C   UNL     1      22.619  51.137  -2.900  1.00  0.00     0.039 C 
BRANCH  13  15
ATOM     15  C   UNL     1      24.019  52.340  -0.583  1.00  0.00     0.035 C 
BRANCH  15  16
ATOM     16  C   UNL     1      25.152  52.389   0.446  1.00  0.00     0.079 C 
BRANCH  16  17
ATOM     17  C   UNL     1      25.695  53.789   0.581  1.00  0.00     0.130 C 
ATOM     18  O   UNL     1      25.988  54.218   1.688  1.00  0.00    -0.300 OA
ATOM     19  C   UNL     1      25.905  54.666  -0.622  1.00  0.00     0.087 C 
ENDBRANCH  16  17
ENDBRANCH  15  16
ENDBRANCH  13  15
ENDBRANCH  11  12
ENDBRANCH   1  11
TORSDOF 9
ENDMDL
MODEL 6
REMARK VINA RESULT:    -5.616      1.459      2.716
REMARK INTER + INTRA:          -9.497
REMARK INTER:                  -8.699
REMARK INTRA:                  -0.799
REMARK UNBOUND:                -0.927
REMARK SMILES CC(=O)CCC=C(C)CCC=C(C)CCC=C(C)C
REMARK SMILES IDX 10 1 11 2 12 3 13 4 14 5 15 6 16 7 18 8 17 9 19 10 9 11 7 12
REMARK SMILES IDX 6 13 8 14 5 15 4 16 2 17 3 18 1 19
REMARK H PARENT
REMARK Flexibility Score: inf
ROOT
ATOM      1  C   UNL     1      23.178  50.782  -1.680  1.00  0.00     0.032 C 
ENDROOT
BRANCH   1   2
ATOM      2  C   UNL     1      22.693  51.013  -3.093  1.00  0.00    -0.028 C 
ATOM      3  C   UNL     1      21.921  50.147  -3.790  1.00  0.00    -0.077 C 
ATOM      4  C   UNL     1      21.478  48.826  -3.202  1.00  0.00     0.039 C 
BRANCH   3   5
ATOM      5  C   UNL     1      21.533  50.478  -5.220  1.00  0.00     0.034 C 
BRANCH   5   6
ATOM      6  C   UNL     1      22.277  51.707  -5.763  1.00  0.00     0.032 C 
BRANCH   6   7
ATOM      7  C   UNL     1      21.358  52.894  -5.935  1.00  0.00    -0.028 C 
ATOM      8  C   UNL     1      22.529  53.702  -7.996  1.00  0.00     0.039 C 
ATOM      9  C   UNL     1      21.489  53.823  -6.910  1.00  0.00    -0.080 C 
ATOM     10  C   UNL     1      20.595  55.035  -6.924  1.00  0.00     0.039 C 
ENDBRANCH   6   7
ENDBRANCH   5   6
ENDBRANCH   3   5
ENDBRANCH   1   2
BRANCH   1  11
ATOM     11  C   UNL     1      22.954  52.011  -0.792  1.00  0.00     0.034 C 
BRANCH  11  12
ATOM     12  C   UNL     1      24.235  52.455  -0.119  1.00  0.00    -0.077 C 
ATOM     13  C   UNL     1      24.884  53.547  -0.580  1.00  0.00    -0.028 C 
ATOM     14  C   UNL     1      24.760  51.665   1.053  1.00  0.00     0.039 C 
BRANCH  13  15
ATOM     15  C   UNL     1      26.156  54.072   0.039  1.00  0.00     0.035 C 
BRANCH  15  16
ATOM     16  C   UNL     1      26.392  55.538  -0.336  1.00  0.00     0.079 C 
BRANCH  16  17
ATOM     17  C   UNL     1      27.805  55.749  -0.817  1.00  0.00     0.130 C 
ATOM     18  O   UNL     1      28.532  56.535  -0.226  1.00  0.00    -0.300 OA
ATOM     19  C   UNL     1      28.350  54.995  -1.997  1.00  0.00     0.087 C 
ENDBRANCH  16  17
ENDBRANCH  15  16
ENDBRANCH  13  15
ENDBRANCH  11  12
ENDBRANCH   1  11
TORSDOF 9
ENDMDL
MODEL 7
REMARK VINA RESULT:    -5.582      2.353      6.668
REMARK INTER + INTRA:          -9.446
REMARK INTER:                  -8.122
REMARK INTRA:                  -1.324
REMARK UNBOUND:                -0.927
REMARK SMILES CC(=O)CCC=C(C)CCC=C(C)CCC=C(C)C
REMARK SMILES IDX 10 1 11 2 12 3 13 4 14 5 15 6 16 7 18 8 17 9 19 10 9 11 7 12
REMARK SMILES IDX 6 13 8 14 5 15 4 16 2 17 3 18 1 19
REMARK H PARENT
REMARK Flexibility Score: inf
ROOT
ATOM      1  C   UNL     1      23.015  50.472   0.831  1.00  0.00     0.032 C 
ENDROOT
BRANCH   1   2
ATOM      2  C   UNL     1      24.148  51.460   0.988  1.00  0.00    -0.028 C 
ATOM      3  C   UNL     1      24.348  52.532   0.187  1.00  0.00    -0.077 C 
ATOM      4  C   UNL     1      23.436  52.833  -0.981  1.00  0.00     0.039 C 
BRANCH   3   5
ATOM      5  C   UNL     1      25.550  53.428   0.426  1.00  0.00     0.034 C 
BRANCH   5   6
ATOM      6  C   UNL     1      25.881  54.308  -0.788  1.00  0.00     0.032 C 
BRANCH   6   7
ATOM      7  C   UNL     1      26.770  55.472  -0.416  1.00  0.00    -0.028 C 
ATOM      8  C   UNL     1      28.496  54.909  -2.142  1.00  0.00     0.039 C 
ATOM      9  C   UNL     1      27.970  55.726  -0.989  1.00  0.00    -0.080 C 
ATOM     10  C   UNL     1      28.836  56.841  -0.464  1.00  0.00     0.039 C 
ENDBRANCH   6   7
ENDBRANCH   5   6
ENDBRANCH   3   5
ENDBRANCH   1   2
BRANCH   1  11
ATOM     11  C   UNL     1      23.484  49.163   0.188  1.00  0.00     0.034 C 
BRANCH  11  12
ATOM     12  C   UNL     1      23.321  49.190  -1.317  1.00  0.00    -0.077 C 
ATOM     13  C   UNL     1      22.174  49.666  -1.852  1.00  0.00    -0.028 C 
ATOM     14  C   UNL     1      24.444  48.683  -2.186  1.00  0.00     0.039 C 
BRANCH  13  15
ATOM     15  C   UNL     1      21.931  49.748  -3.338  1.00  0.00     0.035 C 
BRANCH  15  16
ATOM     16  C   UNL     1      22.385  51.099  -3.901  1.00  0.00     0.079 C 
BRANCH  16  17
ATOM     17  C   UNL     1      22.918  50.943  -5.303  1.00  0.00     0.130 C 
ATOM     18  O   UNL     1      22.349  51.504  -6.230  1.00  0.00    -0.300 OA
ATOM     19  C   UNL     1      24.150  50.131  -5.586  1.00  0.00     0.087 C 
ENDBRANCH  16  17
ENDBRANCH  15  16
ENDBRANCH  13  15
ENDBRANCH  11  12
ENDBRANCH   1  11
TORSDOF 9
ENDMDL
MODEL 8
REMARK VINA RESULT:    -5.554      1.418      2.394
REMARK INTER + INTRA:          -9.402
REMARK INTER:                  -8.410
REMARK INTRA:                  -0.992
REMARK UNBOUND:                -0.927
REMARK SMILES CC(=O)CCC=C(C)CCC=C(C)CCC=C(C)C
REMARK SMILES IDX 10 1 11 2 12 3 13 4 14 5 15 6 16 7 18 8 17 9 19 10 9 11 7 12
REMARK SMILES IDX 6 13 8 14 5 15 4 16 2 17 3 18 1 19
REMARK H PARENT
REMARK Flexibility Score: inf
ROOT
ATOM      1  C   UNL     1      22.971  51.732  -1.284  1.00  0.00     0.032 C 
ENDROOT
BRANCH   1   2
ATOM      2  C   UNL     1      22.755  51.296  -2.715  1.00  0.00    -0.028 C 
ATOM      3  C   UNL     1      22.098  50.171  -3.083  1.00  0.00    -0.077 C 
ATOM      4  C   UNL     1      21.522  49.216  -2.062  1.00  0.00     0.039 C 
BRANCH   3   5
ATOM      5  C   UNL     1      21.983  49.823  -4.556  1.00  0.00     0.034 C 
BRANCH   5   6
ATOM      6  C   UNL     1      22.989  50.593  -5.424  1.00  0.00     0.032 C 
BRANCH   6   7
ATOM      7  C   UNL     1      23.664  49.696  -6.438  1.00  0.00    -0.028 C 
ATOM      8  C   UNL     1      25.291  48.774  -4.772  1.00  0.00     0.039 C 
ATOM      9  C   UNL     1      24.728  48.907  -6.165  1.00  0.00    -0.080 C 
ATOM     10  C   UNL     1      25.405  48.142  -7.272  1.00  0.00     0.039 C 
ENDBRANCH   6   7
ENDBRANCH   5   6
ENDBRANCH   3   5
ENDBRANCH   1   2
BRANCH   1  11
ATOM     11  C   UNL     1      24.299  51.211  -0.723  1.00  0.00     0.034 C 
BRANCH  11  12
ATOM     12  C   UNL     1      25.021  52.273   0.079  1.00  0.00    -0.077 C 
ATOM     13  C   UNL     1      25.372  53.433  -0.520  1.00  0.00    -0.028 C 
ATOM     14  C   UNL     1      25.334  52.010   1.530  1.00  0.00     0.039 C 
BRANCH  13  15
ATOM     15  C   UNL     1      26.077  54.553   0.204  1.00  0.00     0.035 C 
BRANCH  15  16
ATOM     16  C   UNL     1      26.437  55.693  -0.753  1.00  0.00     0.079 C 
BRANCH  16  17
ATOM     17  C   UNL     1      27.924  55.738  -0.999  1.00  0.00     0.130 C 
ATOM     18  O   UNL     1      28.634  56.426  -0.277  1.00  0.00    -0.300 OA
ATOM     19  C   UNL     1      28.560  54.938  -2.100  1.00  0.00     0.087 C 
ENDBRANCH  16  17
ENDBRANCH  15  16
ENDBRANCH  13  15
ENDBRANCH  11  12
ENDBRANCH   1  11
TORSDOF 9
ENDMDL
MODEL 9
REMARK VINA RESULT:    -5.463      3.106      7.251
REMARK INTER + INTRA:          -9.264
REMARK INTER:                  -8.386
REMARK INTRA:                  -0.878
REMARK UNBOUND:                -0.927
REMARK SMILES CC(=O)CCC=C(C)CCC=C(C)CCC=C(C)C
REMARK SMILES IDX 10 1 11 2 12 3 13 4 14 5 15 6 16 7 18 8 17 9 19 10 9 11 7 12
REMARK SMILES IDX 6 13 8 14 5 15 4 16 2 17 3 18 1 19
REMARK H PARENT
REMARK Flexibility Score: inf
ROOT
ATOM      1  C   UNL     1      22.685  50.217  -4.285  1.00  0.00     0.032 C 
ENDROOT
BRANCH   1   2
ATOM      2  C   UNL     1      22.622  51.197  -3.136  1.00  0.00    -0.028 C 
ATOM      3  C   UNL     1      23.184  50.993  -1.921  1.00  0.00    -0.077 C 
ATOM      4  C   UNL     1      23.930  49.719  -1.595  1.00  0.00     0.039 C 
BRANCH   3   5
ATOM      5  C   UNL     1      23.014  52.041  -0.836  1.00  0.00     0.034 C 
BRANCH   5   6
ATOM      6  C   UNL     1      24.300  52.265  -0.027  1.00  0.00     0.032 C 
BRANCH   6   7
ATOM      7  C   UNL     1      25.101  53.435  -0.552  1.00  0.00    -0.028 C 
ATOM      8  C   UNL     1      26.068  53.982   1.693  1.00  0.00     0.039 C 
ATOM      9  C   UNL     1      25.864  54.241   0.221  1.00  0.00    -0.080 C 
ATOM     10  C   UNL     1      26.527  55.454  -0.377  1.00  0.00     0.039 C 
ENDBRANCH   6   7
ENDBRANCH   5   6
ENDBRANCH   3   5
ENDBRANCH   1   2
BRANCH   1  11
ATOM     11  C   UNL     1      22.998  50.914  -5.613  1.00  0.00     0.034 C 
BRANCH  11  12
ATOM     12  C   UNL     1      21.774  51.593  -6.190  1.00  0.00    -0.077 C 
ATOM     13  C   UNL     1      21.728  52.943  -6.248  1.00  0.00    -0.028 C 
ATOM     14  C   UNL     1      20.630  50.745  -6.686  1.00  0.00     0.039 C 
BRANCH  13  15
ATOM     15  C   UNL     1      20.559  53.703  -6.822  1.00  0.00     0.035 C 
BRANCH  15  16
ATOM     16  C   UNL     1      20.466  55.111  -6.227  1.00  0.00     0.079 C 
BRANCH  16  17
ATOM     17  C   UNL     1      21.127  56.120  -7.132  1.00  0.00     0.130 C 
ATOM     18  O   UNL     1      20.459  56.702  -7.977  1.00  0.00    -0.300 OA
ATOM     19  C   UNL     1      22.589  56.446  -7.006  1.00  0.00     0.087 C 
ENDBRANCH  16  17
ENDBRANCH  15  16
ENDBRANCH  13  15
ENDBRANCH  11  12
ENDBRANCH   1  11
TORSDOF 9
ENDMDL
