MODEL 1
REMARK VINA RESULT:    50.983      0.000      0.000
REMARK INTER + INTRA:          70.987
REMARK INTER:                  70.356
REMARK INTRA:                   0.631
REMARK UNBOUND:                 0.631
REMARK SMILES CC[C@H](CC[C@H](C)[C@@H]1CC[C@@H]2[C@@H]3CC=C4C[C@@H](O)CC[C@]4(C)[C@H]3CC[C@@]21C)C(C)C
REMARK SMILES IDX 5 1 4 2 3 3 2 4 1 5 28 6 29 7 30 8 6 9 7 10 8 11 9 12 26 13
REMARK SMILES IDX 10 14 11 15 25 16 27 17 12 18 24 19 23 20 13 21 21 22 14 23
REMARK SMILES IDX 15 24 20 25 22 26 16 27 19 28 17 29 18 30
REMARK H PARENT 18 31
REMARK Flexibility Score: inf
ROOT
ATOM      1  C   UNL     1     -25.459  32.407  -8.220  1.00  0.00     0.004 C 
ENDROOT
BRANCH   1   2
ATOM      2  C   UNL     1     -25.219  32.996  -9.631  1.00  0.00     0.004 C 
BRANCH   2   3
ATOM      3  C   UNL     1     -24.066  34.045  -9.723  1.00  0.00    -0.009 C 
BRANCH   3   4
ATOM      4  C   UNL     1     -24.570  35.492  -9.436  1.00  0.00     0.000 C 
ATOM      5  C   UNL     1     -25.767  35.903 -10.298  1.00  0.00     0.004 C 
ENDBRANCH   3   4
BRANCH   3   6
ATOM      6  C   UNL     1     -22.816  33.631  -8.859  1.00  0.00    -0.014 C 
ATOM      7  C   UNL     1     -22.459  32.142  -9.054  1.00  0.00     0.007 C 
ATOM      8  C   UNL     1     -21.557  34.465  -9.167  1.00  0.00     0.007 C 
ENDBRANCH   3   6
ENDBRANCH   2   3
ENDBRANCH   1   2
BRANCH   1   9
ATOM      9  C   UNL     1     -26.809  31.649  -8.074  1.00  0.00    -0.011 C 
ATOM     10  C   UNL     1     -27.602  32.165  -6.852  1.00  0.00     0.008 C 
BRANCH   9  11
ATOM     11  C   UNL     1     -26.652  30.078  -7.985  1.00  0.00    -0.002 C 
ATOM     12  C   UNL     1     -27.112  29.386  -6.690  1.00  0.00     0.005 C 
ATOM     13  C   UNL     1     -25.227  29.499  -8.244  1.00  0.00    -0.026 C 
ATOM     14  C   UNL     1     -26.408  28.028  -6.669  1.00  0.00     0.005 C 
ATOM     15  C   UNL     1     -25.433  28.012  -7.864  1.00  0.00    -0.001 C 
ATOM     16  C   UNL     1     -24.150  30.158  -7.322  1.00  0.00     0.007 C 
ATOM     17  C   UNL     1     -24.833  29.647  -9.733  1.00  0.00     0.012 C 
ATOM     18  C   UNL     1     -24.119  27.195  -7.660  1.00  0.00     0.000 C 
ATOM     19  C   UNL     1     -22.852  29.346  -7.227  1.00  0.00     0.005 C 
ATOM     20  C   UNL     1     -23.100  27.898  -6.729  1.00  0.00     0.003 C 
ATOM     21  C   UNL     1     -24.434  25.775  -7.159  1.00  0.00     0.031 C 
ATOM     22  C   UNL     1     -21.764  27.056  -6.566  1.00  0.00    -0.008 C 
ATOM     23  C   UNL     1     -23.210  24.991  -6.803  1.00  0.00    -0.027 C 
ATOM     24  C   UNL     1     -22.065  25.559  -6.372  1.00  0.00    -0.065 C 
ATOM     25  C   UNL     1     -20.995  27.572  -5.307  1.00  0.00     0.014 C 
ATOM     26  C   UNL     1     -20.843  27.196  -7.817  1.00  0.00     0.016 C 
ATOM     27  C   UNL     1     -20.966  24.645  -5.852  1.00  0.00     0.063 C 
ATOM     28  C   UNL     1     -19.821  26.671  -4.892  1.00  0.00     0.033 C 
ATOM     29  C   UNL     1     -20.297  25.244  -4.608  1.00  0.00     0.118 C 
BRANCH  29  30
ATOM     30  O   UNL     1     -19.195  24.460  -4.236  1.00  0.00    -0.393 OA
ATOM     31  H   UNL     1     -19.112  24.531  -3.249  1.00  0.00     0.210 HD
ENDBRANCH  29  30
ENDBRANCH   9  11
ENDBRANCH   1   9
TORSDOF 7
ENDMDL
MODEL 2
REMARK VINA RESULT:    53.842      4.562      6.841
REMARK INTER + INTRA:          74.933
REMARK INTER:                  72.419
REMARK INTRA:                   2.514
REMARK UNBOUND:                 0.631
REMARK SMILES CC[C@H](CC[C@H](C)[C@@H]1CC[C@@H]2[C@@H]3CC=C4C[C@@H](O)CC[C@]4(C)[C@H]3CC[C@@]21C)C(C)C
REMARK SMILES IDX 5 1 4 2 3 3 2 4 1 5 28 6 29 7 30 8 6 9 7 10 8 11 9 12 26 13
REMARK SMILES IDX 10 14 11 15 25 16 27 17 12 18 24 19 23 20 13 21 21 22 14 23
REMARK SMILES IDX 15 24 20 25 22 26 16 27 19 28 17 29 18 30
REMARK H PARENT 18 31
REMARK Flexibility Score: inf
ROOT
ATOM      1  C   UNL     1     -24.830  31.452 -10.160  1.00  0.00     0.004 C 
ENDROOT
BRANCH   1   2
ATOM      2  C   UNL     1     -25.101  32.975 -10.202  1.00  0.00     0.004 C 
BRANCH   2   3
ATOM      3  C   UNL     1     -24.316  33.815  -9.145  1.00  0.00    -0.009 C 
BRANCH   3   4
ATOM      4  C   UNL     1     -22.804  33.435  -9.105  1.00  0.00     0.000 C 
ATOM      5  C   UNL     1     -22.554  31.924  -9.120  1.00  0.00     0.004 C 
ENDBRANCH   3   4
BRANCH   3   6
ATOM      6  C   UNL     1     -24.572  35.361  -9.305  1.00  0.00    -0.014 C 
ATOM      7  C   UNL     1     -23.266  36.123  -9.614  1.00  0.00     0.007 C 
ATOM      8  C   UNL     1     -25.592  35.700 -10.409  1.00  0.00     0.007 C 
ENDBRANCH   3   6
ENDBRANCH   2   3
ENDBRANCH   1   2
BRANCH   1   9
ATOM      9  C   UNL     1     -26.072  30.602  -9.768  1.00  0.00    -0.011 C 
ATOM     10  C   UNL     1     -27.376  31.410  -9.963  1.00  0.00     0.008 C 
BRANCH   9  11
ATOM     11  C   UNL     1     -26.014  30.028  -8.297  1.00  0.00    -0.002 C 
ATOM     12  C   UNL     1     -27.129  29.063  -7.860  1.00  0.00     0.005 C 
ATOM     13  C   UNL     1     -25.934  31.070  -7.139  1.00  0.00    -0.026 C 
ATOM     14  C   UNL     1     -27.119  29.075  -6.330  1.00  0.00     0.005 C 
ATOM     15  C   UNL     1     -26.109  30.158  -5.900  1.00  0.00    -0.001 C 
ATOM     16  C   UNL     1     -27.090  32.120  -7.216  1.00  0.00     0.007 C 
ATOM     17  C   UNL     1     -24.557  31.776  -7.125  1.00  0.00     0.012 C 
ATOM     18  C   UNL     1     -26.439  30.907  -4.571  1.00  0.00     0.000 C 
ATOM     19  C   UNL     1     -27.311  32.879  -5.901  1.00  0.00     0.005 C 
ATOM     20  C   UNL     1     -27.598  31.924  -4.713  1.00  0.00     0.003 C 
ATOM     21  C   UNL     1     -26.722  29.905  -3.438  1.00  0.00     0.031 C 
ATOM     22  C   UNL     1     -27.888  32.689  -3.353  1.00  0.00    -0.008 C 
ATOM     23  C   UNL     1     -27.189  30.559  -2.176  1.00  0.00    -0.027 C 
ATOM     24  C   UNL     1     -27.864  31.726  -2.152  1.00  0.00    -0.065 C 
ATOM     25  C   UNL     1     -29.308  33.340  -3.435  1.00  0.00     0.014 C 
ATOM     26  C   UNL     1     -26.832  33.805  -3.087  1.00  0.00     0.016 C 
ATOM     27  C   UNL     1     -28.457  32.181  -0.828  1.00  0.00     0.063 C 
ATOM     28  C   UNL     1     -29.811  33.887  -2.090  1.00  0.00     0.033 C 
ATOM     29  C   UNL     1     -29.854  32.784  -1.029  1.00  0.00     0.118 C 
BRANCH  29  30
ATOM     30  O   UNL     1     -30.316  33.328   0.179  1.00  0.00    -0.393 OA
ATOM     31  H   UNL     1     -31.078  33.924  -0.048  1.00  0.00     0.210 HD
ENDBRANCH  29  30
ENDBRANCH   9  11
ENDBRANCH   1   9
TORSDOF 7
ENDMDL
