MODEL 1
REMARK VINA RESULT:    -3.444      0.000      0.000
REMARK INTER + INTRA:          -4.251
REMARK INTER:                  -3.948
REMARK INTRA:                  -0.303
REMARK UNBOUND:                -0.303
REMARK SMILES COC(=O)c1ccccc1O
REMARK SMILES IDX 5 1 6 2 7 3 8 4 9 5 10 6 3 7 4 8 2 9 1 10 11 11
REMARK H PARENT 11 12
REMARK Flexibility Score: inf
ROOT
ATOM      1  C   UNL     1     116.754 117.500 117.293  1.00  0.00     0.101 A 
ATOM      2  C   UNL     1     115.576 118.271 117.371  1.00  0.00     0.019 A 
ATOM      3  C   UNL     1     115.539 119.444 118.129  1.00  0.00     0.001 A 
ATOM      4  C   UNL     1     116.672 119.865 118.820  1.00  0.00     0.004 A 
ATOM      5  C   UNL     1     117.847 119.116 118.757  1.00  0.00     0.047 A 
ATOM      6  C   UNL     1     117.899 117.936 117.998  1.00  0.00     0.130 A 
ENDROOT
BRANCH   1   7
ATOM      7  C   UNL     1     116.762 116.257 116.477  1.00  0.00     0.341 C 
ATOM      8  O   UNL     1     117.337 115.222 116.915  1.00  0.00    -0.246 OA
BRANCH   7   9
ATOM      9  O   UNL     1     116.136 116.224 115.226  1.00  0.00    -0.465 OA
ATOM     10  C   UNL     1     116.797 116.609 114.027  1.00  0.00     0.282 C 
ENDBRANCH   7   9
ENDBRANCH   1   7
BRANCH   6  11
ATOM     11  O   UNL     1     119.088 117.207 117.953  1.00  0.00    -0.507 OA
ATOM     12  H   UNL     1     119.986 117.640 118.135  1.00  0.00     0.293 HD
ENDBRANCH   6  11
TORSDOF 3
ENDMDL
MODEL 2
REMARK VINA RESULT:    -3.427      2.135      2.899
REMARK INTER + INTRA:          -4.230
REMARK INTER:                  -3.931
REMARK INTRA:                  -0.299
REMARK UNBOUND:                -0.303
REMARK SMILES COC(=O)c1ccccc1O
REMARK SMILES IDX 5 1 6 2 7 3 8 4 9 5 10 6 3 7 4 8 2 9 1 10 11 11
REMARK H PARENT 11 12
REMARK Flexibility Score: inf
ROOT
ATOM      1  C   UNL     1     115.671 116.721 117.314  1.00  0.00     0.101 A 
ATOM      2  C   UNL     1     114.908 115.539 117.404  1.00  0.00     0.019 A 
ATOM      3  C   UNL     1     113.739 115.500 118.169  1.00  0.00     0.001 A 
ATOM      4  C   UNL     1     113.314 116.635 118.855  1.00  0.00     0.004 A 
ATOM      5  C   UNL     1     114.055 117.814 118.779  1.00  0.00     0.047 A 
ATOM      6  C   UNL     1     115.231 117.869 118.015  1.00  0.00     0.130 A 
ENDROOT
BRANCH   1   7
ATOM      7  C   UNL     1     116.910 116.732 116.493  1.00  0.00     0.341 C 
ATOM      8  O   UNL     1     117.938 117.331 116.914  1.00  0.00    -0.246 OA
BRANCH   7   9
ATOM      9  O   UNL     1     116.946 116.082 115.254  1.00  0.00    -0.465 OA
ATOM     10  C   UNL     1     116.606 116.731 114.035  1.00  0.00     0.282 C 
ENDBRANCH   7   9
ENDBRANCH   1   7
BRANCH   6  11
ATOM     11  O   UNL     1     115.952 119.061 117.957  1.00  0.00    -0.507 OA
ATOM     12  H   UNL     1     115.490 119.963 117.934  1.00  0.00     0.293 HD
ENDBRANCH   6  11
TORSDOF 3
ENDMDL
MODEL 3
REMARK VINA RESULT:    -3.426      2.425      4.049
REMARK INTER + INTRA:          -4.230
REMARK INTER:                  -3.933
REMARK INTRA:                  -0.297
REMARK UNBOUND:                -0.303
REMARK SMILES COC(=O)c1ccccc1O
REMARK SMILES IDX 5 1 6 2 7 3 8 4 9 5 10 6 3 7 4 8 2 9 1 10 11 11
REMARK H PARENT 11 12
REMARK Flexibility Score: inf
ROOT
ATOM      1  C   UNL     1     116.493 115.730 117.297  1.00  0.00     0.101 A 
ATOM      2  C   UNL     1     117.675 114.965 117.374  1.00  0.00     0.019 A 
ATOM      3  C   UNL     1     117.717 113.788 118.125  1.00  0.00     0.001 A 
ATOM      4  C   UNL     1     116.583 113.355 118.810  1.00  0.00     0.004 A 
ATOM      5  C   UNL     1     115.404 114.097 118.747  1.00  0.00     0.047 A 
ATOM      6  C   UNL     1     115.347 115.282 117.996  1.00  0.00     0.130 A 
ENDROOT
BRANCH   1   7
ATOM      7  C   UNL     1     116.480 116.978 116.490  1.00  0.00     0.341 C 
ATOM      8  O   UNL     1     115.863 117.994 116.913  1.00  0.00    -0.246 OA
BRANCH   7   9
ATOM      9  O   UNL     1     117.147 117.036 115.261  1.00  0.00    -0.465 OA
ATOM     10  C   UNL     1     116.524 116.689 114.031  1.00  0.00     0.282 C 
ENDBRANCH   7   9
ENDBRANCH   1   7
BRANCH   6  11
ATOM     11  O   UNL     1     114.155 116.004 117.951  1.00  0.00    -0.507 OA
ATOM     12  H   UNL     1     113.330 115.703 118.457  1.00  0.00     0.293 HD
ENDBRANCH   6  11
TORSDOF 3
ENDMDL
MODEL 4
REMARK VINA RESULT:    -3.423      2.094      2.870
REMARK INTER + INTRA:          -4.226
REMARK INTER:                  -3.926
REMARK INTRA:                  -0.300
REMARK UNBOUND:                -0.303
REMARK SMILES COC(=O)c1ccccc1O
REMARK SMILES IDX 5 1 6 2 7 3 8 4 9 5 10 6 3 7 4 8 2 9 1 10 11 11
REMARK H PARENT 11 12
REMARK Flexibility Score: inf
ROOT
ATOM      1  C   UNL     1     117.560 116.491 117.328  1.00  0.00     0.101 A 
ATOM      2  C   UNL     1     118.342 117.662 117.417  1.00  0.00     0.019 A 
ATOM      3  C   UNL     1     119.499 117.690 118.199  1.00  0.00     0.001 A 
ATOM      4  C   UNL     1     119.895 116.555 118.904  1.00  0.00     0.004 A 
ATOM      5  C   UNL     1     119.136 115.388 118.830  1.00  0.00     0.047 A 
ATOM      6  C   UNL     1     117.971 115.344 118.048  1.00  0.00     0.130 A 
ENDROOT
BRANCH   1   7
ATOM      7  C   UNL     1     116.335 116.492 116.488  1.00  0.00     0.341 C 
ATOM      8  O   UNL     1     115.289 115.918 116.901  1.00  0.00    -0.246 OA
BRANCH   7   9
ATOM      9  O   UNL     1     116.329 117.125 115.240  1.00  0.00    -0.465 OA
ATOM     10  C   UNL     1     116.687 116.456 114.037  1.00  0.00     0.282 C 
ENDBRANCH   7   9
ENDBRANCH   1   7
BRANCH   6  11
ATOM     11  O   UNL     1     117.231 114.164 117.992  1.00  0.00    -0.507 OA
ATOM     12  H   UNL     1     116.220 114.171 117.908  1.00  0.00     0.293 HD
ENDBRANCH   6  11
TORSDOF 3
ENDMDL
MODEL 5
REMARK VINA RESULT:    -3.332      1.625      2.604
REMARK INTER + INTRA:          -4.121
REMARK INTER:                  -3.816
REMARK INTRA:                  -0.306
REMARK UNBOUND:                -0.303
REMARK SMILES COC(=O)c1ccccc1O
REMARK SMILES IDX 5 1 6 2 7 3 8 4 9 5 10 6 3 7 4 8 2 9 1 10 11 11
REMARK H PARENT 11 12
REMARK Flexibility Score: inf
ROOT
ATOM      1  C   UNL     1     115.712 117.024 117.326  1.00  0.00     0.101 A 
ATOM      2  C   UNL     1     115.710 118.432 117.410  1.00  0.00     0.019 A 
ATOM      3  C   UNL     1     114.716 119.104 118.125  1.00  0.00     0.001 A 
ATOM      4  C   UNL     1     113.709 118.385 118.766  1.00  0.00     0.004 A 
ATOM      5  C   UNL     1     113.692 116.993 118.695  1.00  0.00     0.047 A 
ATOM      6  C   UNL     1     114.685 116.304 117.981  1.00  0.00     0.130 A 
ENDROOT
BRANCH   1   7
ATOM      7  C   UNL     1     116.783 116.338 116.559  1.00  0.00     0.341 C 
ATOM      8  O   UNL     1     117.311 115.287 117.018  1.00  0.00    -0.246 OA
BRANCH   7   9
ATOM      9  O   UNL     1     117.212 116.847 115.327  1.00  0.00    -0.465 OA
ATOM     10  C   UNL     1     116.522 116.595 114.110  1.00  0.00     0.282 C 
ENDBRANCH   7   9
ENDBRANCH   1   7
BRANCH   6  11
ATOM     11  O   UNL     1     114.643 114.911 117.927  1.00  0.00    -0.507 OA
ATOM     12  H   UNL     1     113.842 114.415 117.553  1.00  0.00     0.293 HD
ENDBRANCH   6  11
TORSDOF 3
ENDMDL
MODEL 6
REMARK VINA RESULT:    -3.328      1.989      3.205
REMARK INTER + INTRA:          -4.117
REMARK INTER:                  -3.811
REMARK INTRA:                  -0.306
REMARK UNBOUND:                -0.303
REMARK SMILES COC(=O)c1ccccc1O
REMARK SMILES IDX 5 1 6 2 7 3 8 4 9 5 10 6 3 7 4 8 2 9 1 10 11 11
REMARK H PARENT 11 12
REMARK Flexibility Score: inf
ROOT
ATOM      1  C   UNL     1     117.505 116.154 117.315  1.00  0.00     0.101 A 
ATOM      2  C   UNL     1     117.534 114.746 117.399  1.00  0.00     0.019 A 
ATOM      3  C   UNL     1     118.524 114.095 118.139  1.00  0.00     0.001 A 
ATOM      4  C   UNL     1     119.498 114.835 118.807  1.00  0.00     0.004 A 
ATOM      5  C   UNL     1     119.487 116.227 118.736  1.00  0.00     0.047 A 
ATOM      6  C   UNL     1     118.499 116.896 117.996  1.00  0.00     0.130 A 
ENDROOT
BRANCH   1   7
ATOM      7  C   UNL     1     116.439 116.818 116.520  1.00  0.00     0.341 C 
ATOM      8  O   UNL     1     115.888 117.865 116.958  1.00  0.00    -0.246 OA
BRANCH   7   9
ATOM      9  O   UNL     1     116.042 116.291 115.286  1.00  0.00    -0.465 OA
ATOM     10  C   UNL     1     116.789 116.483 114.092  1.00  0.00     0.282 C 
ENDBRANCH   7   9
ENDBRANCH   1   7
BRANCH   6  11
ATOM     11  O   UNL     1     118.512 118.289 117.944  1.00  0.00    -0.507 OA
ATOM     12  H   UNL     1     118.230 118.794 117.111  1.00  0.00     0.293 HD
ENDBRANCH   6  11
TORSDOF 3
ENDMDL
MODEL 7
REMARK VINA RESULT:    -3.322      1.452      2.212
REMARK INTER + INTRA:          -4.110
REMARK INTER:                  -3.816
REMARK INTRA:                  -0.294
REMARK UNBOUND:                -0.303
REMARK SMILES COC(=O)c1ccccc1O
REMARK SMILES IDX 5 1 6 2 7 3 8 4 9 5 10 6 3 7 4 8 2 9 1 10 11 11
REMARK H PARENT 11 12
REMARK Flexibility Score: inf
ROOT
ATOM      1  C   UNL     1     117.043 117.514 117.327  1.00  0.00     0.101 A 
ATOM      2  C   UNL     1     118.450 117.539 117.423  1.00  0.00     0.019 A 
ATOM      3  C   UNL     1     119.097 118.526 118.170  1.00  0.00     0.001 A 
ATOM      4  C   UNL     1     118.354 119.502 118.831  1.00  0.00     0.004 A 
ATOM      5  C   UNL     1     116.962 119.495 118.749  1.00  0.00     0.047 A 
ATOM      6  C   UNL     1     116.298 118.509 118.003  1.00  0.00     0.130 A 
ENDROOT
BRANCH   1   7
ATOM      7  C   UNL     1     116.383 116.450 116.525  1.00  0.00     0.341 C 
ATOM      8  O   UNL     1     115.333 115.898 116.957  1.00  0.00    -0.246 OA
BRANCH   7   9
ATOM      9  O   UNL     1     116.916 116.056 115.293  1.00  0.00    -0.465 OA
ATOM     10  C   UNL     1     116.436 116.557 114.052  1.00  0.00     0.282 C 
ENDBRANCH   7   9
ENDBRANCH   1   7
BRANCH   6  11
ATOM     11  O   UNL     1     114.905 118.526 117.938  1.00  0.00    -0.507 OA
ATOM     12  H   UNL     1     114.408 118.327 117.077  1.00  0.00     0.293 HD
ENDBRANCH   6  11
TORSDOF 3
ENDMDL
MODEL 8
REMARK VINA RESULT:    -3.313      2.289      3.469
REMARK INTER + INTRA:          -4.100
REMARK INTER:                  -3.789
REMARK INTRA:                  -0.311
REMARK UNBOUND:                -0.303
REMARK SMILES COC(=O)c1ccccc1O
REMARK SMILES IDX 5 1 6 2 7 3 8 4 9 5 10 6 3 7 4 8 2 9 1 10 11 11
REMARK H PARENT 11 12
REMARK Flexibility Score: inf
ROOT
ATOM      1  C   UNL     1     116.150 115.719 117.347  1.00  0.00     0.101 A 
ATOM      2  C   UNL     1     114.744 115.679 117.450  1.00  0.00     0.019 A 
ATOM      3  C   UNL     1     114.111 114.685 118.199  1.00  0.00     0.001 A 
ATOM      4  C   UNL     1     114.866 113.717 118.857  1.00  0.00     0.004 A 
ATOM      5  C   UNL     1     116.258 113.739 118.769  1.00  0.00     0.047 A 
ATOM      6  C   UNL     1     116.909 114.732 118.019  1.00  0.00     0.130 A 
ENDROOT
BRANCH   1   7
ATOM      7  C   UNL     1     116.795 116.789 116.542  1.00  0.00     0.341 C 
ATOM      8  O   UNL     1     117.810 117.389 116.992  1.00  0.00    -0.246 OA
BRANCH   7   9
ATOM      9  O   UNL     1     116.286 117.137 115.286  1.00  0.00    -0.465 OA
ATOM     10  C   UNL     1     116.551 116.378 114.112  1.00  0.00     0.282 C 
ENDBRANCH   7   9
ENDBRANCH   1   7
BRANCH   6  11
ATOM     11  O   UNL     1     118.301 114.729 117.948  1.00  0.00    -0.507 OA
ATOM     12  H   UNL     1     118.846 113.909 118.190  1.00  0.00     0.293 HD
ENDBRANCH   6  11
TORSDOF 3
ENDMDL
MODEL 9
REMARK VINA RESULT:    -3.130      3.697      4.837
REMARK INTER + INTRA:          -3.890
REMARK INTER:                  -3.574
REMARK INTRA:                  -0.316
REMARK UNBOUND:                -0.303
REMARK SMILES COC(=O)c1ccccc1O
REMARK SMILES IDX 5 1 6 2 7 3 8 4 9 5 10 6 3 7 4 8 2 9 1 10 11 11
REMARK H PARENT 11 12
REMARK Flexibility Score: inf
ROOT
ATOM      1  C   UNL     1     114.094 118.202 118.595  1.00  0.00     0.101 A 
ATOM      2  C   UNL     1     113.899 116.806 118.553  1.00  0.00     0.019 A 
ATOM      3  C   UNL     1     114.730 115.991 117.780  1.00  0.00     0.001 A 
ATOM      4  C   UNL     1     115.766 116.554 117.037  1.00  0.00     0.004 A 
ATOM      5  C   UNL     1     115.975 117.933 117.064  1.00  0.00     0.047 A 
ATOM      6  C   UNL     1     115.148 118.764 117.837  1.00  0.00     0.130 A 
ENDROOT
BRANCH   1   7
ATOM      7  C   UNL     1     113.193 119.042 119.427  1.00  0.00     0.341 C 
ATOM      8  O   UNL     1     112.663 118.557 120.465  1.00  0.00    -0.246 OA
BRANCH   7   9
ATOM      9  O   UNL     1     112.929 120.369 119.070  1.00  0.00    -0.465 OA
ATOM     10  C   UNL     1     111.869 120.732 118.194  1.00  0.00     0.282 C 
ENDBRANCH   7   9
ENDBRANCH   1   7
BRANCH   6  11
ATOM     11  O   UNL     1     115.380 120.139 117.845  1.00  0.00    -0.507 OA
ATOM     12  H   UNL     1     115.723 120.627 117.026  1.00  0.00     0.293 HD
ENDBRANCH   6  11
TORSDOF 3
ENDMDL
