MODEL 1
REMARK VINA RESULT:    -3.725      0.000      0.000
REMARK INTER + INTRA:          -5.608
REMARK INTER:                  -5.031
REMARK INTRA:                  -0.577
REMARK UNBOUND:                -0.577
REMARK SMILES CCCCCCC=CC(=O)[O-]
REMARK SMILES IDX 5 1 6 2 7 3 8 4 9 5 10 6 11 7 4 8 3 9 2 10 1 11
REMARK H PARENT
REMARK Flexibility Score: inf
ROOT
ATOM      1  C   UNL     1      -6.598  -3.689   8.857  1.00  0.00     0.004 C 
ENDROOT
BRANCH   1   2
ATOM      2  C   UNL     1      -6.871  -5.191   8.678  1.00  0.00     0.027 C 
BRANCH   2   3
ATOM      3  C   UNL     1      -7.458  -5.476   7.325  1.00  0.00    -0.025 C 
ATOM      4  C   UNL     1      -7.516  -4.535   6.377  1.00  0.00     0.020 C 
BRANCH   4   5
ATOM      5  C   UNL     1      -8.100  -4.797   5.053  1.00  0.00     0.064 C 
ATOM      6  O   UNL     1      -8.331  -5.982   4.698  1.00  0.00    -0.545 OA
ATOM      7  O   UNL     1      -8.405  -3.754   4.186  1.00  0.00    -0.545 OA
ENDBRANCH   4   5
ENDBRANCH   2   3
ENDBRANCH   1   2
BRANCH   1   8
ATOM      8  C   UNL     1      -5.116  -3.387   9.134  1.00  0.00     0.000 C 
BRANCH   8   9
ATOM      9  C   UNL     1      -4.326  -4.638   9.547  1.00  0.00    -0.000 C 
BRANCH   9  10
ATOM     10  C   UNL     1      -3.147  -4.878   8.598  1.00  0.00    -0.003 C 
ATOM     11  C   UNL     1      -3.258  -4.008   7.348  1.00  0.00     0.004 C 
ENDBRANCH   9  10
ENDBRANCH   8   9
ENDBRANCH   1   8
TORSDOF 6
ENDMDL
MODEL 2
REMARK VINA RESULT:    -3.717     13.499     15.182
REMARK INTER + INTRA:          -5.598
REMARK INTER:                  -5.288
REMARK INTRA:                  -0.310
REMARK UNBOUND:                -0.577
REMARK SMILES CCCCCCC=CC(=O)[O-]
REMARK SMILES IDX 5 1 6 2 7 3 8 4 9 5 10 6 11 7 4 8 3 9 2 10 1 11
REMARK H PARENT
REMARK Flexibility Score: inf
ROOT
ATOM      1  C   UNL     1       2.648   5.355   8.665  1.00  0.00     0.004 C 
ENDROOT
BRANCH   1   2
ATOM      2  C   UNL     1       4.056   5.579   9.236  1.00  0.00     0.027 C 
BRANCH   2   3
ATOM      3  C   UNL     1       5.111   5.258   8.216  1.00  0.00    -0.025 C 
ATOM      4  C   UNL     1       6.412   5.354   8.505  1.00  0.00     0.020 C 
BRANCH   4   5
ATOM      5  C   UNL     1       7.456   5.056   7.513  1.00  0.00     0.064 C 
ATOM      6  O   UNL     1       7.318   5.455   6.327  1.00  0.00    -0.545 OA
ATOM      7  O   UNL     1       8.596   4.341   7.863  1.00  0.00    -0.545 OA
ENDBRANCH   4   5
ENDBRANCH   2   3
ENDBRANCH   1   2
BRANCH   1   8
ATOM      8  C   UNL     1       1.875   4.255   9.412  1.00  0.00     0.000 C 
BRANCH   8   9
ATOM      9  C   UNL     1       2.563   3.834  10.719  1.00  0.00    -0.000 C 
BRANCH   9  10
ATOM     10  C   UNL     1       1.595   3.931  11.903  1.00  0.00    -0.003 C 
ATOM     11  C   UNL     1       2.349   4.094  13.221  1.00  0.00     0.004 C 
ENDBRANCH   9  10
ENDBRANCH   8   9
ENDBRANCH   1   8
TORSDOF 6
ENDMDL
MODEL 3
REMARK VINA RESULT:    -3.667     14.050     16.038
REMARK INTER + INTRA:          -5.530
REMARK INTER:                  -5.153
REMARK INTRA:                  -0.376
REMARK UNBOUND:                -0.577
REMARK SMILES CCCCCCC=CC(=O)[O-]
REMARK SMILES IDX 5 1 6 2 7 3 8 4 9 5 10 6 11 7 4 8 3 9 2 10 1 11
REMARK H PARENT
REMARK Flexibility Score: inf
ROOT
ATOM      1  C   UNL     1       8.129   3.997   7.529  1.00  0.00     0.004 C 
ENDROOT
BRANCH   1   2
ATOM      2  C   UNL     1       7.432   4.939   8.522  1.00  0.00     0.027 C 
BRANCH   2   3
ATOM      3  C   UNL     1       6.046   5.285   8.056  1.00  0.00    -0.025 C 
ATOM      4  C   UNL     1       4.962   4.801   8.670  1.00  0.00     0.020 C 
BRANCH   4   5
ATOM      5  C   UNL     1       3.601   5.121   8.217  1.00  0.00     0.064 C 
ATOM      6  O   UNL     1       3.387   5.340   6.996  1.00  0.00    -0.545 OA
ATOM      7  O   UNL     1       2.542   5.184   9.116  1.00  0.00    -0.545 OA
ENDBRANCH   4   5
ENDBRANCH   2   3
ENDBRANCH   1   2
BRANCH   1   8
ATOM      8  C   UNL     1       9.341   3.280   8.147  1.00  0.00     0.000 C 
BRANCH   8   9
ATOM      9  C   UNL     1       9.843   3.965   9.427  1.00  0.00    -0.000 C 
BRANCH   9  10
ATOM     10  C   UNL     1       9.837   2.989  10.608  1.00  0.00    -0.003 C 
ATOM     11  C   UNL     1       9.101   1.699  10.255  1.00  0.00     0.004 C 
ENDBRANCH   9  10
ENDBRANCH   8   9
ENDBRANCH   1   8
TORSDOF 6
ENDMDL
MODEL 4
REMARK VINA RESULT:    -3.662      2.411      3.553
REMARK INTER + INTRA:          -5.523
REMARK INTER:                  -5.152
REMARK INTRA:                  -0.371
REMARK UNBOUND:                -0.577
REMARK SMILES CCCCCCC=CC(=O)[O-]
REMARK SMILES IDX 5 1 6 2 7 3 8 4 9 5 10 6 11 7 4 8 3 9 2 10 1 11
REMARK H PARENT
REMARK Flexibility Score: inf
ROOT
ATOM      1  C   UNL     1      -2.848  -4.921   8.970  1.00  0.00     0.004 C 
ENDROOT
BRANCH   1   2
ATOM      2  C   UNL     1      -4.150  -4.596   9.719  1.00  0.00     0.027 C 
BRANCH   2   3
ATOM      3  C   UNL     1      -5.279  -4.351   8.759  1.00  0.00    -0.025 C 
ATOM      4  C   UNL     1      -6.282  -5.224   8.626  1.00  0.00     0.020 C 
BRANCH   4   5
ATOM      5  C   UNL     1      -7.387  -5.005   7.681  1.00  0.00     0.064 C 
ATOM      6  O   UNL     1      -8.217  -4.084   7.897  1.00  0.00    -0.545 OA
ATOM      7  O   UNL     1      -7.530  -5.798   6.547  1.00  0.00    -0.545 OA
ENDBRANCH   4   5
ENDBRANCH   2   3
ENDBRANCH   1   2
BRANCH   1   8
ATOM      8  C   UNL     1      -1.721  -3.922   9.283  1.00  0.00     0.000 C 
BRANCH   8   9
ATOM      9  C   UNL     1      -2.151  -2.843  10.289  1.00  0.00    -0.000 C 
BRANCH   9  10
ATOM     10  C   UNL     1      -1.417  -3.015  11.623  1.00  0.00    -0.003 C 
ATOM     11  C   UNL     1      -2.391  -2.975  12.798  1.00  0.00     0.004 C 
ENDBRANCH   9  10
ENDBRANCH   8   9
ENDBRANCH   1   8
TORSDOF 6
ENDMDL
MODEL 5
REMARK VINA RESULT:    -3.641     12.995     14.928
REMARK INTER + INTRA:          -5.495
REMARK INTER:                  -4.971
REMARK INTRA:                  -0.524
REMARK UNBOUND:                -0.577
REMARK SMILES CCCCCCC=CC(=O)[O-]
REMARK SMILES IDX 5 1 6 2 7 3 8 4 9 5 10 6 11 7 4 8 3 9 2 10 1 11
REMARK H PARENT
REMARK Flexibility Score: inf
ROOT
ATOM      1  C   UNL     1       2.876   5.551   8.835  1.00  0.00     0.004 C 
ENDROOT
BRANCH   1   2
ATOM      2  C   UNL     1       4.139   4.847   9.351  1.00  0.00     0.027 C 
BRANCH   2   3
ATOM      3  C   UNL     1       5.196   4.781   8.285  1.00  0.00    -0.025 C 
ATOM      4  C   UNL     1       6.297   5.536   8.347  1.00  0.00     0.020 C 
BRANCH   4   5
ATOM      5  C   UNL     1       7.333   5.492   7.304  1.00  0.00     0.064 C 
ATOM      6  O   UNL     1       8.128   4.517   7.258  1.00  0.00    -0.545 OA
ATOM      7  O   UNL     1       7.448   6.511   6.365  1.00  0.00    -0.545 OA
ENDBRANCH   4   5
ENDBRANCH   2   3
ENDBRANCH   1   2
BRANCH   1   8
ATOM      8  C   UNL     1       2.259   4.842   7.618  1.00  0.00     0.000 C 
BRANCH   8   9
ATOM      9  C   UNL     1       1.457   3.591   8.008  1.00  0.00    -0.000 C 
BRANCH   9  10
ATOM     10  C   UNL     1       1.729   2.441   7.031  1.00  0.00    -0.003 C 
ATOM     11  C   UNL     1       2.873   2.783   6.080  1.00  0.00     0.004 C 
ENDBRANCH   9  10
ENDBRANCH   8   9
ENDBRANCH   1   8
TORSDOF 6
ENDMDL
MODEL 6
REMARK VINA RESULT:    -3.638      3.730      5.339
REMARK INTER + INTRA:          -5.491
REMARK INTER:                  -5.109
REMARK INTRA:                  -0.382
REMARK UNBOUND:                -0.577
REMARK SMILES CCCCCCC=CC(=O)[O-]
REMARK SMILES IDX 5 1 6 2 7 3 8 4 9 5 10 6 11 7 4 8 3 9 2 10 1 11
REMARK H PARENT
REMARK Flexibility Score: inf
ROOT
ATOM      1  C   UNL     1      -8.346  -3.490   7.744  1.00  0.00     0.004 C 
ENDROOT
BRANCH   1   2
ATOM      2  C   UNL     1      -7.531  -4.361   8.712  1.00  0.00     0.027 C 
BRANCH   2   3
ATOM      3  C   UNL     1      -6.109  -4.501   8.247  1.00  0.00    -0.025 C 
ATOM      4  C   UNL     1      -5.089  -4.493   9.110  1.00  0.00     0.020 C 
BRANCH   4   5
ATOM      5  C   UNL     1      -3.692  -4.615   8.668  1.00  0.00     0.064 C 
ATOM      6  O   UNL     1      -3.442  -5.011   7.500  1.00  0.00    -0.545 OA
ATOM      7  O   UNL     1      -2.640  -4.297   9.520  1.00  0.00    -0.545 OA
ENDBRANCH   4   5
ENDBRANCH   2   3
ENDBRANCH   1   2
BRANCH   1   8
ATOM      8  C   UNL     1      -9.549  -2.817   8.426  1.00  0.00     0.000 C 
BRANCH   8   9
ATOM      9  C   UNL     1      -9.808  -3.362   9.839  1.00  0.00    -0.000 C 
BRANCH   9  10
ATOM     10  C   UNL     1      -9.847  -2.225  10.865  1.00  0.00    -0.003 C 
ATOM     11  C   UNL     1      -9.299  -0.928  10.273  1.00  0.00     0.004 C 
ENDBRANCH   9  10
ENDBRANCH   8   9
ENDBRANCH   1   8
TORSDOF 6
ENDMDL
MODEL 7
REMARK VINA RESULT:    -3.595     13.981     15.997
REMARK INTER + INTRA:          -5.433
REMARK INTER:                  -5.142
REMARK INTRA:                  -0.291
REMARK UNBOUND:                -0.577
REMARK SMILES CCCCCCC=CC(=O)[O-]
REMARK SMILES IDX 5 1 6 2 7 3 8 4 9 5 10 6 11 7 4 8 3 9 2 10 1 11
REMARK H PARENT
REMARK Flexibility Score: inf
ROOT
ATOM      1  C   UNL     1       4.815   4.424   8.994  1.00  0.00     0.004 C 
ENDROOT
BRANCH   1   2
ATOM      2  C   UNL     1       5.645   5.567   8.390  1.00  0.00     0.027 C 
BRANCH   2   3
ATOM      3  C   UNL     1       7.045   5.115   8.083  1.00  0.00    -0.025 C 
ATOM      4  C   UNL     1       7.700   4.277   8.892  1.00  0.00     0.020 C 
BRANCH   4   5
ATOM      5  C   UNL     1       9.075   3.838   8.611  1.00  0.00     0.064 C 
ATOM      6  O   UNL     1       9.309   3.139   7.590  1.00  0.00    -0.545 OA
ATOM      7  O   UNL     1      10.125   4.184   9.454  1.00  0.00    -0.545 OA
ENDBRANCH   4   5
ENDBRANCH   2   3
ENDBRANCH   1   2
BRANCH   1   8
ATOM      8  C   UNL     1       3.484   4.912   9.590  1.00  0.00     0.000 C 
BRANCH   8   9
ATOM      9  C   UNL     1       2.572   5.567   8.542  1.00  0.00    -0.000 C 
BRANCH   9  10
ATOM     10  C   UNL     1       1.501   4.584   8.057  1.00  0.00    -0.003 C 
ATOM     11  C   UNL     1       0.928   3.775   9.218  1.00  0.00     0.004 C 
ENDBRANCH   9  10
ENDBRANCH   8   9
ENDBRANCH   1   8
TORSDOF 6
ENDMDL
MODEL 8
REMARK VINA RESULT:    -3.540      3.455      4.026
REMARK INTER + INTRA:          -5.358
REMARK INTER:                  -5.130
REMARK INTRA:                  -0.228
REMARK UNBOUND:                -0.577
REMARK SMILES CCCCCCC=CC(=O)[O-]
REMARK SMILES IDX 5 1 6 2 7 3 8 4 9 5 10 6 11 7 4 8 3 9 2 10 1 11
REMARK H PARENT
REMARK Flexibility Score: inf
ROOT
ATOM      1  C   UNL     1      -6.305  -5.087   8.643  1.00  0.00     0.004 C 
ENDROOT
BRANCH   1   2
ATOM      2  C   UNL     1      -7.670  -4.467   8.307  1.00  0.00     0.027 C 
BRANCH   2   3
ATOM      3  C   UNL     1      -7.980  -3.315   9.220  1.00  0.00    -0.025 C 
ATOM      4  C   UNL     1      -9.227  -2.857   9.367  1.00  0.00     0.020 C 
BRANCH   4   5
ATOM      5  C   UNL     1      -9.543  -1.721  10.245  1.00  0.00     0.064 C 
ATOM      6  O   UNL     1     -10.122  -1.927  11.344  1.00  0.00    -0.545 OA
ATOM      7  O   UNL     1      -9.212  -0.421   9.883  1.00  0.00    -0.545 OA
ENDBRANCH   4   5
ENDBRANCH   2   3
ENDBRANCH   1   2
BRANCH   1   8
ATOM      8  C   UNL     1      -5.259  -4.032   9.040  1.00  0.00     0.000 C 
BRANCH   8   9
ATOM      9  C   UNL     1      -3.964  -4.658   9.580  1.00  0.00    -0.000 C 
BRANCH   9  10
ATOM     10  C   UNL     1      -2.956  -4.890   8.450  1.00  0.00    -0.003 C 
ATOM     11  C   UNL     1      -1.642  -4.161   8.723  1.00  0.00     0.004 C 
ENDBRANCH   9  10
ENDBRANCH   8   9
ENDBRANCH   1   8
TORSDOF 6
ENDMDL
MODEL 9
REMARK VINA RESULT:    -3.499      1.888      3.107
REMARK INTER + INTRA:          -5.304
REMARK INTER:                  -4.803
REMARK INTRA:                  -0.501
REMARK UNBOUND:                -0.577
REMARK SMILES CCCCCCC=CC(=O)[O-]
REMARK SMILES IDX 5 1 6 2 7 3 8 4 9 5 10 6 11 7 4 8 3 9 2 10 1 11
REMARK H PARENT
REMARK Flexibility Score: inf
ROOT
ATOM      1  C   UNL     1      -2.896  -4.862   8.832  1.00  0.00     0.004 C 
ENDROOT
BRANCH   1   2
ATOM      2  C   UNL     1      -4.178  -4.699   9.661  1.00  0.00     0.027 C 
BRANCH   2   3
ATOM      3  C   UNL     1      -5.349  -4.352   8.786  1.00  0.00    -0.025 C 
ATOM      4  C   UNL     1      -6.315  -5.239   8.529  1.00  0.00     0.020 C 
BRANCH   4   5
ATOM      5  C   UNL     1      -7.459  -4.918   7.663  1.00  0.00     0.064 C 
ATOM      6  O   UNL     1      -8.300  -4.058   8.036  1.00  0.00    -0.545 OA
ATOM      7  O   UNL     1      -7.627  -5.547   6.434  1.00  0.00    -0.545 OA
ENDBRANCH   4   5
ENDBRANCH   2   3
ENDBRANCH   1   2
BRANCH   1   8
ATOM      8  C   UNL     1      -1.744  -3.982   9.345  1.00  0.00     0.000 C 
BRANCH   8   9
ATOM      9  C   UNL     1      -1.722  -2.594   8.687  1.00  0.00    -0.000 C 
BRANCH   9  10
ATOM     10  C   UNL     1      -2.308  -2.650   7.272  1.00  0.00    -0.003 C 
ATOM     11  C   UNL     1      -3.282  -1.499   7.032  1.00  0.00     0.004 C 
ENDBRANCH   9  10
ENDBRANCH   8   9
ENDBRANCH   1   8
TORSDOF 6
ENDMDL
