MODEL 1
REMARK VINA RESULT:    -5.496      0.000      0.000
REMARK INTER + INTRA:          -7.115
REMARK INTER:                  -6.782
REMARK INTRA:                  -0.334
REMARK UNBOUND:                -0.334
REMARK SMILES COc1cc(-c2oc3cc(O)cc(O)c3c(=O)c2O)ccc1O
REMARK SMILES IDX 6 1 18 2 16 3 17 4 15 5 13 6 12 7 10 8 9 9 8 10 7 11 5 12
REMARK SMILES IDX 3 13 22 14 4 15 21 16 20 17 2 18 1 19 23 20 19 22 14 24
REMARK SMILES IDX 11 26
REMARK H PARENT 23 21 19 23 14 25 11 27
REMARK Flexibility Score: inf
ROOT
ATOM      1  C   UNL     1      -4.142  91.321 -14.624  1.00  0.00     0.180 A 
ATOM      2  C   UNL     1      -4.839  90.228 -14.081  1.00  0.00     0.208 A 
ATOM      3  C   UNL     1      -5.208  90.260 -12.727  1.00  0.00     0.238 A 
ATOM      4  O   UNL     1      -5.880  89.303 -12.260  1.00  0.00    -0.285 OA
ATOM      5  C   UNL     1      -4.861  91.376 -11.928  1.00  0.00     0.111 A 
ATOM      6  C   UNL     1      -5.148  91.497 -10.535  1.00  0.00     0.134 A 
ATOM      7  C   UNL     1      -4.874  92.701  -9.875  1.00  0.00     0.093 A 
ATOM      8  C   UNL     1      -4.262  93.765 -10.543  1.00  0.00     0.123 A 
ATOM      9  C   UNL     1      -3.924  93.635 -11.888  1.00  0.00     0.094 A 
ATOM     10  C   UNL     1      -4.217  92.459 -12.582  1.00  0.00     0.146 A 
ATOM     11  O   UNL     1      -3.887  92.380 -13.866  1.00  0.00    -0.452 OA
ENDROOT
BRANCH   1  12
ATOM     12  C   UNL     1      -3.698  91.350 -16.037  1.00  0.00     0.025 A 
ATOM     13  C   UNL     1      -4.236  91.671 -18.401  1.00  0.00     0.161 A 
ATOM     14  C   UNL     1      -2.881  91.474 -18.727  1.00  0.00     0.157 A 
ATOM     15  C   UNL     1      -4.634  91.614 -17.050  1.00  0.00     0.062 A 
ATOM     16  C   UNL     1      -1.947  91.231 -17.716  1.00  0.00     0.051 A 
ATOM     17  C   UNL     1      -2.348  91.176 -16.380  1.00  0.00     0.016 A 
BRANCH  13  18
ATOM     18  O   UNL     1      -5.152  91.920 -19.435  1.00  0.00    -0.493 OA
ATOM     19  C   UNL     1      -5.661  93.206 -19.773  1.00  0.00     0.278 C 
ENDBRANCH  13  18
BRANCH  14  20
ATOM     20  O   UNL     1      -2.445  91.520 -20.050  1.00  0.00    -0.504 OA
ATOM     21  H   UNL     1      -1.831  92.250 -20.392  1.00  0.00     0.293 HD
ENDBRANCH  14  20
ENDBRANCH   1  12
BRANCH   2  22
ATOM     22  O   UNL     1      -5.191  89.146 -14.893  1.00  0.00    -0.502 OA
ATOM     23  H   UNL     1      -5.196  89.204 -15.905  1.00  0.00     0.293 HD
ENDBRANCH   2  22
BRANCH   6  24
ATOM     24  O   UNL     1      -5.674  90.463  -9.754  1.00  0.00    -0.507 OA
ATOM     25  H   UNL     1      -6.117  89.634 -10.122  1.00  0.00     0.293 HD
ENDBRANCH   6  24
BRANCH   8  26
ATOM     26  O   UNL     1      -3.978  94.954  -9.875  1.00  0.00    -0.508 OA
ATOM     27  H   UNL     1      -4.342  95.843 -10.197  1.00  0.00     0.293 HD
ENDBRANCH   8  26
TORSDOF 6
ENDMDL
MODEL 2
REMARK VINA RESULT:    -5.491      4.605      7.035
REMARK INTER + INTRA:          -7.108
REMARK INTER:                  -6.834
REMARK INTRA:                  -0.274
REMARK UNBOUND:                -0.334
REMARK SMILES COc1cc(-c2oc3cc(O)cc(O)c3c(=O)c2O)ccc1O
REMARK SMILES IDX 6 1 18 2 16 3 17 4 15 5 13 6 12 7 10 8 9 9 8 10 7 11 5 12
REMARK SMILES IDX 3 13 22 14 4 15 21 16 20 17 2 18 1 19 23 20 19 22 14 24
REMARK SMILES IDX 11 26
REMARK H PARENT 23 21 19 23 14 25 11 27
REMARK Flexibility Score: inf
ROOT
ATOM      1  C   UNL     1      -8.310  90.249 -13.854  1.00  0.00     0.180 A 
ATOM      2  C   UNL     1      -7.431  89.325 -13.266  1.00  0.00     0.208 A 
ATOM      3  C   UNL     1      -6.050  89.469 -13.477  1.00  0.00     0.238 A 
ATOM      4  O   UNL     1      -5.264  88.671 -12.904  1.00  0.00    -0.285 OA
ATOM      5  C   UNL     1      -5.568  90.526 -14.288  1.00  0.00     0.111 A 
ATOM      6  C   UNL     1      -4.193  90.744 -14.602  1.00  0.00     0.134 A 
ATOM      7  C   UNL     1      -3.819  91.896 -15.304  1.00  0.00     0.093 A 
ATOM      8  C   UNL     1      -4.778  92.804 -15.760  1.00  0.00     0.123 A 
ATOM      9  C   UNL     1      -6.127  92.569 -15.510  1.00  0.00     0.094 A 
ATOM     10  C   UNL     1      -6.528  91.447 -14.781  1.00  0.00     0.146 A 
ATOM     11  O   UNL     1      -7.824  91.267 -14.555  1.00  0.00    -0.452 OA
ENDROOT
BRANCH   1  12
ATOM     12  C   UNL     1      -9.780  90.149 -13.697  1.00  0.00     0.025 A 
ATOM     13  C   UNL     1     -11.879  91.122 -12.902  1.00  0.00     0.161 A 
ATOM     14  C   UNL     1     -12.579  90.023 -13.433  1.00  0.00     0.157 A 
ATOM     15  C   UNL     1     -10.478  91.180 -13.045  1.00  0.00     0.062 A 
ATOM     16  C   UNL     1     -11.887  89.009 -14.100  1.00  0.00     0.051 A 
ATOM     17  C   UNL     1     -10.499  89.072 -14.238  1.00  0.00     0.016 A 
BRANCH  13  18
ATOM     18  O   UNL     1     -12.600  92.131 -12.244  1.00  0.00    -0.493 OA
ATOM     19  C   UNL     1     -13.026  93.347 -12.849  1.00  0.00     0.278 C 
ENDBRANCH  13  18
BRANCH  14  20
ATOM     20  O   UNL     1     -13.964  89.926 -13.312  1.00  0.00    -0.504 OA
ATOM     21  H   UNL     1     -14.463  90.283 -12.506  1.00  0.00     0.293 HD
ENDBRANCH  14  20
ENDBRANCH   1  12
BRANCH   2  22
ATOM     22  O   UNL     1      -7.927  88.302 -12.452  1.00  0.00    -0.502 OA
ATOM     23  H   UNL     1      -7.493  87.388 -12.403  1.00  0.00     0.293 HD
ENDBRANCH   2  22
BRANCH   6  24
ATOM     24  O   UNL     1      -3.166  89.852 -14.273  1.00  0.00    -0.507 OA
ATOM     25  H   UNL     1      -2.511  89.984 -13.517  1.00  0.00     0.293 HD
ENDBRANCH   6  24
BRANCH   8  26
ATOM     26  O   UNL     1      -4.398  93.939 -16.473  1.00  0.00    -0.508 OA
ATOM     27  H   UNL     1      -4.741  94.860 -16.224  1.00  0.00     0.293 HD
ENDBRANCH   8  26
TORSDOF 6
ENDMDL
MODEL 3
REMARK VINA RESULT:    -5.329      6.489      9.259
REMARK INTER + INTRA:          -6.908
REMARK INTER:                  -6.650
REMARK INTRA:                  -0.258
REMARK UNBOUND:                -0.334
REMARK SMILES COc1cc(-c2oc3cc(O)cc(O)c3c(=O)c2O)ccc1O
REMARK SMILES IDX 6 1 18 2 16 3 17 4 15 5 13 6 12 7 10 8 9 9 8 10 7 11 5 12
REMARK SMILES IDX 3 13 22 14 4 15 21 16 20 17 2 18 1 19 23 20 19 22 14 24
REMARK SMILES IDX 11 26
REMARK H PARENT 23 21 19 23 14 25 11 27
REMARK Flexibility Score: inf
ROOT
ATOM      1  C   UNL     1      -4.742  87.925  -8.164  1.00  0.00     0.180 A 
ATOM      2  C   UNL     1      -3.569  87.772  -7.404  1.00  0.00     0.208 A 
ATOM      3  C   UNL     1      -2.954  86.511  -7.349  1.00  0.00     0.238 A 
ATOM      4  O   UNL     1      -1.875  86.393  -6.712  1.00  0.00    -0.285 OA
ATOM      5  C   UNL     1      -3.527  85.416  -8.041  1.00  0.00     0.111 A 
ATOM      6  C   UNL     1      -3.011  84.086  -8.021  1.00  0.00     0.134 A 
ATOM      7  C   UNL     1      -3.583  83.111  -8.847  1.00  0.00     0.093 A 
ATOM      8  C   UNL     1      -4.695  83.403  -9.641  1.00  0.00     0.123 A 
ATOM      9  C   UNL     1      -5.243  84.683  -9.621  1.00  0.00     0.094 A 
ATOM     10  C   UNL     1      -4.671  85.686  -8.835  1.00  0.00     0.146 A 
ATOM     11  O   UNL     1      -5.219  86.896  -8.853  1.00  0.00    -0.452 OA
ENDROOT
BRANCH   1  12
ATOM     12  C   UNL     1      -5.461  89.217  -8.251  1.00  0.00     0.025 A 
ATOM     13  C   UNL     1      -5.547  91.524  -9.062  1.00  0.00     0.161 A 
ATOM     14  C   UNL     1      -6.825  91.668  -8.490  1.00  0.00     0.157 A 
ATOM     15  C   UNL     1      -4.875  90.290  -8.943  1.00  0.00     0.062 A 
ATOM     16  C   UNL     1      -7.416  90.594  -7.819  1.00  0.00     0.051 A 
ATOM     17  C   UNL     1      -6.745  89.375  -7.705  1.00  0.00     0.016 A 
BRANCH  13  18
ATOM     18  O   UNL     1      -4.979  92.616  -9.737  1.00  0.00    -0.493 OA
ATOM     19  C   UNL     1      -4.111  93.573  -9.140  1.00  0.00     0.278 C 
ENDBRANCH  13  18
BRANCH  14  20
ATOM     20  O   UNL     1      -7.523  92.871  -8.583  1.00  0.00    -0.504 OA
ATOM     21  H   UNL     1      -7.804  93.397  -7.765  1.00  0.00     0.293 HD
ENDBRANCH  14  20
ENDBRANCH   1  12
BRANCH   2  22
ATOM     22  O   UNL     1      -3.009  88.871  -6.747  1.00  0.00    -0.502 OA
ATOM     23  H   UNL     1      -2.011  89.046  -6.734  1.00  0.00     0.293 HD
ENDBRANCH   2  22
BRANCH   6  24
ATOM     24  O   UNL     1      -1.962  83.668  -7.196  1.00  0.00    -0.507 OA
ATOM     25  H   UNL     1      -1.685  84.128  -6.342  1.00  0.00     0.293 HD
ENDBRANCH   6  24
BRANCH   8  26
ATOM     26  O   UNL     1      -5.269  82.422 -10.447  1.00  0.00    -0.508 OA
ATOM     27  H   UNL     1      -5.616  82.635 -11.375  1.00  0.00     0.293 HD
ENDBRANCH   8  26
TORSDOF 6
ENDMDL
MODEL 4
REMARK VINA RESULT:    -5.312      1.562      7.103
REMARK INTER + INTRA:          -6.888
REMARK INTER:                  -6.501
REMARK INTRA:                  -0.388
REMARK UNBOUND:                -0.334
REMARK SMILES COc1cc(-c2oc3cc(O)cc(O)c3c(=O)c2O)ccc1O
REMARK SMILES IDX 6 1 18 2 16 3 17 4 15 5 13 6 12 7 10 8 9 9 8 10 7 11 5 12
REMARK SMILES IDX 3 13 22 14 4 15 21 16 20 17 2 18 1 19 23 20 19 22 14 24
REMARK SMILES IDX 11 26
REMARK H PARENT 23 21 19 23 14 25 11 27
REMARK Flexibility Score: inf
ROOT
ATOM      1  C   UNL     1      -4.664  91.745 -14.947  1.00  0.00     0.180 A 
ATOM      2  C   UNL     1      -3.626  91.085 -15.627  1.00  0.00     0.208 A 
ATOM      3  C   UNL     1      -3.586  91.143 -17.029  1.00  0.00     0.238 A 
ATOM      4  O   UNL     1      -2.624  90.597 -17.629  1.00  0.00    -0.285 OA
ATOM      5  C   UNL     1      -4.592  91.847 -17.734  1.00  0.00     0.111 A 
ATOM      6  C   UNL     1      -4.672  91.937 -19.157  1.00  0.00     0.134 A 
ATOM      7  C   UNL     1      -5.635  92.767 -19.743  1.00  0.00     0.093 A 
ATOM      8  C   UNL     1      -6.563  93.458 -18.960  1.00  0.00     0.123 A 
ATOM      9  C   UNL     1      -6.530  93.330 -17.574  1.00  0.00     0.094 A 
ATOM     10  C   UNL     1      -5.559  92.537 -16.958  1.00  0.00     0.146 A 
ATOM     11  O   UNL     1      -5.556  92.450 -15.633  1.00  0.00    -0.452 OA
ENDROOT
BRANCH   1  12
ATOM     12  C   UNL     1      -4.788  91.710 -13.471  1.00  0.00     0.025 A 
ATOM     13  C   UNL     1      -4.456  92.803 -11.308  1.00  0.00     0.161 A 
ATOM     14  C   UNL     1      -5.062  91.705 -10.670  1.00  0.00     0.157 A 
ATOM     15  C   UNL     1      -4.330  92.799 -12.712  1.00  0.00     0.062 A 
ATOM     16  C   UNL     1      -5.536  90.630 -11.428  1.00  0.00     0.051 A 
ATOM     17  C   UNL     1      -5.408  90.633 -12.818  1.00  0.00     0.016 A 
BRANCH  13  18
ATOM     18  O   UNL     1      -3.995  93.872 -10.524  1.00  0.00    -0.493 OA
ATOM     19  C   UNL     1      -3.185  94.939 -11.007  1.00  0.00     0.278 C 
ENDBRANCH  13  18
BRANCH  14  20
ATOM     20  O   UNL     1      -5.205  91.667  -9.284  1.00  0.00    -0.504 OA
ATOM     21  H   UNL     1      -5.041  90.824  -8.746  1.00  0.00     0.293 HD
ENDBRANCH  14  20
ENDBRANCH   1  12
BRANCH   2  22
ATOM     22  O   UNL     1      -2.631  90.416 -14.909  1.00  0.00    -0.502 OA
ATOM     23  H   UNL     1      -1.949  89.816 -15.357  1.00  0.00     0.293 HD
ENDBRANCH   2  22
BRANCH   6  24
ATOM     24  O   UNL     1      -3.853  91.216 -20.032  1.00  0.00    -0.507 OA
ATOM     25  H   UNL     1      -3.020  91.580 -20.469  1.00  0.00     0.293 HD
ENDBRANCH   6  24
BRANCH   8  26
ATOM     26  O   UNL     1      -7.529  94.270 -19.552  1.00  0.00    -0.508 OA
ATOM     27  H   UNL     1      -7.583  95.261 -19.351  1.00  0.00     0.293 HD
ENDBRANCH   8  26
TORSDOF 6
ENDMDL
MODEL 5
REMARK VINA RESULT:    -5.248      2.839      7.060
REMARK INTER + INTRA:          -6.808
REMARK INTER:                  -7.135
REMARK INTRA:                   0.327
REMARK UNBOUND:                -0.334
REMARK SMILES COc1cc(-c2oc3cc(O)cc(O)c3c(=O)c2O)ccc1O
REMARK SMILES IDX 6 1 18 2 16 3 17 4 15 5 13 6 12 7 10 8 9 9 8 10 7 11 5 12
REMARK SMILES IDX 3 13 22 14 4 15 21 16 20 17 2 18 1 19 23 20 19 22 14 24
REMARK SMILES IDX 11 26
REMARK H PARENT 23 21 19 23 14 25 11 27
REMARK Flexibility Score: inf
ROOT
ATOM      1  C   UNL     1      -5.334  90.452 -15.300  1.00  0.00     0.180 A 
ATOM      2  C   UNL     1      -3.930  90.448 -15.244  1.00  0.00     0.208 A 
ATOM      3  C   UNL     1      -3.204  90.999 -16.313  1.00  0.00     0.238 A 
ATOM      4  O   UNL     1      -1.949  91.042 -16.232  1.00  0.00    -0.285 OA
ATOM      5  C   UNL     1      -3.892  91.530 -17.431  1.00  0.00     0.111 A 
ATOM      6  C   UNL     1      -3.257  92.076 -18.587  1.00  0.00     0.134 A 
ATOM      7  C   UNL     1      -4.035  92.693 -19.575  1.00  0.00     0.093 A 
ATOM      8  C   UNL     1      -5.428  92.724 -19.479  1.00  0.00     0.123 A 
ATOM      9  C   UNL     1      -6.060  92.141 -18.384  1.00  0.00     0.094 A 
ATOM     10  C   UNL     1      -5.309  91.550 -17.365  1.00  0.00     0.146 A 
ATOM     11  O   UNL     1      -5.950  91.015 -16.332  1.00  0.00    -0.452 OA
ENDROOT
BRANCH   1  12
ATOM     12  C   UNL     1      -6.168  89.868 -14.223  1.00  0.00     0.025 A 
ATOM     13  C   UNL     1      -8.299  88.905 -13.505  1.00  0.00     0.161 A 
ATOM     14  C   UNL     1      -7.762  88.699 -12.220  1.00  0.00     0.157 A 
ATOM     15  C   UNL     1      -7.490  89.484 -14.503  1.00  0.00     0.062 A 
ATOM     16  C   UNL     1      -6.440  89.062 -11.948  1.00  0.00     0.051 A 
ATOM     17  C   UNL     1      -5.645  89.635 -12.942  1.00  0.00     0.016 A 
BRANCH  13  18
ATOM     18  O   UNL     1      -9.627  88.525 -13.753  1.00  0.00    -0.493 OA
ATOM     19  C   UNL     1     -10.735  89.418 -13.767  1.00  0.00     0.278 C 
ENDBRANCH  13  18
BRANCH  14  20
ATOM     20  O   UNL     1      -8.527  88.131 -11.203  1.00  0.00    -0.504 OA
ATOM     21  H   UNL     1      -8.610  88.555 -10.287  1.00  0.00     0.293 HD
ENDBRANCH  14  20
ENDBRANCH   1  12
BRANCH   2  22
ATOM     22  O   UNL     1      -3.273  89.938 -14.121  1.00  0.00    -0.502 OA
ATOM     23  H   UNL     1      -2.298  89.663 -14.139  1.00  0.00     0.293 HD
ENDBRANCH   2  22
BRANCH   6  24
ATOM     24  O   UNL     1      -1.880  92.016 -18.824  1.00  0.00    -0.507 OA
ATOM     25  H   UNL     1      -1.253  92.804 -18.770  1.00  0.00     0.293 HD
ENDBRANCH   6  24
BRANCH   8  26
ATOM     26  O   UNL     1      -6.195  93.325 -20.476  1.00  0.00    -0.508 OA
ATOM     27  H   UNL     1      -7.106  93.722 -20.276  1.00  0.00     0.293 HD
ENDBRANCH   8  26
TORSDOF 6
ENDMDL
MODEL 6
REMARK VINA RESULT:    -5.187     10.688     12.362
REMARK INTER + INTRA:          -6.734
REMARK INTER:                  -6.367
REMARK INTRA:                  -0.367
REMARK UNBOUND:                -0.334
REMARK SMILES COc1cc(-c2oc3cc(O)cc(O)c3c(=O)c2O)ccc1O
REMARK SMILES IDX 6 1 18 2 16 3 17 4 15 5 13 6 12 7 10 8 9 9 8 10 7 11 5 12
REMARK SMILES IDX 3 13 22 14 4 15 21 16 20 17 2 18 1 19 23 20 19 22 14 24
REMARK SMILES IDX 11 26
REMARK H PARENT 23 21 19 23 14 25 11 27
REMARK Flexibility Score: inf
ROOT
ATOM      1  C   UNL     1      -9.562  83.413  -8.381  1.00  0.00     0.180 A 
ATOM      2  C   UNL     1     -10.379  82.284  -8.563  1.00  0.00     0.208 A 
ATOM      3  C   UNL     1     -11.693  82.463  -9.025  1.00  0.00     0.238 A 
ATOM      4  O   UNL     1     -12.403  81.446  -9.238  1.00  0.00    -0.285 OA
ATOM      5  C   UNL     1     -12.178  83.768  -9.284  1.00  0.00     0.111 A 
ATOM      6  C   UNL     1     -13.504  84.069  -9.717  1.00  0.00     0.134 A 
ATOM      7  C   UNL     1     -13.834  85.384 -10.068  1.00  0.00     0.093 A 
ATOM      8  C   UNL     1     -12.905  86.419  -9.939  1.00  0.00     0.123 A 
ATOM      9  C   UNL     1     -11.626  86.144  -9.460  1.00  0.00     0.094 A 
ATOM     10  C   UNL     1     -11.256  84.837  -9.136  1.00  0.00     0.146 A 
ATOM     11  O   UNL     1     -10.023  84.618  -8.694  1.00  0.00    -0.452 OA
ENDROOT
BRANCH   1  12
ATOM     12  C   UNL     1      -8.174  83.307  -7.874  1.00  0.00     0.025 A 
ATOM     13  C   UNL     1      -5.768  83.338  -8.315  1.00  0.00     0.161 A 
ATOM     14  C   UNL     1      -5.522  83.172  -6.939  1.00  0.00     0.157 A 
ATOM     15  C   UNL     1      -7.099  83.412  -8.772  1.00  0.00     0.062 A 
ATOM     16  C   UNL     1      -6.592  83.089  -6.043  1.00  0.00     0.051 A 
ATOM     17  C   UNL     1      -7.908  83.162  -6.503  1.00  0.00     0.016 A 
BRANCH  13  18
ATOM     18  O   UNL     1      -4.676  83.426  -9.192  1.00  0.00    -0.493 OA
ATOM     19  C   UNL     1      -4.042  82.311  -9.811  1.00  0.00     0.278 C 
ENDBRANCH  13  18
BRANCH  14  20
ATOM     20  O   UNL     1      -4.222  83.093  -6.445  1.00  0.00    -0.504 OA
ATOM     21  H   UNL     1      -4.025  82.932  -5.464  1.00  0.00     0.293 HD
ENDBRANCH  14  20
ENDBRANCH   1  12
BRANCH   2  22
ATOM     22  O   UNL     1      -9.874  81.004  -8.322  1.00  0.00    -0.502 OA
ATOM     23  H   UNL     1      -9.656  80.356  -9.070  1.00  0.00     0.293 HD
ENDBRANCH   2  22
BRANCH   6  24
ATOM     24  O   UNL     1     -14.533  83.125  -9.793  1.00  0.00    -0.507 OA
ATOM     25  H   UNL     1     -14.668  82.483 -10.560  1.00  0.00     0.293 HD
ENDBRANCH   6  24
BRANCH   8  26
ATOM     26  O   UNL     1     -13.247  87.727 -10.275  1.00  0.00    -0.508 OA
ATOM     27  H   UNL     1     -14.121  87.943 -10.740  1.00  0.00     0.293 HD
ENDBRANCH   8  26
TORSDOF 6
ENDMDL
MODEL 7
REMARK VINA RESULT:    -5.104      1.613      7.163
REMARK INTER + INTRA:          -6.631
REMARK INTER:                  -6.241
REMARK INTRA:                  -0.391
REMARK UNBOUND:                -0.334
REMARK SMILES COc1cc(-c2oc3cc(O)cc(O)c3c(=O)c2O)ccc1O
REMARK SMILES IDX 6 1 18 2 16 3 17 4 15 5 13 6 12 7 10 8 9 9 8 10 7 11 5 12
REMARK SMILES IDX 3 13 22 14 4 15 21 16 20 17 2 18 1 19 23 20 19 22 14 24
REMARK SMILES IDX 11 26
REMARK H PARENT 23 21 19 23 14 25 11 27
REMARK Flexibility Score: inf
ROOT
ATOM      1  C   UNL     1      -4.288  91.600 -15.520  1.00  0.00     0.180 A 
ATOM      2  C   UNL     1      -3.138  91.022 -16.084  1.00  0.00     0.208 A 
ATOM      3  C   UNL     1      -2.933  91.128 -17.469  1.00  0.00     0.238 A 
ATOM      4  O   UNL     1      -1.875  90.655 -17.961  1.00  0.00    -0.285 OA
ATOM      5  C   UNL     1      -3.888  91.796 -18.274  1.00  0.00     0.111 A 
ATOM      6  C   UNL     1      -3.801  91.927 -19.693  1.00  0.00     0.134 A 
ATOM      7  C   UNL     1      -4.734  92.721 -20.371  1.00  0.00     0.093 A 
ATOM      8  C   UNL     1      -5.789  93.333 -19.689  1.00  0.00     0.123 A 
ATOM      9  C   UNL     1      -5.916  93.162 -18.313  1.00  0.00     0.094 A 
ATOM     10  C   UNL     1      -4.980  92.405 -17.604  1.00  0.00     0.146 A 
ATOM     11  O   UNL     1      -5.132  92.276 -16.291  1.00  0.00    -0.452 OA
ENDROOT
BRANCH   1  12
ATOM     12  C   UNL     1      -4.586  91.510 -14.071  1.00  0.00     0.025 A 
ATOM     13  C   UNL     1      -5.586  90.284 -12.205  1.00  0.00     0.161 A 
ATOM     14  C   UNL     1      -5.119  91.272 -11.318  1.00  0.00     0.157 A 
ATOM     15  C   UNL     1      -5.308  90.408 -13.582  1.00  0.00     0.062 A 
ATOM     16  C   UNL     1      -4.383  92.356 -11.804  1.00  0.00     0.051 A 
ATOM     17  C   UNL     1      -4.111  92.473 -13.168  1.00  0.00     0.016 A 
BRANCH  13  18
ATOM     18  O   UNL     1      -6.317  89.202 -11.690  1.00  0.00    -0.493 OA
ATOM     19  C   UNL     1      -7.523  88.697 -12.255  1.00  0.00     0.278 C 
ENDBRANCH  13  18
BRANCH  14  20
ATOM     20  O   UNL     1      -5.373  91.188  -9.950  1.00  0.00    -0.504 OA
ATOM     21  H   UNL     1      -6.309  91.261  -9.568  1.00  0.00     0.293 HD
ENDBRANCH  14  20
ENDBRANCH   1  12
BRANCH   2  22
ATOM     22  O   UNL     1      -2.199  90.386 -15.268  1.00  0.00    -0.502 OA
ATOM     23  H   UNL     1      -1.214  90.626 -15.284  1.00  0.00     0.293 HD
ENDBRANCH   2  22
BRANCH   6  24
ATOM     24  O   UNL     1      -2.841  91.283 -20.479  1.00  0.00    -0.507 OA
ATOM     25  H   UNL     1      -1.846  91.441 -20.416  1.00  0.00     0.293 HD
ENDBRANCH   6  24
BRANCH   8  26
ATOM     26  O   UNL     1      -6.723  94.108 -20.374  1.00  0.00    -0.508 OA
ATOM     27  H   UNL     1      -7.023  95.009 -20.023  1.00  0.00     0.293 HD
ENDBRANCH   8  26
TORSDOF 6
ENDMDL
MODEL 8
REMARK VINA RESULT:    -5.050      2.012      3.685
REMARK INTER + INTRA:          -6.565
REMARK INTER:                  -6.168
REMARK INTRA:                  -0.397
REMARK UNBOUND:                -0.334
REMARK SMILES COc1cc(-c2oc3cc(O)cc(O)c3c(=O)c2O)ccc1O
REMARK SMILES IDX 6 1 18 2 16 3 17 4 15 5 13 6 12 7 10 8 9 9 8 10 7 11 5 12
REMARK SMILES IDX 3 13 22 14 4 15 21 16 20 17 2 18 1 19 23 20 19 22 14 24
REMARK SMILES IDX 11 26
REMARK H PARENT 23 21 19 23 14 25 11 27
REMARK Flexibility Score: inf
ROOT
ATOM      1  C   UNL     1      -5.720  91.345 -14.593  1.00  0.00     0.180 A 
ATOM      2  C   UNL     1      -5.008  92.167 -13.703  1.00  0.00     0.208 A 
ATOM      3  C   UNL     1      -4.988  91.836 -12.338  1.00  0.00     0.238 A 
ATOM      4  O   UNL     1      -4.305  92.544 -11.554  1.00  0.00    -0.285 OA
ATOM      5  C   UNL     1      -5.695  90.697 -11.880  1.00  0.00     0.111 A 
ATOM      6  C   UNL     1      -5.777  90.291 -10.514  1.00  0.00     0.134 A 
ATOM      7  C   UNL     1      -6.393  89.076 -10.190  1.00  0.00     0.093 A 
ATOM      8  C   UNL     1      -6.987  88.286 -11.177  1.00  0.00     0.123 A 
ATOM      9  C   UNL     1      -6.965  88.703 -12.505  1.00  0.00     0.094 A 
ATOM     10  C   UNL     1      -6.326  89.893 -12.863  1.00  0.00     0.146 A 
ATOM     11  O   UNL     1      -6.318  90.249 -14.142  1.00  0.00    -0.452 OA
ENDROOT
BRANCH   1  12
ATOM     12  C   UNL     1      -5.807  91.643 -16.042  1.00  0.00     0.025 A 
ATOM     13  C   UNL     1      -6.889  92.842 -17.879  1.00  0.00     0.161 A 
ATOM     14  C   UNL     1      -5.965  92.279 -18.779  1.00  0.00     0.157 A 
ATOM     15  C   UNL     1      -6.797  92.523 -16.509  1.00  0.00     0.062 A 
ATOM     16  C   UNL     1      -4.967  91.420 -18.310  1.00  0.00     0.051 A 
ATOM     17  C   UNL     1      -4.882  91.108 -16.953  1.00  0.00     0.016 A 
BRANCH  13  18
ATOM     18  O   UNL     1      -7.876  93.708 -18.375  1.00  0.00    -0.493 OA
ATOM     19  C   UNL     1      -7.950  95.101 -18.086  1.00  0.00     0.278 C 
ENDBRANCH  13  18
BRANCH  14  20
ATOM     20  O   UNL     1      -6.020  92.567 -20.142  1.00  0.00    -0.504 OA
ATOM     21  H   UNL     1      -5.188  92.735 -20.693  1.00  0.00     0.293 HD
ENDBRANCH  14  20
ENDBRANCH   1  12
BRANCH   2  22
ATOM     22  O   UNL     1      -4.300  93.273 -14.181  1.00  0.00    -0.502 OA
ATOM     23  H   UNL     1      -4.672  94.215 -14.143  1.00  0.00     0.293 HD
ENDBRANCH   2  22
BRANCH   6  24
ATOM     24  O   UNL     1      -5.296  91.052  -9.443  1.00  0.00    -0.507 OA
ATOM     25  H   UNL     1      -4.594  91.772  -9.520  1.00  0.00     0.293 HD
ENDBRANCH   6  24
BRANCH   8  26
ATOM     26  O   UNL     1      -7.613  87.086 -10.844  1.00  0.00    -0.508 OA
ATOM     27  H   UNL     1      -7.318  86.205 -11.248  1.00  0.00     0.293 HD
ENDBRANCH   8  26
TORSDOF 6
ENDMDL
