MODEL 1
REMARK VINA RESULT:    -5.323      0.000      0.000
REMARK INTER + INTRA:          -5.323
REMARK INTER:                  -5.323
REMARK INTRA:                   0.000
REMARK UNBOUND:                 0.000
REMARK SMILES CC1=CC[C@@H]2[C@H](C1)C2(C)C
REMARK SMILES IDX 1 1 2 2 3 3 4 4 5 5 6 6 7 7 8 8 9 9 10 10
REMARK H PARENT
REMARK Flexibility Score: inf
ROOT
ATOM      1  C   UNL     1     113.146 110.256 108.633  1.00  0.00     0.039 C 
ATOM      2  C   UNL     1     112.857 110.566 110.077  1.00  0.00    -0.077 C 
ATOM      3  C   UNL     1     113.134 111.790 110.558  1.00  0.00    -0.028 C 
ATOM      4  C   UNL     1     112.861 112.155 111.989  1.00  0.00     0.031 C 
ATOM      5  C   UNL     1     113.160 110.983 112.948  1.00  0.00     0.003 C 
ATOM      6  C   UNL     1     112.838 109.572 112.408  1.00  0.00     0.003 C 
ATOM      7  C   UNL     1     112.257 109.511 110.977  1.00  0.00     0.034 C 
ATOM      8  C   UNL     1     112.012 110.163 113.561  1.00  0.00    -0.029 C 
ATOM      9  C   UNL     1     110.547 110.585 113.332  1.00  0.00     0.012 C 
ATOM     10  C   UNL     1     112.319 109.566 114.938  1.00  0.00     0.012 C 
ENDROOT
TORSDOF 0
ENDMDL
MODEL 2
REMARK VINA RESULT:    -5.305      2.730      3.774
REMARK INTER + INTRA:          -5.305
REMARK INTER:                  -5.305
REMARK INTRA:                   0.000
REMARK UNBOUND:                 0.000
REMARK SMILES CC1=CC[C@@H]2[C@H](C1)C2(C)C
REMARK SMILES IDX 1 1 2 2 3 3 4 4 5 5 6 6 7 7 8 8 9 9 10 10
REMARK H PARENT
REMARK Flexibility Score: inf
ROOT
ATOM      1  C   UNL     1     109.230 112.124 108.574  1.00  0.00     0.039 C 
ATOM      2  C   UNL     1     109.472 111.749 110.011  1.00  0.00    -0.077 C 
ATOM      3  C   UNL     1     109.193 110.500 110.422  1.00  0.00    -0.028 C 
ATOM      4  C   UNL     1     109.421 110.070 111.843  1.00  0.00     0.031 C 
ATOM      5  C   UNL     1     109.075 111.191 112.846  1.00  0.00     0.003 C 
ATOM      6  C   UNL     1     109.398 112.630 112.385  1.00  0.00     0.003 C 
ATOM      7  C   UNL     1     110.027 112.765 110.979  1.00  0.00     0.034 C 
ATOM      8  C   UNL     1     110.191 111.992 113.537  1.00  0.00    -0.029 C 
ATOM      9  C   UNL     1     111.668 111.597 113.340  1.00  0.00     0.012 C 
ATOM     10  C   UNL     1     109.829 112.520 114.929  1.00  0.00     0.012 C 
ENDROOT
TORSDOF 0
ENDMDL
MODEL 3
REMARK VINA RESULT:    -5.241      2.952      4.863
REMARK INTER + INTRA:          -5.241
REMARK INTER:                  -5.241
REMARK INTRA:                   0.000
REMARK UNBOUND:                 0.000
REMARK SMILES CC1=CC[C@@H]2[C@H](C1)C2(C)C
REMARK SMILES IDX 1 1 2 2 3 3 4 4 5 5 6 6 7 7 8 8 9 9 10 10
REMARK H PARENT
REMARK Flexibility Score: inf
ROOT
ATOM      1  C   UNL     1     113.169 110.265 113.501  1.00  0.00     0.039 C 
ATOM      2  C   UNL     1     112.872 110.572 114.944  1.00  0.00    -0.077 C 
ATOM      3  C   UNL     1     113.173 111.787 115.435  1.00  0.00    -0.028 C 
ATOM      4  C   UNL     1     112.893 112.149 116.866  1.00  0.00     0.031 C 
ATOM      5  C   UNL     1     113.154 110.965 117.821  1.00  0.00     0.003 C 
ATOM      6  C   UNL     1     112.806 109.565 117.267  1.00  0.00     0.003 C 
ATOM      7  C   UNL     1     112.239 109.526 115.830  1.00  0.00     0.034 C 
ATOM      8  C   UNL     1     111.982 110.168 118.416  1.00  0.00    -0.029 C 
ATOM      9  C   UNL     1     110.530 110.625 118.175  1.00  0.00     0.012 C 
ATOM     10  C   UNL     1     112.260 109.555 119.792  1.00  0.00     0.012 C 
ENDROOT
TORSDOF 0
ENDMDL
MODEL 4
REMARK VINA RESULT:    -5.237      2.953      5.017
REMARK INTER + INTRA:          -5.237
REMARK INTER:                  -5.237
REMARK INTRA:                   0.000
REMARK UNBOUND:                 0.000
REMARK SMILES CC1=CC[C@@H]2[C@H](C1)C2(C)C
REMARK SMILES IDX 1 1 2 2 3 3 4 4 5 5 6 6 7 7 8 8 9 9 10 10
REMARK H PARENT
REMARK Flexibility Score: inf
ROOT
ATOM      1  C   UNL     1     112.939 109.945 103.627  1.00  0.00     0.039 C 
ATOM      2  C   UNL     1     112.712 110.372 105.052  1.00  0.00    -0.077 C 
ATOM      3  C   UNL     1     112.995 111.634 105.416  1.00  0.00    -0.028 C 
ATOM      4  C   UNL     1     112.782 112.115 106.823  1.00  0.00     0.031 C 
ATOM      5  C   UNL     1     113.141 111.030 107.861  1.00  0.00     0.003 C 
ATOM      6  C   UNL     1     112.814 109.576 107.455  1.00  0.00     0.003 C 
ATOM      7  C   UNL     1     112.169 109.389 106.063  1.00  0.00     0.034 C 
ATOM      8  C   UNL     1     112.034 110.253 108.593  1.00  0.00    -0.029 C 
ATOM      9  C   UNL     1     110.555 110.640 108.398  1.00  0.00     0.012 C 
ATOM     10  C   UNL     1     112.412 109.776 109.999  1.00  0.00     0.012 C 
ENDROOT
TORSDOF 0
ENDMDL
MODEL 5
REMARK VINA RESULT:    -5.223      4.371      6.004
REMARK INTER + INTRA:          -5.223
REMARK INTER:                  -5.223
REMARK INTRA:                   0.000
REMARK UNBOUND:                 0.000
REMARK SMILES CC1=CC[C@@H]2[C@H](C1)C2(C)C
REMARK SMILES IDX 1 1 2 2 3 3 4 4 5 5 6 6 7 7 8 8 9 9 10 10
REMARK H PARENT
REMARK Flexibility Score: inf
ROOT
ATOM      1  C   UNL     1     109.303 112.344 113.327  1.00  0.00     0.039 C 
ATOM      2  C   UNL     1     109.526 111.906 114.749  1.00  0.00    -0.077 C 
ATOM      3  C   UNL     1     109.192 110.656 115.115  1.00  0.00    -0.028 C 
ATOM      4  C   UNL     1     109.397 110.166 116.520  1.00  0.00     0.031 C 
ATOM      5  C   UNL     1     109.097 111.263 117.562  1.00  0.00     0.003 C 
ATOM      6  C   UNL     1     109.482 112.703 117.154  1.00  0.00     0.003 C 
ATOM      7  C   UNL     1     110.121 112.863 115.755  1.00  0.00     0.034 C 
ATOM      8  C   UNL     1     110.244 111.991 118.283  1.00  0.00    -0.029 C 
ATOM      9  C   UNL     1     111.703 111.540 118.073  1.00  0.00     0.012 C 
ATOM     10  C   UNL     1     109.901 112.482 119.693  1.00  0.00     0.012 C 
ENDROOT
TORSDOF 0
ENDMDL
MODEL 6
REMARK VINA RESULT:    -5.131      2.869      5.040
REMARK INTER + INTRA:          -5.131
REMARK INTER:                  -5.131
REMARK INTRA:                   0.000
REMARK UNBOUND:                 0.000
REMARK SMILES CC1=CC[C@@H]2[C@H](C1)C2(C)C
REMARK SMILES IDX 1 1 2 2 3 3 4 4 5 5 6 6 7 7 8 8 9 9 10 10
REMARK H PARENT
REMARK Flexibility Score: inf
ROOT
ATOM      1  C   UNL     1     109.502 112.501 113.831  1.00  0.00     0.039 C 
ATOM      2  C   UNL     1     109.546 111.850 112.475  1.00  0.00    -0.077 C 
ATOM      3  C   UNL     1     109.172 110.565 112.347  1.00  0.00    -0.028 C 
ATOM      4  C   UNL     1     109.191 109.869 111.017  1.00  0.00     0.031 C 
ATOM      5  C   UNL     1     110.405 110.293 110.163  1.00  0.00     0.003 C 
ATOM      6  C   UNL     1     110.839 111.769 110.298  1.00  0.00     0.003 C 
ATOM      7  C   UNL     1     110.005 112.635 111.269  1.00  0.00     0.034 C 
ATOM      8  C   UNL     1     110.228 111.262 108.982  1.00  0.00    -0.029 C 
ATOM      9  C   UNL     1     108.818 111.716 108.554  1.00  0.00     0.012 C 
ATOM     10  C   UNL     1     111.234 111.070 107.843  1.00  0.00     0.012 C 
ENDROOT
TORSDOF 0
ENDMDL
MODEL 7
REMARK VINA RESULT:    -5.131      1.345      4.312
REMARK INTER + INTRA:          -5.131
REMARK INTER:                  -5.131
REMARK INTRA:                   0.000
REMARK UNBOUND:                 0.000
REMARK SMILES CC1=CC[C@@H]2[C@H](C1)C2(C)C
REMARK SMILES IDX 1 1 2 2 3 3 4 4 5 5 6 6 7 7 8 8 9 9 10 10
REMARK H PARENT
REMARK Flexibility Score: inf
ROOT
ATOM      1  C   UNL     1     113.182 110.982 113.784  1.00  0.00     0.039 C 
ATOM      2  C   UNL     1     112.803 110.861 112.333  1.00  0.00    -0.077 C 
ATOM      3  C   UNL     1     112.543 109.646 111.818  1.00  0.00    -0.028 C 
ATOM      4  C   UNL     1     112.154 109.469 110.378  1.00  0.00     0.031 C 
ATOM      5  C   UNL     1     112.929 110.429 109.450  1.00  0.00     0.003 C 
ATOM      6  C   UNL     1     113.228 111.830 110.031  1.00  0.00     0.003 C 
ATOM      7  C   UNL     1     112.713 112.093 111.464  1.00  0.00     0.034 C 
ATOM      8  C   UNL     1     112.240 111.673 108.863  1.00  0.00    -0.029 C 
ATOM      9  C   UNL     1     110.732 111.902 109.084  1.00  0.00     0.012 C 
ATOM     10  C   UNL     1     112.784 112.120 107.503  1.00  0.00     0.012 C 
ENDROOT
TORSDOF 0
ENDMDL
MODEL 8
REMARK VINA RESULT:    -5.076      2.075      5.177
REMARK INTER + INTRA:          -5.076
REMARK INTER:                  -5.076
REMARK INTRA:                   0.000
REMARK UNBOUND:                 0.000
REMARK SMILES CC1=CC[C@@H]2[C@H](C1)C2(C)C
REMARK SMILES IDX 1 1 2 2 3 3 4 4 5 5 6 6 7 7 8 8 9 9 10 10
REMARK H PARENT
REMARK Flexibility Score: inf
ROOT
ATOM      1  C   UNL     1     113.192 111.064 118.467  1.00  0.00     0.039 C 
ATOM      2  C   UNL     1     112.813 110.926 117.017  1.00  0.00    -0.077 C 
ATOM      3  C   UNL     1     112.540 109.707 116.520  1.00  0.00    -0.028 C 
ATOM      4  C   UNL     1     112.151 109.513 115.082  1.00  0.00     0.031 C 
ATOM      5  C   UNL     1     112.937 110.452 114.142  1.00  0.00     0.003 C 
ATOM      6  C   UNL     1     113.250 111.857 114.702  1.00  0.00     0.003 C 
ATOM      7  C   UNL     1     112.737 112.147 116.131  1.00  0.00     0.034 C 
ATOM      8  C   UNL     1     112.262 111.694 113.536  1.00  0.00    -0.029 C 
ATOM      9  C   UNL     1     110.756 111.943 113.752  1.00  0.00     0.012 C 
ATOM     10  C   UNL     1     112.811 112.116 112.170  1.00  0.00     0.012 C 
ENDROOT
TORSDOF 0
ENDMDL
MODEL 9
REMARK VINA RESULT:    -5.074      2.716      4.195
REMARK INTER + INTRA:          -5.074
REMARK INTER:                  -5.074
REMARK INTRA:                   0.000
REMARK UNBOUND:                 0.000
REMARK SMILES CC1=CC[C@@H]2[C@H](C1)C2(C)C
REMARK SMILES IDX 1 1 2 2 3 3 4 4 5 5 6 6 7 7 8 8 9 9 10 10
REMARK H PARENT
REMARK Flexibility Score: inf
ROOT
ATOM      1  C   UNL     1     108.786 111.746 113.447  1.00  0.00     0.039 C 
ATOM      2  C   UNL     1     110.085 111.347 114.093  1.00  0.00    -0.077 C 
ATOM      3  C   UNL     1     111.143 111.048 113.319  1.00  0.00    -0.028 C 
ATOM      4  C   UNL     1     112.464 110.651 113.912  1.00  0.00     0.031 C 
ATOM      5  C   UNL     1     112.290 109.767 115.165  1.00  0.00     0.003 C 
ATOM      6  C   UNL     1     111.080 110.106 116.065  1.00  0.00     0.003 C 
ATOM      7  C   UNL     1     110.199 111.286 115.598  1.00  0.00     0.034 C 
ATOM      8  C   UNL     1     112.511 110.352 116.570  1.00  0.00    -0.029 C 
ATOM      9  C   UNL     1     113.040 111.789 116.739  1.00  0.00     0.012 C 
ATOM     10  C   UNL     1     113.002 109.341 117.612  1.00  0.00     0.012 C 
ENDROOT
TORSDOF 0
ENDMDL
