MODEL 1
REMARK VINA RESULT:    -2.531      0.000      0.000
REMARK INTER + INTRA:          -2.091
REMARK INTER:                  -4.085
REMARK INTRA:                   1.994
REMARK UNBOUND:                 1.994
REMARK SMILES C=C(CC[C@@H](C(=O)[O-])[C@@H]1[C@@H](O)C[C@]2(C)C3=CC[C@H](C(=C)C)[C@](C)(CCC(=O)[O-])C3=CC[C@@]12C)C(C)C
REMARK SMILES IDX 5 1 9 2 22 3 29 4 18 5 23 6 15 7 30 8 17 9 13 10 16 11 31 12
REMARK SMILES IDX 32 13 12 14 14 15 33 16 10 17 24 18 25 19 26 20 27 21 28 22
REMARK SMILES IDX 19 23 20 24 21 25 11 26 6 28 7 29 8 30 4 31 3 32 2 33 1 34
REMARK SMILES IDX 34 35 35 36 36 37
REMARK H PARENT 11 27
REMARK Flexibility Score: inf
ROOT
ATOM      1  C   UNL     1       7.172 -52.789 578.006  1.00  0.00     0.042 C 
ENDROOT
BRANCH   1   2
ATOM      2  C   UNL     1       6.998 -54.045 577.084  1.00  0.00     0.034 C 
ATOM      3  C   UNL     1       7.738 -54.746 571.255  1.00  0.00    -0.000 C 
ATOM      4  C   UNL     1       7.491 -54.531 572.764  1.00  0.00    -0.042 C 
ATOM      5  C   UNL     1       8.155 -56.249 570.978  1.00  0.00     0.028 C 
ATOM      6  C   UNL     1       6.398 -54.518 570.500  1.00  0.00     0.017 C 
ATOM      7  C   UNL     1       7.875 -55.593 573.762  1.00  0.00    -0.042 C 
ATOM      8  C   UNL     1       6.954 -53.358 573.211  1.00  0.00    -0.022 C 
ATOM      9  C   UNL     1       9.124 -56.835 572.019  1.00  0.00     0.036 C 
ATOM     10  C   UNL     1       7.292 -55.455 575.155  1.00  0.00     0.001 C 
ATOM     11  C   UNL     1       8.576 -56.678 573.400  1.00  0.00    -0.022 C 
ATOM     12  C   UNL     1       6.623 -53.071 574.669  1.00  0.00     0.035 C 
ATOM     13  C   UNL     1       7.458 -53.969 575.604  1.00  0.00    -0.014 C 
ATOM     14  C   UNL     1       7.949 -56.213 576.327  1.00  0.00     0.044 C 
ATOM     15  C   UNL     1       5.816 -55.966 575.035  1.00  0.00     0.017 C 
ATOM     16  C   UNL     1       8.955 -53.495 575.518  1.00  0.00     0.013 C 
ATOM     17  C   UNL     1       7.606 -55.382 577.592  1.00  0.00     0.119 C 
BRANCH   3  18
ATOM     18  C   UNL     1       8.766 -53.686 570.713  1.00  0.00     0.018 C 
BRANCH  18  19
ATOM     19  C   UNL     1       8.952 -52.418 571.581  1.00  0.00     0.053 C 
BRANCH  19  20
ATOM     20  C   UNL     1       8.505 -51.174 570.870  1.00  0.00     0.041 C 
ATOM     21  O   UNL     1       7.898 -51.245 569.765  1.00  0.00    -0.550 OA
ATOM     22  O   UNL     1       8.732 -49.929 571.446  1.00  0.00    -0.550 OA
ENDBRANCH  19  20
ENDBRANCH  18  19
ENDBRANCH   3  18
BRANCH   5  23
ATOM     23  C   UNL     1       8.611 -56.556 569.549  1.00  0.00    -0.076 C 
ATOM     24  C   UNL     1       8.951 -55.583 568.685  1.00  0.00     0.008 C 
ATOM     25  C   UNL     1       8.782 -57.985 569.105  1.00  0.00     0.039 C 
ENDBRANCH   5  23
BRANCH  17  26
ATOM     26  O   UNL     1       6.680 -56.062 578.400  1.00  0.00    -0.393 OA
ATOM     27  H   UNL     1       5.794 -55.657 578.215  1.00  0.00     0.210 HD
ENDBRANCH  17  26
ENDBRANCH   1   2
BRANCH   1  28
ATOM     28  C   UNL     1       5.891 -52.151 578.495  1.00  0.00     0.045 C 
ATOM     29  O   UNL     1       4.891 -52.876 578.757  1.00  0.00    -0.550 OA
ATOM     30  O   UNL     1       5.822 -50.788 578.759  1.00  0.00    -0.550 OA
ENDBRANCH   1  28
BRANCH   1  31
ATOM     31  C   UNL     1       8.051 -51.720 577.314  1.00  0.00     0.014 C 
BRANCH  31  32
ATOM     32  C   UNL     1       9.001 -51.013 578.296  1.00  0.00     0.031 C 
BRANCH  32  33
ATOM     33  C   UNL     1       8.993 -49.515 578.070  1.00  0.00    -0.075 C 
ATOM     34  C   UNL     1       8.860 -48.690 579.124  1.00  0.00     0.008 C 
BRANCH  33  35
ATOM     35  C   UNL     1       9.125 -48.969 576.655  1.00  0.00     0.008 C 
ATOM     36  C   UNL     1       8.041 -47.923 576.357  1.00  0.00     0.012 C 
ATOM     37  C   UNL     1       9.108 -50.096 575.618  1.00  0.00     0.012 C 
ENDBRANCH  33  35
ENDBRANCH  32  33
ENDBRANCH  31  32
ENDBRANCH   1  31
TORSDOF 11
ENDMDL
MODEL 2
REMARK VINA RESULT:     0.340      2.291      9.421
REMARK INTER + INTRA:           2.543
REMARK INTER:                   0.964
REMARK INTRA:                   1.579
REMARK UNBOUND:                 1.994
REMARK SMILES C=C(CC[C@@H](C(=O)[O-])[C@@H]1[C@@H](O)C[C@]2(C)C3=CC[C@H](C(=C)C)[C@](C)(CCC(=O)[O-])C3=CC[C@@]12C)C(C)C
REMARK SMILES IDX 5 1 9 2 22 3 29 4 18 5 23 6 15 7 30 8 17 9 13 10 16 11 31 12
REMARK SMILES IDX 32 13 12 14 14 15 33 16 10 17 24 18 25 19 26 20 27 21 28 22
REMARK SMILES IDX 19 23 20 24 21 25 11 26 6 28 7 29 8 30 4 31 3 32 2 33 1 34
REMARK SMILES IDX 34 35 35 36 36 37
REMARK H PARENT 11 27
REMARK Flexibility Score: inf
ROOT
ATOM      1  C   UNL     1       8.209 -54.999 568.064  1.00  0.00     0.042 C 
ENDROOT
BRANCH   1   2
ATOM      2  C   UNL     1       8.022 -53.831 569.094  1.00  0.00     0.034 C 
ATOM      3  C   UNL     1       6.825 -53.886 574.889  1.00  0.00    -0.000 C 
ATOM      4  C   UNL     1       7.076 -53.889 573.365  1.00  0.00    -0.042 C 
ATOM      5  C   UNL     1       7.456 -52.590 575.544  1.00  0.00     0.028 C 
ATOM      6  C   UNL     1       5.292 -53.798 575.133  1.00  0.00     0.017 C 
ATOM      7  C   UNL     1       8.020 -52.891 572.743  1.00  0.00    -0.042 C 
ATOM      8  C   UNL     1       6.472 -54.821 572.571  1.00  0.00    -0.022 C 
ATOM      9  C   UNL     1       8.835 -52.207 574.980  1.00  0.00     0.036 C 
ATOM     10  C   UNL     1       7.944 -52.736 571.236  1.00  0.00     0.001 C 
ATOM     11  C   UNL     1       8.783 -52.082 573.492  1.00  0.00    -0.022 C 
ATOM     12  C   UNL     1       6.613 -54.873 571.056  1.00  0.00     0.035 C 
ATOM     13  C   UNL     1       7.905 -54.164 570.604  1.00  0.00    -0.014 C 
ATOM     14  C   UNL     1       9.125 -52.090 570.483  1.00  0.00     0.044 C 
ATOM     15  C   UNL     1       6.680 -51.847 570.978  1.00  0.00     0.017 C 
ATOM     16  C   UNL     1       9.125 -55.042 571.068  1.00  0.00     0.013 C 
ATOM     17  C   UNL     1       9.061 -52.677 569.047  1.00  0.00     0.119 C 
BRANCH   3  18
ATOM     18  C   UNL     1       7.323 -55.235 575.526  1.00  0.00     0.018 C 
BRANCH  18  19
ATOM     19  C   UNL     1       6.307 -55.975 576.428  1.00  0.00     0.053 C 
BRANCH  19  20
ATOM     20  C   UNL     1       6.503 -55.657 577.882  1.00  0.00     0.041 C 
ATOM     21  O   UNL     1       5.732 -54.852 578.476  1.00  0.00    -0.550 OA
ATOM     22  O   UNL     1       7.523 -56.277 578.593  1.00  0.00    -0.550 OA
ENDBRANCH  19  20
ENDBRANCH  18  19
ENDBRANCH   3  18
BRANCH   5  23
ATOM     23  C   UNL     1       7.444 -52.551 577.075  1.00  0.00    -0.076 C 
ATOM     24  C   UNL     1       8.540 -52.823 577.804  1.00  0.00     0.008 C 
ATOM     25  C   UNL     1       6.203 -52.106 577.805  1.00  0.00     0.039 C 
ENDBRANCH   5  23
BRANCH  17  26
ATOM     26  O   UNL     1       8.660 -51.697 568.125  1.00  0.00    -0.393 OA
ATOM     27  H   UNL     1       9.432 -51.087 568.007  1.00  0.00     0.210 HD
ENDBRANCH  17  26
ENDBRANCH   1   2
BRANCH   1  28
ATOM     28  C   UNL     1       8.696 -54.591 566.691  1.00  0.00     0.045 C 
ATOM     29  O   UNL     1       9.121 -55.470 565.891  1.00  0.00    -0.550 OA
ATOM     30  O   UNL     1       8.591 -53.276 566.253  1.00  0.00    -0.550 OA
ENDBRANCH   1  28
BRANCH   1  31
ATOM     31  C   UNL     1       6.905 -55.821 567.926  1.00  0.00     0.014 C 
BRANCH  31  32
ATOM     32  C   UNL     1       6.822 -56.575 566.588  1.00  0.00     0.031 C 
BRANCH  32  33
ATOM     33  C   UNL     1       7.612 -57.865 566.646  1.00  0.00    -0.075 C 
ATOM     34  C   UNL     1       8.269 -58.186 567.775  1.00  0.00     0.008 C 
BRANCH  33  35
ATOM     35  C   UNL     1       7.657 -58.773 565.424  1.00  0.00     0.008 C 
ATOM     36  C   UNL     1       8.905 -58.500 564.572  1.00  0.00     0.012 C 
ATOM     37  C   UNL     1       6.379 -58.650 564.590  1.00  0.00     0.012 C 
ENDBRANCH  33  35
ENDBRANCH  32  33
ENDBRANCH  31  32
ENDBRANCH   1  31
TORSDOF 11
ENDMDL
