MODEL 1
REMARK VINA RESULT:    -4.333      0.000      0.000
REMARK INTER + INTRA:          -8.223
REMARK INTER:                  -6.740
REMARK INTRA:                  -1.484
REMARK UNBOUND:                -1.484
REMARK SMILES COc1cc(CNC(=O)CCCCC=CC(C)C)ccc1O
REMARK SMILES IDX 11 1 12 2 13 3 14 4 15 5 16 6 17 7 18 8 10 9 8 10 9 11 7 12
REMARK SMILES IDX 6 14 5 15 4 16 19 17 3 18 20 19 21 20 2 21 1 22 22 23
REMARK H PARENT 7 13 22 24
REMARK Flexibility Score: inf
ROOT
ATOM      1  C   UNL     1     145.161 144.435 131.049  1.00  0.00     0.010 C 
ENDROOT
BRANCH   1   2
ATOM      2  C   UNL     1     145.953 145.750 131.020  1.00  0.00     0.005 C 
BRANCH   2   3
ATOM      3  C   UNL     1     145.965 146.375 129.618  1.00  0.00     0.027 C 
BRANCH   3   4
ATOM      4  C   UNL     1     146.529 145.437 128.582  1.00  0.00    -0.031 C 
ATOM      5  C   UNL     1     146.410 145.585 127.251  1.00  0.00    -0.028 C 
BRANCH   5   6
ATOM      6  C   UNL     1     145.734 146.749 126.555  1.00  0.00     0.005 C 
ATOM      7  C   UNL     1     144.297 146.366 126.185  1.00  0.00     0.012 C 
ATOM      8  C   UNL     1     146.530 147.125 125.299  1.00  0.00     0.012 C 
ENDBRANCH   5   6
ENDBRANCH   3   4
ENDBRANCH   2   3
ENDBRANCH   1   2
BRANCH   1   9
ATOM      9  C   UNL     1     143.686 144.652 131.422  1.00  0.00     0.100 C 
BRANCH   9  10
ATOM     10  C   UNL     1     142.740 144.292 130.310  1.00  0.00     0.220 C 
ATOM     11  O   UNL     1     141.500 144.236 130.530  1.00  0.00    -0.275 OA
ATOM     12  N   UNL     1     143.243 144.092 128.983  1.00  0.00    -0.352 N 
ATOM     13  H   UNL     1     144.268 144.163 128.815  1.00  0.00     0.163 HD
BRANCH  12  14
ATOM     14  C   UNL     1     142.377 143.754 127.856  1.00  0.00     0.151 C 
BRANCH  14  15
ATOM     15  C   UNL     1     142.967 142.615 127.071  1.00  0.00    -0.025 A 
ATOM     16  C   UNL     1     142.143 141.569 126.629  1.00  0.00     0.056 A 
ATOM     17  C   UNL     1     144.333 142.593 126.763  1.00  0.00     0.009 A 
ATOM     18  C   UNL     1     142.681 140.495 125.894  1.00  0.00     0.160 A 
ATOM     19  C   UNL     1     144.872 141.530 126.036  1.00  0.00     0.050 A 
ATOM     20  C   UNL     1     144.057 140.483 125.601  1.00  0.00     0.157 A 
BRANCH  18  21
ATOM     21  O   UNL     1     141.883 139.432 125.446  1.00  0.00    -0.493 OA
ATOM     22  C   UNL     1     140.644 139.587 124.761  1.00  0.00     0.278 C 
ENDBRANCH  18  21
BRANCH  20  23
ATOM     23  O   UNL     1     144.631 139.436 124.881  1.00  0.00    -0.504 OA
ATOM     24  H   UNL     1     144.077 138.795 124.329  1.00  0.00     0.293 HD
ENDBRANCH  20  23
ENDBRANCH  14  15
ENDBRANCH  12  14
ENDBRANCH   9  10
ENDBRANCH   1   9
TORSDOF 10
ENDMDL
MODEL 2
REMARK VINA RESULT:    -4.078      2.081      3.696
REMARK INTER + INTRA:          -7.826
REMARK INTER:                  -6.476
REMARK INTRA:                  -1.350
REMARK UNBOUND:                -1.484
REMARK SMILES COc1cc(CNC(=O)CCCCC=CC(C)C)ccc1O
REMARK SMILES IDX 11 1 12 2 13 3 14 4 15 5 16 6 17 7 18 8 10 9 8 10 9 11 7 12
REMARK SMILES IDX 6 14 5 15 4 16 19 17 3 18 20 19 21 20 2 21 1 22 22 23
REMARK H PARENT 7 13 22 24
REMARK Flexibility Score: inf
ROOT
ATOM      1  C   UNL     1     146.021 145.453 128.075  1.00  0.00     0.010 C 
ENDROOT
BRANCH   1   2
ATOM      2  C   UNL     1     146.844 146.055 129.223  1.00  0.00     0.005 C 
BRANCH   2   3
ATOM      3  C   UNL     1     145.993 146.267 130.483  1.00  0.00     0.027 C 
BRANCH   3   4
ATOM      4  C   UNL     1     145.629 144.965 131.149  1.00  0.00    -0.031 C 
ATOM      5  C   UNL     1     144.380 144.488 131.292  1.00  0.00    -0.028 C 
BRANCH   5   6
ATOM      6  C   UNL     1     143.122 145.148 130.765  1.00  0.00     0.005 C 
ATOM      7  C   UNL     1     142.306 145.711 131.932  1.00  0.00     0.012 C 
ATOM      8  C   UNL     1     142.298 144.120 129.979  1.00  0.00     0.012 C 
ENDBRANCH   5   6
ENDBRANCH   3   4
ENDBRANCH   2   3
ENDBRANCH   1   2
BRANCH   1   9
ATOM      9  C   UNL     1     144.882 146.381 127.626  1.00  0.00     0.100 C 
BRANCH   9  10
ATOM     10  C   UNL     1     144.153 145.873 126.413  1.00  0.00     0.220 C 
ATOM     11  O   UNL     1     144.710 145.903 125.282  1.00  0.00    -0.275 OA
ATOM     12  N   UNL     1     142.855 145.282 126.558  1.00  0.00    -0.352 N 
ATOM     13  H   UNL     1     142.419 145.245 127.503  1.00  0.00     0.163 HD
BRANCH  12  14
ATOM     14  C   UNL     1     142.099 144.756 125.424  1.00  0.00     0.151 C 
BRANCH  14  15
ATOM     15  C   UNL     1     141.985 143.259 125.525  1.00  0.00    -0.025 A 
ATOM     16  C   UNL     1     141.398 142.531 124.481  1.00  0.00     0.056 A 
ATOM     17  C   UNL     1     142.472 142.581 126.650  1.00  0.00     0.009 A 
ATOM     18  C   UNL     1     141.282 141.130 124.560  1.00  0.00     0.160 A 
ATOM     19  C   UNL     1     142.358 141.192 126.735  1.00  0.00     0.050 A 
ATOM     20  C   UNL     1     141.768 140.464 125.701  1.00  0.00     0.157 A 
BRANCH  18  21
ATOM     21  O   UNL     1     140.693 140.376 123.535  1.00  0.00    -0.493 OA
ATOM     22  C   UNL     1     139.329 139.968 123.515  1.00  0.00     0.278 C 
ENDBRANCH  18  21
BRANCH  20  23
ATOM     23  O   UNL     1     141.669 139.078 125.824  1.00  0.00    -0.504 OA
ATOM     24  H   UNL     1     142.485 138.487 125.913  1.00  0.00     0.293 HD
ENDBRANCH  20  23
ENDBRANCH  14  15
ENDBRANCH  12  14
ENDBRANCH   9  10
ENDBRANCH   1   9
TORSDOF 10
ENDMDL
MODEL 3
REMARK VINA RESULT:    -3.967      2.591      6.854
REMARK INTER + INTRA:          -7.654
REMARK INTER:                  -6.378
REMARK INTRA:                  -1.276
REMARK UNBOUND:                -1.484
REMARK SMILES COc1cc(CNC(=O)CCCCC=CC(C)C)ccc1O
REMARK SMILES IDX 11 1 12 2 13 3 14 4 15 5 16 6 17 7 18 8 10 9 8 10 9 11 7 12
REMARK SMILES IDX 6 14 5 15 4 16 19 17 3 18 20 19 21 20 2 21 1 22 22 23
REMARK H PARENT 7 13 22 24
REMARK Flexibility Score: inf
ROOT
ATOM      1  C   UNL     1     142.488 143.519 125.754  1.00  0.00     0.010 C 
ENDROOT
BRANCH   1   2
ATOM      2  C   UNL     1     142.267 142.415 126.798  1.00  0.00     0.005 C 
BRANCH   2   3
ATOM      3  C   UNL     1     142.885 141.082 126.355  1.00  0.00     0.027 C 
BRANCH   3   4
ATOM      4  C   UNL     1     141.853 139.990 126.236  1.00  0.00    -0.031 C 
ATOM      5  C   UNL     1     141.065 139.779 125.167  1.00  0.00    -0.028 C 
BRANCH   5   6
ATOM      6  C   UNL     1     141.110 140.567 123.874  1.00  0.00     0.005 C 
ATOM      7  C   UNL     1     139.926 141.537 123.818  1.00  0.00     0.012 C 
ATOM      8  C   UNL     1     141.068 139.599 122.685  1.00  0.00     0.012 C 
ENDBRANCH   5   6
ENDBRANCH   3   4
ENDBRANCH   2   3
ENDBRANCH   1   2
BRANCH   1   9
ATOM      9  C   UNL     1     143.978 143.765 125.472  1.00  0.00     0.100 C 
BRANCH   9  10
ATOM     10  C   UNL     1     144.608 144.730 126.438  1.00  0.00     0.220 C 
ATOM     11  O   UNL     1     144.544 145.971 126.224  1.00  0.00    -0.275 OA
ATOM     12  N   UNL     1     145.210 144.241 127.643  1.00  0.00    -0.352 N 
ATOM     13  H   UNL     1     145.235 143.214 127.815  1.00  0.00     0.163 HD
BRANCH  12  14
ATOM     14  C   UNL     1     145.827 145.124 128.629  1.00  0.00     0.151 C 
BRANCH  14  15
ATOM     15  C   UNL     1     144.843 145.453 129.719  1.00  0.00    -0.025 A 
ATOM     16  C   UNL     1     143.919 144.486 130.141  1.00  0.00     0.056 A 
ATOM     17  C   UNL     1     144.847 146.714 130.328  1.00  0.00     0.009 A 
ATOM     18  C   UNL     1     142.990 144.777 131.158  1.00  0.00     0.160 A 
ATOM     19  C   UNL     1     143.927 147.010 131.336  1.00  0.00     0.050 A 
ATOM     20  C   UNL     1     143.001 146.052 131.754  1.00  0.00     0.157 A 
BRANCH  18  21
ATOM     21  O   UNL     1     142.050 143.833 131.596  1.00  0.00    -0.493 OA
ATOM     22  C   UNL     1     141.315 142.969 130.736  1.00  0.00     0.278 C 
ENDBRANCH  18  21
BRANCH  20  23
ATOM     23  O   UNL     1     142.096 146.385 132.761  1.00  0.00    -0.504 OA
ATOM     24  H   UNL     1     141.809 147.340 132.932  1.00  0.00     0.293 HD
ENDBRANCH  20  23
ENDBRANCH  14  15
ENDBRANCH  12  14
ENDBRANCH   9  10
ENDBRANCH   1   9
TORSDOF 10
ENDMDL
MODEL 4
REMARK VINA RESULT:    -3.962      2.635      7.095
REMARK INTER + INTRA:          -7.646
REMARK INTER:                  -6.389
REMARK INTRA:                  -1.257
REMARK UNBOUND:                -1.484
REMARK SMILES COc1cc(CNC(=O)CCCCC=CC(C)C)ccc1O
REMARK SMILES IDX 11 1 12 2 13 3 14 4 15 5 16 6 17 7 18 8 10 9 8 10 9 11 7 12
REMARK SMILES IDX 6 14 5 15 4 16 19 17 3 18 20 19 21 20 2 21 1 22 22 23
REMARK H PARENT 7 13 22 24
REMARK Flexibility Score: inf
ROOT
ATOM      1  C   UNL     1     145.336 142.587 125.450  1.00  0.00     0.010 C 
ENDROOT
BRANCH   1   2
ATOM      2  C   UNL     1     145.463 141.090 125.769  1.00  0.00     0.005 C 
BRANCH   2   3
ATOM      3  C   UNL     1     144.213 140.310 125.338  1.00  0.00     0.027 C 
BRANCH   3   4
ATOM      4  C   UNL     1     143.017 140.636 126.194  1.00  0.00    -0.031 C 
ATOM      5  C   UNL     1     141.841 141.104 125.740  1.00  0.00    -0.028 C 
BRANCH   5   6
ATOM      6  C   UNL     1     141.492 141.337 124.284  1.00  0.00     0.005 C 
ATOM      7  C   UNL     1     141.736 142.806 123.922  1.00  0.00     0.012 C 
ATOM      8  C   UNL     1     140.024 140.961 124.044  1.00  0.00     0.012 C 
ENDBRANCH   5   6
ENDBRANCH   3   4
ENDBRANCH   2   3
ENDBRANCH   1   2
BRANCH   1   9
ATOM      9  C   UNL     1     145.408 143.459 126.713  1.00  0.00     0.100 C 
BRANCH   9  10
ATOM     10  C   UNL     1     144.056 143.903 127.198  1.00  0.00     0.220 C 
ATOM     11  O   UNL     1     143.321 144.613 126.459  1.00  0.00    -0.275 OA
ATOM     12  N   UNL     1     143.572 143.453 128.470  1.00  0.00    -0.352 N 
ATOM     13  H   UNL     1     144.184 142.849 129.059  1.00  0.00     0.163 HD
BRANCH  12  14
ATOM     14  C   UNL     1     142.264 143.836 128.994  1.00  0.00     0.151 C 
BRANCH  14  15
ATOM     15  C   UNL     1     142.425 144.644 130.253  1.00  0.00    -0.025 A 
ATOM     16  C   UNL     1     143.657 145.250 130.542  1.00  0.00     0.056 A 
ATOM     17  C   UNL     1     141.352 144.811 131.137  1.00  0.00     0.009 A 
ATOM     18  C   UNL     1     143.826 146.008 131.716  1.00  0.00     0.160 A 
ATOM     19  C   UNL     1     141.513 145.560 132.303  1.00  0.00     0.050 A 
ATOM     20  C   UNL     1     142.740 146.158 132.598  1.00  0.00     0.157 A 
BRANCH  18  21
ATOM     21  O   UNL     1     145.047 146.619 132.035  1.00  0.00    -0.493 OA
ATOM     22  C   UNL     1     146.315 145.975 131.957  1.00  0.00     0.278 C 
ENDBRANCH  18  21
BRANCH  20  23
ATOM     23  O   UNL     1     142.864 146.897 133.775  1.00  0.00    -0.504 OA
ATOM     24  H   UNL     1     143.309 147.805 133.796  1.00  0.00     0.293 HD
ENDBRANCH  20  23
ENDBRANCH  14  15
ENDBRANCH  12  14
ENDBRANCH   9  10
ENDBRANCH   1   9
TORSDOF 10
ENDMDL
MODEL 5
REMARK VINA RESULT:    -3.926      2.320      4.507
REMARK INTER + INTRA:          -7.590
REMARK INTER:                  -6.560
REMARK INTRA:                  -1.031
REMARK UNBOUND:                -1.484
REMARK SMILES COc1cc(CNC(=O)CCCCC=CC(C)C)ccc1O
REMARK SMILES IDX 11 1 12 2 13 3 14 4 15 5 16 6 17 7 18 8 10 9 8 10 9 11 7 12
REMARK SMILES IDX 6 14 5 15 4 16 19 17 3 18 20 19 21 20 2 21 1 22 22 23
REMARK H PARENT 7 13 22 24
REMARK Flexibility Score: inf
ROOT
ATOM      1  C   UNL     1     144.936 144.443 128.745  1.00  0.00     0.010 C 
ENDROOT
BRANCH   1   2
ATOM      2  C   UNL     1     145.360 145.918 128.765  1.00  0.00     0.005 C 
BRANCH   2   3
ATOM      3  C   UNL     1     144.510 146.741 129.743  1.00  0.00     0.027 C 
BRANCH   3   4
ATOM      4  C   UNL     1     144.772 146.367 131.179  1.00  0.00    -0.031 C 
ATOM      5  C   UNL     1     143.846 145.929 132.049  1.00  0.00    -0.028 C 
BRANCH   5   6
ATOM      6  C   UNL     1     142.385 145.683 131.727  1.00  0.00     0.005 C 
ATOM      7  C   UNL     1     141.525 146.000 132.955  1.00  0.00     0.012 C 
ATOM      8  C   UNL     1     142.196 144.221 131.302  1.00  0.00     0.012 C 
ENDBRANCH   5   6
ENDBRANCH   3   4
ENDBRANCH   2   3
ENDBRANCH   1   2
BRANCH   1   9
ATOM      9  C   UNL     1     143.668 144.213 127.909  1.00  0.00     0.100 C 
BRANCH   9  10
ATOM     10  C   UNL     1     143.720 142.948 127.098  1.00  0.00     0.220 C 
ATOM     11  O   UNL     1     144.754 142.665 126.434  1.00  0.00    -0.275 OA
ATOM     12  N   UNL     1     142.623 142.026 127.143  1.00  0.00    -0.352 N 
ATOM     13  H   UNL     1     141.785 142.266 127.714  1.00  0.00     0.163 HD
BRANCH  12  14
ATOM     14  C   UNL     1     142.616 140.775 126.391  1.00  0.00     0.151 C 
BRANCH  14  15
ATOM     15  C   UNL     1     141.528 140.800 125.352  1.00  0.00    -0.025 A 
ATOM     16  C   UNL     1     140.744 139.658 125.132  1.00  0.00     0.056 A 
ATOM     17  C   UNL     1     141.278 141.961 124.608  1.00  0.00     0.009 A 
ATOM     18  C   UNL     1     139.723 139.665 124.162  1.00  0.00     0.160 A 
ATOM     19  C   UNL     1     140.269 141.973 123.644  1.00  0.00     0.050 A 
ATOM     20  C   UNL     1     139.492 140.835 123.417  1.00  0.00     0.157 A 
BRANCH  18  21
ATOM     21  O   UNL     1     138.929 138.536 123.915  1.00  0.00    -0.493 OA
ATOM     22  C   UNL     1     139.243 137.521 122.968  1.00  0.00     0.278 C 
ENDBRANCH  18  21
BRANCH  20  23
ATOM     23  O   UNL     1     138.495 140.885 122.443  1.00  0.00    -0.504 OA
ATOM     24  H   UNL     1     138.666 141.254 121.516  1.00  0.00     0.293 HD
ENDBRANCH  20  23
ENDBRANCH  14  15
ENDBRANCH  12  14
ENDBRANCH   9  10
ENDBRANCH   1   9
TORSDOF 10
ENDMDL
MODEL 6
REMARK VINA RESULT:    -3.912      2.281      6.420
REMARK INTER + INTRA:          -7.568
REMARK INTER:                  -6.107
REMARK INTRA:                  -1.461
REMARK UNBOUND:                -1.484
REMARK SMILES COc1cc(CNC(=O)CCCCC=CC(C)C)ccc1O
REMARK SMILES IDX 11 1 12 2 13 3 14 4 15 5 16 6 17 7 18 8 10 9 8 10 9 11 7 12
REMARK SMILES IDX 6 14 5 15 4 16 19 17 3 18 20 19 21 20 2 21 1 22 22 23
REMARK H PARENT 7 13 22 24
REMARK Flexibility Score: inf
ROOT
ATOM      1  C   UNL     1     141.077 142.493 124.156  1.00  0.00     0.010 C 
ENDROOT
BRANCH   1   2
ATOM      2  C   UNL     1     141.673 141.610 125.262  1.00  0.00     0.005 C 
BRANCH   2   3
ATOM      3  C   UNL     1     142.190 140.275 124.708  1.00  0.00     0.027 C 
BRANCH   3   4
ATOM      4  C   UNL     1     143.385 140.459 123.808  1.00  0.00    -0.031 C 
ATOM      5  C   UNL     1     144.660 140.569 124.221  1.00  0.00    -0.028 C 
BRANCH   5   6
ATOM      6  C   UNL     1     145.127 140.475 125.660  1.00  0.00     0.005 C 
ATOM      7  C   UNL     1     145.355 141.882 126.222  1.00  0.00     0.012 C 
ATOM      8  C   UNL     1     146.421 139.654 125.724  1.00  0.00     0.012 C 
ENDBRANCH   5   6
ENDBRANCH   3   4
ENDBRANCH   2   3
ENDBRANCH   1   2
BRANCH   1   9
ATOM      9  C   UNL     1     141.201 143.990 124.476  1.00  0.00     0.100 C 
BRANCH   9  10
ATOM     10  C   UNL     1     142.608 144.407 124.805  1.00  0.00     0.220 C 
ATOM     11  O   UNL     1     143.491 144.415 123.905  1.00  0.00    -0.275 OA
ATOM     12  N   UNL     1     142.924 144.872 126.124  1.00  0.00    -0.352 N 
ATOM     13  H   UNL     1     142.176 144.879 126.850  1.00  0.00     0.163 HD
BRANCH  12  14
ATOM     14  C   UNL     1     144.265 145.304 126.505  1.00  0.00     0.151 C 
BRANCH  14  15
ATOM     15  C   UNL     1     144.527 144.971 127.949  1.00  0.00    -0.025 A 
ATOM     16  C   UNL     1     143.475 144.538 128.769  1.00  0.00     0.056 A 
ATOM     17  C   UNL     1     145.818 145.076 128.483  1.00  0.00     0.009 A 
ATOM     18  C   UNL     1     143.702 144.224 130.122  1.00  0.00     0.160 A 
ATOM     19  C   UNL     1     146.050 144.768 129.824  1.00  0.00     0.050 A 
ATOM     20  C   UNL     1     145.003 144.344 130.645  1.00  0.00     0.157 A 
BRANCH  18  21
ATOM     21  O   UNL     1     142.668 143.796 130.967  1.00  0.00    -0.493 OA
ATOM     22  C   UNL     1     141.767 144.667 131.644  1.00  0.00     0.278 C 
ENDBRANCH  18  21
BRANCH  20  23
ATOM     23  O   UNL     1     145.272 144.048 131.982  1.00  0.00    -0.504 OA
ATOM     24  H   UNL     1     145.999 144.523 132.502  1.00  0.00     0.293 HD
ENDBRANCH  20  23
ENDBRANCH  14  15
ENDBRANCH  12  14
ENDBRANCH   9  10
ENDBRANCH   1   9
TORSDOF 10
ENDMDL
MODEL 7
REMARK VINA RESULT:    -3.909      1.989      3.285
REMARK INTER + INTRA:          -7.563
REMARK INTER:                  -6.619
REMARK INTRA:                  -0.944
REMARK UNBOUND:                -1.484
REMARK SMILES COc1cc(CNC(=O)CCCCC=CC(C)C)ccc1O
REMARK SMILES IDX 11 1 12 2 13 3 14 4 15 5 16 6 17 7 18 8 10 9 8 10 9 11 7 12
REMARK SMILES IDX 6 14 5 15 4 16 19 17 3 18 20 19 21 20 2 21 1 22 22 23
REMARK H PARENT 7 13 22 24
REMARK Flexibility Score: inf
ROOT
ATOM      1  C   UNL     1     141.561 143.759 130.135  1.00  0.00     0.010 C 
ENDROOT
BRANCH   1   2
ATOM      2  C   UNL     1     141.557 144.880 131.184  1.00  0.00     0.005 C 
BRANCH   2   3
ATOM      3  C   UNL     1     142.980 145.250 131.626  1.00  0.00     0.027 C 
BRANCH   3   4
ATOM      4  C   UNL     1     143.309 146.691 131.335  1.00  0.00    -0.031 C 
ATOM      5  C   UNL     1     144.360 147.118 130.612  1.00  0.00    -0.028 C 
BRANCH   5   6
ATOM      6  C   UNL     1     145.369 146.225 129.919  1.00  0.00     0.005 C 
ATOM      7  C   UNL     1     146.779 146.551 130.421  1.00  0.00     0.012 C 
ATOM      8  C   UNL     1     145.277 146.434 128.402  1.00  0.00     0.012 C 
ENDBRANCH   5   6
ENDBRANCH   3   4
ENDBRANCH   2   3
ENDBRANCH   1   2
BRANCH   1   9
ATOM      9  C   UNL     1     142.727 143.892 129.144  1.00  0.00     0.100 C 
BRANCH   9  10
ATOM     10  C   UNL     1     142.383 143.412 127.762  1.00  0.00     0.220 C 
ATOM     11  O   UNL     1     142.250 144.240 126.820  1.00  0.00    -0.275 OA
ATOM     12  N   UNL     1     142.284 142.006 127.500  1.00  0.00    -0.352 N 
ATOM     13  H   UNL     1     142.417 141.335 128.285  1.00  0.00     0.163 HD
BRANCH  12  14
ATOM     14  C   UNL     1     141.967 141.473 126.177  1.00  0.00     0.151 C 
BRANCH  14  15
ATOM     15  C   UNL     1     143.179 140.811 125.580  1.00  0.00    -0.025 A 
ATOM     16  C   UNL     1     143.027 139.883 124.539  1.00  0.00     0.056 A 
ATOM     17  C   UNL     1     144.463 141.122 126.044  1.00  0.00     0.009 A 
ATOM     18  C   UNL     1     144.151 139.253 123.971  1.00  0.00     0.160 A 
ATOM     19  C   UNL     1     145.581 140.500 125.486  1.00  0.00     0.050 A 
ATOM     20  C   UNL     1     145.434 139.570 124.455  1.00  0.00     0.157 A 
BRANCH  18  21
ATOM     21  O   UNL     1     144.030 138.316 122.935  1.00  0.00    -0.493 OA
ATOM     22  C   UNL     1     142.797 137.936 122.332  1.00  0.00     0.278 C 
ENDBRANCH  18  21
BRANCH  20  23
ATOM     23  O   UNL     1     146.574 138.966 123.924  1.00  0.00    -0.504 OA
ATOM     24  H   UNL     1     146.520 138.213 123.251  1.00  0.00     0.293 HD
ENDBRANCH  20  23
ENDBRANCH  14  15
ENDBRANCH  12  14
ENDBRANCH   9  10
ENDBRANCH   1   9
TORSDOF 10
ENDMDL
MODEL 8
REMARK VINA RESULT:    -3.881      1.659      3.606
REMARK INTER + INTRA:          -7.520
REMARK INTER:                  -6.472
REMARK INTRA:                  -1.048
REMARK UNBOUND:                -1.484
REMARK SMILES COc1cc(CNC(=O)CCCCC=CC(C)C)ccc1O
REMARK SMILES IDX 11 1 12 2 13 3 14 4 15 5 16 6 17 7 18 8 10 9 8 10 9 11 7 12
REMARK SMILES IDX 6 14 5 15 4 16 19 17 3 18 20 19 21 20 2 21 1 22 22 23
REMARK H PARENT 7 13 22 24
REMARK Flexibility Score: inf
ROOT
ATOM      1  C   UNL     1     146.465 144.743 129.323  1.00  0.00     0.010 C 
ENDROOT
BRANCH   1   2
ATOM      2  C   UNL     1     146.507 145.259 130.769  1.00  0.00     0.005 C 
BRANCH   2   3
ATOM      3  C   UNL     1     145.165 145.053 131.485  1.00  0.00     0.027 C 
BRANCH   3   4
ATOM      4  C   UNL     1     144.308 146.292 131.454  1.00  0.00    -0.031 C 
ATOM      5  C   UNL     1     142.977 146.322 131.640  1.00  0.00    -0.028 C 
BRANCH   5   6
ATOM      6  C   UNL     1     142.109 145.123 131.966  1.00  0.00     0.005 C 
ATOM      7  C   UNL     1     141.592 144.492 130.669  1.00  0.00     0.012 C 
ATOM      8  C   UNL     1     140.938 145.566 132.852  1.00  0.00     0.012 C 
ENDBRANCH   5   6
ENDBRANCH   3   4
ENDBRANCH   2   3
ENDBRANCH   1   2
BRANCH   1   9
ATOM      9  C   UNL     1     145.995 145.820 128.334  1.00  0.00     0.100 C 
BRANCH   9  10
ATOM     10  C   UNL     1     144.700 145.469 127.655  1.00  0.00     0.220 C 
ATOM     11  O   UNL     1     144.201 146.254 126.803  1.00  0.00    -0.275 OA
ATOM     12  N   UNL     1     144.076 144.206 127.918  1.00  0.00    -0.352 N 
ATOM     13  H   UNL     1     144.513 143.561 128.609  1.00  0.00     0.163 HD
BRANCH  12  14
ATOM     14  C   UNL     1     142.826 143.798 127.281  1.00  0.00     0.151 C 
BRANCH  14  15
ATOM     15  C   UNL     1     143.015 142.494 126.556  1.00  0.00    -0.025 A 
ATOM     16  C   UNL     1     141.909 141.670 126.300  1.00  0.00     0.056 A 
ATOM     17  C   UNL     1     144.285 142.096 126.120  1.00  0.00     0.009 A 
ATOM     18  C   UNL     1     142.069 140.445 125.625  1.00  0.00     0.160 A 
ATOM     19  C   UNL     1     144.450 140.882 125.452  1.00  0.00     0.050 A 
ATOM     20  C   UNL     1     143.353 140.056 125.202  1.00  0.00     0.157 A 
BRANCH  18  21
ATOM     21  O   UNL     1     140.983 139.597 125.362  1.00  0.00    -0.493 OA
ATOM     22  C   UNL     1     140.109 139.729 124.246  1.00  0.00     0.278 C 
ENDBRANCH  18  21
BRANCH  20  23
ATOM     23  O   UNL     1     143.557 138.849 124.534  1.00  0.00    -0.504 OA
ATOM     24  H   UNL     1     144.061 138.079 124.956  1.00  0.00     0.293 HD
ENDBRANCH  20  23
ENDBRANCH  14  15
ENDBRANCH  12  14
ENDBRANCH   9  10
ENDBRANCH   1   9
TORSDOF 10
ENDMDL
MODEL 9
REMARK VINA RESULT:    -3.821      2.520      6.636
REMARK INTER + INTRA:          -7.427
REMARK INTER:                  -6.153
REMARK INTRA:                  -1.274
REMARK UNBOUND:                -1.484
REMARK SMILES COc1cc(CNC(=O)CCCCC=CC(C)C)ccc1O
REMARK SMILES IDX 11 1 12 2 13 3 14 4 15 5 16 6 17 7 18 8 10 9 8 10 9 11 7 12
REMARK SMILES IDX 6 14 5 15 4 16 19 17 3 18 20 19 21 20 2 21 1 22 22 23
REMARK H PARENT 7 13 22 24
REMARK Flexibility Score: inf
ROOT
ATOM      1  C   UNL     1     141.988 139.938 124.994  1.00  0.00     0.010 C 
ENDROOT
BRANCH   1   2
ATOM      2  C   UNL     1     140.531 140.091 124.534  1.00  0.00     0.005 C 
BRANCH   2   3
ATOM      3  C   UNL     1     140.392 141.149 123.430  1.00  0.00     0.027 C 
BRANCH   3   4
ATOM      4  C   UNL     1     140.642 142.543 123.944  1.00  0.00    -0.031 C 
ATOM      5  C   UNL     1     141.660 143.338 123.571  1.00  0.00    -0.028 C 
BRANCH   5   6
ATOM      6  C   UNL     1     142.705 142.995 122.529  1.00  0.00     0.005 C 
ATOM      7  C   UNL     1     144.102 143.073 123.154  1.00  0.00     0.012 C 
ATOM      8  C   UNL     1     142.589 143.968 121.350  1.00  0.00     0.012 C 
ENDBRANCH   5   6
ENDBRANCH   3   4
ENDBRANCH   2   3
ENDBRANCH   1   2
BRANCH   1   9
ATOM      9  C   UNL     1     142.224 140.538 126.389  1.00  0.00     0.100 C 
BRANCH   9  10
ATOM     10  C   UNL     1     143.422 141.444 126.445  1.00  0.00     0.220 C 
ATOM     11  O   UNL     1     144.546 141.030 126.049  1.00  0.00    -0.275 OA
ATOM     12  N   UNL     1     143.269 142.803 126.874  1.00  0.00    -0.352 N 
ATOM     13  H   UNL     1     142.329 143.134 127.178  1.00  0.00     0.163 HD
BRANCH  12  14
ATOM     14  C   UNL     1     144.388 143.738 126.939  1.00  0.00     0.151 C 
BRANCH  14  15
ATOM     15  C   UNL     1     144.674 144.108 128.369  1.00  0.00    -0.025 A 
ATOM     16  C   UNL     1     143.623 144.186 129.294  1.00  0.00     0.056 A 
ATOM     17  C   UNL     1     145.984 144.363 128.792  1.00  0.00     0.009 A 
ATOM     18  C   UNL     1     143.872 144.533 130.636  1.00  0.00     0.160 A 
ATOM     19  C   UNL     1     146.238 144.709 130.121  1.00  0.00     0.050 A 
ATOM     20  C   UNL     1     145.193 144.795 131.043  1.00  0.00     0.157 A 
BRANCH  18  21
ATOM     21  O   UNL     1     142.840 144.626 131.581  1.00  0.00    -0.493 OA
ATOM     22  C   UNL     1     141.474 144.862 131.262  1.00  0.00     0.278 C 
ENDBRANCH  18  21
BRANCH  20  23
ATOM     23  O   UNL     1     145.485 145.147 132.360  1.00  0.00    -0.504 OA
ATOM     24  H   UNL     1     145.067 144.671 133.149  1.00  0.00     0.293 HD
ENDBRANCH  20  23
ENDBRANCH  14  15
ENDBRANCH  12  14
ENDBRANCH   9  10
ENDBRANCH   1   9
TORSDOF 10
ENDMDL
