MODEL 1
REMARK VINA RESULT:    -3.503      0.000      0.000
REMARK INTER + INTRA:          -4.229
REMARK INTER:                  -4.220
REMARK INTRA:                  -0.009
REMARK UNBOUND:                -0.009
REMARK SMILES CCCCCO
REMARK SMILES IDX 4 1 3 2 2 3 1 4 5 5 6 6
REMARK H PARENT 6 7
REMARK Flexibility Score: inf
ROOT
ATOM      1  C   UNL     1      21.201 -24.243  17.923  1.00  0.00     0.028 C 
ENDROOT
BRANCH   1   2
ATOM      2  C   UNL     1      21.697 -22.819  18.212  1.00  0.00     0.002 C 
BRANCH   2   3
ATOM      3  C   UNL     1      23.229 -22.736  18.307  1.00  0.00    -0.003 C 
ATOM      4  C   UNL     1      23.763 -21.331  18.031  1.00  0.00     0.004 C 
ENDBRANCH   2   3
ENDBRANCH   1   2
BRANCH   1   5
ATOM      5  C   UNL     1      19.783 -24.226  17.353  1.00  0.00     0.156 C 
BRANCH   5   6
ATOM      6  O   UNL     1      18.861 -24.097  18.400  1.00  0.00    -0.396 OA
ATOM      7  H   UNL     1      17.966 -24.044  17.974  1.00  0.00     0.210 HD
ENDBRANCH   5   6
ENDBRANCH   1   5
TORSDOF 4
ENDMDL
MODEL 2
REMARK VINA RESULT:    -3.467      2.237      3.091
REMARK INTER + INTRA:          -4.185
REMARK INTER:                  -4.166
REMARK INTRA:                  -0.019
REMARK UNBOUND:                -0.009
REMARK SMILES CCCCCO
REMARK SMILES IDX 4 1 3 2 2 3 1 4 5 5 6 6
REMARK H PARENT 6 7
REMARK Flexibility Score: inf
ROOT
ATOM      1  C   UNL     1      21.166 -24.445  18.218  1.00  0.00     0.028 C 
ENDROOT
BRANCH   1   2
ATOM      2  C   UNL     1      20.902 -24.904  19.659  1.00  0.00     0.002 C 
BRANCH   2   3
ATOM      3  C   UNL     1      22.191 -25.304  20.396  1.00  0.00    -0.003 C 
ATOM      4  C   UNL     1      21.924 -25.862  21.793  1.00  0.00     0.004 C 
ENDBRANCH   2   3
ENDBRANCH   1   2
BRANCH   1   5
ATOM      5  C   UNL     1      19.855 -24.179  17.478  1.00  0.00     0.156 C 
BRANCH   5   6
ATOM      6  O   UNL     1      18.804 -24.115  18.400  1.00  0.00    -0.396 OA
ATOM      7  H   UNL     1      18.169 -24.835  18.145  1.00  0.00     0.210 HD
ENDBRANCH   5   6
ENDBRANCH   1   5
TORSDOF 4
ENDMDL
MODEL 3
REMARK VINA RESULT:    -3.405      1.511      1.705
REMARK INTER + INTRA:          -4.111
REMARK INTER:                  -4.067
REMARK INTRA:                  -0.044
REMARK UNBOUND:                -0.009
REMARK SMILES CCCCCO
REMARK SMILES IDX 4 1 3 2 2 3 1 4 5 5 6 6
REMARK H PARENT 6 7
REMARK Flexibility Score: inf
ROOT
ATOM      1  C   UNL     1      21.147 -24.904  18.651  1.00  0.00     0.028 C 
ENDROOT
BRANCH   1   2
ATOM      2  C   UNL     1      21.255 -23.453  18.160  1.00  0.00     0.002 C 
BRANCH   2   3
ATOM      3  C   UNL     1      22.690 -22.909  18.241  1.00  0.00    -0.003 C 
ATOM      4  C   UNL     1      22.743 -21.382  18.255  1.00  0.00     0.004 C 
ENDBRANCH   2   3
ENDBRANCH   1   2
BRANCH   1   5
ATOM      5  C   UNL     1      20.804 -24.957  20.139  1.00  0.00     0.156 C 
BRANCH   5   6
ATOM      6  O   UNL     1      19.851 -23.974  20.433  1.00  0.00    -0.396 OA
ATOM      7  H   UNL     1      20.098 -23.607  21.321  1.00  0.00     0.210 HD
ENDBRANCH   5   6
ENDBRANCH   1   5
TORSDOF 4
ENDMDL
MODEL 4
REMARK VINA RESULT:    -3.393      2.467      4.007
REMARK INTER + INTRA:          -4.097
REMARK INTER:                  -4.087
REMARK INTRA:                  -0.010
REMARK UNBOUND:                -0.009
REMARK SMILES CCCCCO
REMARK SMILES IDX 4 1 3 2 2 3 1 4 5 5 6 6
REMARK H PARENT 6 7
REMARK Flexibility Score: inf
ROOT
ATOM      1  C   UNL     1      22.297 -22.430  18.193  1.00  0.00     0.028 C 
ENDROOT
BRANCH   1   2
ATOM      2  C   UNL     1      21.870 -23.900  18.316  1.00  0.00     0.002 C 
BRANCH   2   3
ATOM      3  C   UNL     1      20.364 -24.057  18.578  1.00  0.00    -0.003 C 
ATOM      4  C   UNL     1      19.537 -24.059  17.293  1.00  0.00     0.004 C 
ENDBRANCH   2   3
ENDBRANCH   1   2
BRANCH   1   5
ATOM      5  C   UNL     1      23.748 -22.241  18.636  1.00  0.00     0.156 C 
BRANCH   5   6
ATOM      6  O   UNL     1      23.788 -21.397  19.752  1.00  0.00    -0.396 OA
ATOM      7  H   UNL     1      24.301 -21.885  20.448  1.00  0.00     0.210 HD
ENDBRANCH   5   6
ENDBRANCH   1   5
TORSDOF 4
ENDMDL
MODEL 5
REMARK VINA RESULT:    -3.200     13.299     14.485
REMARK INTER + INTRA:          -3.864
REMARK INTER:                  -3.825
REMARK INTRA:                  -0.039
REMARK UNBOUND:                -0.009
REMARK SMILES CCCCCO
REMARK SMILES IDX 4 1 3 2 2 3 1 4 5 5 6 6
REMARK H PARENT 6 7
REMARK Flexibility Score: inf
ROOT
ATOM      1  C   UNL     1       7.563 -24.144  15.190  1.00  0.00     0.028 C 
ENDROOT
BRANCH   1   2
ATOM      2  C   UNL     1       7.024 -25.313  14.353  1.00  0.00     0.002 C 
BRANCH   2   3
ATOM      3  C   UNL     1       8.134 -26.054  13.591  1.00  0.00    -0.003 C 
ATOM      4  C   UNL     1       9.535 -25.625  14.023  1.00  0.00     0.004 C 
ENDBRANCH   2   3
ENDBRANCH   1   2
BRANCH   1   5
ATOM      5  C   UNL     1       6.940 -24.135  16.586  1.00  0.00     0.156 C 
BRANCH   5   6
ATOM      6  O   UNL     1       6.154 -22.986  16.738  1.00  0.00    -0.396 OA
ATOM      7  H   UNL     1       6.240 -22.479  15.889  1.00  0.00     0.210 HD
ENDBRANCH   5   6
ENDBRANCH   1   5
TORSDOF 4
ENDMDL
MODEL 6
REMARK VINA RESULT:    -3.022     13.806     14.354
REMARK INTER + INTRA:          -3.650
REMARK INTER:                  -3.582
REMARK INTRA:                  -0.068
REMARK UNBOUND:                -0.009
REMARK SMILES CCCCCO
REMARK SMILES IDX 4 1 3 2 2 3 1 4 5 5 6 6
REMARK H PARENT 6 7
REMARK Flexibility Score: inf
ROOT
ATOM      1  C   UNL     1       8.088 -16.899  21.699  1.00  0.00     0.028 C 
ENDROOT
BRANCH   1   2
ATOM      2  C   UNL     1       8.777 -15.580  22.076  1.00  0.00     0.002 C 
BRANCH   2   3
ATOM      3  C   UNL     1      10.303 -15.639  21.897  1.00  0.00    -0.003 C 
ATOM      4  C   UNL     1      11.058 -15.564  23.223  1.00  0.00     0.004 C 
ENDBRANCH   2   3
ENDBRANCH   1   2
BRANCH   1   5
ATOM      5  C   UNL     1       9.077 -17.871  21.055  1.00  0.00     0.156 C 
BRANCH   5   6
ATOM      6  O   UNL     1       8.624 -18.217  19.776  1.00  0.00    -0.396 OA
ATOM      7  H   UNL     1       9.193 -17.714  19.137  1.00  0.00     0.210 HD
ENDBRANCH   5   6
ENDBRANCH   1   5
TORSDOF 4
ENDMDL
MODEL 7
REMARK VINA RESULT:    -3.014      2.565      3.728
REMARK INTER + INTRA:          -3.639
REMARK INTER:                  -3.595
REMARK INTRA:                  -0.044
REMARK UNBOUND:                -0.009
REMARK SMILES CCCCCO
REMARK SMILES IDX 4 1 3 2 2 3 1 4 5 5 6 6
REMARK H PARENT 6 7
REMARK Flexibility Score: inf
ROOT
ATOM      1  C   UNL     1      21.424 -23.664  18.070  1.00  0.00     0.028 C 
ENDROOT
BRANCH   1   2
ATOM      2  C   UNL     1      21.504 -24.982  18.854  1.00  0.00     0.002 C 
BRANCH   2   3
ATOM      3  C   UNL     1      20.670 -24.951  20.144  1.00  0.00    -0.003 C 
ATOM      4  C   UNL     1      21.438 -25.475  21.357  1.00  0.00     0.004 C 
ENDBRANCH   2   3
ENDBRANCH   1   2
BRANCH   1   5
ATOM      5  C   UNL     1      22.658 -22.798  18.324  1.00  0.00     0.156 C 
BRANCH   5   6
ATOM      6  O   UNL     1      22.263 -21.578  18.886  1.00  0.00    -0.396 OA
ATOM      7  H   UNL     1      21.566 -21.209  18.282  1.00  0.00     0.210 HD
ENDBRANCH   5   6
ENDBRANCH   1   5
TORSDOF 4
ENDMDL
MODEL 8
REMARK VINA RESULT:    -2.952      7.361      9.309
REMARK INTER + INTRA:          -3.566
REMARK INTER:                  -3.457
REMARK INTRA:                  -0.108
REMARK UNBOUND:                -0.009
REMARK SMILES CCCCCO
REMARK SMILES IDX 4 1 3 2 2 3 1 4 5 5 6 6
REMARK H PARENT 6 7
REMARK Flexibility Score: inf
ROOT
ATOM      1  C   UNL     1      15.163 -24.607  12.738  1.00  0.00     0.028 C 
ENDROOT
BRANCH   1   2
ATOM      2  C   UNL     1      14.525 -23.411  12.018  1.00  0.00     0.002 C 
BRANCH   2   3
ATOM      3  C   UNL     1      14.002 -23.775  10.620  1.00  0.00    -0.003 C 
ATOM      4  C   UNL     1      15.041 -24.506   9.771  1.00  0.00     0.004 C 
ENDBRANCH   2   3
ENDBRANCH   1   2
BRANCH   1   5
ATOM      5  C   UNL     1      16.571 -24.266  13.228  1.00  0.00     0.156 C 
BRANCH   5   6
ATOM      6  O   UNL     1      17.093 -23.223  12.454  1.00  0.00    -0.396 OA
ATOM      7  H   UNL     1      17.896 -22.897  12.938  1.00  0.00     0.210 HD
ENDBRANCH   5   6
ENDBRANCH   1   5
TORSDOF 4
ENDMDL
MODEL 9
REMARK VINA RESULT:    -2.922     14.148     14.629
REMARK INTER + INTRA:          -3.530
REMARK INTER:                  -3.458
REMARK INTRA:                  -0.071
REMARK UNBOUND:                -0.009
REMARK SMILES CCCCCO
REMARK SMILES IDX 4 1 3 2 2 3 1 4 5 5 6 6
REMARK H PARENT 6 7
REMARK Flexibility Score: inf
ROOT
ATOM      1  C   UNL     1       9.912 -16.998  22.099  1.00  0.00     0.028 C 
ENDROOT
BRANCH   1   2
ATOM      2  C   UNL     1       9.140 -17.823  21.060  1.00  0.00     0.002 C 
BRANCH   2   3
ATOM      3  C   UNL     1       8.399 -19.015  21.685  1.00  0.00    -0.003 C 
ATOM      4  C   UNL     1       8.855 -19.312  23.113  1.00  0.00     0.004 C 
ENDBRANCH   2   3
ENDBRANCH   1   2
BRANCH   1   5
ATOM      5  C   UNL     1       9.564 -15.513  21.990  1.00  0.00     0.156 C 
BRANCH   5   6
ATOM      6  O   UNL     1       8.296 -15.373  21.414  1.00  0.00    -0.396 OA
ATOM      7  H   UNL     1       7.840 -16.246  21.536  1.00  0.00     0.210 HD
ENDBRANCH   5   6
ENDBRANCH   1   5
TORSDOF 4
ENDMDL
