MODEL 1
REMARK VINA RESULT:    -6.046      0.000      0.000
REMARK INTER + INTRA:          -6.491
REMARK INTER:                  -6.400
REMARK INTRA:                  -0.091
REMARK UNBOUND:                -0.091
REMARK SMILES C=C(C)[C@@H]1CC=C(C)C(=O)C1
REMARK SMILES IDX 8 1 7 2 6 3 5 4 4 5 11 6 9 7 10 8 2 9 1 10 3 11
REMARK H PARENT
REMARK Flexibility Score: inf
ROOT
ATOM      1  C   UNL     1      -8.468  28.895  22.371  1.00  0.00     0.048 C 
ATOM      2  C   UNL     1      -8.157  30.362  22.492  1.00  0.00    -0.012 C 
ATOM      3  C   UNL     1      -7.471  30.815  23.555  1.00  0.00    -0.019 C 
ATOM      4  C   UNL     1      -7.118  32.270  23.716  1.00  0.00     0.036 C 
ATOM      5  C   UNL     1      -8.201  33.176  23.100  1.00  0.00     0.025 C 
ATOM      6  C   UNL     1      -8.444  32.794  21.628  1.00  0.00     0.089 C 
ATOM      7  C   UNL     1      -8.713  31.319  21.503  1.00  0.00     0.158 C 
ATOM      8  O   UNL     1      -9.388  30.900  20.523  1.00  0.00    -0.295 OA
ENDROOT
BRANCH   5   9
ATOM      9  C   UNL     1      -7.852  34.651  23.248  1.00  0.00    -0.077 C 
ATOM     10  C   UNL     1      -7.847  35.252  24.450  1.00  0.00     0.008 C 
ATOM     11  C   UNL     1      -7.501  35.470  22.032  1.00  0.00     0.039 C 
ENDBRANCH   5   9
TORSDOF 1
ENDMDL
MODEL 2
REMARK VINA RESULT:    -6.001      1.601      2.118
REMARK INTER + INTRA:          -6.443
REMARK INTER:                  -6.346
REMARK INTRA:                  -0.097
REMARK UNBOUND:                -0.091
REMARK SMILES C=C(C)[C@@H]1CC=C(C)C(=O)C1
REMARK SMILES IDX 8 1 7 2 6 3 5 4 4 5 11 6 9 7 10 8 2 9 1 10 3 11
REMARK H PARENT
REMARK Flexibility Score: inf
ROOT
ATOM      1  C   UNL     1      -8.246  28.876  22.747  1.00  0.00     0.048 C 
ATOM      2  C   UNL     1      -8.284  30.373  22.885  1.00  0.00    -0.012 C 
ATOM      3  C   UNL     1      -8.251  31.147  21.787  1.00  0.00    -0.019 C 
ATOM      4  C   UNL     1      -8.305  32.650  21.868  1.00  0.00     0.036 C 
ATOM      5  C   UNL     1      -7.617  33.162  23.148  1.00  0.00     0.025 C 
ATOM      6  C   UNL     1      -8.231  32.488  24.390  1.00  0.00     0.089 C 
ATOM      7  C   UNL     1      -8.233  30.992  24.233  1.00  0.00     0.158 C 
ATOM      8  O   UNL     1      -8.227  30.267  25.265  1.00  0.00    -0.295 OA
ENDROOT
BRANCH   5   9
ATOM      9  C   UNL     1      -7.673  34.681  23.248  1.00  0.00    -0.077 C 
ATOM     10  C   UNL     1      -7.875  35.297  24.425  1.00  0.00     0.008 C 
ATOM     11  C   UNL     1      -7.500  35.526  22.012  1.00  0.00     0.039 C 
ENDBRANCH   5   9
TORSDOF 1
ENDMDL
MODEL 3
REMARK VINA RESULT:    -5.955      1.513      2.168
REMARK INTER + INTRA:          -6.394
REMARK INTER:                  -6.297
REMARK INTRA:                  -0.097
REMARK UNBOUND:                -0.091
REMARK SMILES C=C(C)[C@@H]1CC=C(C)C(=O)C1
REMARK SMILES IDX 8 1 7 2 6 3 5 4 4 5 11 6 9 7 10 8 2 9 1 10 3 11
REMARK H PARENT
REMARK Flexibility Score: inf
ROOT
ATOM      1  C   UNL     1      -9.058  29.901  25.060  1.00  0.00     0.048 C 
ATOM      2  C   UNL     1      -8.500  30.967  24.158  1.00  0.00    -0.012 C 
ATOM      3  C   UNL     1      -8.332  32.216  24.624  1.00  0.00    -0.019 C 
ATOM      4  C   UNL     1      -7.760  33.317  23.769  1.00  0.00     0.036 C 
ATOM      5  C   UNL     1      -8.150  33.131  22.290  1.00  0.00     0.025 C 
ATOM      6  C   UNL     1      -7.730  31.733  21.799  1.00  0.00     0.089 C 
ATOM      7  C   UNL     1      -8.252  30.668  22.725  1.00  0.00     0.158 C 
ATOM      8  O   UNL     1      -8.444  29.505  22.277  1.00  0.00    -0.295 OA
ENDROOT
BRANCH   5   9
ATOM      9  C   UNL     1      -7.570  34.232  21.413  1.00  0.00    -0.077 C 
ATOM     10  C   UNL     1      -7.139  33.978  20.165  1.00  0.00     0.008 C 
ATOM     11  C   UNL     1      -7.468  35.641  21.937  1.00  0.00     0.039 C 
ENDBRANCH   5   9
TORSDOF 1
ENDMDL
MODEL 4
REMARK VINA RESULT:    -5.922      1.962      3.487
REMARK INTER + INTRA:          -6.359
REMARK INTER:                  -6.264
REMARK INTRA:                  -0.096
REMARK UNBOUND:                -0.091
REMARK SMILES C=C(C)[C@@H]1CC=C(C)C(=O)C1
REMARK SMILES IDX 8 1 7 2 6 3 5 4 4 5 11 6 9 7 10 8 2 9 1 10 3 11
REMARK H PARENT
REMARK Flexibility Score: inf
ROOT
ATOM      1  C   UNL     1      -7.105  33.747  20.109  1.00  0.00     0.048 C 
ATOM      2  C   UNL     1      -7.589  33.992  21.512  1.00  0.00    -0.012 C 
ATOM      3  C   UNL     1      -7.670  35.249  21.982  1.00  0.00    -0.019 C 
ATOM      4  C   UNL     1      -8.165  35.551  23.371  1.00  0.00     0.036 C 
ATOM      5  C   UNL     1      -7.790  34.424  24.352  1.00  0.00     0.025 C 
ATOM      6  C   UNL     1      -8.306  33.069  23.831  1.00  0.00     0.089 C 
ATOM      7  C   UNL     1      -7.858  32.843  22.412  1.00  0.00     0.158 C 
ATOM      8  O   UNL     1      -7.748  31.662  21.985  1.00  0.00    -0.295 OA
ENDROOT
BRANCH   5   9
ATOM      9  C   UNL     1      -8.293  34.712  25.760  1.00  0.00    -0.077 C 
ATOM     10  C   UNL     1      -8.523  35.969  26.176  1.00  0.00     0.008 C 
ATOM     11  C   UNL     1      -8.543  33.578  26.721  1.00  0.00     0.039 C 
ENDBRANCH   5   9
TORSDOF 1
ENDMDL
MODEL 5
REMARK VINA RESULT:    -5.901      2.416      4.503
REMARK INTER + INTRA:          -6.338
REMARK INTER:                  -6.244
REMARK INTRA:                  -0.093
REMARK UNBOUND:                -0.091
REMARK SMILES C=C(C)[C@@H]1CC=C(C)C(=O)C1
REMARK SMILES IDX 8 1 7 2 6 3 5 4 4 5 11 6 9 7 10 8 2 9 1 10 3 11
REMARK H PARENT
REMARK Flexibility Score: inf
ROOT
ATOM      1  C   UNL     1      -8.445  35.787  26.208  1.00  0.00     0.048 C 
ATOM      2  C   UNL     1      -8.229  35.049  24.915  1.00  0.00    -0.012 C 
ATOM      3  C   UNL     1      -8.087  35.735  23.768  1.00  0.00    -0.019 C 
ATOM      4  C   UNL     1      -7.851  35.047  22.450  1.00  0.00     0.036 C 
ATOM      5  C   UNL     1      -8.556  33.678  22.403  1.00  0.00     0.025 C 
ATOM      6  C   UNL     1      -8.119  32.812  23.600  1.00  0.00     0.089 C 
ATOM      7  C   UNL     1      -8.295  33.567  24.890  1.00  0.00     0.158 C 
ATOM      8  O   UNL     1      -8.464  32.921  25.960  1.00  0.00    -0.295 OA
ENDROOT
BRANCH   5   9
ATOM      9  C   UNL     1      -8.317  32.967  21.078  1.00  0.00    -0.077 C 
ATOM     10  C   UNL     1      -9.145  32.002  20.643  1.00  0.00     0.008 C 
ATOM     11  C   UNL     1      -7.132  33.338  20.224  1.00  0.00     0.039 C 
ENDBRANCH   5   9
TORSDOF 1
ENDMDL
MODEL 6
REMARK VINA RESULT:    -5.844      1.477      4.280
REMARK INTER + INTRA:          -6.277
REMARK INTER:                  -6.180
REMARK INTRA:                  -0.098
REMARK UNBOUND:                -0.091
REMARK SMILES C=C(C)[C@@H]1CC=C(C)C(=O)C1
REMARK SMILES IDX 8 1 7 2 6 3 5 4 4 5 11 6 9 7 10 8 2 9 1 10 3 11
REMARK H PARENT
REMARK Flexibility Score: inf
ROOT
ATOM      1  C   UNL     1      -7.475  35.601  22.047  1.00  0.00     0.048 C 
ATOM      2  C   UNL     1      -7.880  34.191  22.378  1.00  0.00    -0.012 C 
ATOM      3  C   UNL     1      -8.379  33.905  23.593  1.00  0.00    -0.019 C 
ATOM      4  C   UNL     1      -8.817  32.515  23.970  1.00  0.00     0.036 C 
ATOM      5  C   UNL     1      -7.958  31.451  23.260  1.00  0.00     0.025 C 
ATOM      6  C   UNL     1      -7.979  31.676  21.737  1.00  0.00     0.089 C 
ATOM      7  C   UNL     1      -7.615  33.099  21.408  1.00  0.00     0.158 C 
ATOM      8  O   UNL     1      -7.114  33.359  20.281  1.00  0.00    -0.295 OA
ENDROOT
BRANCH   5   9
ATOM      9  C   UNL     1      -8.397  30.039  23.625  1.00  0.00    -0.077 C 
ATOM     10  C   UNL     1      -8.279  29.023  22.753  1.00  0.00     0.008 C 
ATOM     11  C   UNL     1      -8.977  29.756  24.987  1.00  0.00     0.039 C 
ENDBRANCH   5   9
TORSDOF 1
ENDMDL
MODEL 7
REMARK VINA RESULT:    -5.738      2.109      4.560
REMARK INTER + INTRA:          -6.165
REMARK INTER:                  -6.067
REMARK INTRA:                  -0.098
REMARK UNBOUND:                -0.091
REMARK SMILES C=C(C)[C@@H]1CC=C(C)C(=O)C1
REMARK SMILES IDX 8 1 7 2 6 3 5 4 4 5 11 6 9 7 10 8 2 9 1 10 3 11
REMARK H PARENT
REMARK Flexibility Score: inf
ROOT
ATOM      1  C   UNL     1      -7.601  35.483  21.994  1.00  0.00     0.048 C 
ATOM      2  C   UNL     1      -7.682  34.057  22.467  1.00  0.00    -0.012 C 
ATOM      3  C   UNL     1      -7.636  33.052  21.575  1.00  0.00    -0.019 C 
ATOM      4  C   UNL     1      -7.695  31.608  21.997  1.00  0.00     0.036 C 
ATOM      5  C   UNL     1      -8.562  31.432  23.258  1.00  0.00     0.025 C 
ATOM      6  C   UNL     1      -8.054  32.349  24.387  1.00  0.00     0.089 C 
ATOM      7  C   UNL     1      -7.933  33.768  23.901  1.00  0.00     0.158 C 
ATOM      8  O   UNL     1      -8.012  34.710  24.735  1.00  0.00    -0.295 OA
ENDROOT
BRANCH   5   9
ATOM      9  C   UNL     1      -8.621  29.976  23.701  1.00  0.00    -0.077 C 
ATOM     10  C   UNL     1      -8.998  29.638  24.946  1.00  0.00     0.008 C 
ATOM     11  C   UNL     1      -8.253  28.877  22.737  1.00  0.00     0.039 C 
ENDBRANCH   5   9
TORSDOF 1
ENDMDL
MODEL 8
REMARK VINA RESULT:    -5.720      1.986      4.502
REMARK INTER + INTRA:          -6.145
REMARK INTER:                  -6.057
REMARK INTRA:                  -0.089
REMARK UNBOUND:                -0.091
REMARK SMILES C=C(C)[C@@H]1CC=C(C)C(=O)C1
REMARK SMILES IDX 8 1 7 2 6 3 5 4 4 5 11 6 9 7 10 8 2 9 1 10 3 11
REMARK H PARENT
REMARK Flexibility Score: inf
ROOT
ATOM      1  C   UNL     1      -8.668  36.403  25.198  1.00  0.00     0.048 C 
ATOM      2  C   UNL     1      -8.521  35.036  24.588  1.00  0.00    -0.012 C 
ATOM      3  C   UNL     1      -8.632  33.943  25.362  1.00  0.00    -0.019 C 
ATOM      4  C   UNL     1      -8.511  32.551  24.799  1.00  0.00     0.036 C 
ATOM      5  C   UNL     1      -7.529  32.515  23.613  1.00  0.00     0.025 C 
ATOM      6  C   UNL     1      -7.944  33.542  22.544  1.00  0.00     0.089 C 
ATOM      7  C   UNL     1      -8.133  34.901  23.162  1.00  0.00     0.158 C 
ATOM      8  O   UNL     1      -7.993  35.927  22.442  1.00  0.00    -0.295 OA
ENDROOT
BRANCH   5   9
ATOM      9  C   UNL     1      -7.405  31.114  23.029  1.00  0.00    -0.077 C 
ATOM     10  C   UNL     1      -6.396  30.298  23.377  1.00  0.00     0.008 C 
ATOM     11  C   UNL     1      -8.425  30.616  22.037  1.00  0.00     0.039 C 
ENDBRANCH   5   9
TORSDOF 1
ENDMDL
MODEL 9
REMARK VINA RESULT:    -5.713      2.451      3.152
REMARK INTER + INTRA:          -6.138
REMARK INTER:                  -6.041
REMARK INTRA:                  -0.097
REMARK UNBOUND:                -0.091
REMARK SMILES C=C(C)[C@@H]1CC=C(C)C(=O)C1
REMARK SMILES IDX 8 1 7 2 6 3 5 4 4 5 11 6 9 7 10 8 2 9 1 10 3 11
REMARK H PARENT
REMARK Flexibility Score: inf
ROOT
ATOM      1  C   UNL     1      -7.878  30.385  26.525  1.00  0.00     0.048 C 
ATOM      2  C   UNL     1      -7.980  31.254  25.301  1.00  0.00    -0.012 C 
ATOM      3  C   UNL     1      -7.422  30.851  24.147  1.00  0.00    -0.019 C 
ATOM      4  C   UNL     1      -7.511  31.672  22.888  1.00  0.00     0.036 C 
ATOM      5  C   UNL     1      -7.528  33.179  23.208  1.00  0.00     0.025 C 
ATOM      6  C   UNL     1      -8.665  33.501  24.196  1.00  0.00     0.089 C 
ATOM      7  C   UNL     1      -8.588  32.604  25.401  1.00  0.00     0.158 C 
ATOM      8  O   UNL     1      -9.080  32.999  26.493  1.00  0.00    -0.295 OA
ENDROOT
BRANCH   5   9
ATOM      9  C   UNL     1      -7.627  34.022  21.943  1.00  0.00    -0.077 C 
ATOM     10  C   UNL     1      -7.867  35.343  22.001  1.00  0.00     0.008 C 
ATOM     11  C   UNL     1      -7.457  33.378  20.591  1.00  0.00     0.039 C 
ENDBRANCH   5   9
TORSDOF 1
ENDMDL
