MODEL 1
REMARK VINA RESULT:    -4.521      0.000      0.000
REMARK INTER + INTRA:          -5.044
REMARK INTER:                  -4.917
REMARK INTRA:                  -0.127
REMARK UNBOUND:                -0.127
REMARK SMILES Cc1ccc(C(C)C)cc1O
REMARK SMILES IDX 1 1 2 2 10 3 9 4 5 5 4 6 3 7 11 8 6 10 7 11 8 12
REMARK H PARENT 11 9
REMARK Flexibility Score: inf
ROOT
ATOM      1  C   UNL     1      25.877 -37.001   1.829  1.00  0.00     0.048 C 
ATOM      2  C   UNL     1      26.289 -38.009   0.791  1.00  0.00    -0.009 A 
ATOM      3  C   UNL     1      26.952 -37.611  -0.391  1.00  0.00     0.118 A 
ATOM      4  C   UNL     1      27.322 -38.574  -1.338  1.00  0.00     0.050 A 
ATOM      5  C   UNL     1      27.041 -39.937  -1.131  1.00  0.00    -0.042 A 
ATOM      6  C   UNL     1      26.382 -40.323   0.047  1.00  0.00     0.004 A 
ATOM      7  C   UNL     1      26.010 -39.369   0.996  1.00  0.00     0.007 A 
ENDROOT
BRANCH   3   8
ATOM      8  O   UNL     1      27.256 -36.275  -0.654  1.00  0.00    -0.508 OA
ATOM      9  H   UNL     1      26.586 -35.621  -1.038  1.00  0.00     0.293 HD
ENDBRANCH   3   8
BRANCH   5  10
ATOM     10  C   UNL     1      27.441 -40.983  -2.154  1.00  0.00     0.013 C 
ATOM     11  C   UNL     1      26.411 -41.071  -3.287  1.00  0.00     0.012 C 
ATOM     12  C   UNL     1      27.654 -42.351  -1.494  1.00  0.00     0.012 C 
ENDBRANCH   5  10
TORSDOF 2
ENDMDL
MODEL 2
REMARK VINA RESULT:    -4.272      1.400      2.255
REMARK INTER + INTRA:          -4.774
REMARK INTER:                  -4.646
REMARK INTRA:                  -0.127
REMARK UNBOUND:                -0.127
REMARK SMILES Cc1ccc(C(C)C)cc1O
REMARK SMILES IDX 1 1 2 2 10 3 9 4 5 5 4 6 3 7 11 8 6 10 7 11 8 12
REMARK H PARENT 11 9
REMARK Flexibility Score: inf
ROOT
ATOM      1  C   UNL     1      26.587 -36.193   0.712  1.00  0.00     0.048 C 
ATOM      2  C   UNL     1      26.617 -37.557   0.078  1.00  0.00    -0.009 A 
ATOM      3  C   UNL     1      26.265 -38.712   0.811  1.00  0.00     0.118 A 
ATOM      4  C   UNL     1      26.304 -39.967   0.192  1.00  0.00     0.050 A 
ATOM      5  C   UNL     1      26.690 -40.097  -1.155  1.00  0.00    -0.042 A 
ATOM      6  C   UNL     1      27.038 -38.944  -1.875  1.00  0.00     0.004 A 
ATOM      7  C   UNL     1      27.001 -37.688  -1.265  1.00  0.00     0.007 A 
ENDROOT
BRANCH   3   8
ATOM      8  O   UNL     1      25.875 -38.647   2.150  1.00  0.00    -0.508 OA
ATOM      9  H   UNL     1      26.477 -38.298   2.884  1.00  0.00     0.293 HD
ENDBRANCH   3   8
BRANCH   5  10
ATOM     10  C   UNL     1      26.733 -41.455  -1.829  1.00  0.00     0.013 C 
ATOM     11  C   UNL     1      27.783 -42.364  -1.178  1.00  0.00     0.012 C 
ATOM     12  C   UNL     1      26.982 -41.317  -3.336  1.00  0.00     0.012 C 
ENDBRANCH   5  10
TORSDOF 2
ENDMDL
MODEL 3
REMARK VINA RESULT:    -4.111      2.085      4.593
REMARK INTER + INTRA:          -4.599
REMARK INTER:                  -4.472
REMARK INTRA:                  -0.126
REMARK UNBOUND:                -0.127
REMARK SMILES Cc1ccc(C(C)C)cc1O
REMARK SMILES IDX 1 1 2 2 10 3 9 4 5 5 4 6 3 7 11 8 6 10 7 11 8 12
REMARK H PARENT 11 9
REMARK Flexibility Score: inf
ROOT
ATOM      1  C   UNL     1      27.741 -42.486  -1.443  1.00  0.00     0.048 C 
ATOM      2  C   UNL     1      27.308 -41.125  -0.972  1.00  0.00    -0.009 A 
ATOM      3  C   UNL     1      26.501 -40.971   0.178  1.00  0.00     0.118 A 
ATOM      4  C   UNL     1      26.114 -39.690   0.589  1.00  0.00     0.050 A 
ATOM      5  C   UNL     1      26.518 -38.548  -0.127  1.00  0.00    -0.042 A 
ATOM      6  C   UNL     1      27.319 -38.711  -1.268  1.00  0.00     0.004 A 
ATOM      7  C   UNL     1      27.709 -39.985  -1.685  1.00  0.00     0.007 A 
ENDROOT
BRANCH   3   8
ATOM      8  O   UNL     1      26.069 -42.066   0.929  1.00  0.00    -0.508 OA
ATOM      9  H   UNL     1      25.182 -42.527   0.772  1.00  0.00     0.293 HD
ENDBRANCH   3   8
BRANCH   5  10
ATOM     10  C   UNL     1      26.101 -37.158   0.317  1.00  0.00     0.013 C 
ATOM     11  C   UNL     1      27.123 -36.106  -0.128  1.00  0.00     0.012 C 
ATOM     12  C   UNL     1      25.877 -37.105   1.833  1.00  0.00     0.012 C 
ENDBRANCH   5  10
TORSDOF 2
ENDMDL
MODEL 4
REMARK VINA RESULT:    -4.064     21.347     22.613
REMARK INTER + INTRA:          -4.548
REMARK INTER:                  -4.434
REMARK INTRA:                  -0.114
REMARK UNBOUND:                -0.127
REMARK SMILES Cc1ccc(C(C)C)cc1O
REMARK SMILES IDX 1 1 2 2 10 3 9 4 5 5 4 6 3 7 11 8 6 10 7 11 8 12
REMARK H PARENT 11 9
REMARK Flexibility Score: inf
ROOT
ATOM      1  C   UNL     1      46.004 -34.874  13.125  1.00  0.00     0.048 C 
ATOM      2  C   UNL     1      45.266 -33.732  12.482  1.00  0.00    -0.009 A 
ATOM      3  C   UNL     1      44.062 -33.944  11.775  1.00  0.00     0.118 A 
ATOM      4  C   UNL     1      43.400 -32.859  11.188  1.00  0.00     0.050 A 
ATOM      5  C   UNL     1      43.917 -31.555  11.291  1.00  0.00    -0.042 A 
ATOM      6  C   UNL     1      45.115 -31.353  11.996  1.00  0.00     0.004 A 
ATOM      7  C   UNL     1      45.781 -32.430  12.584  1.00  0.00     0.007 A 
ENDROOT
BRANCH   3   8
ATOM      8  O   UNL     1      43.500 -35.214  11.638  1.00  0.00    -0.508 OA
ATOM      9  H   UNL     1      42.514 -35.399  11.772  1.00  0.00     0.293 HD
ENDBRANCH   3   8
BRANCH   5  10
ATOM     10  C   UNL     1      43.203 -30.376  10.656  1.00  0.00     0.013 C 
ATOM     11  C   UNL     1      41.812 -30.779  10.151  1.00  0.00     0.012 C 
ATOM     12  C   UNL     1      44.043 -29.761   9.530  1.00  0.00     0.012 C 
ENDBRANCH   5  10
TORSDOF 2
ENDMDL
MODEL 5
REMARK VINA RESULT:    -3.794     21.988     23.169
REMARK INTER + INTRA:          -4.254
REMARK INTER:                  -4.149
REMARK INTRA:                  -0.105
REMARK UNBOUND:                -0.127
REMARK SMILES Cc1ccc(C(C)C)cc1O
REMARK SMILES IDX 1 1 2 2 10 3 9 4 5 5 4 6 3 7 11 8 6 10 7 11 8 12
REMARK H PARENT 11 9
REMARK Flexibility Score: inf
ROOT
ATOM      1  C   UNL     1      44.966 -34.442  13.105  1.00  0.00     0.048 C 
ATOM      2  C   UNL     1      44.899 -33.118  12.395  1.00  0.00    -0.009 A 
ATOM      3  C   UNL     1      44.365 -33.014  11.091  1.00  0.00     0.118 A 
ATOM      4  C   UNL     1      44.316 -31.767  10.457  1.00  0.00     0.050 A 
ATOM      5  C   UNL     1      44.794 -30.610  11.100  1.00  0.00    -0.042 A 
ATOM      6  C   UNL     1      45.324 -30.723  12.395  1.00  0.00     0.004 A 
ATOM      7  C   UNL     1      45.375 -31.963  13.035  1.00  0.00     0.007 A 
ENDROOT
BRANCH   3   8
ATOM      8  O   UNL     1      43.875 -34.125  10.402  1.00  0.00    -0.508 OA
ATOM      9  H   UNL     1      43.443 -34.062   9.489  1.00  0.00     0.293 HD
ENDBRANCH   3   8
BRANCH   5  10
ATOM     10  C   UNL     1      44.744 -29.256  10.416  1.00  0.00     0.013 C 
ATOM     11  C   UNL     1      43.586 -29.186   9.414  1.00  0.00     0.012 C 
ATOM     12  C   UNL     1      46.081 -28.927   9.740  1.00  0.00     0.012 C 
ENDBRANCH   5  10
TORSDOF 2
ENDMDL
MODEL 6
REMARK VINA RESULT:    -3.675      1.667      4.187
REMARK INTER + INTRA:          -4.125
REMARK INTER:                  -3.997
REMARK INTRA:                  -0.127
REMARK UNBOUND:                -0.127
REMARK SMILES Cc1ccc(C(C)C)cc1O
REMARK SMILES IDX 1 1 2 2 10 3 9 4 5 5 4 6 3 7 11 8 6 10 7 11 8 12
REMARK H PARENT 11 9
REMARK Flexibility Score: inf
ROOT
ATOM      1  C   UNL     1      27.050 -41.626  -3.435  1.00  0.00     0.048 C 
ATOM      2  C   UNL     1      26.741 -40.716  -2.277  1.00  0.00    -0.009 A 
ATOM      3  C   UNL     1      26.283 -39.397  -2.487  1.00  0.00     0.118 A 
ATOM      4  C   UNL     1      26.005 -38.575  -1.388  1.00  0.00     0.050 A 
ATOM      5  C   UNL     1      26.176 -39.044  -0.072  1.00  0.00    -0.042 A 
ATOM      6  C   UNL     1      26.632 -40.357   0.126  1.00  0.00     0.004 A 
ATOM      7  C   UNL     1      26.912 -41.183  -0.965  1.00  0.00     0.007 A 
ENDROOT
BRANCH   3   8
ATOM      8  O   UNL     1      26.094 -38.874  -3.768  1.00  0.00    -0.508 OA
ATOM      9  H   UNL     1      26.293 -39.396  -4.611  1.00  0.00     0.293 HD
ENDBRANCH   3   8
BRANCH   5  10
ATOM     10  C   UNL     1      25.875 -38.157   1.121  1.00  0.00     0.013 C 
ATOM     11  C   UNL     1      26.423 -36.741   0.909  1.00  0.00     0.012 C 
ATOM     12  C   UNL     1      26.417 -38.771   2.417  1.00  0.00     0.012 C 
ENDBRANCH   5  10
TORSDOF 2
ENDMDL
MODEL 7
REMARK VINA RESULT:    -3.459     20.141     21.463
REMARK INTER + INTRA:          -3.890
REMARK INTER:                  -3.766
REMARK INTRA:                  -0.124
REMARK UNBOUND:                -0.127
REMARK SMILES Cc1ccc(C(C)C)cc1O
REMARK SMILES IDX 1 1 2 2 10 3 9 4 5 5 4 6 3 7 11 8 6 10 7 11 8 12
REMARK H PARENT 11 9
REMARK Flexibility Score: inf
ROOT
ATOM      1  C   UNL     1      39.945 -29.692  10.108  1.00  0.00     0.048 C 
ATOM      2  C   UNL     1      41.242 -30.363  10.470  1.00  0.00    -0.009 A 
ATOM      3  C   UNL     1      41.496 -31.705  10.113  1.00  0.00     0.118 A 
ATOM      4  C   UNL     1      42.713 -32.301  10.465  1.00  0.00     0.050 A 
ATOM      5  C   UNL     1      43.692 -31.580  11.173  1.00  0.00    -0.042 A 
ATOM      6  C   UNL     1      43.431 -30.246  11.524  1.00  0.00     0.004 A 
ATOM      7  C   UNL     1      42.220 -29.645  11.177  1.00  0.00     0.007 A 
ENDROOT
BRANCH   3   8
ATOM      8  O   UNL     1      40.564 -32.472   9.411  1.00  0.00    -0.508 OA
ATOM      9  H   UNL     1      40.792 -33.356   8.975  1.00  0.00     0.293 HD
ENDBRANCH   3   8
BRANCH   5  10
ATOM     10  C   UNL     1      45.012 -32.222  11.557  1.00  0.00     0.013 C 
ATOM     11  C   UNL     1      44.950 -33.746  11.409  1.00  0.00     0.012 C 
ATOM     12  C   UNL     1      45.431 -31.820  12.976  1.00  0.00     0.012 C 
ENDBRANCH   5  10
TORSDOF 2
ENDMDL
MODEL 8
REMARK VINA RESULT:    -3.393     20.729     22.110
REMARK INTER + INTRA:          -3.818
REMARK INTER:                  -3.690
REMARK INTRA:                  -0.128
REMARK UNBOUND:                -0.127
REMARK SMILES Cc1ccc(C(C)C)cc1O
REMARK SMILES IDX 1 1 2 2 10 3 9 4 5 5 4 6 3 7 11 8 6 10 7 11 8 12
REMARK H PARENT 11 9
REMARK Flexibility Score: inf
ROOT
ATOM      1  C   UNL     1      45.805 -33.182  12.796  1.00  0.00     0.048 C 
ATOM      2  C   UNL     1      44.794 -32.395  12.007  1.00  0.00    -0.009 A 
ATOM      3  C   UNL     1      43.795 -33.044  11.247  1.00  0.00     0.118 A 
ATOM      4  C   UNL     1      42.869 -32.283  10.523  1.00  0.00     0.050 A 
ATOM      5  C   UNL     1      42.919 -30.877  10.538  1.00  0.00    -0.042 A 
ATOM      6  C   UNL     1      43.916 -30.242  11.296  1.00  0.00     0.004 A 
ATOM      7  C   UNL     1      44.843 -30.993  12.021  1.00  0.00     0.007 A 
ENDROOT
BRANCH   3   8
ATOM      8  O   UNL     1      43.695 -34.435  11.191  1.00  0.00    -0.508 OA
ATOM      9  H   UNL     1      43.340 -34.994  11.957  1.00  0.00     0.293 HD
ENDBRANCH   3   8
BRANCH   5  10
ATOM     10  C   UNL     1      41.918 -30.049   9.755  1.00  0.00     0.013 C 
ATOM     11  C   UNL     1      42.604 -28.875   9.047  1.00  0.00     0.012 C 
ATOM     12  C   UNL     1      40.778 -29.560  10.657  1.00  0.00     0.012 C 
ENDBRANCH   5  10
TORSDOF 2
ENDMDL
MODEL 9
REMARK VINA RESULT:    -1.814      2.118      4.702
REMARK INTER + INTRA:          -2.101
REMARK INTER:                  -1.973
REMARK INTRA:                  -0.127
REMARK UNBOUND:                -0.127
REMARK SMILES Cc1ccc(C(C)C)cc1O
REMARK SMILES IDX 1 1 2 2 10 3 9 4 5 5 4 6 3 7 11 8 6 10 7 11 8 12
REMARK H PARENT 11 9
REMARK Flexibility Score: inf
ROOT
ATOM      1  C   UNL     1      26.604 -41.609  -4.126  1.00  0.00     0.048 C 
ATOM      2  C   UNL     1      26.707 -40.710  -2.924  1.00  0.00    -0.009 A 
ATOM      3  C   UNL     1      27.261 -41.173  -1.710  1.00  0.00     0.118 A 
ATOM      4  C   UNL     1      27.343 -40.311  -0.610  1.00  0.00     0.050 A 
ATOM      5  C   UNL     1      26.879 -38.985  -0.694  1.00  0.00    -0.042 A 
ATOM      6  C   UNL     1      26.330 -38.534  -1.904  1.00  0.00     0.004 A 
ATOM      7  C   UNL     1      26.245 -39.387  -3.007  1.00  0.00     0.007 A 
ENDROOT
BRANCH   3   8
ATOM      8  O   UNL     1      27.738 -42.477  -1.565  1.00  0.00    -0.508 OA
ATOM      9  H   UNL     1      27.908 -42.905  -0.664  1.00  0.00     0.293 HD
ENDBRANCH   3   8
BRANCH   5  10
ATOM     10  C   UNL     1      26.966 -38.048   0.496  1.00  0.00     0.013 C 
ATOM     11  C   UNL     1      25.875 -38.361   1.527  1.00  0.00     0.012 C 
ATOM     12  C   UNL     1      26.902 -36.582   0.052  1.00  0.00     0.012 C 
ENDBRANCH   5  10
TORSDOF 2
ENDMDL
