MODEL 1
REMARK VINA RESULT:    -7.183      0.000      0.000
REMARK INTER + INTRA:          -7.813
REMARK INTER:                  -7.813
REMARK INTRA:                   0.000
REMARK UNBOUND:                 0.000
REMARK SMILES Cc1cc(O)c2c(c1)C(=O)c1cc(O)cc(O)c1C2=O
REMARK SMILES IDX 1 1 2 2 8 3 7 4 6 5 4 6 3 7 19 8 20 9 18 10 11 11 9 12 10 13
REMARK SMILES IDX 12 14 13 15 15 16 16 17 5 18 17 20 14 22
REMARK H PARENT 5 19 17 21 14 23
REMARK Flexibility Score: inf
ROOT
ATOM      1  C   UNL     1     -11.050 -42.323 -15.675  1.00  0.00     0.044 C 
ATOM      2  C   UNL     1     -11.714 -41.277 -16.522  1.00  0.00    -0.047 A 
ATOM      3  C   UNL     1     -11.094 -40.818 -17.687  1.00  0.00     0.016 A 
ATOM      4  C   UNL     1     -11.694 -39.821 -18.475  1.00  0.00     0.038 A 
ATOM      5  C   UNL     1     -12.940 -39.273 -18.090  1.00  0.00     0.076 A 
ATOM      6  C   UNL     1     -13.514 -39.674 -16.853  1.00  0.00     0.127 A 
ATOM      7  C   UNL     1     -12.909 -40.687 -16.101  1.00  0.00     0.050 A 
ATOM      8  C   UNL     1     -13.623 -38.337 -19.026  1.00  0.00     0.201 C 
ATOM      9  O   UNL     1     -14.866 -38.154 -18.943  1.00  0.00    -0.288 OA
ATOM     10  C   UNL     1     -12.862 -37.704 -20.136  1.00  0.00     0.076 A 
ATOM     11  C   UNL     1     -11.589 -38.211 -20.473  1.00  0.00     0.041 A 
ATOM     12  C   UNL     1     -11.015 -39.337 -19.701  1.00  0.00     0.194 C 
ATOM     13  O   UNL     1      -9.937 -39.872 -20.079  1.00  0.00    -0.289 OA
ATOM     14  C   UNL     1     -10.874 -37.647 -21.544  1.00  0.00     0.059 A 
ATOM     15  C   UNL     1     -11.411 -36.581 -22.273  1.00  0.00     0.120 A 
ATOM     16  C   UNL     1     -12.664 -36.073 -21.937  1.00  0.00     0.093 A 
ATOM     17  C   UNL     1     -13.395 -36.622 -20.875  1.00  0.00     0.131 A 
ENDROOT
BRANCH   6  18
ATOM     18  O   UNL     1     -14.654 -39.074 -16.313  1.00  0.00    -0.507 OA
ATOM     19  H   UNL     1     -15.542 -39.542 -16.219  1.00  0.00     0.293 HD
ENDBRANCH   6  18
BRANCH  17  20
ATOM     20  O   UNL     1     -14.641 -36.084 -20.552  1.00  0.00    -0.507 OA
ATOM     21  H   UNL     1     -15.396 -36.045 -21.227  1.00  0.00     0.293 HD
ENDBRANCH  17  20
BRANCH  15  22
ATOM     22  O   UNL     1     -10.704 -36.021 -23.335  1.00  0.00    -0.508 OA
ATOM     23  H   UNL     1     -10.968 -35.129 -23.736  1.00  0.00     0.293 HD
ENDBRANCH  15  22
TORSDOF 3
ENDMDL
MODEL 2
REMARK VINA RESULT:    -6.997      2.479      5.875
REMARK INTER + INTRA:          -7.611
REMARK INTER:                  -7.611
REMARK INTRA:                   0.000
REMARK UNBOUND:                 0.000
REMARK SMILES Cc1cc(O)c2c(c1)C(=O)c1cc(O)cc(O)c1C2=O
REMARK SMILES IDX 1 1 2 2 8 3 7 4 6 5 4 6 3 7 19 8 20 9 18 10 11 11 9 12 10 13
REMARK SMILES IDX 12 14 13 15 15 16 16 17 5 18 17 20 14 22
REMARK H PARENT 5 19 17 21 14 23
REMARK Flexibility Score: inf
ROOT
ATOM      1  C   UNL     1     -18.125 -38.927 -20.809  1.00  0.00     0.044 C 
ATOM      2  C   UNL     1     -16.704 -38.883 -20.330  1.00  0.00    -0.047 A 
ATOM      3  C   UNL     1     -16.220 -39.873 -19.470  1.00  0.00     0.016 A 
ATOM      4  C   UNL     1     -14.898 -39.828 -18.995  1.00  0.00     0.038 A 
ATOM      5  C   UNL     1     -14.043 -38.772 -19.389  1.00  0.00     0.076 A 
ATOM      6  C   UNL     1     -14.573 -37.719 -20.182  1.00  0.00     0.127 A 
ATOM      7  C   UNL     1     -15.884 -37.801 -20.663  1.00  0.00     0.050 A 
ATOM      8  C   UNL     1     -12.607 -38.840 -18.998  1.00  0.00     0.201 C 
ATOM      9  O   UNL     1     -11.745 -38.185 -19.642  1.00  0.00    -0.288 OA
ATOM     10  C   UNL     1     -12.169 -39.767 -17.921  1.00  0.00     0.076 A 
ATOM     11  C   UNL     1     -13.051 -40.778 -17.484  1.00  0.00     0.041 A 
ATOM     12  C   UNL     1     -14.406 -40.880 -18.073  1.00  0.00     0.194 C 
ATOM     13  O   UNL     1     -15.148 -41.856 -17.776  1.00  0.00    -0.289 OA
ATOM     14  C   UNL     1     -12.638 -41.685 -16.493  1.00  0.00     0.059 A 
ATOM     15  C   UNL     1     -11.361 -41.589 -15.931  1.00  0.00     0.120 A 
ATOM     16  C   UNL     1     -10.490 -40.586 -16.355  1.00  0.00     0.093 A 
ATOM     17  C   UNL     1     -10.882 -39.673 -17.343  1.00  0.00     0.131 A 
ENDROOT
BRANCH   6  18
ATOM     18  O   UNL     1     -13.855 -36.559 -20.484  1.00  0.00    -0.507 OA
ATOM     19  H   UNL     1     -13.475 -35.938 -19.785  1.00  0.00     0.293 HD
ENDBRANCH   6  18
BRANCH  17  20
ATOM     20  O   UNL     1      -9.994 -38.672 -17.738  1.00  0.00    -0.507 OA
ATOM     21  H   UNL     1      -9.848 -37.839 -17.180  1.00  0.00     0.293 HD
ENDBRANCH  17  20
BRANCH  15  22
ATOM     22  O   UNL     1     -10.949 -42.487 -14.949  1.00  0.00    -0.508 OA
ATOM     23  H   UNL     1     -11.209 -42.367 -13.977  1.00  0.00     0.293 HD
ENDBRANCH  15  22
TORSDOF 3
ENDMDL
MODEL 3
REMARK VINA RESULT:    -6.864      2.200      3.271
REMARK INTER + INTRA:          -7.466
REMARK INTER:                  -7.466
REMARK INTRA:                   0.000
REMARK UNBOUND:                 0.000
REMARK SMILES Cc1cc(O)c2c(c1)C(=O)c1cc(O)cc(O)c1C2=O
REMARK SMILES IDX 1 1 2 2 8 3 7 4 6 5 4 6 3 7 19 8 20 9 18 10 11 11 9 12 10 13
REMARK SMILES IDX 12 14 13 15 15 16 16 17 5 18 17 20 14 22
REMARK H PARENT 5 19 17 21 14 23
REMARK Flexibility Score: inf
ROOT
ATOM      1  C   UNL     1     -17.061 -41.571 -16.497  1.00  0.00     0.044 C 
ATOM      2  C   UNL     1     -16.142 -40.660 -17.257  1.00  0.00    -0.047 A 
ATOM      3  C   UNL     1     -15.065 -41.187 -17.975  1.00  0.00     0.016 A 
ATOM      4  C   UNL     1     -14.183 -40.342 -18.670  1.00  0.00     0.038 A 
ATOM      5  C   UNL     1     -14.384 -38.942 -18.647  1.00  0.00     0.076 A 
ATOM      6  C   UNL     1     -15.421 -38.410 -17.834  1.00  0.00     0.127 A 
ATOM      7  C   UNL     1     -16.301 -39.275 -17.174  1.00  0.00     0.050 A 
ATOM      8  C   UNL     1     -13.530 -38.089 -19.520  1.00  0.00     0.201 C 
ATOM      9  O   UNL     1     -13.917 -36.937 -19.854  1.00  0.00    -0.288 OA
ATOM     10  C   UNL     1     -12.272 -38.634 -20.097  1.00  0.00     0.076 A 
ATOM     11  C   UNL     1     -12.045 -40.026 -20.057  1.00  0.00     0.041 A 
ATOM     12  C   UNL     1     -13.039 -40.917 -19.416  1.00  0.00     0.194 C 
ATOM     13  O   UNL     1     -12.899 -42.169 -19.491  1.00  0.00    -0.289 OA
ATOM     14  C   UNL     1     -10.878 -40.560 -20.631  1.00  0.00     0.059 A 
ATOM     15  C   UNL     1      -9.936 -39.721 -21.234  1.00  0.00     0.120 A 
ATOM     16  C   UNL     1     -10.153 -38.344 -21.267  1.00  0.00     0.093 A 
ATOM     17  C   UNL     1     -11.311 -37.792 -20.703  1.00  0.00     0.131 A 
ENDROOT
BRANCH   6  18
ATOM     18  O   UNL     1     -15.593 -37.040 -17.621  1.00  0.00    -0.507 OA
ATOM     19  H   UNL     1     -15.139 -36.326 -18.170  1.00  0.00     0.293 HD
ENDBRANCH   6  18
BRANCH  17  20
ATOM     20  O   UNL     1     -11.496 -36.409 -20.739  1.00  0.00    -0.507 OA
ATOM     21  H   UNL     1     -10.726 -35.765 -20.604  1.00  0.00     0.293 HD
ENDBRANCH  17  20
BRANCH  15  22
ATOM     22  O   UNL     1      -8.778 -40.247 -21.803  1.00  0.00    -0.508 OA
ATOM     23  H   UNL     1      -8.752 -41.188 -22.178  1.00  0.00     0.293 HD
ENDBRANCH  15  22
TORSDOF 3
ENDMDL
MODEL 4
REMARK VINA RESULT:    -6.766      2.309      3.923
REMARK INTER + INTRA:          -7.360
REMARK INTER:                  -7.360
REMARK INTRA:                   0.000
REMARK UNBOUND:                 0.000
REMARK SMILES Cc1cc(O)c2c(c1)C(=O)c1cc(O)cc(O)c1C2=O
REMARK SMILES IDX 1 1 2 2 8 3 7 4 6 5 4 6 3 7 19 8 20 9 18 10 11 11 9 12 10 13
REMARK SMILES IDX 12 14 13 15 15 16 16 17 5 18 17 20 14 22
REMARK H PARENT 5 19 17 21 14 23
REMARK Flexibility Score: inf
ROOT
ATOM      1  C   UNL     1     -11.035 -42.109 -15.312  1.00  0.00     0.044 C 
ATOM      2  C   UNL     1     -11.518 -41.237 -16.433  1.00  0.00    -0.047 A 
ATOM      3  C   UNL     1     -12.839 -41.331 -16.879  1.00  0.00     0.016 A 
ATOM      4  C   UNL     1     -13.296 -40.538 -17.946  1.00  0.00     0.038 A 
ATOM      5  C   UNL     1     -12.413 -39.630 -18.577  1.00  0.00     0.076 A 
ATOM      6  C   UNL     1     -11.047 -39.614 -18.183  1.00  0.00     0.127 A 
ATOM      7  C   UNL     1     -10.625 -40.394 -17.101  1.00  0.00     0.050 A 
ATOM      8  C   UNL     1     -12.967 -38.694 -19.594  1.00  0.00     0.201 C 
ATOM      9  O   UNL     1     -12.355 -37.628 -19.872  1.00  0.00    -0.288 OA
ATOM     10  C   UNL     1     -14.299 -38.953 -20.201  1.00  0.00     0.076 A 
ATOM     11  C   UNL     1     -15.151 -39.908 -19.605  1.00  0.00     0.041 A 
ATOM     12  C   UNL     1     -14.697 -40.660 -18.414  1.00  0.00     0.194 C 
ATOM     13  O   UNL     1     -15.500 -41.421 -17.807  1.00  0.00    -0.289 OA
ATOM     14  C   UNL     1     -16.429 -40.138 -20.146  1.00  0.00     0.059 A 
ATOM     15  C   UNL     1     -16.860 -39.432 -21.273  1.00  0.00     0.120 A 
ATOM     16  C   UNL     1     -16.017 -38.494 -21.869  1.00  0.00     0.093 A 
ATOM     17  C   UNL     1     -14.741 -38.248 -21.344  1.00  0.00     0.131 A 
ENDROOT
BRANCH   6  18
ATOM     18  O   UNL     1     -10.071 -38.873 -18.854  1.00  0.00    -0.507 OA
ATOM     19  H   UNL     1      -9.765 -39.071 -19.794  1.00  0.00     0.293 HD
ENDBRANCH   6  18
BRANCH  17  20
ATOM     20  O   UNL     1     -13.914 -37.313 -21.969  1.00  0.00    -0.507 OA
ATOM     21  H   UNL     1     -14.098 -36.984 -22.909  1.00  0.00     0.293 HD
ENDBRANCH  17  20
BRANCH  15  22
ATOM     22  O   UNL     1     -18.125 -39.658 -21.811  1.00  0.00    -0.508 OA
ATOM     23  H   UNL     1     -18.696 -40.438 -21.511  1.00  0.00     0.293 HD
ENDBRANCH  15  22
TORSDOF 3
ENDMDL
MODEL 5
REMARK VINA RESULT:    -6.704      2.174      4.983
REMARK INTER + INTRA:          -7.291
REMARK INTER:                  -7.291
REMARK INTRA:                   0.000
REMARK UNBOUND:                 0.000
REMARK SMILES Cc1cc(O)c2c(c1)C(=O)c1cc(O)cc(O)c1C2=O
REMARK SMILES IDX 1 1 2 2 8 3 7 4 6 5 4 6 3 7 19 8 20 9 18 10 11 11 9 12 10 13
REMARK SMILES IDX 12 14 13 15 15 16 16 17 5 18 17 20 14 22
REMARK H PARENT 5 19 17 21 14 23
REMARK Flexibility Score: inf
ROOT
ATOM      1  C   UNL     1      -9.881 -42.186 -22.663  1.00  0.00     0.044 C 
ATOM      2  C   UNL     1     -10.827 -41.148 -22.136  1.00  0.00    -0.047 A 
ATOM      3  C   UNL     1     -11.183 -41.141 -20.784  1.00  0.00     0.016 A 
ATOM      4  C   UNL     1     -12.088 -40.189 -20.284  1.00  0.00     0.038 A 
ATOM      5  C   UNL     1     -12.647 -39.224 -21.154  1.00  0.00     0.076 A 
ATOM      6  C   UNL     1     -12.358 -39.301 -22.543  1.00  0.00     0.127 A 
ATOM      7  C   UNL     1     -11.433 -40.242 -23.010  1.00  0.00     0.050 A 
ATOM      8  C   UNL     1     -13.476 -38.136 -20.565  1.00  0.00     0.201 C 
ATOM      9  O   UNL     1     -13.645 -37.057 -21.195  1.00  0.00    -0.288 OA
ATOM     10  C   UNL     1     -14.013 -38.268 -19.185  1.00  0.00     0.076 A 
ATOM     11  C   UNL     1     -13.498 -39.276 -18.342  1.00  0.00     0.041 A 
ATOM     12  C   UNL     1     -12.463 -40.205 -18.850  1.00  0.00     0.194 C 
ATOM     13  O   UNL     1     -11.913 -41.024 -18.063  1.00  0.00    -0.289 OA
ATOM     14  C   UNL     1     -13.969 -39.391 -17.022  1.00  0.00     0.059 A 
ATOM     15  C   UNL     1     -14.949 -38.518 -16.540  1.00  0.00     0.120 A 
ATOM     16  C   UNL     1     -15.465 -37.526 -17.373  1.00  0.00     0.093 A 
ATOM     17  C   UNL     1     -15.008 -37.394 -18.691  1.00  0.00     0.131 A 
ENDROOT
BRANCH   6  18
ATOM     18  O   UNL     1     -12.987 -38.498 -23.497  1.00  0.00    -0.507 OA
ATOM     19  H   UNL     1     -12.496 -37.853 -24.098  1.00  0.00     0.293 HD
ENDBRANCH   6  18
BRANCH  17  20
ATOM     20  O   UNL     1     -15.553 -36.400 -19.506  1.00  0.00    -0.507 OA
ATOM     21  H   UNL     1     -15.108 -35.497 -19.615  1.00  0.00     0.293 HD
ENDBRANCH  17  20
BRANCH  15  22
ATOM     22  O   UNL     1     -15.417 -38.629 -15.232  1.00  0.00    -0.508 OA
ATOM     23  H   UNL     1     -16.385 -38.852 -15.033  1.00  0.00     0.293 HD
ENDBRANCH  15  22
TORSDOF 3
ENDMDL
MODEL 6
REMARK VINA RESULT:    -6.682      1.443      6.210
REMARK INTER + INTRA:          -7.268
REMARK INTER:                  -7.268
REMARK INTRA:                   0.000
REMARK UNBOUND:                 0.000
REMARK SMILES Cc1cc(O)c2c(c1)C(=O)c1cc(O)cc(O)c1C2=O
REMARK SMILES IDX 1 1 2 2 8 3 7 4 6 5 4 6 3 7 19 8 20 9 18 10 11 11 9 12 10 13
REMARK SMILES IDX 12 14 13 15 15 16 16 17 5 18 17 20 14 22
REMARK H PARENT 5 19 17 21 14 23
REMARK Flexibility Score: inf
ROOT
ATOM      1  C   UNL     1     -11.915 -35.875 -24.507  1.00  0.00     0.044 C 
ATOM      2  C   UNL     1     -11.705 -36.697 -23.269  1.00  0.00    -0.047 A 
ATOM      3  C   UNL     1     -12.748 -36.871 -22.356  1.00  0.00     0.016 A 
ATOM      4  C   UNL     1     -12.556 -37.618 -21.180  1.00  0.00     0.038 A 
ATOM      5  C   UNL     1     -11.295 -38.202 -20.915  1.00  0.00     0.076 A 
ATOM      6  C   UNL     1     -10.215 -37.936 -21.799  1.00  0.00     0.127 A 
ATOM      7  C   UNL     1     -10.440 -37.212 -22.975  1.00  0.00     0.050 A 
ATOM      8  C   UNL     1     -11.170 -39.116 -19.746  1.00  0.00     0.201 C 
ATOM      9  O   UNL     1     -10.236 -39.961 -19.700  1.00  0.00    -0.288 OA
ATOM     10  C   UNL     1     -12.209 -39.116 -18.682  1.00  0.00     0.076 A 
ATOM     11  C   UNL     1     -13.441 -38.473 -18.927  1.00  0.00     0.041 A 
ATOM     12  C   UNL     1     -13.670 -37.782 -20.216  1.00  0.00     0.194 C 
ATOM     13  O   UNL     1     -14.811 -37.316 -20.486  1.00  0.00    -0.289 OA
ATOM     14  C   UNL     1     -14.448 -38.496 -17.945  1.00  0.00     0.059 A 
ATOM     15  C   UNL     1     -14.235 -39.144 -16.725  1.00  0.00     0.120 A 
ATOM     16  C   UNL     1     -13.015 -39.772 -16.477  1.00  0.00     0.093 A 
ATOM     17  C   UNL     1     -12.000 -39.763 -17.443  1.00  0.00     0.131 A 
ENDROOT
BRANCH   6  18
ATOM     18  O   UNL     1      -8.901 -38.333 -21.536  1.00  0.00    -0.507 OA
ATOM     19  H   UNL     1      -8.119 -37.697 -21.509  1.00  0.00     0.293 HD
ENDBRANCH   6  18
BRANCH  17  20
ATOM     20  O   UNL     1     -10.784 -40.389 -17.162  1.00  0.00    -0.507 OA
ATOM     21  H   UNL     1     -10.500 -41.239 -17.636  1.00  0.00     0.293 HD
ENDBRANCH  17  20
BRANCH  15  22
ATOM     22  O   UNL     1     -15.230 -39.168 -15.751  1.00  0.00    -0.508 OA
ATOM     23  H   UNL     1     -16.008 -39.813 -15.804  1.00  0.00     0.293 HD
ENDBRANCH  15  22
TORSDOF 3
ENDMDL
MODEL 7
REMARK VINA RESULT:    -6.588      1.823      1.970
REMARK INTER + INTRA:          -7.166
REMARK INTER:                  -7.166
REMARK INTRA:                   0.000
REMARK UNBOUND:                 0.000
REMARK SMILES Cc1cc(O)c2c(c1)C(=O)c1cc(O)cc(O)c1C2=O
REMARK SMILES IDX 1 1 2 2 8 3 7 4 6 5 4 6 3 7 19 8 20 9 18 10 11 11 9 12 10 13
REMARK SMILES IDX 12 14 13 15 15 16 16 17 5 18 17 20 14 22
REMARK H PARENT 5 19 17 21 14 23
REMARK Flexibility Score: inf
ROOT
ATOM      1  C   UNL     1      -9.574 -40.769 -15.734  1.00  0.00     0.044 C 
ATOM      2  C   UNL     1     -10.760 -40.550 -16.626  1.00  0.00    -0.047 A 
ATOM      3  C   UNL     1     -10.590 -40.000 -17.900  1.00  0.00     0.016 A 
ATOM      4  C   UNL     1     -11.696 -39.766 -18.735  1.00  0.00     0.038 A 
ATOM      5  C   UNL     1     -12.998 -40.090 -18.287  1.00  0.00     0.076 A 
ATOM      6  C   UNL     1     -13.170 -40.554 -16.955  1.00  0.00     0.127 A 
ATOM      7  C   UNL     1     -12.051 -40.803 -16.154  1.00  0.00     0.050 A 
ATOM      8  C   UNL     1     -14.127 -39.979 -19.252  1.00  0.00     0.201 C 
ATOM      9  O   UNL     1     -15.192 -40.624 -19.056  1.00  0.00    -0.288 OA
ATOM     10  C   UNL     1     -13.964 -39.200 -20.507  1.00  0.00     0.076 A 
ATOM     11  C   UNL     1     -12.667 -38.821 -20.916  1.00  0.00     0.041 A 
ATOM     12  C   UNL     1     -11.498 -39.170 -20.078  1.00  0.00     0.194 C 
ATOM     13  O   UNL     1     -10.331 -38.944 -20.501  1.00  0.00    -0.289 OA
ATOM     14  C   UNL     1     -12.492 -38.116 -22.120  1.00  0.00     0.059 A 
ATOM     15  C   UNL     1     -13.595 -37.780 -22.912  1.00  0.00     0.120 A 
ATOM     16  C   UNL     1     -14.878 -38.146 -22.507  1.00  0.00     0.093 A 
ATOM     17  C   UNL     1     -15.073 -38.851 -21.312  1.00  0.00     0.131 A 
ENDROOT
BRANCH   6  18
ATOM     18  O   UNL     1     -14.426 -40.745 -16.372  1.00  0.00    -0.507 OA
ATOM     19  H   UNL     1     -14.568 -40.892 -15.384  1.00  0.00     0.293 HD
ENDBRANCH   6  18
BRANCH  17  20
ATOM     20  O   UNL     1     -16.370 -39.193 -20.924  1.00  0.00    -0.507 OA
ATOM     21  H   UNL     1     -17.061 -39.507 -21.595  1.00  0.00     0.293 HD
ENDBRANCH  17  20
BRANCH  15  22
ATOM     22  O   UNL     1     -13.425 -37.082 -24.105  1.00  0.00    -0.508 OA
ATOM     23  H   UNL     1     -14.063 -36.347 -24.386  1.00  0.00     0.293 HD
ENDBRANCH  15  22
TORSDOF 3
ENDMDL
MODEL 8
REMARK VINA RESULT:    -6.569      2.106      3.600
REMARK INTER + INTRA:          -7.145
REMARK INTER:                  -7.145
REMARK INTRA:                   0.000
REMARK UNBOUND:                 0.000
REMARK SMILES Cc1cc(O)c2c(c1)C(=O)c1cc(O)cc(O)c1C2=O
REMARK SMILES IDX 1 1 2 2 8 3 7 4 6 5 4 6 3 7 19 8 20 9 18 10 11 11 9 12 10 13
REMARK SMILES IDX 12 14 13 15 15 16 16 17 5 18 17 20 14 22
REMARK H PARENT 5 19 17 21 14 23
REMARK Flexibility Score: inf
ROOT
ATOM      1  C   UNL     1     -15.718 -38.633 -16.162  1.00  0.00     0.044 C 
ATOM      2  C   UNL     1     -15.027 -38.375 -17.468  1.00  0.00    -0.047 A 
ATOM      3  C   UNL     1     -13.836 -39.038 -17.777  1.00  0.00     0.016 A 
ATOM      4  C   UNL     1     -13.166 -38.785 -18.986  1.00  0.00     0.038 A 
ATOM      5  C   UNL     1     -13.700 -37.853 -19.906  1.00  0.00     0.076 A 
ATOM      6  C   UNL     1     -14.856 -37.112 -19.540  1.00  0.00     0.127 A 
ATOM      7  C   UNL     1     -15.517 -37.401 -18.342  1.00  0.00     0.050 A 
ATOM      8  C   UNL     1     -13.054 -37.726 -21.242  1.00  0.00     0.201 C 
ATOM      9  O   UNL     1     -13.699 -37.250 -22.214  1.00  0.00    -0.288 OA
ATOM     10  C   UNL     1     -11.687 -38.266 -21.466  1.00  0.00     0.076 A 
ATOM     11  C   UNL     1     -11.132 -39.145 -20.512  1.00  0.00     0.041 A 
ATOM     12  C   UNL     1     -11.896 -39.488 -19.291  1.00  0.00     0.194 C 
ATOM     13  O   UNL     1     -11.457 -40.368 -18.501  1.00  0.00    -0.289 OA
ATOM     14  C   UNL     1      -9.855 -39.694 -20.727  1.00  0.00     0.059 A 
ATOM     15  C   UNL     1      -9.128 -39.369 -21.876  1.00  0.00     0.120 A 
ATOM     16  C   UNL     1      -9.670 -38.495 -22.817  1.00  0.00     0.093 A 
ATOM     17  C   UNL     1     -10.942 -37.939 -22.622  1.00  0.00     0.131 A 
ENDROOT
BRANCH   6  18
ATOM     18  O   UNL     1     -15.360 -36.059 -20.308  1.00  0.00    -0.507 OA
ATOM     19  H   UNL     1     -14.946 -35.751 -21.176  1.00  0.00     0.293 HD
ENDBRANCH   6  18
BRANCH  17  20
ATOM     20  O   UNL     1     -11.454 -37.056 -23.574  1.00  0.00    -0.507 OA
ATOM     21  H   UNL     1     -12.239 -36.449 -23.370  1.00  0.00     0.293 HD
ENDBRANCH  17  20
BRANCH  15  22
ATOM     22  O   UNL     1      -7.862 -39.911 -22.092  1.00  0.00    -0.508 OA
ATOM     23  H   UNL     1      -7.026 -39.344 -22.033  1.00  0.00     0.293 HD
ENDBRANCH  15  22
TORSDOF 3
ENDMDL
MODEL 9
REMARK VINA RESULT:    -6.528      1.605      3.533
REMARK INTER + INTRA:          -7.101
REMARK INTER:                  -7.101
REMARK INTRA:                   0.000
REMARK UNBOUND:                 0.000
REMARK SMILES Cc1cc(O)c2c(c1)C(=O)c1cc(O)cc(O)c1C2=O
REMARK SMILES IDX 1 1 2 2 8 3 7 4 6 5 4 6 3 7 19 8 20 9 18 10 11 11 9 12 10 13
REMARK SMILES IDX 12 14 13 15 15 16 16 17 5 18 17 20 14 22
REMARK H PARENT 5 19 17 21 14 23
REMARK Flexibility Score: inf
ROOT
ATOM      1  C   UNL     1     -16.266 -39.218 -16.355  1.00  0.00     0.044 C 
ATOM      2  C   UNL     1     -15.000 -39.351 -17.149  1.00  0.00    -0.047 A 
ATOM      3  C   UNL     1     -14.758 -38.505 -18.234  1.00  0.00     0.016 A 
ATOM      4  C   UNL     1     -13.588 -38.637 -19.002  1.00  0.00     0.038 A 
ATOM      5  C   UNL     1     -12.640 -39.636 -18.675  1.00  0.00     0.076 A 
ATOM      6  C   UNL     1     -12.942 -40.555 -17.634  1.00  0.00     0.127 A 
ATOM      7  C   UNL     1     -14.101 -40.384 -16.869  1.00  0.00     0.050 A 
ATOM      8  C   UNL     1     -11.342 -39.647 -19.405  1.00  0.00     0.201 C 
ATOM      9  O   UNL     1     -10.336 -40.212 -18.900  1.00  0.00    -0.288 OA
ATOM     10  C   UNL     1     -11.195 -38.893 -20.679  1.00  0.00     0.076 A 
ATOM     11  C   UNL     1     -12.178 -37.945 -21.033  1.00  0.00     0.041 A 
ATOM     12  C   UNL     1     -13.353 -37.738 -20.157  1.00  0.00     0.194 C 
ATOM     13  O   UNL     1     -14.167 -36.806 -20.406  1.00  0.00    -0.289 OA
ATOM     14  C   UNL     1     -12.034 -37.198 -22.216  1.00  0.00     0.059 A 
ATOM     15  C   UNL     1     -10.927 -37.393 -23.048  1.00  0.00     0.120 A 
ATOM     16  C   UNL     1      -9.958 -38.335 -22.704  1.00  0.00     0.093 A 
ATOM     17  C   UNL     1     -10.082 -39.088 -21.529  1.00  0.00     0.131 A 
ENDROOT
BRANCH   6  18
ATOM     18  O   UNL     1     -12.148 -41.668 -17.348  1.00  0.00    -0.507 OA
ATOM     19  H   UNL     1     -11.261 -41.852 -17.793  1.00  0.00     0.293 HD
ENDBRANCH   6  18
BRANCH  17  20
ATOM     20  O   UNL     1      -9.104 -40.034 -21.218  1.00  0.00    -0.507 OA
ATOM     21  H   UNL     1      -8.272 -39.788 -20.695  1.00  0.00     0.293 HD
ENDBRANCH  17  20
BRANCH  15  22
ATOM     22  O   UNL     1     -10.782 -36.654 -24.220  1.00  0.00    -0.508 OA
ATOM     23  H   UNL     1     -10.450 -37.080 -25.077  1.00  0.00     0.293 HD
ENDBRANCH  15  22
TORSDOF 3
ENDMDL
