MODEL 1
REMARK VINA RESULT:    -5.121      0.000      0.000
REMARK INTER + INTRA:          -5.815
REMARK INTER:                  -5.570
REMARK INTRA:                  -0.245
REMARK UNBOUND:                -0.245
REMARK SMILES O=C([O-])c1ccccc1O
REMARK SMILES IDX 4 1 9 2 5 3 8 4 6 5 7 6 2 7 1 8 3 9 10 10
REMARK H PARENT 10 11
REMARK Flexibility Score: inf
ROOT
ATOM      1  C   UNL     1      58.035  58.096  69.945  1.00  0.00     0.039 A 
ATOM      2  C   UNL     1      57.531  57.761  68.665  1.00  0.00     0.124 A 
ATOM      3  C   UNL     1      57.346  57.640  71.086  1.00  0.00     0.014 A 
ATOM      4  C   UNL     1      56.364  56.990  68.554  1.00  0.00     0.047 A 
ATOM      5  C   UNL     1      56.185  56.874  70.960  1.00  0.00     0.001 A 
ATOM      6  C   UNL     1      55.695  56.549  69.696  1.00  0.00     0.004 A 
ENDROOT
BRANCH   1   7
ATOM      7  C   UNL     1      59.266  58.909  70.118  1.00  0.00     0.075 C 
ATOM      8  O   UNL     1      60.234  58.483  70.801  1.00  0.00    -0.545 OA
ATOM      9  O   UNL     1      59.369  60.160  69.523  1.00  0.00    -0.545 OA
ENDBRANCH   1   7
BRANCH   2  10
ATOM     10  O   UNL     1      58.181  58.190  67.507  1.00  0.00    -0.507 OA
ATOM     11  H   UNL     1      58.627  59.098  67.452  1.00  0.00     0.293 HD
ENDBRANCH   2  10
TORSDOF 2
ENDMDL
MODEL 2
REMARK VINA RESULT:    -5.021      1.561      2.630
REMARK INTER + INTRA:          -5.706
REMARK INTER:                  -5.508
REMARK INTRA:                  -0.197
REMARK UNBOUND:                -0.245
REMARK SMILES O=C([O-])c1ccccc1O
REMARK SMILES IDX 4 1 9 2 5 3 8 4 6 5 7 6 2 7 1 8 3 9 10 10
REMARK H PARENT 10 11
REMARK Flexibility Score: inf
ROOT
ATOM      1  C   UNL     1      58.821  58.166  68.869  1.00  0.00     0.039 A 
ATOM      2  C   UNL     1      59.673  57.418  69.716  1.00  0.00     0.124 A 
ATOM      3  C   UNL     1      57.487  57.744  68.703  1.00  0.00     0.014 A 
ATOM      4  C   UNL     1      59.182  56.277  70.370  1.00  0.00     0.047 A 
ATOM      5  C   UNL     1      57.012  56.606  69.360  1.00  0.00     0.001 A 
ATOM      6  C   UNL     1      57.858  55.875  70.193  1.00  0.00     0.004 A 
ENDROOT
BRANCH   1   7
ATOM      7  C   UNL     1      59.291  59.380  68.154  1.00  0.00     0.075 C 
ATOM      8  O   UNL     1      59.378  59.401  66.898  1.00  0.00    -0.545 OA
ATOM      9  O   UNL     1      59.644  60.520  68.866  1.00  0.00    -0.545 OA
ENDBRANCH   1   7
BRANCH   2  10
ATOM     10  O   UNL     1      61.001  57.799  69.910  1.00  0.00    -0.507 OA
ATOM     11  H   UNL     1      61.243  58.663  70.381  1.00  0.00     0.293 HD
ENDBRANCH   2  10
TORSDOF 2
ENDMDL
MODEL 3
REMARK VINA RESULT:    -4.875      1.330      2.402
REMARK INTER + INTRA:          -5.547
REMARK INTER:                  -5.299
REMARK INTRA:                  -0.248
REMARK UNBOUND:                -0.245
REMARK SMILES O=C([O-])c1ccccc1O
REMARK SMILES IDX 4 1 9 2 5 3 8 4 6 5 7 6 2 7 1 8 3 9 10 10
REMARK H PARENT 10 11
REMARK Flexibility Score: inf
ROOT
ATOM      1  C   UNL     1      57.996  57.897  70.157  1.00  0.00     0.039 A 
ATOM      2  C   UNL     1      56.931  57.808  71.086  1.00  0.00     0.124 A 
ATOM      3  C   UNL     1      57.820  57.353  68.870  1.00  0.00     0.014 A 
ATOM      4  C   UNL     1      55.730  57.184  70.715  1.00  0.00     0.047 A 
ATOM      5  C   UNL     1      56.618  56.735  68.514  1.00  0.00     0.001 A 
ATOM      6  C   UNL     1      55.575  56.651  69.435  1.00  0.00     0.004 A 
ENDROOT
BRANCH   1   7
ATOM      7  C   UNL     1      59.286  58.546  70.500  1.00  0.00     0.075 C 
ATOM      8  O   UNL     1      59.322  59.717  70.960  1.00  0.00    -0.545 OA
ATOM      9  O   UNL     1      60.484  57.864  70.317  1.00  0.00    -0.545 OA
ENDBRANCH   1   7
BRANCH   2  10
ATOM     10  O   UNL     1      57.061  58.332  72.373  1.00  0.00    -0.507 OA
ATOM     11  H   UNL     1      57.110  59.331  72.538  1.00  0.00     0.293 HD
ENDBRANCH   2  10
TORSDOF 2
ENDMDL
MODEL 4
REMARK VINA RESULT:    -4.794      2.080      3.615
REMARK INTER + INTRA:          -5.460
REMARK INTER:                  -5.213
REMARK INTRA:                  -0.246
REMARK UNBOUND:                -0.245
REMARK SMILES O=C([O-])c1ccccc1O
REMARK SMILES IDX 4 1 9 2 5 3 8 4 6 5 7 6 2 7 1 8 3 9 10 10
REMARK H PARENT 10 11
REMARK Flexibility Score: inf
ROOT
ATOM      1  C   UNL     1      57.797  56.985  69.319  1.00  0.00     0.039 A 
ATOM      2  C   UNL     1      58.511  57.939  68.554  1.00  0.00     0.124 A 
ATOM      3  C   UNL     1      58.472  56.297  70.346  1.00  0.00     0.014 A 
ATOM      4  C   UNL     1      59.866  58.182  68.827  1.00  0.00     0.047 A 
ATOM      5  C   UNL     1      59.821  56.549  70.607  1.00  0.00     0.001 A 
ATOM      6  C   UNL     1      60.516  57.490  69.849  1.00  0.00     0.004 A 
ENDROOT
BRANCH   1   7
ATOM      7  C   UNL     1      56.363  56.691  69.070  1.00  0.00     0.075 C 
ATOM      8  O   UNL     1      55.959  56.351  67.927  1.00  0.00    -0.545 OA
ATOM      9  O   UNL     1      55.439  56.787  70.103  1.00  0.00    -0.545 OA
ENDBRANCH   1   7
BRANCH   2  10
ATOM     10  O   UNL     1      57.883  58.645  67.527  1.00  0.00    -0.507 OA
ATOM     11  H   UNL     1      58.378  58.911  66.684  1.00  0.00     0.293 HD
ENDBRANCH   2  10
TORSDOF 2
ENDMDL
MODEL 5
REMARK VINA RESULT:    -4.661      5.071      7.138
REMARK INTER + INTRA:          -5.314
REMARK INTER:                  -5.070
REMARK INTRA:                  -0.244
REMARK UNBOUND:                -0.245
REMARK SMILES O=C([O-])c1ccccc1O
REMARK SMILES IDX 4 1 9 2 5 3 8 4 6 5 7 6 2 7 1 8 3 9 10 10
REMARK H PARENT 10 11
REMARK Flexibility Score: inf
ROOT
ATOM      1  C   UNL     1      60.528  61.271  73.591  1.00  0.00     0.039 A 
ATOM      2  C   UNL     1      60.716  62.641  73.893  1.00  0.00     0.124 A 
ATOM      3  C   UNL     1      61.537  60.354  73.945  1.00  0.00     0.014 A 
ATOM      4  C   UNL     1      61.892  63.061  74.533  1.00  0.00     0.047 A 
ATOM      5  C   UNL     1      62.704  60.786  74.581  1.00  0.00     0.001 A 
ATOM      6  C   UNL     1      62.880  62.138  74.875  1.00  0.00     0.004 A 
ENDROOT
BRANCH   1   7
ATOM      7  C   UNL     1      59.302  60.775  72.916  1.00  0.00     0.075 C 
ATOM      8  O   UNL     1      58.160  60.995  73.399  1.00  0.00    -0.545 OA
ATOM      9  O   UNL     1      59.397  60.055  71.731  1.00  0.00    -0.545 OA
ENDBRANCH   1   7
BRANCH   2  10
ATOM     10  O   UNL     1      59.743  63.585  73.561  1.00  0.00    -0.507 OA
ATOM     11  H   UNL     1      59.729  64.506  73.983  1.00  0.00     0.293 HD
ENDBRANCH   2  10
TORSDOF 2
ENDMDL
MODEL 6
REMARK VINA RESULT:    -4.621      6.380      7.923
REMARK INTER + INTRA:          -5.271
REMARK INTER:                  -5.026
REMARK INTRA:                  -0.244
REMARK UNBOUND:                -0.245
REMARK SMILES O=C([O-])c1ccccc1O
REMARK SMILES IDX 4 1 9 2 5 3 8 4 6 5 7 6 2 7 1 8 3 9 10 10
REMARK H PARENT 10 11
REMARK Flexibility Score: inf
ROOT
ATOM      1  C   UNL     1      60.715  62.432  74.135  1.00  0.00     0.039 A 
ATOM      2  C   UNL     1      61.882  63.145  74.501  1.00  0.00     0.124 A 
ATOM      3  C   UNL     1      60.753  61.024  74.134  1.00  0.00     0.014 A 
ATOM      4  C   UNL     1      63.047  62.446  74.852  1.00  0.00     0.047 A 
ATOM      5  C   UNL     1      61.920  60.341  74.485  1.00  0.00     0.001 A 
ATOM      6  C   UNL     1      63.065  61.051  74.844  1.00  0.00     0.004 A 
ENDROOT
BRANCH   1   7
ATOM      7  C   UNL     1      59.457  63.124  73.756  1.00  0.00     0.075 C 
ATOM      8  O   UNL     1      59.072  64.154  74.369  1.00  0.00    -0.545 OA
ATOM      9  O   UNL     1      58.680  62.641  72.709  1.00  0.00    -0.545 OA
ENDBRANCH   1   7
BRANCH   2  10
ATOM     10  O   UNL     1      61.891  64.540  74.517  1.00  0.00    -0.507 OA
ATOM     11  H   UNL     1      62.719  65.070  74.274  1.00  0.00     0.293 HD
ENDBRANCH   2  10
TORSDOF 2
ENDMDL
MODEL 7
REMARK VINA RESULT:    -4.545      9.679     10.510
REMARK INTER + INTRA:          -5.188
REMARK INTER:                  -4.962
REMARK INTRA:                  -0.226
REMARK UNBOUND:                -0.245
REMARK SMILES O=C([O-])c1ccccc1O
REMARK SMILES IDX 4 1 9 2 5 3 8 4 6 5 7 6 2 7 1 8 3 9 10 10
REMARK H PARENT 10 11
REMARK Flexibility Score: inf
ROOT
ATOM      1  C   UNL     1      62.961  66.788  69.453  1.00  0.00     0.039 A 
ATOM      2  C   UNL     1      62.822  67.032  70.841  1.00  0.00     0.124 A 
ATOM      3  C   UNL     1      61.800  66.710  68.658  1.00  0.00     0.014 A 
ATOM      4  C   UNL     1      61.543  67.189  71.398  1.00  0.00     0.047 A 
ATOM      5  C   UNL     1      60.534  66.867  69.227  1.00  0.00     0.001 A 
ATOM      6  C   UNL     1      60.406  67.107  70.594  1.00  0.00     0.004 A 
ENDROOT
BRANCH   1   7
ATOM      7  C   UNL     1      64.290  66.615  68.814  1.00  0.00     0.075 C 
ATOM      8  O   UNL     1      64.595  65.542  68.230  1.00  0.00    -0.545 OA
ATOM      9  O   UNL     1      65.225  67.642  68.852  1.00  0.00    -0.545 OA
ENDBRANCH   1   7
BRANCH   2  10
ATOM     10  O   UNL     1      63.943  67.118  71.666  1.00  0.00    -0.507 OA
ATOM     11  H   UNL     1      63.861  67.132  72.676  1.00  0.00     0.293 HD
ENDBRANCH   2  10
TORSDOF 2
ENDMDL
MODEL 8
REMARK VINA RESULT:    -4.541      7.041      8.378
REMARK INTER + INTRA:          -5.184
REMARK INTER:                  -4.949
REMARK INTRA:                  -0.234
REMARK UNBOUND:                -0.245
REMARK SMILES O=C([O-])c1ccccc1O
REMARK SMILES IDX 4 1 9 2 5 3 8 4 6 5 7 6 2 7 1 8 3 9 10 10
REMARK H PARENT 10 11
REMARK Flexibility Score: inf
ROOT
ATOM      1  C   UNL     1      61.568  63.153  74.488  1.00  0.00     0.039 A 
ATOM      2  C   UNL     1      62.821  62.597  74.839  1.00  0.00     0.124 A 
ATOM      3  C   UNL     1      60.527  62.287  74.098  1.00  0.00     0.014 A 
ATOM      4  C   UNL     1      63.007  61.206  74.794  1.00  0.00     0.047 A 
ATOM      5  C   UNL     1      60.726  60.905  74.057  1.00  0.00     0.001 A 
ATOM      6  C   UNL     1      61.963  60.366  74.405  1.00  0.00     0.004 A 
ENDROOT
BRANCH   1   7
ATOM      7  C   UNL     1      61.320  64.616  74.519  1.00  0.00     0.075 C 
ATOM      8  O   UNL     1      61.874  65.350  75.379  1.00  0.00    -0.545 OA
ATOM      9  O   UNL     1      60.467  65.203  73.592  1.00  0.00    -0.545 OA
ENDBRANCH   1   7
BRANCH   2  10
ATOM     10  O   UNL     1      63.881  63.415  75.231  1.00  0.00    -0.507 OA
ATOM     11  H   UNL     1      64.769  63.407  74.744  1.00  0.00     0.293 HD
ENDBRANCH   2  10
TORSDOF 2
ENDMDL
MODEL 9
REMARK VINA RESULT:    -4.522      6.113      7.529
REMARK INTER + INTRA:          -5.163
REMARK INTER:                  -4.914
REMARK INTRA:                  -0.249
REMARK UNBOUND:                -0.245
REMARK SMILES O=C([O-])c1ccccc1O
REMARK SMILES IDX 4 1 9 2 5 3 8 4 6 5 7 6 2 7 1 8 3 9 10 10
REMARK H PARENT 10 11
REMARK Flexibility Score: inf
ROOT
ATOM      1  C   UNL     1      60.751  62.640  74.094  1.00  0.00     0.039 A 
ATOM      2  C   UNL     1      60.600  61.260  73.815  1.00  0.00     0.124 A 
ATOM      3  C   UNL     1      61.969  63.093  74.638  1.00  0.00     0.014 A 
ATOM      4  C   UNL     1      61.655  60.373  74.083  1.00  0.00     0.047 A 
ATOM      5  C   UNL     1      63.010  62.199  74.900  1.00  0.00     0.001 A 
ATOM      6  C   UNL     1      62.853  60.842  74.622  1.00  0.00     0.004 A 
ENDROOT
BRANCH   1   7
ATOM      7  C   UNL     1      59.666  63.619  73.830  1.00  0.00     0.075 C 
ATOM      8  O   UNL     1      59.922  64.762  73.368  1.00  0.00    -0.545 OA
ATOM      9  O   UNL     1      58.342  63.285  74.089  1.00  0.00    -0.545 OA
ENDBRANCH   1   7
BRANCH   2  10
ATOM     10  O   UNL     1      59.412  60.766  73.276  1.00  0.00    -0.507 OA
ATOM     11  H   UNL     1      59.401  60.221  72.422  1.00  0.00     0.293 HD
ENDBRANCH   2  10
TORSDOF 2
ENDMDL
