MODEL 1
REMARK VINA RESULT:    -5.022      0.000      0.000
REMARK INTER + INTRA:          -6.946
REMARK INTER:                  -7.077
REMARK INTRA:                   0.131
REMARK UNBOUND:                 0.131
REMARK SMILES CC1=CCC(=C(C)C)C(=O)CC(C)=CCC1
REMARK SMILES IDX 12 1 14 2 13 3 15 4 16 5 2 6 1 7 3 8 11 10 9 11 10 12 5 13
REMARK SMILES IDX 6 14 7 15 8 16 4 17
REMARK H PARENT
REMARK Flexibility Score: 60.00
ROOT
ATOM      1  C   UNL     1     118.657 178.303 123.877  1.00  0.00    -0.070 C 
ATOM      2  C   UNL     1     117.397 177.796 123.864  1.00  0.00    -0.027 C 
ATOM      3  C   UNL     1     119.331 178.513 122.542  1.00  0.00     0.039 C 
ENDROOT
BRANCH   2   4
ATOM      4  C   UNL     1     116.503 177.602 125.065  1.00  0.00     0.032 C 
BRANCH   4   5
ATOM      5  C   UNL     1     116.763 176.285 125.808  1.00  0.00     0.034 C 
BRANCH   5   6
ATOM      6  C   UNL     1     116.804 176.528 127.305  1.00  0.00    -0.077 C 
ATOM      7  C   UNL     1     115.553 177.020 127.985  1.00  0.00     0.039 C 
ATOM      8  C   UNL     1     117.928 176.399 128.050  1.00  0.00    -0.023 CG0
ATOM      9  G   UNL     1     119.266 175.905 127.551  1.00  0.00     0.000 G0
ENDBRANCH   5   6
ENDBRANCH   4   5
ENDBRANCH   2   4
BRANCH   1  10
ATOM     10  C   UNL     1     119.457 178.596 125.142  1.00  0.00     0.111 C 
BRANCH  10  11
ATOM     11  C   UNL     1     120.222 177.409 125.672  1.00  0.00     0.163 C 
ATOM     12  O   UNL     1     120.853 176.702 124.838  1.00  0.00    -0.294 OA
BRANCH  11  13
ATOM     13  C   UNL     1     120.209 177.014 127.119  1.00  0.00    -0.002 C 
ATOM     14  C   UNL     1     120.979 177.680 128.035  1.00  0.00    -0.069 C 
ATOM     15  C   UNL     1     120.910 177.365 129.513  1.00  0.00     0.039 C 
ATOM     16  C   UNL     1     121.979 178.736 127.615  1.00  0.00     0.039 C 
BRANCH  13  17
ATOM     17  C   UNL     1     119.275 175.888 127.564  1.00  0.00     0.066 CG0
ATOM     18  G   UNL     1     117.936 176.409 128.029  1.00  0.00     0.000 G0
ENDBRANCH  13  17
ENDBRANCH  11  13
ENDBRANCH  10  11
ENDBRANCH   1  10
TORSDOF 0
ENDMDL
MODEL 2
REMARK VINA RESULT:    -4.869      1.927      3.649
REMARK INTER + INTRA:          -6.731
REMARK INTER:                  -6.873
REMARK INTRA:                   0.143
REMARK UNBOUND:                 0.131
REMARK SMILES CC1=CCC(=C(C)C)C(=O)CC(C)=CCC1
REMARK SMILES IDX 12 1 14 2 13 3 15 4 16 5 2 6 1 7 3 8 11 10 9 11 10 12 5 13
REMARK SMILES IDX 6 14 7 15 8 16 4 17
REMARK H PARENT
REMARK Flexibility Score: 60.00
ROOT
ATOM      1  C   UNL     1     120.305 178.055 126.510  1.00  0.00    -0.070 C 
ATOM      2  C   UNL     1     119.475 179.059 126.128  1.00  0.00    -0.027 C 
ATOM      3  C   UNL     1     121.550 178.440 127.274  1.00  0.00     0.039 C 
ENDROOT
BRANCH   2   4
ATOM      4  C   UNL     1     118.136 178.898 125.450  1.00  0.00     0.032 C 
BRANCH   4   5
ATOM      5  C   UNL     1     117.028 178.425 126.401  1.00  0.00     0.034 C 
BRANCH   5   6
ATOM      6  C   UNL     1     116.230 177.306 125.759  1.00  0.00    -0.077 C 
ATOM      7  C   UNL     1     115.402 177.625 124.541  1.00  0.00     0.039 C 
ATOM      8  C   UNL     1     116.163 176.053 126.269  1.00  0.00    -0.023 CG0
ATOM      9  G   UNL     1     116.930 175.544 127.466  1.00  0.00     0.000 G0
ENDBRANCH   5   6
ENDBRANCH   4   5
ENDBRANCH   2   4
BRANCH   1  10
ATOM     10  C   UNL     1     120.105 176.586 126.153  1.00  0.00     0.111 C 
BRANCH  10  11
ATOM     11  C   UNL     1     119.515 175.759 127.269  1.00  0.00     0.163 C 
ATOM     12  O   UNL     1     120.133 175.738 128.369  1.00  0.00    -0.294 OA
BRANCH  11  13
ATOM     13  C   UNL     1     118.277 174.928 127.098  1.00  0.00    -0.002 C 
ATOM     14  C   UNL     1     118.357 173.631 126.667  1.00  0.00    -0.069 C 
ATOM     15  C   UNL     1     117.135 172.744 126.580  1.00  0.00     0.039 C 
ATOM     16  C   UNL     1     119.665 173.024 126.207  1.00  0.00     0.039 C 
BRANCH  13  17
ATOM     17  C   UNL     1     116.926 175.540 127.467  1.00  0.00     0.066 CG0
ATOM     18  G   UNL     1     116.193 176.073 126.259  1.00  0.00     0.000 G0
ENDBRANCH  13  17
ENDBRANCH  11  13
ENDBRANCH  10  11
ENDBRANCH   1  10
TORSDOF 0
ENDMDL
MODEL 3
REMARK VINA RESULT:    -4.707      2.165      3.655
REMARK INTER + INTRA:          -6.503
REMARK INTER:                  -6.719
REMARK INTRA:                   0.216
REMARK UNBOUND:                 0.131
REMARK SMILES CC1=CCC(=C(C)C)C(=O)CC(C)=CCC1
REMARK SMILES IDX 12 1 14 2 13 3 15 4 16 5 2 6 1 7 3 8 11 10 9 11 10 12 5 13
REMARK SMILES IDX 6 14 7 15 8 16 4 17
REMARK H PARENT
REMARK Flexibility Score: 60.00
ROOT
ATOM      1  C   UNL     1     119.354 175.230 126.553  1.00  0.00    -0.070 C 
ATOM      2  C   UNL     1     118.022 175.189 126.295  1.00  0.00    -0.027 C 
ATOM      3  C   UNL     1     120.193 174.086 126.035  1.00  0.00     0.039 C 
ENDROOT
BRANCH   2   4
ATOM      4  C   UNL     1     117.017 176.266 126.626  1.00  0.00     0.032 C 
BRANCH   4   5
ATOM      5  C   UNL     1     116.695 177.182 125.437  1.00  0.00     0.034 C 
BRANCH   5   6
ATOM      6  C   UNL     1     117.407 178.512 125.593  1.00  0.00    -0.077 C 
ATOM      7  C   UNL     1     116.696 179.623 126.321  1.00  0.00     0.039 C 
ATOM      8  C   UNL     1     118.617 178.778 125.045  1.00  0.00    -0.023 CG0
ATOM      9  G   UNL     1     119.483 177.791 124.298  1.00  0.00     0.000 G0
ENDBRANCH   5   6
ENDBRANCH   4   5
ENDBRANCH   2   4
BRANCH   1  10
ATOM     10  C   UNL     1     120.039 176.303 127.392  1.00  0.00     0.111 C 
BRANCH  10  11
ATOM     11  C   UNL     1     120.670 177.407 126.580  1.00  0.00     0.163 C 
ATOM     12  O   UNL     1     121.113 178.411 127.204  1.00  0.00    -0.294 OA
BRANCH  11  13
ATOM     13  C   UNL     1     120.732 177.379 125.081  1.00  0.00    -0.002 C 
ATOM     14  C   UNL     1     121.858 176.942 124.435  1.00  0.00    -0.069 C 
ATOM     15  C   UNL     1     121.911 176.813 122.928  1.00  0.00     0.039 C 
ATOM     16  C   UNL     1     123.129 176.611 125.186  1.00  0.00     0.039 C 
BRANCH  13  17
ATOM     17  C   UNL     1     119.494 177.795 124.287  1.00  0.00     0.066 CG0
ATOM     18  G   UNL     1     118.633 178.776 125.047  1.00  0.00     0.000 G0
ENDBRANCH  13  17
ENDBRANCH  11  13
ENDBRANCH  10  11
ENDBRANCH   1  10
TORSDOF 0
ENDMDL
MODEL 4
REMARK VINA RESULT:    -4.693      2.263      4.766
REMARK INTER + INTRA:          -6.483
REMARK INTER:                  -6.617
REMARK INTRA:                   0.134
REMARK UNBOUND:                 0.131
REMARK SMILES CC1=CCC(=C(C)C)C(=O)CC(C)=CCC1
REMARK SMILES IDX 12 1 14 2 13 3 15 4 16 5 2 6 1 7 3 8 11 10 9 11 10 12 5 13
REMARK SMILES IDX 6 14 7 15 8 16 4 17
REMARK H PARENT
REMARK Flexibility Score: 60.00
ROOT
ATOM      1  C   UNL     1     119.802 174.434 126.557  1.00  0.00    -0.070 C 
ATOM      2  C   UNL     1     120.724 174.555 125.568  1.00  0.00    -0.027 C 
ATOM      3  C   UNL     1     120.136 173.512 127.705  1.00  0.00     0.039 C 
ENDROOT
BRANCH   2   4
ATOM      4  C   UNL     1     120.645 175.491 124.386  1.00  0.00     0.032 C 
BRANCH   4   5
ATOM      5  C   UNL     1     121.020 176.938 124.732  1.00  0.00     0.034 C 
BRANCH   5   6
ATOM      6  C   UNL     1     119.979 177.894 124.181  1.00  0.00    -0.077 C 
ATOM      7  C   UNL     1     119.905 178.089 122.688  1.00  0.00     0.039 C 
ATOM      8  C   UNL     1     119.164 178.641 124.964  1.00  0.00    -0.023 CG0
ATOM      9  G   UNL     1     119.082 178.572 126.471  1.00  0.00     0.000 G0
ENDBRANCH   5   6
ENDBRANCH   4   5
ENDBRANCH   2   4
BRANCH   1  10
ATOM     10  C   UNL     1     118.430 175.100 126.544  1.00  0.00     0.111 C 
BRANCH  10  11
ATOM     11  C   UNL     1     118.320 176.295 127.459  1.00  0.00     0.163 C 
ATOM     12  O   UNL     1     118.500 176.103 128.694  1.00  0.00    -0.294 OA
BRANCH  11  13
ATOM     13  C   UNL     1     117.953 177.664 126.967  1.00  0.00    -0.002 C 
ATOM     14  C   UNL     1     116.654 178.095 127.001  1.00  0.00    -0.069 C 
ATOM     15  C   UNL     1     116.272 179.504 126.602  1.00  0.00     0.039 C 
ATOM     16  C   UNL     1     115.519 177.174 127.392  1.00  0.00     0.039 C 
BRANCH  13  17
ATOM     17  C   UNL     1     119.065 178.591 126.478  1.00  0.00     0.066 CG0
ATOM     18  G   UNL     1     119.156 178.627 124.971  1.00  0.00     0.000 G0
ENDBRANCH  13  17
ENDBRANCH  11  13
ENDBRANCH  10  11
ENDBRANCH   1  10
TORSDOF 0
ENDMDL
MODEL 5
REMARK VINA RESULT:    -4.650      2.230      4.806
REMARK INTER + INTRA:          -6.423
REMARK INTER:                  -6.820
REMARK INTRA:                   0.397
REMARK UNBOUND:                 0.131
REMARK SMILES CC1=CCC(=C(C)C)C(=O)CC(C)=CCC1
REMARK SMILES IDX 12 1 14 2 13 3 15 4 16 5 2 6 1 7 3 8 11 10 9 11 10 12 5 13
REMARK SMILES IDX 6 14 7 15 8 16 4 17
REMARK H PARENT
REMARK Flexibility Score: 60.00
ROOT
ATOM      1  C   UNL     1     119.912 178.178 127.152  1.00  0.00    -0.070 C 
ATOM      2  C   UNL     1     121.219 177.848 127.315  1.00  0.00    -0.027 C 
ATOM      3  C   UNL     1     119.037 178.165 128.382  1.00  0.00     0.039 C 
ENDROOT
BRANCH   2   4
ATOM      4  C   UNL     1     122.289 177.893 126.251  1.00  0.00     0.032 C 
BRANCH   4   5
ATOM      5  C   UNL     1     122.680 176.506 125.724  1.00  0.00     0.034 C 
BRANCH   5   6
ATOM      6  C   UNL     1     121.962 176.221 124.418  1.00  0.00    -0.077 C 
ATOM      7  C   UNL     1     122.618 176.655 123.132  1.00  0.00     0.039 C 
ATOM      8  C   UNL     1     120.728 175.667 124.351  1.00  0.00    -0.023 CG0
ATOM      9  G   UNL     1     119.926 175.157 125.524  1.00  0.00     0.000 G0
ENDBRANCH   5   6
ENDBRANCH   4   5
ENDBRANCH   2   4
BRANCH   1  10
ATOM     10  C   UNL     1     119.260 178.482 125.807  1.00  0.00     0.111 C 
BRANCH  10  11
ATOM     11  C   UNL     1     118.514 177.314 125.210  1.00  0.00     0.163 C 
ATOM     12  O   UNL     1     117.731 177.552 124.249  1.00  0.00    -0.294 OA
BRANCH  11  13
ATOM     13  C   UNL     1     118.625 175.918 125.748  1.00  0.00    -0.002 C 
ATOM     14  C   UNL     1     117.569 175.328 126.390  1.00  0.00    -0.069 C 
ATOM     15  C   UNL     1     117.622 173.890 126.856  1.00  0.00     0.039 C 
ATOM     16  C   UNL     1     116.306 176.096 126.715  1.00  0.00     0.039 C 
BRANCH  13  17
ATOM     17  C   UNL     1     119.922 175.143 125.518  1.00  0.00     0.066 CG0
ATOM     18  G   UNL     1     120.708 175.684 124.347  1.00  0.00     0.000 G0
ENDBRANCH  13  17
ENDBRANCH  11  13
ENDBRANCH  10  11
ENDBRANCH   1  10
TORSDOF 0
ENDMDL
MODEL 6
REMARK VINA RESULT:    -4.617      1.810      4.195
REMARK INTER + INTRA:          -6.375
REMARK INTER:                  -6.558
REMARK INTRA:                   0.182
REMARK UNBOUND:                 0.131
REMARK SMILES CC1=CCC(=C(C)C)C(=O)CC(C)=CCC1
REMARK SMILES IDX 12 1 14 2 13 3 15 4 16 5 2 6 1 7 3 8 11 10 9 11 10 12 5 13
REMARK SMILES IDX 6 14 7 15 8 16 4 17
REMARK H PARENT
REMARK Flexibility Score: 60.00
ROOT
ATOM      1  C   UNL     1     117.654 175.027 127.197  1.00  0.00    -0.070 C 
ATOM      2  C   UNL     1     117.430 174.684 128.491  1.00  0.00    -0.027 C 
ATOM      3  C   UNL     1     116.450 175.135 126.292  1.00  0.00     0.039 C 
ENDROOT
BRANCH   2   4
ATOM      4  C   UNL     1     118.465 174.618 129.588  1.00  0.00     0.032 C 
BRANCH   4   5
ATOM      5  C   UNL     1     118.477 175.861 130.488  1.00  0.00     0.034 C 
BRANCH   5   6
ATOM      6  C   UNL     1     119.682 176.726 130.171  1.00  0.00    -0.077 C 
ATOM      7  C   UNL     1     120.965 176.466 130.917  1.00  0.00     0.039 C 
ATOM      8  C   UNL     1     119.644 177.770 129.308  1.00  0.00    -0.023 CG0
ATOM      9  G   UNL     1     118.460 178.172 128.461  1.00  0.00     0.000 G0
ENDBRANCH   5   6
ENDBRANCH   4   5
ENDBRANCH   2   4
BRANCH   1  10
ATOM     10  C   UNL     1     119.036 175.230 126.585  1.00  0.00     0.111 C 
BRANCH  10  11
ATOM     11  C   UNL     1     119.525 176.656 126.633  1.00  0.00     0.163 C 
ATOM     12  O   UNL     1     120.750 176.861 126.409  1.00  0.00    -0.294 OA
BRANCH  11  13
ATOM     13  C   UNL     1     118.633 177.809 126.989  1.00  0.00    -0.002 C 
ATOM     14  C   UNL     1     117.940 178.484 126.020  1.00  0.00    -0.069 C 
ATOM     15  C   UNL     1     116.961 179.586 126.362  1.00  0.00     0.039 C 
ATOM     16  C   UNL     1     118.149 178.201 124.548  1.00  0.00     0.039 C 
BRANCH  13  17
ATOM     17  C   UNL     1     118.469 178.182 128.462  1.00  0.00     0.066 CG0
ATOM     18  G   UNL     1     119.662 177.768 129.291  1.00  0.00     0.000 G0
ENDBRANCH  13  17
ENDBRANCH  11  13
ENDBRANCH  10  11
ENDBRANCH   1  10
TORSDOF 0
ENDMDL
MODEL 7
REMARK VINA RESULT:    -4.561      2.108      4.668
REMARK INTER + INTRA:          -6.296
REMARK INTER:                  -6.631
REMARK INTRA:                   0.334
REMARK UNBOUND:                 0.131
REMARK SMILES CC1=CCC(=C(C)C)C(=O)CC(C)=CCC1
REMARK SMILES IDX 12 1 14 2 13 3 15 4 16 5 2 6 1 7 3 8 11 10 9 11 10 12 5 13
REMARK SMILES IDX 6 14 7 15 8 16 4 17
REMARK H PARENT
REMARK Flexibility Score: 60.00
ROOT
ATOM      1  C   UNL     1     120.044 177.660 129.166  1.00  0.00    -0.070 C 
ATOM      2  C   UNL     1     121.161 177.884 128.427  1.00  0.00    -0.027 C 
ATOM      3  C   UNL     1     120.239 177.186 130.586  1.00  0.00     0.039 C 
ENDROOT
BRANCH   2   4
ATOM      4  C   UNL     1     121.205 178.454 127.029  1.00  0.00     0.032 C 
BRANCH   4   5
ATOM      5  C   UNL     1     121.508 177.402 125.954  1.00  0.00     0.034 C 
BRANCH   5   6
ATOM      6  C   UNL     1     120.225 176.963 125.274  1.00  0.00    -0.077 C 
ATOM      7  C   UNL     1     119.739 177.751 124.085  1.00  0.00     0.039 C 
ATOM      8  C   UNL     1     119.452 175.947 125.727  1.00  0.00    -0.023 CG0
ATOM      9  G   UNL     1     119.780 175.038 126.888  1.00  0.00     0.000 G0
ENDBRANCH   5   6
ENDBRANCH   4   5
ENDBRANCH   2   4
BRANCH   1  10
ATOM     10  C   UNL     1     118.619 177.778 128.635  1.00  0.00     0.111 C 
BRANCH  10  11
ATOM     11  C   UNL     1     118.030 176.471 128.165  1.00  0.00     0.163 C 
ATOM     12  O   UNL     1     116.796 176.450 127.897  1.00  0.00    -0.294 OA
BRANCH  11  13
ATOM     13  C   UNL     1     118.832 175.207 128.066  1.00  0.00    -0.002 C 
ATOM     14  C   UNL     1     118.683 174.209 128.991  1.00  0.00    -0.069 C 
ATOM     15  C   UNL     1     119.407 172.886 128.859  1.00  0.00     0.039 C 
ATOM     16  C   UNL     1     117.825 174.388 130.224  1.00  0.00     0.039 C 
BRANCH  13  17
ATOM     17  C   UNL     1     119.779 175.030 126.879  1.00  0.00     0.066 CG0
ATOM     18  G   UNL     1     119.427 175.943 125.729  1.00  0.00     0.000 G0
ENDBRANCH  13  17
ENDBRANCH  11  13
ENDBRANCH  10  11
ENDBRANCH   1  10
TORSDOF 0
ENDMDL
MODEL 8
REMARK VINA RESULT:    -4.557      2.010      3.058
REMARK INTER + INTRA:          -6.291
REMARK INTER:                  -6.623
REMARK INTRA:                   0.332
REMARK UNBOUND:                 0.131
REMARK SMILES CC1=CCC(=C(C)C)C(=O)CC(C)=CCC1
REMARK SMILES IDX 12 1 14 2 13 3 15 4 16 5 2 6 1 7 3 8 11 10 9 11 10 12 5 13
REMARK SMILES IDX 6 14 7 15 8 16 4 17
REMARK H PARENT
REMARK Flexibility Score: 60.00
ROOT
ATOM      1  C   UNL     1     120.442 176.273 125.128  1.00  0.00    -0.070 C 
ATOM      2  C   UNL     1     120.159 177.521 124.674  1.00  0.00    -0.027 C 
ATOM      3  C   UNL     1     121.899 175.919 125.311  1.00  0.00     0.039 C 
ENDROOT
BRANCH   2   4
ATOM      4  C   UNL     1     118.782 178.120 124.516  1.00  0.00     0.032 C 
BRANCH   4   5
ATOM      5  C   UNL     1     118.522 179.302 125.458  1.00  0.00     0.034 C 
BRANCH   5   6
ATOM      6  C   UNL     1     117.476 178.929 126.491  1.00  0.00    -0.077 C 
ATOM      7  C   UNL     1     116.074 179.452 126.312  1.00  0.00     0.039 C 
ATOM      8  C   UNL     1     117.754 178.214 127.608  1.00  0.00    -0.023 CG0
ATOM      9  G   UNL     1     119.089 177.596 127.950  1.00  0.00     0.000 G0
ENDBRANCH   5   6
ENDBRANCH   4   5
ENDBRANCH   2   4
BRANCH   1  10
ATOM     10  C   UNL     1     119.400 175.190 125.385  1.00  0.00     0.111 C 
BRANCH  10  11
ATOM     11  C   UNL     1     118.542 175.441 126.600  1.00  0.00     0.163 C 
ATOM     12  O   UNL     1     117.316 175.151 126.519  1.00  0.00    -0.294 OA
BRANCH  11  13
ATOM     13  C   UNL     1     119.074 176.067 127.856  1.00  0.00    -0.002 C 
ATOM     14  C   UNL     1     119.589 175.293 128.861  1.00  0.00    -0.069 C 
ATOM     15  C   UNL     1     120.219 175.904 130.093  1.00  0.00     0.039 C 
ATOM     16  C   UNL     1     119.512 173.782 128.821  1.00  0.00     0.039 C 
BRANCH  13  17
ATOM     17  C   UNL     1     119.083 177.591 127.969  1.00  0.00     0.066 CG0
ATOM     18  G   UNL     1     117.748 178.197 127.607  1.00  0.00     0.000 G0
ENDBRANCH  13  17
ENDBRANCH  11  13
ENDBRANCH  10  11
ENDBRANCH   1  10
TORSDOF 0
ENDMDL
MODEL 9
REMARK VINA RESULT:    -4.512      2.055      3.875
REMARK INTER + INTRA:          -6.228
REMARK INTER:                  -6.418
REMARK INTRA:                   0.191
REMARK UNBOUND:                 0.131
REMARK SMILES CC1=CCC(=C(C)C)C(=O)CC(C)=CCC1
REMARK SMILES IDX 12 1 14 2 13 3 15 4 16 5 2 6 1 7 3 8 11 10 9 11 10 12 5 13
REMARK SMILES IDX 6 14 7 15 8 16 4 17
REMARK H PARENT
REMARK Flexibility Score: 60.00
ROOT
ATOM      1  C   UNL     1     120.005 177.076 125.508  1.00  0.00    -0.070 C 
ATOM      2  C   UNL     1     120.469 175.856 125.134  1.00  0.00    -0.027 C 
ATOM      3  C   UNL     1     119.549 178.007 124.410  1.00  0.00     0.039 C 
ENDROOT
BRANCH   2   4
ATOM      4  C   UNL     1     120.879 174.736 126.061  1.00  0.00     0.032 C 
BRANCH   4   5
ATOM      5  C   UNL     1     119.782 173.683 126.263  1.00  0.00     0.034 C 
BRANCH   5   6
ATOM      6  C   UNL     1     119.123 173.867 127.617  1.00  0.00    -0.077 C 
ATOM      7  C   UNL     1     119.710 173.144 128.802  1.00  0.00     0.039 C 
ATOM      8  C   UNL     1     117.989 174.584 127.803  1.00  0.00    -0.023 CG0
ATOM      9  G   UNL     1     117.269 175.386 126.745  1.00  0.00     0.000 G0
ENDBRANCH   5   6
ENDBRANCH   4   5
ENDBRANCH   2   4
BRANCH   1  10
ATOM     10  C   UNL     1     119.990 177.592 126.943  1.00  0.00     0.111 C 
BRANCH  10  11
ATOM     11  C   UNL     1     118.672 177.399 127.650  1.00  0.00     0.163 C 
ATOM     12  O   UNL     1     118.639 177.618 128.893  1.00  0.00    -0.294 OA
BRANCH  11  13
ATOM     13  C   UNL     1     117.439 176.906 126.951  1.00  0.00    -0.002 C 
ATOM     14  C   UNL     1     116.519 177.787 126.449  1.00  0.00    -0.069 C 
ATOM     15  C   UNL     1     115.318 177.319 125.656  1.00  0.00     0.039 C 
ATOM     16  C   UNL     1     116.623 179.276 126.700  1.00  0.00     0.039 C 
BRANCH  13  17
ATOM     17  C   UNL     1     117.256 175.401 126.759  1.00  0.00     0.066 CG0
ATOM     18  G   UNL     1     117.991 174.600 127.808  1.00  0.00     0.000 G0
ENDBRANCH  13  17
ENDBRANCH  11  13
ENDBRANCH  10  11
ENDBRANCH   1  10
TORSDOF 0
ENDMDL
