MODEL 1
REMARK VINA RESULT:    -4.171      0.000      0.000
REMARK INTER + INTRA:          -5.065
REMARK INTER:                  -4.780
REMARK INTRA:                  -0.285
REMARK UNBOUND:                -0.285
REMARK SMILES O=C([O-])C=Cc1ccc(O)cc1
REMARK SMILES IDX 6 1 7 2 12 3 8 4 11 5 9 6 5 7 4 8 2 9 1 10 3 11 10 12
REMARK H PARENT 10 13
REMARK Flexibility Score: inf
ROOT
ATOM      1  C   UNL     1      27.430  36.174  21.512  1.00  0.00    -0.025 A 
ATOM      2  C   UNL     1      27.492  35.699  22.831  1.00  0.00     0.012 A 
ATOM      3  C   UNL     1      27.976  35.398  20.475  1.00  0.00     0.012 A 
ATOM      4  C   UNL     1      28.044  34.443  23.103  1.00  0.00     0.047 A 
ATOM      5  C   UNL     1      28.528  34.143  20.749  1.00  0.00     0.047 A 
ATOM      6  C   UNL     1      28.560  33.661  22.065  1.00  0.00     0.115 A 
ENDROOT
BRANCH   1   7
ATOM      7  C   UNL     1      26.889  37.525  21.255  1.00  0.00     0.010 C 
ATOM      8  C   UNL     1      25.614  37.807  20.943  1.00  0.00     0.025 C 
BRANCH   8   9
ATOM      9  C   UNL     1      24.488  36.854  20.976  1.00  0.00     0.064 C 
ATOM     10  O   UNL     1      23.873  36.599  22.044  1.00  0.00    -0.545 OA
ATOM     11  O   UNL     1      24.054  36.279  19.790  1.00  0.00    -0.545 OA
ENDBRANCH   8   9
ENDBRANCH   1   7
BRANCH   6  12
ATOM     12  O   UNL     1      29.106  32.412  22.351  1.00  0.00    -0.508 OA
ATOM     13  H   UNL     1      29.236  32.097  23.306  1.00  0.00     0.293 HD
ENDBRANCH   6  12
TORSDOF 3
ENDMDL
MODEL 2
REMARK VINA RESULT:    -3.913      8.162     10.381
REMARK INTER + INTRA:          -4.770
REMARK INTER:                  -4.496
REMARK INTRA:                  -0.274
REMARK UNBOUND:                -0.285
REMARK SMILES O=C([O-])C=Cc1ccc(O)cc1
REMARK SMILES IDX 6 1 7 2 12 3 8 4 11 5 9 6 5 7 4 8 2 9 1 10 3 11 10 12
REMARK H PARENT 10 13
REMARK Flexibility Score: inf
ROOT
ATOM      1  C   UNL     1      26.449  27.621  28.141  1.00  0.00    -0.025 A 
ATOM      2  C   UNL     1      25.058  27.748  28.004  1.00  0.00     0.012 A 
ATOM      3  C   UNL     1      27.089  28.217  29.241  1.00  0.00     0.012 A 
ATOM      4  C   UNL     1      24.312  28.415  28.981  1.00  0.00     0.047 A 
ATOM      5  C   UNL     1      26.341  28.884  30.216  1.00  0.00     0.047 A 
ATOM      6  C   UNL     1      24.949  28.982  30.090  1.00  0.00     0.115 A 
ENDROOT
BRANCH   1   7
ATOM      7  C   UNL     1      27.223  26.957  27.070  1.00  0.00     0.010 C 
ATOM      8  C   UNL     1      27.550  27.508  25.891  1.00  0.00     0.025 C 
BRANCH   8   9
ATOM      9  C   UNL     1      27.360  28.923  25.518  1.00  0.00     0.064 C 
ATOM     10  O   UNL     1      26.381  29.294  24.819  1.00  0.00    -0.545 OA
ATOM     11  O   UNL     1      28.245  29.876  26.005  1.00  0.00    -0.545 OA
ENDBRANCH   8   9
ENDBRANCH   1   7
BRANCH   6  12
ATOM     12  O   UNL     1      24.193  29.642  31.055  1.00  0.00    -0.508 OA
ATOM     13  H   UNL     1      24.134  29.299  32.007  1.00  0.00     0.293 HD
ENDBRANCH   6  12
TORSDOF 3
ENDMDL
MODEL 3
REMARK VINA RESULT:    -3.873      3.019      5.000
REMARK INTER + INTRA:          -4.724
REMARK INTER:                  -4.459
REMARK INTRA:                  -0.265
REMARK UNBOUND:                -0.285
REMARK SMILES O=C([O-])C=Cc1ccc(O)cc1
REMARK SMILES IDX 6 1 7 2 12 3 8 4 11 5 9 6 5 7 4 8 2 9 1 10 3 11 10 12
REMARK H PARENT 10 13
REMARK Flexibility Score: inf
ROOT
ATOM      1  C   UNL     1      26.746  38.295  20.618  1.00  0.00    -0.025 A 
ATOM      2  C   UNL     1      27.378  38.102  19.381  1.00  0.00     0.012 A 
ATOM      3  C   UNL     1      26.461  39.603  21.048  1.00  0.00     0.012 A 
ATOM      4  C   UNL     1      27.672  39.196  18.561  1.00  0.00     0.047 A 
ATOM      5  C   UNL     1      26.756  40.695  20.227  1.00  0.00     0.047 A 
ATOM      6  C   UNL     1      27.361  40.494  18.979  1.00  0.00     0.115 A 
ENDROOT
BRANCH   1   7
ATOM      7  C   UNL     1      26.491  37.128  21.490  1.00  0.00     0.010 C 
ATOM      8  C   UNL     1      25.292  36.569  21.711  1.00  0.00     0.025 C 
BRANCH   8   9
ATOM      9  C   UNL     1      24.044  36.893  20.992  1.00  0.00     0.064 C 
ATOM     10  O   UNL     1      23.296  37.835  21.364  1.00  0.00    -0.545 OA
ATOM     11  O   UNL     1      23.724  36.186  19.841  1.00  0.00    -0.545 OA
ENDBRANCH   8   9
ENDBRANCH   1   7
BRANCH   6  12
ATOM     12  O   UNL     1      27.658  41.573  18.151  1.00  0.00    -0.508 OA
ATOM     13  H   UNL     1      27.870  42.489  18.531  1.00  0.00     0.293 HD
ENDBRANCH   6  12
TORSDOF 3
ENDMDL
MODEL 4
REMARK VINA RESULT:    -3.778      2.121      4.869
REMARK INTER + INTRA:          -4.615
REMARK INTER:                  -4.398
REMARK INTRA:                  -0.217
REMARK UNBOUND:                -0.285
REMARK SMILES O=C([O-])C=Cc1ccc(O)cc1
REMARK SMILES IDX 6 1 7 2 12 3 8 4 11 5 9 6 5 7 4 8 2 9 1 10 3 11 10 12
REMARK H PARENT 10 13
REMARK Flexibility Score: inf
ROOT
ATOM      1  C   UNL     1      27.434  36.473  21.037  1.00  0.00    -0.025 A 
ATOM      2  C   UNL     1      26.053  36.638  20.853  1.00  0.00     0.012 A 
ATOM      3  C   UNL     1      28.257  37.609  21.125  1.00  0.00     0.012 A 
ATOM      4  C   UNL     1      25.496  37.921  20.811  1.00  0.00     0.047 A 
ATOM      5  C   UNL     1      27.698  38.890  21.082  1.00  0.00     0.047 A 
ATOM      6  C   UNL     1      26.314  39.049  20.927  1.00  0.00     0.115 A 
ENDROOT
BRANCH   1   7
ATOM      7  C   UNL     1      28.006  35.110  21.027  1.00  0.00     0.010 C 
ATOM      8  C   UNL     1      28.315  34.388  22.115  1.00  0.00     0.025 C 
BRANCH   8   9
ATOM      9  C   UNL     1      27.976  34.739  23.508  1.00  0.00     0.064 C 
ATOM     10  O   UNL     1      26.781  34.839  23.890  1.00  0.00    -0.545 OA
ATOM     11  O   UNL     1      28.999  34.896  24.434  1.00  0.00    -0.545 OA
ENDBRANCH   8   9
ENDBRANCH   1   7
BRANCH   6  12
ATOM     12  O   UNL     1      25.746  40.319  20.885  1.00  0.00    -0.508 OA
ATOM     13  H   UNL     1      25.426  40.784  21.727  1.00  0.00     0.293 HD
ENDBRANCH   6  12
TORSDOF 3
ENDMDL
MODEL 5
REMARK VINA RESULT:    -3.771      4.777      6.250
REMARK INTER + INTRA:          -4.607
REMARK INTER:                  -4.365
REMARK INTRA:                  -0.242
REMARK UNBOUND:                -0.285
REMARK SMILES O=C([O-])C=Cc1ccc(O)cc1
REMARK SMILES IDX 6 1 7 2 12 3 8 4 11 5 9 6 5 7 4 8 2 9 1 10 3 11 10 12
REMARK H PARENT 10 13
REMARK Flexibility Score: inf
ROOT
ATOM      1  C   UNL     1      27.756  40.752  19.931  1.00  0.00    -0.025 A 
ATOM      2  C   UNL     1      26.970  40.422  21.045  1.00  0.00     0.012 A 
ATOM      3  C   UNL     1      27.713  39.930  18.792  1.00  0.00     0.012 A 
ATOM      4  C   UNL     1      26.114  39.317  21.002  1.00  0.00     0.047 A 
ATOM      5  C   UNL     1      26.857  38.825  18.750  1.00  0.00     0.047 A 
ATOM      6  C   UNL     1      26.052  38.518  19.856  1.00  0.00     0.115 A 
ENDROOT
BRANCH   1   7
ATOM      7  C   UNL     1      28.691  41.893  20.019  1.00  0.00     0.010 C 
ATOM      8  C   UNL     1      28.372  43.179  19.804  1.00  0.00     0.025 C 
BRANCH   8   9
ATOM      9  C   UNL     1      27.007  43.710  19.622  1.00  0.00     0.064 C 
ATOM     10  O   UNL     1      26.551  43.978  18.480  1.00  0.00    -0.545 OA
ATOM     11  O   UNL     1      26.183  43.852  20.731  1.00  0.00    -0.545 OA
ENDBRANCH   8   9
ENDBRANCH   1   7
BRANCH   6  12
ATOM     12  O   UNL     1      25.194  37.421  19.827  1.00  0.00    -0.508 OA
ATOM     13  H   UNL     1      24.191  37.536  19.730  1.00  0.00     0.293 HD
ENDBRANCH   6  12
TORSDOF 3
ENDMDL
MODEL 6
REMARK VINA RESULT:    -3.757      7.427      9.559
REMARK INTER + INTRA:          -4.592
REMARK INTER:                  -4.337
REMARK INTRA:                  -0.255
REMARK UNBOUND:                -0.285
REMARK SMILES O=C([O-])C=Cc1ccc(O)cc1
REMARK SMILES IDX 6 1 7 2 12 3 8 4 11 5 9 6 5 7 4 8 2 9 1 10 3 11 10 12
REMARK H PARENT 10 13
REMARK Flexibility Score: inf
ROOT
ATOM      1  C   UNL     1      27.944  28.086  27.255  1.00  0.00    -0.025 A 
ATOM      2  C   UNL     1      28.371  28.931  28.290  1.00  0.00     0.012 A 
ATOM      3  C   UNL     1      26.808  27.280  27.450  1.00  0.00     0.012 A 
ATOM      4  C   UNL     1      27.644  29.010  29.482  1.00  0.00     0.047 A 
ATOM      5  C   UNL     1      26.083  27.360  28.642  1.00  0.00     0.047 A 
ATOM      6  C   UNL     1      26.498  28.229  29.661  1.00  0.00     0.115 A 
ENDROOT
BRANCH   1   7
ATOM      7  C   UNL     1      28.757  27.981  26.025  1.00  0.00     0.010 C 
ATOM      8  C   UNL     1      28.522  28.637  24.878  1.00  0.00     0.025 C 
BRANCH   8   9
ATOM      9  C   UNL     1      27.528  29.712  24.688  1.00  0.00     0.064 C 
ATOM     10  O   UNL     1      27.877  30.911  24.533  1.00  0.00    -0.545 OA
ATOM     11  O   UNL     1      26.182  29.382  24.612  1.00  0.00    -0.545 OA
ENDBRANCH   8   9
ENDBRANCH   1   7
BRANCH   6  12
ATOM     12  O   UNL     1      25.783  28.319  30.852  1.00  0.00    -0.508 OA
ATOM     13  H   UNL     1      26.247  28.488  31.737  1.00  0.00     0.293 HD
ENDBRANCH   6  12
TORSDOF 3
ENDMDL
MODEL 7
REMARK VINA RESULT:    -3.746      7.600      9.853
REMARK INTER + INTRA:          -4.579
REMARK INTER:                  -4.288
REMARK INTRA:                  -0.291
REMARK UNBOUND:                -0.285
REMARK SMILES O=C([O-])C=Cc1ccc(O)cc1
REMARK SMILES IDX 6 1 7 2 12 3 8 4 11 5 9 6 5 7 4 8 2 9 1 10 3 11 10 12
REMARK H PARENT 10 13
REMARK Flexibility Score: inf
ROOT
ATOM      1  C   UNL     1      28.000  28.360  27.755  1.00  0.00    -0.025 A 
ATOM      2  C   UNL     1      27.321  28.207  26.537  1.00  0.00     0.012 A 
ATOM      3  C   UNL     1      28.925  29.409  27.899  1.00  0.00     0.012 A 
ATOM      4  C   UNL     1      27.522  29.121  25.497  1.00  0.00     0.047 A 
ATOM      5  C   UNL     1      29.125  30.321  26.859  1.00  0.00     0.047 A 
ATOM      6  C   UNL     1      28.420  30.181  25.655  1.00  0.00     0.115 A 
ENDROOT
BRANCH   1   7
ATOM      7  C   UNL     1      27.811  27.352  28.820  1.00  0.00     0.010 C 
ATOM      8  C   UNL     1      26.916  27.433  29.816  1.00  0.00     0.025 C 
BRANCH   8   9
ATOM      9  C   UNL     1      25.842  28.439  29.932  1.00  0.00     0.064 C 
ATOM     10  O   UNL     1      25.959  29.443  30.681  1.00  0.00    -0.545 OA
ATOM     11  O   UNL     1      24.706  28.309  29.145  1.00  0.00    -0.545 OA
ENDBRANCH   8   9
ENDBRANCH   1   7
BRANCH   6  12
ATOM     12  O   UNL     1      28.609  31.084  24.612  1.00  0.00    -0.508 OA
ATOM     13  H   UNL     1      27.918  31.198  23.879  1.00  0.00     0.293 HD
ENDBRANCH   6  12
TORSDOF 3
ENDMDL
MODEL 8
REMARK VINA RESULT:    -3.723      3.641      5.681
REMARK INTER + INTRA:          -4.552
REMARK INTER:                  -4.324
REMARK INTRA:                  -0.227
REMARK UNBOUND:                -0.285
REMARK SMILES O=C([O-])C=Cc1ccc(O)cc1
REMARK SMILES IDX 6 1 7 2 12 3 8 4 11 5 9 6 5 7 4 8 2 9 1 10 3 11 10 12
REMARK H PARENT 10 13
REMARK Flexibility Score: inf
ROOT
ATOM      1  C   UNL     1      26.120  39.329  20.422  1.00  0.00    -0.025 A 
ATOM      2  C   UNL     1      26.107  40.480  21.224  1.00  0.00     0.012 A 
ATOM      3  C   UNL     1      26.854  39.335  19.223  1.00  0.00     0.012 A 
ATOM      4  C   UNL     1      26.860  41.602  20.861  1.00  0.00     0.047 A 
ATOM      5  C   UNL     1      27.606  40.457  18.862  1.00  0.00     0.047 A 
ATOM      6  C   UNL     1      27.613  41.593  19.683  1.00  0.00     0.115 A 
ENDROOT
BRANCH   1   7
ATOM      7  C   UNL     1      25.276  38.176  20.798  1.00  0.00     0.010 C 
ATOM      8  C   UNL     1      25.729  36.983  21.216  1.00  0.00     0.025 C 
BRANCH   8   9
ATOM      9  C   UNL     1      27.130  36.662  21.549  1.00  0.00     0.064 C 
ATOM     10  O   UNL     1      27.552  36.702  22.735  1.00  0.00    -0.545 OA
ATOM     11  O   UNL     1      27.986  36.241  20.540  1.00  0.00    -0.545 OA
ENDBRANCH   8   9
ENDBRANCH   1   7
BRANCH   6  12
ATOM     12  O   UNL     1      28.359  42.716  19.335  1.00  0.00    -0.508 OA
ATOM     13  H   UNL     1      28.390  43.057  18.381  1.00  0.00     0.293 HD
ENDBRANCH   6  12
TORSDOF 3
ENDMDL
