MODEL 1
REMARK VINA RESULT:    -3.406      0.000      0.000
REMARK INTER + INTRA:          -7.019
REMARK INTER:                  -5.995
REMARK INTRA:                  -1.025
REMARK UNBOUND:                -1.025
REMARK SMILES CCCCCCC=CCCCCCCCC(=O)[O-]
REMARK SMILES IDX 10 1 11 2 12 3 13 4 14 5 15 6 16 7 17 8 18 9 9 10 8 11 7 12
REMARK SMILES IDX 6 13 5 14 4 15 3 16 2 17 1 18
REMARK H PARENT
REMARK Flexibility Score: inf
ROOT
ATOM      1  C   UNL     1     156.758 141.990 149.333  1.00  0.00     0.004 C 
ENDROOT
BRANCH   1   2
ATOM      2  C   UNL     1     157.234 141.191 148.110  1.00  0.00     0.000 C 
BRANCH   2   3
ATOM      3  C   UNL     1     158.087 142.036 147.147  1.00  0.00     0.000 C 
BRANCH   3   4
ATOM      4  C   UNL     1     158.124 141.462 145.718  1.00  0.00     0.000 C 
BRANCH   4   5
ATOM      5  C   UNL     1     157.914 142.493 144.595  1.00  0.00     0.006 C 
BRANCH   5   6
ATOM      6  C   UNL     1     156.481 143.039 144.544  1.00  0.00     0.053 C 
BRANCH   6   7
ATOM      7  C   UNL     1     155.633 142.197 143.643  1.00  0.00     0.041 C 
ATOM      8  O   UNL     1     154.412 142.467 143.489  1.00  0.00    -0.550 OA
ATOM      9  O   UNL     1     156.177 141.085 143.014  1.00  0.00    -0.550 OA
ENDBRANCH   6   7
ENDBRANCH   5   6
ENDBRANCH   4   5
ENDBRANCH   3   4
ENDBRANCH   2   3
ENDBRANCH   1   2
BRANCH   1  10
ATOM     10  C   UNL     1     155.313 142.489 149.193  1.00  0.00     0.027 C 
BRANCH  10  11
ATOM     11  C   UNL     1     154.837 142.311 147.772  1.00  0.00    -0.031 C 
ATOM     12  C   UNL     1     153.748 141.612 147.398  1.00  0.00    -0.031 C 
BRANCH  12  13
ATOM     13  C   UNL     1     152.818 140.886 148.340  1.00  0.00     0.027 C 
BRANCH  13  14
ATOM     14  C   UNL     1     151.331 141.173 148.052  1.00  0.00     0.004 C 
BRANCH  14  15
ATOM     15  C   UNL     1     150.451 141.247 149.315  1.00  0.00     0.000 C 
BRANCH  15  16
ATOM     16  C   UNL     1     151.134 140.788 150.614  1.00  0.00    -0.000 C 
BRANCH  16  17
ATOM     17  C   UNL     1     151.424 141.946 151.581  1.00  0.00    -0.003 C 
ATOM     18  C   UNL     1     152.887 142.368 151.510  1.00  0.00     0.004 C 
ENDBRANCH  16  17
ENDBRANCH  15  16
ENDBRANCH  14  15
ENDBRANCH  13  14
ENDBRANCH  12  13
ENDBRANCH  10  11
ENDBRANCH   1  10
TORSDOF 13
ENDMDL
MODEL 2
REMARK VINA RESULT:    -2.775      6.793      9.092
REMARK INTER + INTRA:          -5.909
REMARK INTER:                  -5.148
REMARK INTRA:                  -0.760
REMARK UNBOUND:                -1.025
REMARK SMILES CCCCCCC=CCCCCCCCC(=O)[O-]
REMARK SMILES IDX 10 1 11 2 12 3 13 4 14 5 15 6 16 7 17 8 18 9 9 10 8 11 7 12
REMARK SMILES IDX 6 13 5 14 4 15 3 16 2 17 1 18
REMARK H PARENT
REMARK Flexibility Score: inf
ROOT
ATOM      1  C   UNL     1     149.204 144.961 146.688  1.00  0.00     0.004 C 
ENDROOT
BRANCH   1   2
ATOM      2  C   UNL     1     149.109 143.427 146.677  1.00  0.00     0.000 C 
BRANCH   2   3
ATOM      3  C   UNL     1     149.301 142.813 148.075  1.00  0.00     0.000 C 
BRANCH   3   4
ATOM      4  C   UNL     1     150.253 141.602 148.072  1.00  0.00     0.000 C 
BRANCH   4   5
ATOM      5  C   UNL     1     150.608 141.047 149.462  1.00  0.00     0.006 C 
BRANCH   5   6
ATOM      6  C   UNL     1     152.073 141.290 149.849  1.00  0.00     0.053 C 
BRANCH   6   7
ATOM      7  C   UNL     1     152.156 142.035 151.143  1.00  0.00     0.041 C 
ATOM      8  O   UNL     1     151.449 141.681 152.124  1.00  0.00    -0.550 OA
ATOM      9  O   UNL     1     152.975 143.151 151.252  1.00  0.00    -0.550 OA
ENDBRANCH   6   7
ENDBRANCH   5   6
ENDBRANCH   4   5
ENDBRANCH   3   4
ENDBRANCH   2   3
ENDBRANCH   1   2
BRANCH   1  10
ATOM     10  C   UNL     1     148.349 145.618 145.595  1.00  0.00     0.027 C 
BRANCH  10  11
ATOM     11  C   UNL     1     148.679 145.020 144.249  1.00  0.00    -0.031 C 
ATOM     12  C   UNL     1     147.831 144.941 143.205  1.00  0.00    -0.031 C 
BRANCH  12  13
ATOM     13  C   UNL     1     146.405 145.436 143.205  1.00  0.00     0.027 C 
BRANCH  13  14
ATOM     14  C   UNL     1     146.305 146.974 143.147  1.00  0.00     0.004 C 
BRANCH  14  15
ATOM     15  C   UNL     1     145.698 147.611 144.412  1.00  0.00     0.000 C 
BRANCH  15  16
ATOM     16  C   UNL     1     144.863 146.659 145.286  1.00  0.00    -0.000 C 
BRANCH  16  17
ATOM     17  C   UNL     1     143.792 147.387 146.112  1.00  0.00    -0.003 C 
ATOM     18  C   UNL     1     143.688 148.854 145.706  1.00  0.00     0.004 C 
ENDBRANCH  16  17
ENDBRANCH  15  16
ENDBRANCH  14  15
ENDBRANCH  13  14
ENDBRANCH  12  13
ENDBRANCH  10  11
ENDBRANCH   1  10
TORSDOF 13
ENDMDL
MODEL 3
REMARK VINA RESULT:    -2.756      0.895      2.176
REMARK INTER + INTRA:          -5.876
REMARK INTER:                  -4.637
REMARK INTRA:                  -1.239
REMARK UNBOUND:                -1.025
REMARK SMILES CCCCCCC=CCCCCCCCC(=O)[O-]
REMARK SMILES IDX 10 1 11 2 12 3 13 4 14 5 15 6 16 7 17 8 18 9 9 10 8 11 7 12
REMARK SMILES IDX 6 13 5 14 4 15 3 16 2 17 1 18
REMARK H PARENT
REMARK Flexibility Score: inf
ROOT
ATOM      1  C   UNL     1     156.119 141.899 148.482  1.00  0.00     0.004 C 
ENDROOT
BRANCH   1   2
ATOM      2  C   UNL     1     157.562 141.375 148.400  1.00  0.00     0.000 C 
BRANCH   2   3
ATOM      3  C   UNL     1     158.123 141.410 146.967  1.00  0.00     0.000 C 
BRANCH   3   4
ATOM      4  C   UNL     1     157.397 142.425 146.065  1.00  0.00     0.000 C 
BRANCH   4   5
ATOM      5  C   UNL     1     158.098 142.730 144.729  1.00  0.00     0.006 C 
BRANCH   5   6
ATOM      6  C   UNL     1     157.115 143.012 143.586  1.00  0.00     0.053 C 
BRANCH   6   7
ATOM      7  C   UNL     1     156.160 141.871 143.424  1.00  0.00     0.041 C 
ATOM      8  O   UNL     1     154.918 142.075 143.463  1.00  0.00    -0.550 OA
ATOM      9  O   UNL     1     156.641 140.576 143.282  1.00  0.00    -0.550 OA
ENDBRANCH   6   7
ENDBRANCH   5   6
ENDBRANCH   4   5
ENDBRANCH   3   4
ENDBRANCH   2   3
ENDBRANCH   1   2
BRANCH   1  10
ATOM     10  C   UNL     1     155.716 142.311 149.905  1.00  0.00     0.027 C 
BRANCH  10  11
ATOM     11  C   UNL     1     154.478 143.174 149.865  1.00  0.00    -0.031 C 
ATOM     12  C   UNL     1     153.435 143.076 150.711  1.00  0.00    -0.031 C 
BRANCH  12  13
ATOM     13  C   UNL     1     153.326 142.084 151.843  1.00  0.00     0.027 C 
BRANCH  13  14
ATOM     14  C   UNL     1     151.996 141.304 151.831  1.00  0.00     0.004 C 
BRANCH  14  15
ATOM     15  C   UNL     1     151.036 141.721 150.700  1.00  0.00     0.000 C 
BRANCH  15  16
ATOM     16  C   UNL     1     150.777 140.644 149.633  1.00  0.00    -0.000 C 
BRANCH  16  17
ATOM     17  C   UNL     1     151.014 141.149 148.201  1.00  0.00    -0.003 C 
ATOM     18  C   UNL     1     152.491 141.075 147.830  1.00  0.00     0.004 C 
ENDBRANCH  16  17
ENDBRANCH  15  16
ENDBRANCH  14  15
ENDBRANCH  13  14
ENDBRANCH  12  13
ENDBRANCH  10  11
ENDBRANCH   1  10
TORSDOF 13
ENDMDL
MODEL 4
REMARK VINA RESULT:    -2.509      9.051     11.103
REMARK INTER + INTRA:          -5.440
REMARK INTER:                  -4.640
REMARK INTRA:                  -0.799
REMARK UNBOUND:                -1.025
REMARK SMILES CCCCCCC=CCCCCCCCC(=O)[O-]
REMARK SMILES IDX 10 1 11 2 12 3 13 4 14 5 15 6 16 7 17 8 18 9 9 10 8 11 7 12
REMARK SMILES IDX 6 13 5 14 4 15 3 16 2 17 1 18
REMARK H PARENT
REMARK Flexibility Score: inf
ROOT
ATOM      1  C   UNL     1     148.398 145.146 144.872  1.00  0.00     0.004 C 
ENDROOT
BRANCH   1   2
ATOM      2  C   UNL     1     148.050 145.304 143.383  1.00  0.00     0.000 C 
BRANCH   2   3
ATOM      3  C   UNL     1     146.550 145.556 143.151  1.00  0.00     0.000 C 
BRANCH   3   4
ATOM      4  C   UNL     1     146.227 147.037 142.879  1.00  0.00     0.000 C 
BRANCH   4   5
ATOM      5  C   UNL     1     145.815 147.855 144.116  1.00  0.00     0.006 C 
BRANCH   5   6
ATOM      6  C   UNL     1     144.984 147.045 145.120  1.00  0.00     0.053 C 
BRANCH   6   7
ATOM      7  C   UNL     1     143.972 147.922 145.788  1.00  0.00     0.041 C 
ATOM      8  O   UNL     1     143.649 149.024 145.269  1.00  0.00    -0.550 OA
ATOM      9  O   UNL     1     143.423 147.547 147.007  1.00  0.00    -0.550 OA
ENDBRANCH   6   7
ENDBRANCH   5   6
ENDBRANCH   4   5
ENDBRANCH   3   4
ENDBRANCH   2   3
ENDBRANCH   1   2
BRANCH   1  10
ATOM     10  C   UNL     1     148.372 146.479 145.634  1.00  0.00     0.027 C 
BRANCH  10  11
ATOM     11  C   UNL     1     148.984 146.307 147.002  1.00  0.00    -0.031 C 
ATOM     12  C   UNL     1     149.151 147.290 147.909  1.00  0.00    -0.031 C 
BRANCH  12  13
ATOM     13  C   UNL     1     148.753 148.732 147.708  1.00  0.00     0.027 C 
BRANCH  13  14
ATOM     14  C   UNL     1     149.042 149.611 148.941  1.00  0.00     0.004 C 
BRANCH  14  15
ATOM     15  C   UNL     1     147.799 150.321 149.510  1.00  0.00     0.000 C 
BRANCH  15  16
ATOM     16  C   UNL     1     146.540 149.444 149.620  1.00  0.00    -0.000 C 
BRANCH  16  17
ATOM     17  C   UNL     1     145.312 150.218 150.124  1.00  0.00    -0.003 C 
ATOM     18  C   UNL     1     144.175 150.165 149.108  1.00  0.00     0.004 C 
ENDBRANCH  16  17
ENDBRANCH  15  16
ENDBRANCH  14  15
ENDBRANCH  13  14
ENDBRANCH  12  13
ENDBRANCH  10  11
ENDBRANCH   1  10
TORSDOF 13
ENDMDL
MODEL 5
REMARK VINA RESULT:    -2.414      2.885      7.171
REMARK INTER + INTRA:          -5.273
REMARK INTER:                  -4.218
REMARK INTRA:                  -1.055
REMARK UNBOUND:                -1.025
REMARK SMILES CCCCCCC=CCCCCCCCC(=O)[O-]
REMARK SMILES IDX 10 1 11 2 12 3 13 4 14 5 15 6 16 7 17 8 18 9 9 10 8 11 7 12
REMARK SMILES IDX 6 13 5 14 4 15 3 16 2 17 1 18
REMARK H PARENT
REMARK Flexibility Score: inf
ROOT
ATOM      1  C   UNL     1     153.512 142.207 147.855  1.00  0.00     0.004 C 
ENDROOT
BRANCH   1   2
ATOM      2  C   UNL     1     152.680 140.948 148.146  1.00  0.00     0.000 C 
BRANCH   2   3
ATOM      3  C   UNL     1     151.170 141.236 148.198  1.00  0.00     0.000 C 
BRANCH   3   4
ATOM      4  C   UNL     1     150.618 141.287 149.635  1.00  0.00     0.000 C 
BRANCH   4   5
ATOM      5  C   UNL     1     151.476 140.566 150.690  1.00  0.00     0.006 C 
BRANCH   5   6
ATOM      6  C   UNL     1     151.809 141.451 151.898  1.00  0.00     0.053 C 
BRANCH   6   7
ATOM      7  C   UNL     1     152.903 142.412 151.557  1.00  0.00     0.041 C 
ATOM      8  O   UNL     1     152.624 143.572 151.154  1.00  0.00    -0.550 OA
ATOM      9  O   UNL     1     154.231 142.011 151.636  1.00  0.00    -0.550 OA
ENDBRANCH   6   7
ENDBRANCH   5   6
ENDBRANCH   4   5
ENDBRANCH   3   4
ENDBRANCH   2   3
ENDBRANCH   1   2
BRANCH   1  10
ATOM     10  C   UNL     1     154.956 141.885 147.445  1.00  0.00     0.027 C 
BRANCH  10  11
ATOM     11  C   UNL     1     155.875 142.007 148.636  1.00  0.00    -0.031 C 
ATOM     12  C   UNL     1     157.172 141.644 148.658  1.00  0.00    -0.031 C 
BRANCH  12  13
ATOM     13  C   UNL     1     157.927 141.051 147.493  1.00  0.00     0.027 C 
BRANCH  13  14
ATOM     14  C   UNL     1     158.020 142.010 146.289  1.00  0.00     0.004 C 
BRANCH  14  15
ATOM     15  C   UNL     1     158.125 141.297 144.927  1.00  0.00     0.000 C 
BRANCH  15  16
ATOM     16  C   UNL     1     157.372 141.980 143.773  1.00  0.00    -0.000 C 
BRANCH  16  17
ATOM     17  C   UNL     1     156.452 143.116 144.245  1.00  0.00    -0.003 C 
ATOM     18  C   UNL     1     154.988 142.690 144.203  1.00  0.00     0.004 C 
ENDBRANCH  16  17
ENDBRANCH  15  16
ENDBRANCH  14  15
ENDBRANCH  13  14
ENDBRANCH  12  13
ENDBRANCH  10  11
ENDBRANCH   1  10
TORSDOF 13
ENDMDL
MODEL 6
REMARK VINA RESULT:    -2.348      1.217      2.338
REMARK INTER + INTRA:          -5.157
REMARK INTER:                  -4.022
REMARK INTRA:                  -1.135
REMARK UNBOUND:                -1.025
REMARK SMILES CCCCCCC=CCCCCCCCC(=O)[O-]
REMARK SMILES IDX 10 1 11 2 12 3 13 4 14 5 15 6 16 7 17 8 18 9 9 10 8 11 7 12
REMARK SMILES IDX 6 13 5 14 4 15 3 16 2 17 1 18
REMARK H PARENT
REMARK Flexibility Score: inf
ROOT
ATOM      1  C   UNL     1     158.088 141.491 148.172  1.00  0.00     0.004 C 
ENDROOT
BRANCH   1   2
ATOM      2  C   UNL     1     158.080 141.954 146.706  1.00  0.00     0.000 C 
BRANCH   2   3
ATOM      3  C   UNL     1     158.026 140.778 145.715  1.00  0.00     0.000 C 
BRANCH   3   4
ATOM      4  C   UNL     1     158.125 141.228 144.245  1.00  0.00     0.000 C 
BRANCH   4   5
ATOM      5  C   UNL     1     156.927 140.839 143.361  1.00  0.00     0.006 C 
BRANCH   5   6
ATOM      6  C   UNL     1     156.080 142.045 142.934  1.00  0.00     0.053 C 
BRANCH   6   7
ATOM      7  C   UNL     1     155.592 142.793 144.134  1.00  0.00     0.041 C 
ATOM      8  O   UNL     1     154.569 142.397 144.753  1.00  0.00    -0.550 OA
ATOM      9  O   UNL     1     156.237 143.954 144.539  1.00  0.00    -0.550 OA
ENDBRANCH   6   7
ENDBRANCH   5   6
ENDBRANCH   4   5
ENDBRANCH   3   4
ENDBRANCH   2   3
ENDBRANCH   1   2
BRANCH   1  10
ATOM     10  C   UNL     1     156.726 140.951 148.632  1.00  0.00     0.027 C 
BRANCH  10  11
ATOM     11  C   UNL     1     155.612 141.785 148.049  1.00  0.00    -0.031 C 
ATOM     12  C   UNL     1     154.680 142.445 148.763  1.00  0.00    -0.031 C 
BRANCH  12  13
ATOM     13  C   UNL     1     154.591 142.460 150.270  1.00  0.00     0.027 C 
BRANCH  13  14
ATOM     14  C   UNL     1     153.212 142.920 150.784  1.00  0.00     0.004 C 
BRANCH  14  15
ATOM     15  C   UNL     1     152.404 141.812 151.489  1.00  0.00     0.000 C 
BRANCH  15  16
ATOM     16  C   UNL     1     151.153 141.335 150.733  1.00  0.00    -0.000 C 
BRANCH  16  17
ATOM     17  C   UNL     1     151.486 140.609 149.420  1.00  0.00    -0.003 C 
ATOM     18  C   UNL     1     150.843 141.309 148.227  1.00  0.00     0.004 C 
ENDBRANCH  16  17
ENDBRANCH  15  16
ENDBRANCH  14  15
ENDBRANCH  13  14
ENDBRANCH  12  13
ENDBRANCH  10  11
ENDBRANCH   1  10
TORSDOF 13
ENDMDL
MODEL 7
REMARK VINA RESULT:    -2.226      9.172     11.464
REMARK INTER + INTRA:          -4.942
REMARK INTER:                  -4.087
REMARK INTRA:                  -0.855
REMARK UNBOUND:                -1.025
REMARK SMILES CCCCCCC=CCCCCCCCC(=O)[O-]
REMARK SMILES IDX 10 1 11 2 12 3 13 4 14 5 15 6 16 7 17 8 18 9 9 10 8 11 7 12
REMARK SMILES IDX 6 13 5 14 4 15 3 16 2 17 1 18
REMARK H PARENT
REMARK Flexibility Score: inf
ROOT
ATOM      1  C   UNL     1     148.708 147.339 147.585  1.00  0.00     0.004 C 
ENDROOT
BRANCH   1   2
ATOM      2  C   UNL     1     149.079 148.822 147.749  1.00  0.00     0.000 C 
BRANCH   2   3
ATOM      3  C   UNL     1     149.399 149.193 149.207  1.00  0.00     0.000 C 
BRANCH   3   4
ATOM      4  C   UNL     1     148.425 150.236 149.787  1.00  0.00     0.000 C 
BRANCH   4   5
ATOM      5  C   UNL     1     147.029 150.259 149.139  1.00  0.00     0.006 C 
BRANCH   5   6
ATOM      6  C   UNL     1     145.911 149.855 150.109  1.00  0.00     0.053 C 
BRANCH   6   7
ATOM      7  C   UNL     1     144.577 149.958 149.441  1.00  0.00     0.041 C 
ATOM      8  O   UNL     1     143.750 150.834 149.809  1.00  0.00    -0.550 OA
ATOM      9  O   UNL     1     144.226 149.055 148.445  1.00  0.00    -0.550 OA
ENDBRANCH   6   7
ENDBRANCH   5   6
ENDBRANCH   4   5
ENDBRANCH   3   4
ENDBRANCH   2   3
ENDBRANCH   1   2
BRANCH   1  10
ATOM     10  C   UNL     1     148.362 146.969 146.135  1.00  0.00     0.027 C 
BRANCH  10  11
ATOM     11  C   UNL     1     148.675 145.515 145.882  1.00  0.00    -0.031 C 
ATOM     12  C   UNL     1     148.661 144.915 144.676  1.00  0.00    -0.031 C 
BRANCH  12  13
ATOM     13  C   UNL     1     148.329 145.598 143.371  1.00  0.00     0.027 C 
BRANCH  13  14
ATOM     14  C   UNL     1     146.811 145.736 143.138  1.00  0.00     0.004 C 
BRANCH  14  15
ATOM     15  C   UNL     1     146.340 147.188 142.925  1.00  0.00     0.000 C 
BRANCH  15  16
ATOM     16  C   UNL     1     145.675 147.844 144.147  1.00  0.00    -0.000 C 
BRANCH  16  17
ATOM     17  C   UNL     1     145.147 146.821 145.164  1.00  0.00    -0.003 C 
ATOM     18  C   UNL     1     143.925 147.360 145.902  1.00  0.00     0.004 C 
ENDBRANCH  16  17
ENDBRANCH  15  16
ENDBRANCH  14  15
ENDBRANCH  13  14
ENDBRANCH  12  13
ENDBRANCH  10  11
ENDBRANCH   1  10
TORSDOF 13
ENDMDL
MODEL 8
REMARK VINA RESULT:    -2.053      2.419      7.041
REMARK INTER + INTRA:          -4.637
REMARK INTER:                  -3.782
REMARK INTRA:                  -0.856
REMARK UNBOUND:                -1.025
REMARK SMILES CCCCCCC=CCCCCCCCC(=O)[O-]
REMARK SMILES IDX 10 1 11 2 12 3 13 4 14 5 15 6 16 7 17 8 18 9 9 10 8 11 7 12
REMARK SMILES IDX 6 13 5 14 4 15 3 16 2 17 1 18
REMARK H PARENT
REMARK Flexibility Score: inf
ROOT
ATOM      1  C   UNL     1     155.234 142.307 148.753  1.00  0.00     0.004 C 
ENDROOT
BRANCH   1   2
ATOM      2  C   UNL     1     154.404 143.121 149.760  1.00  0.00     0.000 C 
BRANCH   2   3
ATOM      3  C   UNL     1     154.045 142.312 151.019  1.00  0.00     0.000 C 
BRANCH   3   4
ATOM      4  C   UNL     1     152.574 142.484 151.442  1.00  0.00     0.000 C 
BRANCH   4   5
ATOM      5  C   UNL     1     151.714 141.211 151.350  1.00  0.00     0.006 C 
BRANCH   5   6
ATOM      6  C   UNL     1     150.593 141.318 150.309  1.00  0.00     0.053 C 
BRANCH   6   7
ATOM      7  C   UNL     1     151.085 140.887 148.964  1.00  0.00     0.041 C 
ATOM      8  O   UNL     1     152.188 140.288 148.855  1.00  0.00    -0.550 OA
ATOM      9  O   UNL     1     150.351 141.190 147.824  1.00  0.00    -0.550 OA
ENDBRANCH   6   7
ENDBRANCH   5   6
ENDBRANCH   4   5
ENDBRANCH   3   4
ENDBRANCH   2   3
ENDBRANCH   1   2
BRANCH   1  10
ATOM     10  C   UNL     1     156.734 142.309 149.080  1.00  0.00     0.027 C 
BRANCH  10  11
ATOM     11  C   UNL     1     157.347 140.979 148.713  1.00  0.00    -0.031 C 
ATOM     12  C   UNL     1     157.934 140.693 147.535  1.00  0.00    -0.031 C 
BRANCH  12  13
ATOM     13  C   UNL     1     158.078 141.654 146.380  1.00  0.00     0.027 C 
BRANCH  13  14
ATOM     14  C   UNL     1     158.124 140.945 145.012  1.00  0.00     0.004 C 
BRANCH  14  15
ATOM     15  C   UNL     1     158.125 141.906 143.808  1.00  0.00     0.000 C 
BRANCH  15  16
ATOM     16  C   UNL     1     156.765 142.547 143.483  1.00  0.00    -0.000 C 
BRANCH  16  17
ATOM     17  C   UNL     1     156.622 143.968 144.047  1.00  0.00    -0.003 C 
ATOM     18  C   UNL     1     157.411 144.973 143.214  1.00  0.00     0.004 C 
ENDBRANCH  16  17
ENDBRANCH  15  16
ENDBRANCH  14  15
ENDBRANCH  13  14
ENDBRANCH  12  13
ENDBRANCH  10  11
ENDBRANCH   1  10
TORSDOF 13
ENDMDL
MODEL 9
REMARK VINA RESULT:    -2.011      3.083      6.788
REMARK INTER + INTRA:          -4.564
REMARK INTER:                  -3.430
REMARK INTRA:                  -1.134
REMARK UNBOUND:                -1.025
REMARK SMILES CCCCCCC=CCCCCCCCC(=O)[O-]
REMARK SMILES IDX 10 1 11 2 12 3 13 4 14 5 15 6 16 7 17 8 18 9 9 10 8 11 7 12
REMARK SMILES IDX 6 13 5 14 4 15 3 16 2 17 1 18
REMARK H PARENT
REMARK Flexibility Score: inf
ROOT
ATOM      1  C   UNL     1     154.341 141.741 146.194  1.00  0.00     0.004 C 
ENDROOT
BRANCH   1   2
ATOM      2  C   UNL     1     153.707 142.068 147.556  1.00  0.00     0.000 C 
BRANCH   2   3
ATOM      3  C   UNL     1     152.850 140.912 148.100  1.00  0.00     0.000 C 
BRANCH   3   4
ATOM      4  C   UNL     1     151.346 141.244 148.132  1.00  0.00     0.000 C 
BRANCH   4   5
ATOM      5  C   UNL     1     150.713 141.273 149.535  1.00  0.00     0.006 C 
BRANCH   5   6
ATOM      6  C   UNL     1     151.633 140.698 150.620  1.00  0.00     0.053 C 
BRANCH   6   7
ATOM      7  C   UNL     1     151.981 141.752 151.623  1.00  0.00     0.041 C 
ATOM      8  O   UNL     1     151.518 141.690 152.793  1.00  0.00    -0.550 OA
ATOM      9  O   UNL     1     152.775 142.829 151.253  1.00  0.00    -0.550 OA
ENDBRANCH   6   7
ENDBRANCH   5   6
ENDBRANCH   4   5
ENDBRANCH   3   4
ENDBRANCH   2   3
ENDBRANCH   1   2
BRANCH   1  10
ATOM     10  C   UNL     1     153.966 142.757 145.105  1.00  0.00     0.027 C 
BRANCH  10  11
ATOM     11  C   UNL     1     154.719 142.455 143.832  1.00  0.00    -0.031 C 
ATOM     12  C   UNL     1     156.060 142.469 143.700  1.00  0.00    -0.031 C 
BRANCH  12  13
ATOM     13  C   UNL     1     157.037 142.790 144.805  1.00  0.00     0.027 C 
BRANCH  13  14
ATOM     14  C   UNL     1     158.084 141.679 145.021  1.00  0.00     0.004 C 
BRANCH  14  15
ATOM     15  C   UNL     1     158.125 141.128 146.460  1.00  0.00     0.000 C 
BRANCH  15  16
ATOM     16  C   UNL     1     157.456 142.020 147.520  1.00  0.00    -0.000 C 
BRANCH  16  17
ATOM     17  C   UNL     1     157.374 141.352 148.900  1.00  0.00    -0.003 C 
ATOM     18  C   UNL     1     156.521 142.176 149.860  1.00  0.00     0.004 C 
ENDBRANCH  16  17
ENDBRANCH  15  16
ENDBRANCH  14  15
ENDBRANCH  13  14
ENDBRANCH  12  13
ENDBRANCH  10  11
ENDBRANCH   1  10
TORSDOF 13
ENDMDL
