MODEL 1
REMARK VINA RESULT:    -7.663      0.000      0.000
REMARK INTER + INTRA:          -7.812
REMARK INTER:                  -8.335
REMARK INTRA:                   0.523
REMARK UNBOUND:                 0.523
REMARK SMILES C[C@@H]1[C@@H](C)CC[C@]2(C(=O)[O-])CC[C@@]3(C)C(=CC[C@H]4[C@]5(C)CC[C@H](O)C(C)(C)[C@@H]5CC[C@@]43C)[C@@H]12
REMARK SMILES IDX 7 1 6 2 11 3 33 4 5 5 12 6 15 7 2 8 3 9 13 10 16 11 1 12
REMARK SMILES IDX 4 13 14 14 31 15 17 16 18 17 30 18 32 19 19 20 29 21 28 22
REMARK SMILES IDX 21 23 20 24 25 25 22 26 23 27 26 28 27 29 8 30 9 31 10 32
REMARK SMILES IDX 24 33
REMARK H PARENT 24 34
REMARK Flexibility Score: inf
ROOT
ATOM      1  C   UNL     1     -20.489  33.759 -23.429  1.00  0.00     0.017 C 
ATOM      2  C   UNL     1     -21.919  34.337 -23.550  1.00  0.00     0.014 C 
ATOM      3  C   UNL     1     -19.875  33.633 -24.875  1.00  0.00     0.014 C 
ATOM      4  C   UNL     1     -20.550  32.339 -22.768  1.00  0.00     0.030 C 
ATOM      5  C   UNL     1     -22.619  34.409 -22.194  1.00  0.00     0.004 C 
ATOM      6  C   UNL     1     -19.091  32.323 -25.153  1.00  0.00     0.013 C 
ATOM      7  C   UNL     1     -19.106  31.797 -22.674  1.00  0.00    -0.063 C 
ATOM      8  C   UNL     1     -21.431  32.247 -21.467  1.00  0.00    -0.003 C 
ATOM      9  C   UNL     1     -22.793  33.003 -21.609  1.00  0.00    -0.011 C 
ATOM     10  C   UNL     1     -18.243  31.811 -23.939  1.00  0.00    -0.006 C 
ATOM     11  C   UNL     1     -18.588  31.245 -21.551  1.00  0.00    -0.027 C 
ATOM     12  C   UNL     1     -21.733  30.764 -21.119  1.00  0.00     0.008 C 
ATOM     13  C   UNL     1     -23.534  33.104 -20.263  1.00  0.00     0.008 C 
ATOM     14  C   UNL     1     -17.083  32.849 -23.729  1.00  0.00     0.017 C 
ATOM     15  C   UNL     1     -17.690  30.320 -24.136  1.00  0.00    -0.020 C 
ATOM     16  C   UNL     1     -17.300  30.448 -21.525  1.00  0.00     0.032 C 
ATOM     17  C   UNL     1     -16.730  30.000 -22.920  1.00  0.00     0.006 C 
ATOM     18  C   UNL     1     -16.905  30.169 -25.481  1.00  0.00     0.008 C 
ATOM     19  C   UNL     1     -18.880  29.304 -24.191  1.00  0.00     0.012 C 
ATOM     20  C   UNL     1     -16.038  28.566 -22.930  1.00  0.00    -0.025 C 
ATOM     21  C   UNL     1     -15.606  29.351 -25.395  1.00  0.00     0.005 C 
ATOM     22  C   UNL     1     -15.665  28.129 -24.424  1.00  0.00     0.003 C 
ATOM     23  C   UNL     1     -14.746  28.637 -22.029  1.00  0.00     0.010 C 
ATOM     24  C   UNL     1     -16.987  27.499 -22.277  1.00  0.00     0.012 C 
ATOM     25  C   UNL     1     -14.344  27.249 -24.527  1.00  0.00    -0.006 C 
ATOM     26  C   UNL     1     -13.482  29.014 -22.793  1.00  0.00     0.033 C 
ATOM     27  C   UNL     1     -13.106  27.986 -23.881  1.00  0.00     0.120 C 
ATOM     28  C   UNL     1     -14.556  25.875 -23.826  1.00  0.00     0.014 C 
ATOM     29  C   UNL     1     -14.035  26.866 -26.009  1.00  0.00     0.014 C 
ENDROOT
BRANCH   1  30
ATOM     30  C   UNL     1     -19.654  34.749 -22.613  1.00  0.00     0.048 C 
ATOM     31  O   UNL     1     -19.055  34.396 -21.561  1.00  0.00    -0.550 OA
ATOM     32  O   UNL     1     -19.583  36.081 -23.006  1.00  0.00    -0.550 OA
ENDBRANCH   1  30
BRANCH  27  33
ATOM     33  O   UNL     1     -12.344  28.650 -24.860  1.00  0.00    -0.393 OA
ATOM     34  H   UNL     1     -12.806  29.507 -25.061  1.00  0.00     0.210 HD
ENDBRANCH  27  33
TORSDOF 2
ENDMDL
MODEL 2
REMARK VINA RESULT:    -7.082      1.917      3.540
REMARK INTER + INTRA:          -7.180
REMARK INTER:                  -7.486
REMARK INTRA:                   0.306
REMARK UNBOUND:                 0.523
REMARK SMILES C[C@@H]1[C@@H](C)CC[C@]2(C(=O)[O-])CC[C@@]3(C)C(=CC[C@H]4[C@]5(C)CC[C@H](O)C(C)(C)[C@@H]5CC[C@@]43C)[C@@H]12
REMARK SMILES IDX 7 1 6 2 11 3 33 4 5 5 12 6 15 7 2 8 3 9 13 10 16 11 1 12
REMARK SMILES IDX 4 13 14 14 31 15 17 16 18 17 30 18 32 19 19 20 29 21 28 22
REMARK SMILES IDX 21 23 20 24 25 25 22 26 23 27 26 28 27 29 8 30 9 31 10 32
REMARK SMILES IDX 24 33
REMARK H PARENT 24 34
REMARK Flexibility Score: inf
ROOT
ATOM      1  C   UNL     1     -21.707  32.452 -22.269  1.00  0.00     0.017 C 
ATOM      2  C   UNL     1     -22.506  33.475 -21.428  1.00  0.00     0.014 C 
ATOM      3  C   UNL     1     -21.352  31.218 -21.355  1.00  0.00     0.014 C 
ATOM      4  C   UNL     1     -20.382  33.113 -22.782  1.00  0.00     0.030 C 
ATOM      5  C   UNL     1     -22.815  34.743 -22.221  1.00  0.00     0.004 C 
ATOM      6  C   UNL     1     -19.909  30.669 -21.508  1.00  0.00     0.013 C 
ATOM      7  C   UNL     1     -19.614  32.056 -23.609  1.00  0.00    -0.063 C 
ATOM      8  C   UNL     1     -20.556  34.536 -23.433  1.00  0.00    -0.003 C 
ATOM      9  C   UNL     1     -21.515  35.458 -22.611  1.00  0.00    -0.011 C 
ATOM     10  C   UNL     1     -19.370  30.681 -22.980  1.00  0.00    -0.006 C 
ATOM     11  C   UNL     1     -19.084  32.305 -24.830  1.00  0.00    -0.027 C 
ATOM     12  C   UNL     1     -19.181  35.249 -23.552  1.00  0.00     0.008 C 
ATOM     13  C   UNL     1     -21.858  36.750 -23.374  1.00  0.00     0.008 C 
ATOM     14  C   UNL     1     -20.211  29.621 -23.777  1.00  0.00     0.017 C 
ATOM     15  C   UNL     1     -17.795  30.401 -23.080  1.00  0.00    -0.020 C 
ATOM     16  C   UNL     1     -18.086  31.392 -25.513  1.00  0.00     0.032 C 
ATOM     17  C   UNL     1     -17.427  30.284 -24.614  1.00  0.00     0.006 C 
ATOM     18  C   UNL     1     -17.396  29.082 -22.340  1.00  0.00     0.008 C 
ATOM     19  C   UNL     1     -16.994  31.562 -22.400  1.00  0.00     0.012 C 
ATOM     20  C   UNL     1     -15.901  29.974 -24.948  1.00  0.00    -0.025 C 
ATOM     21  C   UNL     1     -16.381  28.196 -23.080  1.00  0.00     0.005 C 
ATOM     22  C   UNL     1     -15.277  28.976 -23.862  1.00  0.00     0.003 C 
ATOM     23  C   UNL     1     -15.832  29.342 -26.391  1.00  0.00     0.010 C 
ATOM     24  C   UNL     1     -15.072  31.306 -24.996  1.00  0.00     0.012 C 
ATOM     25  C   UNL     1     -14.181  27.986 -24.451  1.00  0.00    -0.006 C 
ATOM     26  C   UNL     1     -15.921  27.821 -26.404  1.00  0.00     0.033 C 
ATOM     27  C   UNL     1     -14.752  27.143 -25.658  1.00  0.00     0.120 C 
ATOM     28  C   UNL     1     -12.930  28.785 -24.921  1.00  0.00     0.014 C 
ATOM     29  C   UNL     1     -13.622  27.039 -23.343  1.00  0.00     0.014 C 
ENDROOT
BRANCH   1  30
ATOM     30  C   UNL     1     -22.610  31.984 -23.414  1.00  0.00     0.048 C 
ATOM     31  O   UNL     1     -22.372  32.297 -24.612  1.00  0.00    -0.550 OA
ATOM     32  O   UNL     1     -23.747  31.233 -23.134  1.00  0.00    -0.550 OA
ENDBRANCH   1  30
BRANCH  27  33
ATOM     33  O   UNL     1     -15.189  25.876 -25.228  1.00  0.00    -0.393 OA
ATOM     34  H   UNL     1     -16.173  25.932 -25.099  1.00  0.00     0.210 HD
ENDBRANCH  27  33
TORSDOF 2
ENDMDL
MODEL 3
REMARK VINA RESULT:    -6.956      1.502      1.703
REMARK INTER + INTRA:          -7.043
REMARK INTER:                  -7.229
REMARK INTRA:                   0.186
REMARK UNBOUND:                 0.523
REMARK SMILES C[C@@H]1[C@@H](C)CC[C@]2(C(=O)[O-])CC[C@@]3(C)C(=CC[C@H]4[C@]5(C)CC[C@H](O)C(C)(C)[C@@H]5CC[C@@]43C)[C@@H]12
REMARK SMILES IDX 7 1 6 2 11 3 33 4 5 5 12 6 15 7 2 8 3 9 13 10 16 11 1 12
REMARK SMILES IDX 4 13 14 14 31 15 17 16 18 17 30 18 32 19 19 20 29 21 28 22
REMARK SMILES IDX 21 23 20 24 25 25 22 26 23 27 26 28 27 29 8 30 9 31 10 32
REMARK SMILES IDX 24 33
REMARK H PARENT 24 34
REMARK Flexibility Score: inf
ROOT
ATOM      1  C   UNL     1     -19.725  33.183 -23.554  1.00  0.00     0.017 C 
ATOM      2  C   UNL     1     -21.020  33.895 -24.012  1.00  0.00     0.014 C 
ATOM      3  C   UNL     1     -18.528  33.700 -24.440  1.00  0.00     0.014 C 
ATOM      4  C   UNL     1     -19.879  31.635 -23.746  1.00  0.00     0.030 C 
ATOM      5  C   UNL     1     -22.245  33.383 -23.258  1.00  0.00     0.004 C 
ATOM      6  C   UNL     1     -17.535  32.608 -24.919  1.00  0.00     0.013 C 
ATOM      7  C   UNL     1     -18.564  30.967 -23.285  1.00  0.00    -0.063 C 
ATOM      8  C   UNL     1     -21.220  31.026 -23.190  1.00  0.00    -0.003 C 
ATOM      9  C   UNL     1     -22.469  31.895 -23.551  1.00  0.00    -0.011 C 
ATOM     10  C   UNL     1     -17.245  31.493 -23.857  1.00  0.00    -0.006 C 
ATOM     11  C   UNL     1     -18.522  29.895 -22.458  1.00  0.00    -0.027 C 
ATOM     12  C   UNL     1     -21.443  29.597 -23.758  1.00  0.00     0.008 C 
ATOM     13  C   UNL     1     -23.731  31.418 -22.809  1.00  0.00     0.008 C 
ATOM     14  C   UNL     1     -16.444  32.177 -22.692  1.00  0.00     0.017 C 
ATOM     15  C   UNL     1     -16.467  30.229 -24.461  1.00  0.00    -0.020 C 
ATOM     16  C   UNL     1     -17.282  29.054 -22.238  1.00  0.00     0.032 C 
ATOM     17  C   UNL     1     -16.104  29.269 -23.257  1.00  0.00     0.006 C 
ATOM     18  C   UNL     1     -15.161  30.657 -25.206  1.00  0.00     0.008 C 
ATOM     19  C   UNL     1     -17.366  29.492 -25.511  1.00  0.00     0.012 C 
ATOM     20  C   UNL     1     -15.294  27.950 -23.630  1.00  0.00    -0.025 C 
ATOM     21  C   UNL     1     -13.934  29.767 -24.946  1.00  0.00     0.005 C 
ATOM     22  C   UNL     1     -14.248  28.244 -24.807  1.00  0.00     0.003 C 
ATOM     23  C   UNL     1     -14.549  27.448 -22.335  1.00  0.00     0.010 C 
ATOM     24  C   UNL     1     -16.280  26.806 -24.058  1.00  0.00     0.012 C 
ATOM     25  C   UNL     1     -12.912  27.388 -24.711  1.00  0.00    -0.006 C 
ATOM     26  C   UNL     1     -13.141  28.009 -22.175  1.00  0.00     0.033 C 
ATOM     27  C   UNL     1     -12.193  27.592 -23.320  1.00  0.00     0.120 C 
ATOM     28  C   UNL     1     -13.224  25.876 -24.917  1.00  0.00     0.014 C 
ATOM     29  C   UNL     1     -11.937  27.728 -25.881  1.00  0.00     0.014 C 
ENDROOT
BRANCH   1  30
ATOM     30  C   UNL     1     -19.472  33.570 -22.094  1.00  0.00     0.048 C 
ATOM     31  O   UNL     1     -19.934  32.887 -21.141  1.00  0.00    -0.550 OA
ATOM     32  O   UNL     1     -18.755  34.726 -21.800  1.00  0.00    -0.550 OA
ENDBRANCH   1  30
BRANCH  27  33
ATOM     33  O   UNL     1     -11.176  28.560 -23.413  1.00  0.00    -0.393 OA
ATOM     34  H   UNL     1     -11.183  28.906 -24.345  1.00  0.00     0.210 HD
ENDBRANCH  27  33
TORSDOF 2
ENDMDL
MODEL 4
REMARK VINA RESULT:    -6.284      1.926      7.992
REMARK INTER + INTRA:          -6.312
REMARK INTER:                  -6.512
REMARK INTRA:                   0.201
REMARK UNBOUND:                 0.523
REMARK SMILES C[C@@H]1[C@@H](C)CC[C@]2(C(=O)[O-])CC[C@@]3(C)C(=CC[C@H]4[C@]5(C)CC[C@H](O)C(C)(C)[C@@H]5CC[C@@]43C)[C@@H]12
REMARK SMILES IDX 7 1 6 2 11 3 33 4 5 5 12 6 15 7 2 8 3 9 13 10 16 11 1 12
REMARK SMILES IDX 4 13 14 14 31 15 17 16 18 17 30 18 32 19 19 20 29 21 28 22
REMARK SMILES IDX 21 23 20 24 25 25 22 26 23 27 26 28 27 29 8 30 9 31 10 32
REMARK SMILES IDX 24 33
REMARK H PARENT 24 34
REMARK Flexibility Score: inf
ROOT
ATOM      1  C   UNL     1     -13.432  28.038 -23.752  1.00  0.00     0.017 C 
ATOM      2  C   UNL     1     -11.987  27.661 -23.347  1.00  0.00     0.014 C 
ATOM      3  C   UNL     1     -13.371  29.253 -24.754  1.00  0.00     0.014 C 
ATOM      4  C   UNL     1     -14.243  28.460 -22.478  1.00  0.00     0.030 C 
ATOM      5  C   UNL     1     -11.964  26.544 -22.306  1.00  0.00     0.004 C 
ATOM      6  C   UNL     1     -14.424  30.368 -24.514  1.00  0.00     0.013 C 
ATOM      7  C   UNL     1     -15.673  28.835 -22.929  1.00  0.00    -0.063 C 
ATOM      8  C   UNL     1     -14.116  27.478 -21.254  1.00  0.00    -0.003 C 
ATOM      9  C   UNL     1     -12.645  27.006 -21.012  1.00  0.00    -0.011 C 
ATOM     10  C   UNL     1     -15.832  29.838 -24.075  1.00  0.00    -0.006 C 
ATOM     11  C   UNL     1     -16.791  28.378 -22.316  1.00  0.00    -0.027 C 
ATOM     12  C   UNL     1     -14.626  28.162 -19.956  1.00  0.00     0.008 C 
ATOM     13  C   UNL     1     -12.571  25.875 -19.970  1.00  0.00     0.008 C 
ATOM     14  C   UNL     1     -16.434  29.079 -25.310  1.00  0.00     0.017 C 
ATOM     15  C   UNL     1     -16.807  30.994 -23.544  1.00  0.00    -0.020 C 
ATOM     16  C   UNL     1     -18.171  28.961 -22.547  1.00  0.00     0.032 C 
ATOM     17  C   UNL     1     -18.227  30.344 -23.292  1.00  0.00     0.006 C 
ATOM     18  C   UNL     1     -16.936  32.159 -24.578  1.00  0.00     0.008 C 
ATOM     19  C   UNL     1     -16.237  31.620 -22.226  1.00  0.00     0.012 C 
ATOM     20  C   UNL     1     -19.370  31.330 -22.784  1.00  0.00    -0.025 C 
ATOM     21  C   UNL     1     -18.358  32.711 -24.771  1.00  0.00     0.005 C 
ATOM     22  C   UNL     1     -19.220  32.769 -23.471  1.00  0.00     0.003 C 
ATOM     23  C   UNL     1     -20.765  30.686 -23.134  1.00  0.00     0.010 C 
ATOM     24  C   UNL     1     -19.314  31.470 -21.221  1.00  0.00     0.012 C 
ATOM     25  C   UNL     1     -20.606  33.505 -23.732  1.00  0.00    -0.006 C 
ATOM     26  C   UNL     1     -21.312  31.100 -24.495  1.00  0.00     0.033 C 
ATOM     27  C   UNL     1     -21.579  32.616 -24.602  1.00  0.00     0.120 C 
ATOM     28  C   UNL     1     -21.293  33.856 -22.379  1.00  0.00     0.014 C 
ATOM     29  C   UNL     1     -20.388  34.895 -24.408  1.00  0.00     0.014 C 
ENDROOT
BRANCH   1  30
ATOM     30  C   UNL     1     -14.047  26.831 -24.464  1.00  0.00     0.048 C 
ATOM     31  O   UNL     1     -13.934  26.673 -25.710  1.00  0.00    -0.550 OA
ATOM     32  O   UNL     1     -14.787  25.904 -23.738  1.00  0.00    -0.550 OA
ENDBRANCH   1  30
BRANCH  27  33
ATOM     33  O   UNL     1     -21.510  32.973 -25.961  1.00  0.00    -0.393 OA
ATOM     34  H   UNL     1     -20.605  33.352 -26.121  1.00  0.00     0.210 HD
ENDBRANCH  27  33
TORSDOF 2
ENDMDL
MODEL 5
REMARK VINA RESULT:    -6.055      2.149      8.582
REMARK INTER + INTRA:          -6.063
REMARK INTER:                  -6.257
REMARK INTRA:                   0.194
REMARK UNBOUND:                 0.523
REMARK SMILES C[C@@H]1[C@@H](C)CC[C@]2(C(=O)[O-])CC[C@@]3(C)C(=CC[C@H]4[C@]5(C)CC[C@H](O)C(C)(C)[C@@H]5CC[C@@]43C)[C@@H]12
REMARK SMILES IDX 7 1 6 2 11 3 33 4 5 5 12 6 15 7 2 8 3 9 13 10 16 11 1 12
REMARK SMILES IDX 4 13 14 14 31 15 17 16 18 17 30 18 32 19 19 20 29 21 28 22
REMARK SMILES IDX 21 23 20 24 25 25 22 26 23 27 26 28 27 29 8 30 9 31 10 32
REMARK SMILES IDX 24 33
REMARK H PARENT 24 34
REMARK Flexibility Score: inf
ROOT
ATOM      1  C   UNL     1     -12.766  26.802 -24.074  1.00  0.00     0.017 C 
ATOM      2  C   UNL     1     -11.705  25.886 -24.730  1.00  0.00     0.014 C 
ATOM      3  C   UNL     1     -13.993  25.915 -23.637  1.00  0.00     0.014 C 
ATOM      4  C   UNL     1     -13.247  27.875 -25.110  1.00  0.00     0.030 C 
ATOM      5  C   UNL     1     -10.517  26.685 -25.261  1.00  0.00     0.004 C 
ATOM      6  C   UNL     1     -15.392  26.521 -23.932  1.00  0.00     0.013 C 
ATOM      7  C   UNL     1     -14.308  28.760 -24.417  1.00  0.00    -0.063 C 
ATOM      8  C   UNL     1     -12.095  28.618 -25.883  1.00  0.00    -0.003 C 
ATOM      9  C   UNL     1     -10.971  27.644 -26.368  1.00  0.00    -0.011 C 
ATOM     10  C   UNL     1     -15.479  28.070 -23.712  1.00  0.00    -0.006 C 
ATOM     11  C   UNL     1     -14.296  30.114 -24.464  1.00  0.00    -0.027 C 
ATOM     12  C   UNL     1     -12.663  29.359 -27.123  1.00  0.00     0.008 C 
ATOM     13  C   UNL     1      -9.748  28.406 -26.909  1.00  0.00     0.008 C 
ATOM     14  C   UNL     1     -15.335  28.315 -22.168  1.00  0.00     0.017 C 
ATOM     15  C   UNL     1     -16.821  28.718 -24.303  1.00  0.00    -0.020 C 
ATOM     16  C   UNL     1     -15.471  30.978 -24.055  1.00  0.00     0.032 C 
ATOM     17  C   UNL     1     -16.847  30.240 -23.871  1.00  0.00     0.006 C 
ATOM     18  C   UNL     1     -18.098  27.995 -23.763  1.00  0.00     0.008 C 
ATOM     19  C   UNL     1     -16.848  28.580 -25.863  1.00  0.00     0.012 C 
ATOM     20  C   UNL     1     -18.121  31.078 -24.331  1.00  0.00    -0.025 C 
ATOM     21  C   UNL     1     -19.258  28.921 -23.364  1.00  0.00     0.005 C 
ATOM     22  C   UNL     1     -19.441  30.173 -24.279  1.00  0.00     0.003 C 
ATOM     23  C   UNL     1     -18.260  32.324 -23.375  1.00  0.00     0.010 C 
ATOM     24  C   UNL     1     -17.909  31.641 -25.781  1.00  0.00     0.012 C 
ATOM     25  C   UNL     1     -20.759  30.977 -23.896  1.00  0.00    -0.006 C 
ATOM     26  C   UNL     1     -19.136  32.070 -22.154  1.00  0.00     0.033 C 
ATOM     27  C   UNL     1     -20.597  31.732 -22.519  1.00  0.00     0.120 C 
ATOM     28  C   UNL     1     -21.107  32.003 -25.014  1.00  0.00     0.014 C 
ATOM     29  C   UNL     1     -22.003  30.035 -23.857  1.00  0.00     0.014 C 
ENDROOT
BRANCH   1  30
ATOM     30  C   UNL     1     -12.134  27.431 -22.830  1.00  0.00     0.048 C 
ATOM     31  O   UNL     1     -11.485  28.510 -22.894  1.00  0.00    -0.550 OA
ATOM     32  O   UNL     1     -12.232  26.783 -21.602  1.00  0.00    -0.550 OA
ENDBRANCH   1  30
BRANCH  27  33
ATOM     33  O   UNL     1     -21.145  30.981 -21.463  1.00  0.00    -0.393 OA
ATOM     34  H   UNL     1     -20.624  31.200 -20.645  1.00  0.00     0.210 HD
ENDBRANCH  27  33
TORSDOF 2
ENDMDL
MODEL 6
REMARK VINA RESULT:    -5.193      1.860      8.199
REMARK INTER + INTRA:          -5.125
REMARK INTER:                  -5.797
REMARK INTRA:                   0.672
REMARK UNBOUND:                 0.523
REMARK SMILES C[C@@H]1[C@@H](C)CC[C@]2(C(=O)[O-])CC[C@@]3(C)C(=CC[C@H]4[C@]5(C)CC[C@H](O)C(C)(C)[C@@H]5CC[C@@]43C)[C@@H]12
REMARK SMILES IDX 7 1 6 2 11 3 33 4 5 5 12 6 15 7 2 8 3 9 13 10 16 11 1 12
REMARK SMILES IDX 4 13 14 14 31 15 17 16 18 17 30 18 32 19 19 20 29 21 28 22
REMARK SMILES IDX 21 23 20 24 25 25 22 26 23 27 26 28 27 29 8 30 9 31 10 32
REMARK SMILES IDX 24 33
REMARK H PARENT 24 34
REMARK Flexibility Score: inf
ROOT
ATOM      1  C   UNL     1     -14.874  27.127 -25.033  1.00  0.00     0.017 C 
ATOM      2  C   UNL     1     -13.767  26.335 -25.769  1.00  0.00     0.014 C 
ATOM      3  C   UNL     1     -16.044  27.416 -26.048  1.00  0.00     0.014 C 
ATOM      4  C   UNL     1     -14.292  28.487 -24.515  1.00  0.00     0.030 C 
ATOM      5  C   UNL     1     -12.555  26.090 -24.874  1.00  0.00     0.004 C 
ATOM      6  C   UNL     1     -16.645  28.846 -25.983  1.00  0.00     0.013 C 
ATOM      7  C   UNL     1     -15.430  29.246 -23.795  1.00  0.00    -0.063 C 
ATOM      8  C   UNL     1     -12.918  28.377 -23.755  1.00  0.00    -0.003 C 
ATOM      9  C   UNL     1     -11.909  27.422 -24.474  1.00  0.00    -0.011 C 
ATOM     10  C   UNL     1     -16.759  29.428 -24.533  1.00  0.00    -0.006 C 
ATOM     11  C   UNL     1     -15.289  29.821 -22.576  1.00  0.00    -0.027 C 
ATOM     12  C   UNL     1     -12.255  29.775 -23.626  1.00  0.00     0.008 C 
ATOM     13  C   UNL     1     -10.669  27.142 -23.605  1.00  0.00     0.008 C 
ATOM     14  C   UNL     1     -17.852  28.580 -23.791  1.00  0.00     0.017 C 
ATOM     15  C   UNL     1     -17.091  30.996 -24.505  1.00  0.00    -0.020 C 
ATOM     16  C   UNL     1     -16.279  30.810 -21.996  1.00  0.00     0.032 C 
ATOM     17  C   UNL     1     -17.334  31.407 -22.997  1.00  0.00     0.006 C 
ATOM     18  C   UNL     1     -18.361  31.332 -25.354  1.00  0.00     0.008 C 
ATOM     19  C   UNL     1     -15.905  31.812 -25.121  1.00  0.00     0.012 C 
ATOM     20  C   UNL     1     -17.713  32.932 -22.736  1.00  0.00    -0.025 C 
ATOM     21  C   UNL     1     -19.329  32.341 -24.715  1.00  0.00     0.005 C 
ATOM     22  C   UNL     1     -18.642  33.492 -23.914  1.00  0.00     0.003 C 
ATOM     23  C   UNL     1     -18.453  33.025 -21.348  1.00  0.00     0.010 C 
ATOM     24  C   UNL     1     -16.412  33.803 -22.615  1.00  0.00     0.012 C 
ATOM     25  C   UNL     1     -19.705  34.574 -23.436  1.00  0.00    -0.006 C 
ATOM     26  C   UNL     1     -19.968  32.890 -21.446  1.00  0.00     0.033 C 
ATOM     27  C   UNL     1     -20.621  34.014 -22.278  1.00  0.00     0.120 C 
ATOM     28  C   UNL     1     -18.980  35.863 -22.949  1.00  0.00     0.014 C 
ATOM     29  C   UNL     1     -20.581  35.070 -24.629  1.00  0.00     0.014 C 
ENDROOT
BRANCH   1  30
ATOM     30  C   UNL     1     -15.402  26.245 -23.897  1.00  0.00     0.048 C 
ATOM     31  O   UNL     1     -16.606  25.875 -23.855  1.00  0.00    -0.550 OA
ATOM     32  O   UNL     1     -14.553  25.875 -22.859  1.00  0.00    -0.550 OA
ENDBRANCH   1  30
BRANCH  27  33
ATOM     33  O   UNL     1     -21.838  33.526 -22.787  1.00  0.00    -0.393 OA
ATOM     34  H   UNL     1     -22.021  32.660 -22.333  1.00  0.00     0.210 HD
ENDBRANCH  27  33
TORSDOF 2
ENDMDL
