MODEL 1
REMARK VINA RESULT:    -4.258      0.000      0.000
REMARK INTER + INTRA:          -5.486
REMARK INTER:                  -5.254
REMARK INTRA:                  -0.232
REMARK UNBOUND:                -0.232
REMARK SMILES CCCCCC(=O)[O-]
REMARK SMILES IDX 4 1 5 2 6 3 7 4 8 5 3 6 2 7 1 8
REMARK H PARENT
REMARK Flexibility Score: inf
ROOT
ATOM      1  C   UNL     1      64.987 149.131   5.461  1.00  0.00     0.006 C 
ENDROOT
BRANCH   1   2
ATOM      2  C   UNL     1      63.665 149.393   6.189  1.00  0.00     0.053 C 
BRANCH   2   3
ATOM      3  C   UNL     1      62.547 148.650   5.528  1.00  0.00     0.041 C 
ATOM      4  O   UNL     1      61.507 149.259   5.164  1.00  0.00    -0.550 OA
ATOM      5  O   UNL     1      62.632 147.273   5.359  1.00  0.00    -0.550 OA
ENDBRANCH   2   3
ENDBRANCH   1   2
BRANCH   1   6
ATOM      6  C   UNL     1      64.996 149.796   4.081  1.00  0.00     0.000 C 
BRANCH   6   7
ATOM      7  C   UNL     1      64.727 151.301   4.194  1.00  0.00    -0.003 C 
ATOM      8  C   UNL     1      63.479 151.699   3.410  1.00  0.00     0.004 C 
ENDBRANCH   6   7
ENDBRANCH   1   6
TORSDOF 4
ENDMDL
MODEL 2
REMARK VINA RESULT:    -4.255      1.267      1.936
REMARK INTER + INTRA:          -5.481
REMARK INTER:                  -5.226
REMARK INTRA:                  -0.256
REMARK UNBOUND:                -0.232
REMARK SMILES CCCCCC(=O)[O-]
REMARK SMILES IDX 4 1 5 2 6 3 7 4 8 5 3 6 2 7 1 8
REMARK H PARENT
REMARK Flexibility Score: inf
ROOT
ATOM      1  C   UNL     1      65.024 149.788   3.912  1.00  0.00     0.006 C 
ENDROOT
BRANCH   1   2
ATOM      2  C   UNL     1      65.066 149.286   5.358  1.00  0.00     0.053 C 
BRANCH   2   3
ATOM      3  C   UNL     1      63.689 148.956   5.839  1.00  0.00     0.041 C 
ATOM      4  O   UNL     1      63.048 148.002   5.324  1.00  0.00    -0.550 OA
ATOM      5  O   UNL     1      63.092 149.735   6.823  1.00  0.00    -0.550 OA
ENDBRANCH   2   3
ENDBRANCH   1   2
BRANCH   1   6
ATOM      6  C   UNL     1      64.306 151.140   3.821  1.00  0.00     0.000 C 
BRANCH   6   7
ATOM      7  C   UNL     1      65.117 152.241   4.513  1.00  0.00    -0.003 C 
ATOM      8  C   UNL     1      64.319 152.886   5.643  1.00  0.00     0.004 C 
ENDBRANCH   6   7
ENDBRANCH   1   6
TORSDOF 4
ENDMDL
MODEL 3
REMARK VINA RESULT:    -4.249      0.114      1.151
REMARK INTER + INTRA:          -5.475
REMARK INTER:                  -5.238
REMARK INTRA:                  -0.237
REMARK UNBOUND:                -0.232
REMARK SMILES CCCCCC(=O)[O-]
REMARK SMILES IDX 4 1 5 2 6 3 7 4 8 5 3 6 2 7 1 8
REMARK H PARENT
REMARK Flexibility Score: inf
ROOT
ATOM      1  C   UNL     1      65.079 149.157   5.370  1.00  0.00     0.006 C 
ENDROOT
BRANCH   1   2
ATOM      2  C   UNL     1      63.796 149.409   6.167  1.00  0.00     0.053 C 
BRANCH   2   3
ATOM      3  C   UNL     1      62.649 148.662   5.565  1.00  0.00     0.041 C 
ATOM      4  O   UNL     1      62.727 147.418   5.383  1.00  0.00    -0.550 OA
ATOM      5  O   UNL     1      61.510 149.347   5.156  1.00  0.00    -0.550 OA
ENDBRANCH   2   3
ENDBRANCH   1   2
BRANCH   1   6
ATOM      6  C   UNL     1      65.017 149.840   3.999  1.00  0.00     0.000 C 
BRANCH   6   7
ATOM      7  C   UNL     1      64.699 151.333   4.142  1.00  0.00    -0.003 C 
ATOM      8  C   UNL     1      63.453 151.710   3.346  1.00  0.00     0.004 C 
ENDBRANCH   6   7
ENDBRANCH   1   6
TORSDOF 4
ENDMDL
MODEL 4
REMARK VINA RESULT:    -4.107      1.174      1.586
REMARK INTER + INTRA:          -5.300
REMARK INTER:                  -5.073
REMARK INTRA:                  -0.227
REMARK UNBOUND:                -0.232
REMARK SMILES CCCCCC(=O)[O-]
REMARK SMILES IDX 4 1 5 2 6 3 7 4 8 5 3 6 2 7 1 8
REMARK H PARENT
REMARK Flexibility Score: inf
ROOT
ATOM      1  C   UNL     1      65.002 149.544   5.301  1.00  0.00     0.006 C 
ENDROOT
BRANCH   1   2
ATOM      2  C   UNL     1      63.850 148.551   5.481  1.00  0.00     0.053 C 
BRANCH   2   3
ATOM      3  C   UNL     1      62.628 149.252   5.983  1.00  0.00     0.041 C 
ATOM      4  O   UNL     1      61.569 149.251   5.302  1.00  0.00    -0.550 OA
ATOM      5  O   UNL     1      62.672 149.951   7.185  1.00  0.00    -0.550 OA
ENDBRANCH   2   3
ENDBRANCH   1   2
BRANCH   1   6
ATOM      6  C   UNL     1      64.912 150.251   3.943  1.00  0.00     0.000 C 
BRANCH   6   7
ATOM      7  C   UNL     1      64.541 151.729   4.117  1.00  0.00    -0.003 C 
ATOM      8  C   UNL     1      65.187 152.316   5.368  1.00  0.00     0.004 C 
ENDBRANCH   6   7
ENDBRANCH   1   6
TORSDOF 4
ENDMDL
MODEL 5
REMARK VINA RESULT:    -4.033      2.221      3.622
REMARK INTER + INTRA:          -5.208
REMARK INTER:                  -5.008
REMARK INTRA:                  -0.200
REMARK UNBOUND:                -0.232
REMARK SMILES CCCCCC(=O)[O-]
REMARK SMILES IDX 4 1 5 2 6 3 7 4 8 5 3 6 2 7 1 8
REMARK H PARENT
REMARK Flexibility Score: inf
ROOT
ATOM      1  C   UNL     1      65.193 149.489   5.420  1.00  0.00     0.006 C 
ENDROOT
BRANCH   1   2
ATOM      2  C   UNL     1      64.967 149.901   3.963  1.00  0.00     0.053 C 
BRANCH   2   3
ATOM      3  C   UNL     1      64.485 151.315   3.887  1.00  0.00     0.041 C 
ATOM      4  O   UNL     1      63.468 151.603   3.203  1.00  0.00    -0.550 OA
ATOM      5  O   UNL     1      65.189 152.325   4.531  1.00  0.00    -0.550 OA
ENDBRANCH   2   3
ENDBRANCH   1   2
BRANCH   1   6
ATOM      6  C   UNL     1      63.860 149.271   6.143  1.00  0.00     0.000 C 
BRANCH   6   7
ATOM      7  C   UNL     1      63.003 148.229   5.415  1.00  0.00    -0.003 C 
ATOM      8  C   UNL     1      61.515 148.523   5.582  1.00  0.00     0.004 C 
ENDBRANCH   6   7
ENDBRANCH   1   6
TORSDOF 4
ENDMDL
MODEL 6
REMARK VINA RESULT:    -3.944      2.114      3.131
REMARK INTER + INTRA:          -5.098
REMARK INTER:                  -5.003
REMARK INTRA:                  -0.095
REMARK UNBOUND:                -0.232
REMARK SMILES CCCCCC(=O)[O-]
REMARK SMILES IDX 4 1 5 2 6 3 7 4 8 5 3 6 2 7 1 8
REMARK H PARENT
REMARK Flexibility Score: inf
ROOT
ATOM      1  C   UNL     1      63.895 151.583   3.506  1.00  0.00     0.006 C 
ENDROOT
BRANCH   1   2
ATOM      2  C   UNL     1      64.584 151.165   4.809  1.00  0.00     0.053 C 
BRANCH   2   3
ATOM      3  C   UNL     1      64.676 149.675   4.898  1.00  0.00     0.041 C 
ATOM      4  O   UNL     1      65.217 149.015   3.972  1.00  0.00    -0.550 OA
ATOM      5  O   UNL     1      64.118 149.008   5.982  1.00  0.00    -0.550 OA
ENDBRANCH   2   3
ENDBRANCH   1   2
BRANCH   1   6
ATOM      6  C   UNL     1      62.370 151.556   3.658  1.00  0.00     0.000 C 
BRANCH   6   7
ATOM      7  C   UNL     1      61.680 151.875   2.326  1.00  0.00    -0.003 C 
ATOM      8  C   UNL     1      60.315 152.520   2.553  1.00  0.00     0.004 C 
ENDBRANCH   6   7
ENDBRANCH   1   6
TORSDOF 4
ENDMDL
MODEL 7
REMARK VINA RESULT:    -3.940      4.268      5.425
REMARK INTER + INTRA:          -5.093
REMARK INTER:                  -5.032
REMARK INTRA:                  -0.061
REMARK UNBOUND:                -0.232
REMARK SMILES CCCCCC(=O)[O-]
REMARK SMILES IDX 4 1 5 2 6 3 7 4 8 5 3 6 2 7 1 8
REMARK H PARENT
REMARK Flexibility Score: inf
ROOT
ATOM      1  C   UNL     1      61.984 151.995   2.336  1.00  0.00     0.006 C 
ENDROOT
BRANCH   1   2
ATOM      2  C   UNL     1      60.508 152.393   2.441  1.00  0.00     0.053 C 
BRANCH   2   3
ATOM      3  C   UNL     1      60.169 153.423   1.412  1.00  0.00     0.041 C 
ATOM      4  O   UNL     1      61.040 153.809   0.589  1.00  0.00    -0.550 OA
ATOM      5  O   UNL     1      58.902 153.996   1.393  1.00  0.00    -0.550 OA
ENDBRANCH   2   3
ENDBRANCH   1   2
BRANCH   1   6
ATOM      6  C   UNL     1      62.534 151.557   3.698  1.00  0.00     0.000 C 
BRANCH   6   7
ATOM      7  C   UNL     1      64.045 151.306   3.626  1.00  0.00    -0.003 C 
ATOM      8  C   UNL     1      64.816 152.350   4.428  1.00  0.00     0.004 C 
ENDBRANCH   6   7
ENDBRANCH   1   6
TORSDOF 4
ENDMDL
MODEL 8
REMARK VINA RESULT:    -3.878      1.977      3.332
REMARK INTER + INTRA:          -5.017
REMARK INTER:                  -4.794
REMARK INTRA:                  -0.223
REMARK UNBOUND:                -0.232
REMARK SMILES CCCCCC(=O)[O-]
REMARK SMILES IDX 4 1 5 2 6 3 7 4 8 5 3 6 2 7 1 8
REMARK H PARENT
REMARK Flexibility Score: inf
ROOT
ATOM      1  C   UNL     1      63.487 151.786   3.565  1.00  0.00     0.006 C 
ENDROOT
BRANCH   1   2
ATOM      2  C   UNL     1      62.287 151.278   4.370  1.00  0.00     0.053 C 
BRANCH   2   3
ATOM      3  C   UNL     1      62.408 151.685   5.804  1.00  0.00     0.041 C 
ATOM      4  O   UNL     1      62.453 150.812   6.710  1.00  0.00    -0.550 OA
ATOM      5  O   UNL     1      62.421 153.032   6.146  1.00  0.00    -0.550 OA
ENDBRANCH   2   3
ENDBRANCH   1   2
BRANCH   1   6
ATOM      6  C   UNL     1      64.807 151.350   4.213  1.00  0.00     0.000 C 
BRANCH   6   7
ATOM      7  C   UNL     1      65.010 149.836   4.082  1.00  0.00    -0.003 C 
ATOM      8  C   UNL     1      65.274 149.195   5.442  1.00  0.00     0.004 C 
ENDBRANCH   6   7
ENDBRANCH   1   6
TORSDOF 4
ENDMDL
MODEL 9
REMARK VINA RESULT:    -3.827      2.981      4.416
REMARK INTER + INTRA:          -4.954
REMARK INTER:                  -4.881
REMARK INTRA:                  -0.073
REMARK UNBOUND:                -0.232
REMARK SMILES CCCCCC(=O)[O-]
REMARK SMILES IDX 4 1 5 2 6 3 7 4 8 5 3 6 2 7 1 8
REMARK H PARENT
REMARK Flexibility Score: inf
ROOT
ATOM      1  C   UNL     1      62.415 151.530   3.692  1.00  0.00     0.006 C 
ENDROOT
BRANCH   1   2
ATOM      2  C   UNL     1      61.741 151.877   2.360  1.00  0.00     0.053 C 
BRANCH   2   3
ATOM      3  C   UNL     1      60.458 152.607   2.597  1.00  0.00     0.041 C 
ATOM      4  O   UNL     1      59.923 152.597   3.737  1.00  0.00    -0.550 OA
ATOM      5  O   UNL     1      59.825 153.260   1.546  1.00  0.00    -0.550 OA
ENDBRANCH   2   3
ENDBRANCH   1   2
BRANCH   1   6
ATOM      6  C   UNL     1      63.941 151.600   3.570  1.00  0.00     0.000 C 
BRANCH   6   7
ATOM      7  C   UNL     1      64.619 150.754   4.654  1.00  0.00    -0.003 C 
ATOM      8  C   UNL     1      65.086 149.412   4.095  1.00  0.00     0.004 C 
ENDBRANCH   6   7
ENDBRANCH   1   6
TORSDOF 4
ENDMDL
