MODEL 1
REMARK VINA RESULT:    19.801      0.000      0.000
REMARK INTER + INTRA:          24.637
REMARK INTER:                  23.852
REMARK INTRA:                   0.785
REMARK UNBOUND:                 0.785
REMARK SMILES [NH3+][C@@H](Cc1c[nH]c2ccccc12)C(=O)[O-]
REMARK SMILES IDX 3 1 2 2 1 3 13 7 14 8 15 9 4 10 12 11 5 12 7 13 11 14 6 15
REMARK SMILES IDX 8 16 10 17 9 19
REMARK H PARENT 1 4 1 5 1 6 6 18
REMARK Flexibility Score: inf
ROOT
ATOM      1  C   UNL     1      13.067  -5.914  11.122  1.00  0.00     0.109 C 
ENDROOT
BRANCH   1   2
ATOM      2  C   UNL     1      13.809  -7.265  11.064  1.00  0.00     0.232 C 
BRANCH   2   3
ATOM      3  N   UNL     1      14.727  -7.298   9.920  1.00  0.00    -0.350 N 
ATOM      4  H   UNL     1      15.709  -7.105  10.227  1.00  0.00     0.345 HD
ATOM      5  H   UNL     1      14.439  -6.583   9.213  1.00  0.00     0.345 HD
ATOM      6  H   UNL     1      14.691  -8.240   9.465  1.00  0.00     0.345 HD
ENDBRANCH   2   3
BRANCH   2   7
ATOM      7  C   UNL     1      12.833  -8.411  10.981  1.00  0.00     0.099 C 
ATOM      8  O   UNL     1      12.607  -8.971   9.875  1.00  0.00    -0.544 OA
ATOM      9  O   UNL     1      12.200  -8.879  12.126  1.00  0.00    -0.544 OA
ENDBRANCH   2   7
ENDBRANCH   1   2
BRANCH   1  10
ATOM     10  C   UNL     1      14.024  -4.762  11.242  1.00  0.00    -0.016 A 
ATOM     11  C   UNL     1      14.866  -4.253  10.270  1.00  0.00     0.003 A 
ATOM     12  C   UNL     1      14.170  -3.923  12.342  1.00  0.00     0.087 A 
ATOM     13  C   UNL     1      15.484  -3.158  10.816  1.00  0.00     0.046 A 
ATOM     14  C   UNL     1      15.118  -4.662   8.960  1.00  0.00     0.010 A 
ATOM     15  N   UNL     1      15.069  -2.948  12.078  1.00  0.00    -0.361 N 
ATOM     16  C   UNL     1      16.400  -2.396  10.091  1.00  0.00     0.026 A 
ATOM     17  C   UNL     1      16.041  -3.913   8.205  1.00  0.00     0.001 A 
ATOM     18  H   UNL     1      15.367  -2.181  12.720  1.00  0.00     0.166 HD
ATOM     19  C   UNL     1      16.678  -2.786   8.769  1.00  0.00     0.002 A 
ENDBRANCH   1  10
TORSDOF 4
ENDMDL
MODEL 2
REMARK VINA RESULT:    22.044     18.908     20.383
REMARK INTER + INTRA:          27.339
REMARK INTER:                  27.636
REMARK INTRA:                  -0.298
REMARK UNBOUND:                 0.785
REMARK SMILES [NH3+][C@@H](Cc1c[nH]c2ccccc12)C(=O)[O-]
REMARK SMILES IDX 3 1 2 2 1 3 13 7 14 8 15 9 4 10 12 11 5 12 7 13 11 14 6 15
REMARK SMILES IDX 8 16 10 17 9 19
REMARK H PARENT 1 4 1 5 1 6 6 18
REMARK Flexibility Score: inf
ROOT
ATOM      1  C   UNL     1       3.034   7.113  20.997  1.00  0.00     0.109 C 
ENDROOT
BRANCH   1   2
ATOM      2  C   UNL     1       1.834   7.739  21.736  1.00  0.00     0.232 C 
BRANCH   2   3
ATOM      3  N   UNL     1       1.251   8.825  20.939  1.00  0.00    -0.350 N 
ATOM      4  H   UNL     1       0.213   8.712  20.862  1.00  0.00     0.345 HD
ATOM      5  H   UNL     1       1.670   8.827  19.980  1.00  0.00     0.345 HD
ATOM      6  H   UNL     1       1.460   9.746  21.390  1.00  0.00     0.345 HD
ENDBRANCH   2   3
BRANCH   2   7
ATOM      7  C   UNL     1       2.246   8.253  23.091  1.00  0.00     0.099 C 
ATOM      8  O   UNL     1       2.988   9.266  23.186  1.00  0.00    -0.544 OA
ATOM      9  O   UNL     1       1.784   7.633  24.247  1.00  0.00    -0.544 OA
ENDBRANCH   2   7
ENDBRANCH   1   2
BRANCH   1  10
ATOM     10  C   UNL     1       2.788   5.669  20.663  1.00  0.00    -0.016 A 
ATOM     11  C   UNL     1       2.840   4.581  21.514  1.00  0.00     0.003 A 
ATOM     12  C   UNL     1       2.364   5.167  19.437  1.00  0.00     0.087 A 
ATOM     13  C   UNL     1       2.465   3.486  20.779  1.00  0.00     0.046 A 
ATOM     14  C   UNL     1       3.171   4.480  22.866  1.00  0.00     0.010 A 
ATOM     15  N   UNL     1       2.174   3.831  19.513  1.00  0.00    -0.361 N 
ATOM     16  C   UNL     1       2.399   2.213  21.343  1.00  0.00     0.026 A 
ATOM     17  C   UNL     1       3.116   3.206  23.461  1.00  0.00     0.001 A 
ATOM     18  H   UNL     1       1.853   3.200  18.745  1.00  0.00     0.166 HD
ATOM     19  C   UNL     1       2.732   2.078  22.703  1.00  0.00     0.002 A 
ENDBRANCH   1  10
TORSDOF 4
ENDMDL
MODEL 3
REMARK VINA RESULT:    22.255     18.774     20.531
REMARK INTER + INTRA:          27.593
REMARK INTER:                  26.452
REMARK INTRA:                   1.142
REMARK UNBOUND:                 0.785
REMARK SMILES [NH3+][C@@H](Cc1c[nH]c2ccccc12)C(=O)[O-]
REMARK SMILES IDX 3 1 2 2 1 3 13 7 14 8 15 9 4 10 12 11 5 12 7 13 11 14 6 15
REMARK SMILES IDX 8 16 10 17 9 19
REMARK H PARENT 1 4 1 5 1 6 6 18
REMARK Flexibility Score: inf
ROOT
ATOM      1  C   UNL     1       3.024   7.263  22.441  1.00  0.00     0.109 C 
ENDROOT
BRANCH   1   2
ATOM      2  C   UNL     1       2.065   8.429  22.127  1.00  0.00     0.232 C 
BRANCH   2   3
ATOM      3  N   UNL     1       1.325   8.166  20.887  1.00  0.00    -0.350 N 
ATOM      4  H   UNL     1       0.384   8.622  20.914  1.00  0.00     0.345 HD
ATOM      5  H   UNL     1       1.206   7.135  20.757  1.00  0.00     0.345 HD
ATOM      6  H   UNL     1       1.861   8.539  20.070  1.00  0.00     0.345 HD
ENDBRANCH   2   3
BRANCH   2   7
ATOM      7  C   UNL     1       2.819   9.730  22.016  1.00  0.00     0.099 C 
ATOM      8  O   UNL     1       3.833   9.936  22.733  1.00  0.00    -0.544 OA
ATOM      9  O   UNL     1       2.420  10.696  21.100  1.00  0.00    -0.544 OA
ENDBRANCH   2   7
ENDBRANCH   1   2
BRANCH   1  10
ATOM     10  C   UNL     1       2.840   6.121  21.483  1.00  0.00    -0.016 A 
ATOM     11  C   UNL     1       2.846   4.767  21.765  1.00  0.00     0.003 A 
ATOM     12  C   UNL     1       2.530   6.221  20.131  1.00  0.00     0.087 A 
ATOM     13  C   UNL     1       2.558   4.118  20.592  1.00  0.00     0.046 A 
ATOM     14  C   UNL     1       3.067   4.072  22.954  1.00  0.00     0.010 A 
ATOM     15  N   UNL     1       2.365   4.993  19.590  1.00  0.00    -0.361 N 
ATOM     16  C   UNL     1       2.475   2.728  20.526  1.00  0.00     0.026 A 
ATOM     17  C   UNL     1       2.992   2.667  22.917  1.00  0.00     0.001 A 
ATOM     18  H   UNL     1       2.123   4.773  18.599  1.00  0.00     0.166 HD
ATOM     19  C   UNL     1       2.698   1.998  21.708  1.00  0.00     0.002 A 
ENDBRANCH   1  10
TORSDOF 4
ENDMDL
