MODEL 1
REMARK VINA RESULT:    -5.528      0.000      0.000
REMARK INTER + INTRA:          -6.013
REMARK INTER:                  -6.013
REMARK INTRA:                   0.000
REMARK UNBOUND:                 0.000
REMARK SMILES Cc1cc(O)c2c(c1)C(=O)c1cc(O)cc(O)c1C2=O
REMARK SMILES IDX 1 1 2 2 8 3 7 4 6 5 4 6 3 7 19 8 20 9 18 10 11 11 9 12 10 13
REMARK SMILES IDX 12 14 13 15 15 16 16 17 5 18 17 20 14 22
REMARK H PARENT 5 19 17 21 14 23
REMARK Flexibility Score: inf
ROOT
ATOM      1  C   UNL     1      15.943  -5.485   4.369  1.00  0.00     0.044 C 
ATOM      2  C   UNL     1      16.988  -4.455   4.048  1.00  0.00    -0.047 A 
ATOM      3  C   UNL     1      17.967  -4.128   4.991  1.00  0.00     0.016 A 
ATOM      4  C   UNL     1      18.973  -3.192   4.690  1.00  0.00     0.038 A 
ATOM      5  C   UNL     1      19.005  -2.582   3.416  1.00  0.00     0.076 A 
ATOM      6  C   UNL     1      18.023  -2.933   2.459  1.00  0.00     0.127 A 
ATOM      7  C   UNL     1      17.030  -3.867   2.780  1.00  0.00     0.050 A 
ATOM      8  C   UNL     1      20.074  -1.589   3.109  1.00  0.00     0.201 C 
ATOM      9  O   UNL     1      20.106  -1.035   1.978  1.00  0.00    -0.288 OA
ATOM     10  C   UNL     1      21.105  -1.245   4.130  1.00  0.00     0.076 A 
ATOM     11  C   UNL     1      21.058  -1.867   5.397  1.00  0.00     0.041 A 
ATOM     12  C   UNL     1      19.994  -2.850   5.705  1.00  0.00     0.194 C 
ATOM     13  O   UNL     1      19.959  -3.400   6.841  1.00  0.00    -0.289 OA
ATOM     14  C   UNL     1      22.025  -1.550   6.368  1.00  0.00     0.059 A 
ATOM     15  C   UNL     1      23.034  -0.624   6.090  1.00  0.00     0.120 A 
ATOM     16  C   UNL     1      23.085  -0.008   4.842  1.00  0.00     0.093 A 
ATOM     17  C   UNL     1      22.132  -0.308   3.859  1.00  0.00     0.131 A 
ENDROOT
BRANCH   6  18
ATOM     18  O   UNL     1      18.027  -2.361   1.186  1.00  0.00    -0.507 OA
ATOM     19  H   UNL     1      17.226  -2.421   0.570  1.00  0.00     0.293 HD
ENDBRANCH   6  18
BRANCH  17  20
ATOM     20  O   UNL     1      22.213   0.329   2.620  1.00  0.00    -0.507 OA
ATOM     21  H   UNL     1      21.986   1.310   2.508  1.00  0.00     0.293 HD
ENDBRANCH  17  20
BRANCH  15  22
ATOM     22  O   UNL     1      23.993  -0.309   7.051  1.00  0.00    -0.508 OA
ATOM     23  H   UNL     1      24.862   0.148   6.802  1.00  0.00     0.293 HD
ENDBRANCH  15  22
TORSDOF 3
ENDMDL
MODEL 2
REMARK VINA RESULT:    -5.354      1.365      5.525
REMARK INTER + INTRA:          -5.824
REMARK INTER:                  -5.824
REMARK INTRA:                   0.000
REMARK UNBOUND:                 0.000
REMARK SMILES Cc1cc(O)c2c(c1)C(=O)c1cc(O)cc(O)c1C2=O
REMARK SMILES IDX 1 1 2 2 8 3 7 4 6 5 4 6 3 7 19 8 20 9 18 10 11 11 9 12 10 13
REMARK SMILES IDX 12 14 13 15 15 16 16 17 5 18 17 20 14 22
REMARK H PARENT 5 19 17 21 14 23
REMARK Flexibility Score: inf
ROOT
ATOM      1  C   UNL     1      24.124   1.589   5.673  1.00  0.00     0.044 C 
ATOM      2  C   UNL     1      23.078   0.875   4.867  1.00  0.00    -0.047 A 
ATOM      3  C   UNL     1      22.247  -0.072   5.474  1.00  0.00     0.016 A 
ATOM      4  C   UNL     1      21.239  -0.722   4.738  1.00  0.00     0.038 A 
ATOM      5  C   UNL     1      21.052  -0.407   3.374  1.00  0.00     0.076 A 
ATOM      6  C   UNL     1      21.883   0.568   2.771  1.00  0.00     0.127 A 
ATOM      7  C   UNL     1      22.881   1.202   3.522  1.00  0.00     0.050 A 
ATOM      8  C   UNL     1      19.982  -1.104   2.604  1.00  0.00     0.201 C 
ATOM      9  O   UNL     1      19.814  -0.835   1.385  1.00  0.00    -0.288 OA
ATOM     10  C   UNL     1      19.112  -2.119   3.264  1.00  0.00     0.076 A 
ATOM     11  C   UNL     1      19.312  -2.418   4.630  1.00  0.00     0.041 A 
ATOM     12  C   UNL     1      20.377  -1.730   5.395  1.00  0.00     0.194 C 
ATOM     13  O   UNL     1      20.550  -2.005   6.615  1.00  0.00    -0.289 OA
ATOM     14  C   UNL     1      18.497  -3.373   5.263  1.00  0.00     0.059 A 
ATOM     15  C   UNL     1      17.489  -4.030   4.553  1.00  0.00     0.120 A 
ATOM     16  C   UNL     1      17.287  -3.738   3.205  1.00  0.00     0.093 A 
ATOM     17  C   UNL     1      18.087  -2.791   2.554  1.00  0.00     0.131 A 
ENDROOT
BRANCH   6  18
ATOM     18  O   UNL     1      21.723   0.914   1.429  1.00  0.00    -0.507 OA
ATOM     19  H   UNL     1      20.937   1.467   1.110  1.00  0.00     0.293 HD
ENDBRANCH   6  18
BRANCH  17  20
ATOM     20  O   UNL     1      17.857  -2.523   1.203  1.00  0.00    -0.507 OA
ATOM     21  H   UNL     1      18.021  -1.605   0.806  1.00  0.00     0.293 HD
ENDBRANCH  17  20
BRANCH  15  22
ATOM     22  O   UNL     1      16.680  -4.977   5.179  1.00  0.00    -0.508 OA
ATOM     23  H   UNL     1      16.176  -4.763   6.031  1.00  0.00     0.293 HD
ENDBRANCH  15  22
TORSDOF 3
ENDMDL
MODEL 3
REMARK VINA RESULT:    -5.317      1.536      6.275
REMARK INTER + INTRA:          -5.783
REMARK INTER:                  -5.783
REMARK INTRA:                   0.000
REMARK UNBOUND:                 0.000
REMARK SMILES Cc1cc(O)c2c(c1)C(=O)c1cc(O)cc(O)c1C2=O
REMARK SMILES IDX 1 1 2 2 8 3 7 4 6 5 4 6 3 7 19 8 20 9 18 10 11 11 9 12 10 13
REMARK SMILES IDX 12 14 13 15 15 16 16 17 5 18 17 20 14 22
REMARK H PARENT 5 19 17 21 14 23
REMARK Flexibility Score: inf
ROOT
ATOM      1  C   UNL     1      23.338   2.402   2.149  1.00  0.00     0.044 C 
ATOM      2  C   UNL     1      22.552   1.413   2.961  1.00  0.00    -0.047 A 
ATOM      3  C   UNL     1      21.575   0.619   2.350  1.00  0.00     0.016 A 
ATOM      4  C   UNL     1      20.858  -0.336   3.092  1.00  0.00     0.038 A 
ATOM      5  C   UNL     1      21.133  -0.509   4.467  1.00  0.00     0.076 A 
ATOM      6  C   UNL     1      22.137   0.283   5.073  1.00  0.00     0.127 A 
ATOM      7  C   UNL     1      22.839   1.229   4.316  1.00  0.00     0.050 A 
ATOM      8  C   UNL     1      20.364  -1.523   5.244  1.00  0.00     0.201 C 
ATOM      9  O   UNL     1      20.598  -1.678   6.472  1.00  0.00    -0.288 OA
ATOM     10  C   UNL     1      19.319  -2.353   4.580  1.00  0.00     0.076 A 
ATOM     11  C   UNL     1      19.059  -2.169   3.203  1.00  0.00     0.041 A 
ATOM     12  C   UNL     1      19.819  -1.159   2.432  1.00  0.00     0.194 C 
ATOM     13  O   UNL     1      19.580  -0.998   1.202  1.00  0.00    -0.289 OA
ATOM     14  C   UNL     1      18.076  -2.947   2.567  1.00  0.00     0.059 A 
ATOM     15  C   UNL     1      17.351  -3.902   3.283  1.00  0.00     0.120 A 
ATOM     16  C   UNL     1      17.604  -4.089   4.641  1.00  0.00     0.093 A 
ATOM     17  C   UNL     1      18.579  -3.326   5.296  1.00  0.00     0.131 A 
ENDROOT
BRANCH   6  18
ATOM     18  O   UNL     1      22.446   0.135   6.426  1.00  0.00    -0.507 OA
ATOM     19  H   UNL     1      22.101   0.779   7.127  1.00  0.00     0.293 HD
ENDBRANCH   6  18
BRANCH  17  20
ATOM     20  O   UNL     1      18.805  -3.539   6.657  1.00  0.00    -0.507 OA
ATOM     21  H   UNL     1      18.395  -4.324   7.149  1.00  0.00     0.293 HD
ENDBRANCH  17  20
BRANCH  15  22
ATOM     22  O   UNL     1      16.377  -4.674   2.654  1.00  0.00    -0.508 OA
ATOM     23  H   UNL     1      15.687  -4.259   2.039  1.00  0.00     0.293 HD
ENDBRANCH  15  22
TORSDOF 3
ENDMDL
MODEL 4
REMARK VINA RESULT:    -5.266      1.548      3.671
REMARK INTER + INTRA:          -5.728
REMARK INTER:                  -5.728
REMARK INTRA:                   0.000
REMARK UNBOUND:                 0.000
REMARK SMILES Cc1cc(O)c2c(c1)C(=O)c1cc(O)cc(O)c1C2=O
REMARK SMILES IDX 1 1 2 2 8 3 7 4 6 5 4 6 3 7 19 8 20 9 18 10 11 11 9 12 10 13
REMARK SMILES IDX 12 14 13 15 15 16 16 17 5 18 17 20 14 22
REMARK H PARENT 5 19 17 21 14 23
REMARK Flexibility Score: inf
ROOT
ATOM      1  C   UNL     1      15.881  -5.387   3.610  1.00  0.00     0.044 C 
ATOM      2  C   UNL     1      16.992  -4.416   3.887  1.00  0.00    -0.047 A 
ATOM      3  C   UNL     1      17.409  -3.522   2.896  1.00  0.00     0.016 A 
ATOM      4  C   UNL     1      18.424  -2.583   3.155  1.00  0.00     0.038 A 
ATOM      5  C   UNL     1      19.022  -2.530   4.434  1.00  0.00     0.076 A 
ATOM      6  C   UNL     1      18.580  -3.424   5.439  1.00  0.00     0.127 A 
ATOM      7  C   UNL     1      17.569  -4.351   5.159  1.00  0.00     0.050 A 
ATOM      8  C   UNL     1      20.099  -1.532   4.696  1.00  0.00     0.201 C 
ATOM      9  O   UNL     1      20.643  -1.484   5.831  1.00  0.00    -0.288 OA
ATOM     10  C   UNL     1      20.539  -0.594   3.624  1.00  0.00     0.076 A 
ATOM     11  C   UNL     1      19.927  -0.659   2.353  1.00  0.00     0.041 A 
ATOM     12  C   UNL     1      18.861  -1.652   2.090  1.00  0.00     0.194 C 
ATOM     13  O   UNL     1      18.321  -1.706   0.950  1.00  0.00    -0.289 OA
ATOM     14  C   UNL     1      20.334   0.222   1.335  1.00  0.00     0.059 A 
ATOM     15  C   UNL     1      21.339   1.164   1.570  1.00  0.00     0.120 A 
ATOM     16  C   UNL     1      21.945   1.233   2.822  1.00  0.00     0.093 A 
ATOM     17  C   UNL     1      21.557   0.365   3.851  1.00  0.00     0.131 A 
ENDROOT
BRANCH   6  18
ATOM     18  O   UNL     1      19.138  -3.396   6.718  1.00  0.00    -0.507 OA
ATOM     19  H   UNL     1      18.788  -2.779   7.440  1.00  0.00     0.293 HD
ENDBRANCH   6  18
BRANCH  17  20
ATOM     20  O   UNL     1      22.185   0.463   5.094  1.00  0.00    -0.507 OA
ATOM     21  H   UNL     1      23.163   0.225   5.217  1.00  0.00     0.293 HD
ENDBRANCH  17  20
BRANCH  15  22
ATOM     22  O   UNL     1      21.744   2.038   0.562  1.00  0.00    -0.508 OA
ATOM     23  H   UNL     1      22.023   2.989   0.767  1.00  0.00     0.293 HD
ENDBRANCH  15  22
TORSDOF 3
ENDMDL
MODEL 5
REMARK VINA RESULT:    -5.017     10.911     13.321
REMARK INTER + INTRA:          -5.457
REMARK INTER:                  -5.457
REMARK INTRA:                   0.000
REMARK UNBOUND:                 0.000
REMARK SMILES Cc1cc(O)c2c(c1)C(=O)c1cc(O)cc(O)c1C2=O
REMARK SMILES IDX 1 1 2 2 8 3 7 4 6 5 4 6 3 7 19 8 20 9 18 10 11 11 9 12 10 13
REMARK SMILES IDX 12 14 13 15 15 16 16 17 5 18 17 20 14 22
REMARK H PARENT 5 19 17 21 14 23
REMARK Flexibility Score: inf
ROOT
ATOM      1  C   UNL     1      13.674  -0.210  -4.548  1.00  0.00     0.044 C 
ATOM      2  C   UNL     1      12.265  -0.297  -4.038  1.00  0.00    -0.047 A 
ATOM      3  C   UNL     1      12.020  -0.598  -2.694  1.00  0.00     0.016 A 
ATOM      4  C   UNL     1      10.705  -0.647  -2.196  1.00  0.00     0.038 A 
ATOM      5  C   UNL     1       9.618  -0.376  -3.056  1.00  0.00     0.076 A 
ATOM      6  C   UNL     1       9.874  -0.051  -4.410  1.00  0.00     0.127 A 
ATOM      7  C   UNL     1      11.191  -0.009  -4.885  1.00  0.00     0.050 A 
ATOM      8  C   UNL     1       8.229  -0.433  -2.517  1.00  0.00     0.201 C 
ATOM      9  O   UNL     1       7.253  -0.200  -3.279  1.00  0.00    -0.288 OA
ATOM     10  C   UNL     1       7.985  -0.766  -1.085  1.00  0.00     0.076 A 
ATOM     11  C   UNL     1       9.085  -1.031  -0.239  1.00  0.00     0.041 A 
ATOM     12  C   UNL     1      10.465  -0.980  -0.774  1.00  0.00     0.194 C 
ATOM     13  O   UNL     1      11.442  -1.220  -0.012  1.00  0.00    -0.289 OA
ATOM     14  C   UNL     1       8.867  -1.346   1.114  1.00  0.00     0.059 A 
ATOM     15  C   UNL     1       7.570  -1.399   1.632  1.00  0.00     0.120 A 
ATOM     16  C   UNL     1       6.482  -1.138   0.802  1.00  0.00     0.093 A 
ATOM     17  C   UNL     1       6.675  -0.822  -0.549  1.00  0.00     0.131 A 
ENDROOT
BRANCH   6  18
ATOM     18  O   UNL     1       8.828   0.234  -5.288  1.00  0.00    -0.507 OA
ATOM     19  H   UNL     1       7.863   0.254  -4.981  1.00  0.00     0.293 HD
ENDBRANCH   6  18
BRANCH  17  20
ATOM     20  O   UNL     1       5.561  -0.566  -1.351  1.00  0.00    -0.507 OA
ATOM     21  H   UNL     1       5.517   0.242  -1.961  1.00  0.00     0.293 HD
ENDBRANCH  17  20
BRANCH  15  22
ATOM     22  O   UNL     1       7.352  -1.711   2.972  1.00  0.00    -0.508 OA
ATOM     23  H   UNL     1       7.791  -1.184   3.717  1.00  0.00     0.293 HD
ENDBRANCH  15  22
TORSDOF 3
ENDMDL
MODEL 6
REMARK VINA RESULT:    -4.745      1.603      6.283
REMARK INTER + INTRA:          -5.161
REMARK INTER:                  -5.161
REMARK INTRA:                   0.000
REMARK UNBOUND:                 0.000
REMARK SMILES Cc1cc(O)c2c(c1)C(=O)c1cc(O)cc(O)c1C2=O
REMARK SMILES IDX 1 1 2 2 8 3 7 4 6 5 4 6 3 7 19 8 20 9 18 10 11 11 9 12 10 13
REMARK SMILES IDX 12 14 13 15 15 16 16 17 5 18 17 20 14 22
REMARK H PARENT 5 19 17 21 14 23
REMARK Flexibility Score: inf
ROOT
ATOM      1  C   UNL     1      24.021   1.663   7.568  1.00  0.00     0.044 C 
ATOM      2  C   UNL     1      23.000   0.631   7.185  1.00  0.00    -0.047 A 
ATOM      3  C   UNL     1      22.413   0.658   5.916  1.00  0.00     0.016 A 
ATOM      4  C   UNL     1      21.482  -0.325   5.533  1.00  0.00     0.038 A 
ATOM      5  C   UNL     1      21.145  -1.361   6.432  1.00  0.00     0.076 A 
ATOM      6  C   UNL     1      21.759  -1.394   7.707  1.00  0.00     0.127 A 
ATOM      7  C   UNL     1      22.682  -0.405   8.069  1.00  0.00     0.050 A 
ATOM      8  C   UNL     1      20.155  -2.395   6.015  1.00  0.00     0.201 C 
ATOM      9  O   UNL     1      19.843  -3.318   6.814  1.00  0.00    -0.288 OA
ATOM     10  C   UNL     1      19.531  -2.345   4.663  1.00  0.00     0.076 A 
ATOM     11  C   UNL     1      19.883  -1.304   3.776  1.00  0.00     0.041 A 
ATOM     12  C   UNL     1      20.862  -0.273   4.190  1.00  0.00     0.194 C 
ATOM     13  O   UNL     1      21.170   0.656   3.392  1.00  0.00    -0.289 OA
ATOM     14  C   UNL     1      19.300  -1.247   2.497  1.00  0.00     0.059 A 
ATOM     15  C   UNL     1      18.375  -2.212   2.094  1.00  0.00     0.120 A 
ATOM     16  C   UNL     1      18.024  -3.243   2.965  1.00  0.00     0.093 A 
ATOM     17  C   UNL     1      18.592  -3.320   4.243  1.00  0.00     0.131 A 
ENDROOT
BRANCH   6  18
ATOM     18  O   UNL     1      21.460  -2.407   8.620  1.00  0.00    -0.507 OA
ATOM     19  H   UNL     1      21.158  -3.325   8.318  1.00  0.00     0.293 HD
ENDBRANCH   6  18
BRANCH  17  20
ATOM     20  O   UNL     1      18.217  -4.365   5.089  1.00  0.00    -0.507 OA
ATOM     21  H   UNL     1      17.245  -4.560   5.298  1.00  0.00     0.293 HD
ENDBRANCH  17  20
BRANCH  15  22
ATOM     22  O   UNL     1      17.796  -2.158   0.828  1.00  0.00    -0.508 OA
ATOM     23  H   UNL     1      17.660  -1.278   0.345  1.00  0.00     0.293 HD
ENDBRANCH  15  22
TORSDOF 3
ENDMDL
MODEL 7
REMARK VINA RESULT:    -4.718     11.037     13.544
REMARK INTER + INTRA:          -5.132
REMARK INTER:                  -5.132
REMARK INTRA:                   0.000
REMARK UNBOUND:                 0.000
REMARK SMILES Cc1cc(O)c2c(c1)C(=O)c1cc(O)cc(O)c1C2=O
REMARK SMILES IDX 1 1 2 2 8 3 7 4 6 5 4 6 3 7 19 8 20 9 18 10 11 11 9 12 10 13
REMARK SMILES IDX 12 14 13 15 15 16 16 17 5 18 17 20 14 22
REMARK H PARENT 5 19 17 21 14 23
REMARK Flexibility Score: inf
ROOT
ATOM      1  C   UNL     1       4.969  -1.092   1.364  1.00  0.00     0.044 C 
ATOM      2  C   UNL     1       5.768  -0.764   0.135  1.00  0.00    -0.047 A 
ATOM      3  C   UNL     1       7.145  -1.006   0.106  1.00  0.00     0.016 A 
ATOM      4  C   UNL     1       7.898  -0.737  -1.052  1.00  0.00     0.038 A 
ATOM      5  C   UNL     1       7.257  -0.231  -2.204  1.00  0.00     0.076 A 
ATOM      6  C   UNL     1       5.860  -0.009  -2.174  1.00  0.00     0.127 A 
ATOM      7  C   UNL     1       5.129  -0.282  -1.011  1.00  0.00     0.050 A 
ATOM      8  C   UNL     1       8.067   0.052  -3.424  1.00  0.00     0.201 C 
ATOM      9  O   UNL     1       7.504   0.511  -4.454  1.00  0.00    -0.288 OA
ATOM     10  C   UNL     1       9.536  -0.201  -3.435  1.00  0.00     0.076 A 
ATOM     11  C   UNL     1      10.159  -0.711  -2.274  1.00  0.00     0.041 A 
ATOM     12  C   UNL     1       9.357  -0.988  -1.060  1.00  0.00     0.194 C 
ATOM     13  O   UNL     1       9.922  -1.442  -0.026  1.00  0.00    -0.289 OA
ATOM     14  C   UNL     1      11.544  -0.954  -2.273  1.00  0.00     0.059 A 
ATOM     15  C   UNL     1      12.311  -0.696  -3.411  1.00  0.00     0.120 A 
ATOM     16  C   UNL     1      11.702  -0.194  -4.560  1.00  0.00     0.093 A 
ATOM     17  C   UNL     1      10.324   0.056  -4.584  1.00  0.00     0.131 A 
ENDROOT
BRANCH   6  18
ATOM     18  O   UNL     1       5.188   0.480  -3.296  1.00  0.00    -0.507 OA
ATOM     19  H   UNL     1       5.517   0.299  -4.236  1.00  0.00     0.293 HD
ENDBRANCH   6  18
BRANCH  17  20
ATOM     20  O   UNL     1       9.747   0.559  -5.751  1.00  0.00    -0.507 OA
ATOM     21  H   UNL     1       9.272  -0.043  -6.414  1.00  0.00     0.293 HD
ENDBRANCH  17  20
BRANCH  15  22
ATOM     22  O   UNL     1      13.684  -0.937  -3.412  1.00  0.00    -0.508 OA
ATOM     23  H   UNL     1      14.189  -1.131  -2.556  1.00  0.00     0.293 HD
ENDBRANCH  15  22
TORSDOF 3
ENDMDL
MODEL 8
REMARK VINA RESULT:    -4.620      1.330      5.494
REMARK INTER + INTRA:          -5.026
REMARK INTER:                  -5.026
REMARK INTRA:                   0.000
REMARK UNBOUND:                 0.000
REMARK SMILES Cc1cc(O)c2c(c1)C(=O)c1cc(O)cc(O)c1C2=O
REMARK SMILES IDX 1 1 2 2 8 3 7 4 6 5 4 6 3 7 19 8 20 9 18 10 11 11 9 12 10 13
REMARK SMILES IDX 12 14 13 15 15 16 16 17 5 18 17 20 14 22
REMARK H PARENT 5 19 17 21 14 23
REMARK Flexibility Score: inf
ROOT
ATOM      1  C   UNL     1      24.077  -1.283   8.727  1.00  0.00     0.044 C 
ATOM      2  C   UNL     1      23.344  -1.279   7.417  1.00  0.00    -0.047 A 
ATOM      3  C   UNL     1      22.214  -2.085   7.241  1.00  0.00     0.016 A 
ATOM      4  C   UNL     1      21.497  -2.063   6.031  1.00  0.00     0.038 A 
ATOM      5  C   UNL     1      21.911  -1.208   4.984  1.00  0.00     0.076 A 
ATOM      6  C   UNL     1      23.042  -0.380   5.178  1.00  0.00     0.127 A 
ATOM      7  C   UNL     1      23.742  -0.418   6.390  1.00  0.00     0.050 A 
ATOM      8  C   UNL     1      21.144  -1.196   3.706  1.00  0.00     0.201 C 
ATOM      9  O   UNL     1      21.510  -0.443   2.765  1.00  0.00    -0.288 OA
ATOM     10  C   UNL     1      19.948  -2.069   3.531  1.00  0.00     0.076 A 
ATOM     11  C   UNL     1      19.547  -2.915   4.589  1.00  0.00     0.041 A 
ATOM     12  C   UNL     1      20.311  -2.932   5.858  1.00  0.00     0.194 C 
ATOM     13  O   UNL     1      19.947  -3.691   6.798  1.00  0.00    -0.289 OA
ATOM     14  C   UNL     1      18.421  -3.742   4.435  1.00  0.00     0.059 A 
ATOM     15  C   UNL     1      17.693  -3.737   3.243  1.00  0.00     0.120 A 
ATOM     16  C   UNL     1      18.083  -2.904   2.196  1.00  0.00     0.093 A 
ATOM     17  C   UNL     1      19.202  -2.071   2.327  1.00  0.00     0.131 A 
ENDROOT
BRANCH   6  18
ATOM     18  O   UNL     1      23.476   0.485   4.172  1.00  0.00    -0.507 OA
ATOM     19  H   UNL     1      22.827   1.042   3.630  1.00  0.00     0.293 HD
ENDBRANCH   6  18
BRANCH  17  20
ATOM     20  O   UNL     1      19.564  -1.250   1.257  1.00  0.00    -0.507 OA
ATOM     21  H   UNL     1      18.942  -1.087   0.475  1.00  0.00     0.293 HD
ENDBRANCH  17  20
BRANCH  15  22
ATOM     22  O   UNL     1      16.576  -4.556   3.088  1.00  0.00    -0.508 OA
ATOM     23  H   UNL     1      15.639  -4.215   3.268  1.00  0.00     0.293 HD
ENDBRANCH  15  22
TORSDOF 3
ENDMDL
MODEL 9
REMARK VINA RESULT:    -4.576      3.146      5.349
REMARK INTER + INTRA:          -4.978
REMARK INTER:                  -4.978
REMARK INTRA:                   0.000
REMARK UNBOUND:                 0.000
REMARK SMILES Cc1cc(O)c2c(c1)C(=O)c1cc(O)cc(O)c1C2=O
REMARK SMILES IDX 1 1 2 2 8 3 7 4 6 5 4 6 3 7 19 8 20 9 18 10 11 11 9 12 10 13
REMARK SMILES IDX 12 14 13 15 15 16 16 17 5 18 17 20 14 22
REMARK H PARENT 5 19 17 21 14 23
REMARK Flexibility Score: inf
ROOT
ATOM      1  C   UNL     1      19.223   2.911   7.112  1.00  0.00     0.044 C 
ATOM      2  C   UNL     1      19.510   1.726   6.235  1.00  0.00    -0.047 A 
ATOM      3  C   UNL     1      20.269   1.880   5.071  1.00  0.00     0.016 A 
ATOM      4  C   UNL     1      20.575   0.771   4.260  1.00  0.00     0.038 A 
ATOM      5  C   UNL     1      20.124  -0.515   4.630  1.00  0.00     0.076 A 
ATOM      6  C   UNL     1      19.373  -0.666   5.821  1.00  0.00     0.127 A 
ATOM      7  C   UNL     1      19.079   0.451   6.613  1.00  0.00     0.050 A 
ATOM      8  C   UNL     1      20.452  -1.681   3.762  1.00  0.00     0.201 C 
ATOM      9  O   UNL     1      20.047  -2.831   4.080  1.00  0.00    -0.288 OA
ATOM     10  C   UNL     1      21.254  -1.499   2.518  1.00  0.00     0.076 A 
ATOM     11  C   UNL     1      21.699  -0.205   2.166  1.00  0.00     0.041 A 
ATOM     12  C   UNL     1      21.370   0.955   3.025  1.00  0.00     0.194 C 
ATOM     13  O   UNL     1      21.770   2.108   2.702  1.00  0.00    -0.289 OA
ATOM     14  C   UNL     1      22.457  -0.021   0.995  1.00  0.00     0.059 A 
ATOM     15  C   UNL     1      22.774  -1.107   0.176  1.00  0.00     0.120 A 
ATOM     16  C   UNL     1      22.337  -2.386   0.519  1.00  0.00     0.093 A 
ATOM     17  C   UNL     1      21.582  -2.593   1.680  1.00  0.00     0.131 A 
ENDROOT
BRANCH   6  18
ATOM     18  O   UNL     1      18.919  -1.922   6.226  1.00  0.00    -0.507 OA
ATOM     19  H   UNL     1      19.247  -2.359   7.079  1.00  0.00     0.293 HD
ENDBRANCH   6  18
BRANCH  17  20
ATOM     20  O   UNL     1      21.161  -3.887   1.993  1.00  0.00    -0.507 OA
ATOM     21  H   UNL     1      21.624  -4.704   1.615  1.00  0.00     0.293 HD
ENDBRANCH  17  20
BRANCH  15  22
ATOM     22  O   UNL     1      23.524  -0.927  -0.985  1.00  0.00    -0.508 OA
ATOM     23  H   UNL     1      24.344  -0.333  -0.998  1.00  0.00     0.293 HD
ENDBRANCH  15  22
TORSDOF 3
ENDMDL
