MODEL 1
REMARK VINA RESULT:    -6.757      0.000      0.000
REMARK INTER + INTRA:          -9.112
REMARK INTER:                  -8.535
REMARK INTRA:                  -0.577
REMARK UNBOUND:                -0.577
REMARK SMILES Oc1ccc(CCc2cc(O)cc(O)c2)cc1
REMARK SMILES IDX 6 1 5 2 4 3 3 4 2 5 16 6 17 7 1 8 7 10 8 11 15 12 9 13 13 14
REMARK SMILES IDX 10 15 12 16 14 17 11 19
REMARK H PARENT 1 9 14 18 11 20
REMARK Flexibility Score: inf
ROOT
ATOM      1  C   UNL     1      32.278  30.118 -13.524  1.00  0.00     0.040 C 
ENDROOT
BRANCH   1   2
ATOM      2  C   UNL     1      33.566  30.708 -13.015  1.00  0.00    -0.047 A 
ATOM      3  C   UNL     1      33.823  30.764 -11.635  1.00  0.00     0.007 A 
ATOM      4  C   UNL     1      35.004  31.342 -11.161  1.00  0.00     0.046 A 
ATOM      5  C   UNL     1      35.934  31.880 -12.057  1.00  0.00     0.115 A 
ATOM      6  C   UNL     1      34.496  31.261 -13.911  1.00  0.00     0.007 A 
ATOM      7  C   UNL     1      35.676  31.839 -13.434  1.00  0.00     0.046 A 
BRANCH   5   8
ATOM      8  O   UNL     1      37.107  32.452 -11.570  1.00  0.00    -0.508 OA
ATOM      9  H   UNL     1      37.975  32.403 -12.090  1.00  0.00     0.293 HD
ENDBRANCH   5   8
ENDBRANCH   1   2
BRANCH   1  10
ATOM     10  C   UNL     1      31.197  31.197 -13.631  1.00  0.00     0.040 C 
BRANCH  10  11
ATOM     11  C   UNL     1      30.847  31.453 -15.073  1.00  0.00    -0.040 A 
ATOM     12  C   UNL     1      31.372  30.633 -16.084  1.00  0.00     0.050 A 
ATOM     13  C   UNL     1      30.040  32.548 -15.422  1.00  0.00     0.050 A 
ATOM     14  C   UNL     1      31.075  30.889 -17.428  1.00  0.00     0.119 A 
ATOM     15  C   UNL     1      29.741  32.806 -16.768  1.00  0.00     0.119 A 
ATOM     16  C   UNL     1      30.257  31.974 -17.767  1.00  0.00     0.092 A 
BRANCH  14  17
ATOM     17  O   UNL     1      31.599  30.059 -18.417  1.00  0.00    -0.508 OA
ATOM     18  H   UNL     1      31.998  29.155 -18.194  1.00  0.00     0.293 HD
ENDBRANCH  14  17
BRANCH  15  19
ATOM     19  O   UNL     1      28.935  33.886 -17.121  1.00  0.00    -0.508 OA
ATOM     20  H   UNL     1      28.099  34.117 -16.597  1.00  0.00     0.293 HD
ENDBRANCH  15  19
ENDBRANCH  10  11
ENDBRANCH   1  10
TORSDOF 6
ENDMDL
MODEL 2
REMARK VINA RESULT:    -6.732      0.065      2.036
REMARK INTER + INTRA:          -9.080
REMARK INTER:                  -8.494
REMARK INTRA:                  -0.585
REMARK UNBOUND:                -0.577
REMARK SMILES Oc1ccc(CCc2cc(O)cc(O)c2)cc1
REMARK SMILES IDX 6 1 5 2 4 3 3 4 2 5 16 6 17 7 1 8 7 10 8 11 15 12 9 13 13 14
REMARK SMILES IDX 10 15 12 16 14 17 11 19
REMARK H PARENT 1 9 14 18 11 20
REMARK Flexibility Score: inf
ROOT
ATOM      1  C   UNL     1      32.340  30.048 -13.531  1.00  0.00     0.040 C 
ENDROOT
BRANCH   1   2
ATOM      2  C   UNL     1      33.614  30.671 -13.027  1.00  0.00    -0.047 A 
ATOM      3  C   UNL     1      33.869  30.744 -11.647  1.00  0.00     0.007 A 
ATOM      4  C   UNL     1      35.037  31.351 -11.178  1.00  0.00     0.046 A 
ATOM      5  C   UNL     1      35.956  31.901 -12.078  1.00  0.00     0.115 A 
ATOM      6  C   UNL     1      34.532  31.236 -13.927  1.00  0.00     0.007 A 
ATOM      7  C   UNL     1      35.700  31.843 -13.455  1.00  0.00     0.046 A 
BRANCH   5   8
ATOM      8  O   UNL     1      37.115  32.503 -11.595  1.00  0.00    -0.508 OA
ATOM      9  H   UNL     1      37.076  33.296 -10.965  1.00  0.00     0.293 HD
ENDBRANCH   5   8
ENDBRANCH   1   2
BRANCH   1  10
ATOM     10  C   UNL     1      31.227  31.097 -13.622  1.00  0.00     0.040 C 
BRANCH  10  11
ATOM     11  C   UNL     1      30.912  31.410 -15.060  1.00  0.00    -0.040 A 
ATOM     12  C   UNL     1      30.084  32.497 -15.383  1.00  0.00     0.050 A 
ATOM     13  C   UNL     1      31.396  30.583 -16.086  1.00  0.00     0.050 A 
ATOM     14  C   UNL     1      29.763  32.770 -16.717  1.00  0.00     0.119 A 
ATOM     15  C   UNL     1      31.076  30.854 -17.425  1.00  0.00     0.119 A 
ATOM     16  C   UNL     1      30.262  31.948 -17.737  1.00  0.00     0.092 A 
BRANCH  14  17
ATOM     17  O   UNL     1      28.946  33.857 -17.019  1.00  0.00    -0.508 OA
ATOM     18  H   UNL     1      28.134  33.760 -17.617  1.00  0.00     0.293 HD
ENDBRANCH  14  17
BRANCH  15  19
ATOM     19  O   UNL     1      31.558  30.042 -18.449  1.00  0.00    -0.508 OA
ATOM     20  H   UNL     1      30.999  29.839 -19.270  1.00  0.00     0.293 HD
ENDBRANCH  15  19
ENDBRANCH  10  11
ENDBRANCH   1  10
TORSDOF 6
ENDMDL
MODEL 3
REMARK VINA RESULT:    -6.549      1.649      2.960
REMARK INTER + INTRA:          -8.848
REMARK INTER:                  -8.162
REMARK INTRA:                  -0.686
REMARK UNBOUND:                -0.577
REMARK SMILES Oc1ccc(CCc2cc(O)cc(O)c2)cc1
REMARK SMILES IDX 6 1 5 2 4 3 3 4 2 5 16 6 17 7 1 8 7 10 8 11 15 12 9 13 13 14
REMARK SMILES IDX 10 15 12 16 14 17 11 19
REMARK H PARENT 1 9 14 18 11 20
REMARK Flexibility Score: inf
ROOT
ATOM      1  C   UNL     1      34.972  31.250 -14.793  1.00  0.00     0.040 C 
ENDROOT
BRANCH   1   2
ATOM      2  C   UNL     1      34.788  30.924 -13.335  1.00  0.00    -0.047 A 
ATOM      3  C   UNL     1      33.930  29.882 -12.945  1.00  0.00     0.007 A 
ATOM      4  C   UNL     1      33.735  29.601 -11.589  1.00  0.00     0.046 A 
ATOM      5  C   UNL     1      34.385  30.362 -10.611  1.00  0.00     0.115 A 
ATOM      6  C   UNL     1      35.428  31.694 -12.350  1.00  0.00     0.007 A 
ATOM      7  C   UNL     1      35.231  31.411 -10.995  1.00  0.00     0.046 A 
BRANCH   5   8
ATOM      8  O   UNL     1      34.181  30.070  -9.265  1.00  0.00    -0.508 OA
ATOM      9  H   UNL     1      34.878  30.291  -8.564  1.00  0.00     0.293 HD
ENDBRANCH   5   8
ENDBRANCH   1   2
BRANCH   1  10
ATOM     10  C   UNL     1      34.186  32.511 -15.165  1.00  0.00     0.040 C 
BRANCH  10  11
ATOM     11  C   UNL     1      32.835  32.148 -15.720  1.00  0.00    -0.040 A 
ATOM     12  C   UNL     1      31.665  32.580 -15.075  1.00  0.00     0.050 A 
ATOM     13  C   UNL     1      32.734  31.325 -16.854  1.00  0.00     0.050 A 
ATOM     14  C   UNL     1      30.408  32.216 -15.571  1.00  0.00     0.119 A 
ATOM     15  C   UNL     1      31.475  30.959 -17.353  1.00  0.00     0.119 A 
ATOM     16  C   UNL     1      30.316  31.407 -16.711  1.00  0.00     0.092 A 
BRANCH  14  17
ATOM     17  O   UNL     1      29.258  32.661 -14.922  1.00  0.00    -0.508 OA
ATOM     18  H   UNL     1      29.286  33.432 -14.265  1.00  0.00     0.293 HD
ENDBRANCH  14  17
BRANCH  15  19
ATOM     19  O   UNL     1      31.367  30.149 -18.481  1.00  0.00    -0.508 OA
ATOM     20  H   UNL     1      32.113  29.520 -18.754  1.00  0.00     0.293 HD
ENDBRANCH  15  19
ENDBRANCH  10  11
ENDBRANCH   1  10
TORSDOF 6
ENDMDL
MODEL 4
REMARK VINA RESULT:    -6.515      1.659      2.303
REMARK INTER + INTRA:          -8.806
REMARK INTER:                  -8.136
REMARK INTRA:                  -0.671
REMARK UNBOUND:                -0.577
REMARK SMILES Oc1ccc(CCc2cc(O)cc(O)c2)cc1
REMARK SMILES IDX 6 1 5 2 4 3 3 4 2 5 16 6 17 7 1 8 7 10 8 11 15 12 9 13 13 14
REMARK SMILES IDX 10 15 12 16 14 17 11 19
REMARK H PARENT 1 9 14 18 11 20
REMARK Flexibility Score: inf
ROOT
ATOM      1  C   UNL     1      34.979  31.123 -14.666  1.00  0.00     0.040 C 
ENDROOT
BRANCH   1   2
ATOM      2  C   UNL     1      34.773  30.835 -13.203  1.00  0.00    -0.047 A 
ATOM      3  C   UNL     1      33.940  29.779 -12.798  1.00  0.00     0.007 A 
ATOM      4  C   UNL     1      33.724  29.533 -11.439  1.00  0.00     0.046 A 
ATOM      5  C   UNL     1      34.327  30.345 -10.472  1.00  0.00     0.115 A 
ATOM      6  C   UNL     1      35.366  31.656 -12.229  1.00  0.00     0.007 A 
ATOM      7  C   UNL     1      35.148  31.408 -10.870  1.00  0.00     0.046 A 
BRANCH   5   8
ATOM      8  O   UNL     1      34.103  30.087  -9.121  1.00  0.00    -0.508 OA
ATOM      9  H   UNL     1      33.453  30.643  -8.578  1.00  0.00     0.293 HD
ENDBRANCH   5   8
ENDBRANCH   1   2
BRANCH   1  10
ATOM     10  C   UNL     1      34.224  32.391 -15.076  1.00  0.00     0.040 C 
BRANCH  10  11
ATOM     11  C   UNL     1      32.868  32.044 -15.630  1.00  0.00    -0.040 A 
ATOM     12  C   UNL     1      32.756  31.241 -16.776  1.00  0.00     0.050 A 
ATOM     13  C   UNL     1      31.708  32.568 -15.039  1.00  0.00     0.050 A 
ATOM     14  C   UNL     1      31.498  30.944 -17.311  1.00  0.00     0.119 A 
ATOM     15  C   UNL     1      30.445  32.272 -15.573  1.00  0.00     0.119 A 
ATOM     16  C   UNL     1      30.344  31.459 -16.707  1.00  0.00     0.092 A 
BRANCH  14  17
ATOM     17  O   UNL     1      31.406  30.138 -18.444  1.00  0.00    -0.508 OA
ATOM     18  H   UNL     1      30.835  29.301 -18.454  1.00  0.00     0.293 HD
ENDBRANCH  14  17
BRANCH  15  19
ATOM     19  O   UNL     1      29.288  32.783 -14.989  1.00  0.00    -0.508 OA
ATOM     20  H   UNL     1      29.127  33.781 -14.919  1.00  0.00     0.293 HD
ENDBRANCH  15  19
ENDBRANCH  10  11
ENDBRANCH   1  10
TORSDOF 6
ENDMDL
MODEL 5
REMARK VINA RESULT:    -6.512     10.960     13.232
REMARK INTER + INTRA:          -8.802
REMARK INTER:                  -8.154
REMARK INTRA:                  -0.649
REMARK UNBOUND:                -0.577
REMARK SMILES Oc1ccc(CCc2cc(O)cc(O)c2)cc1
REMARK SMILES IDX 6 1 5 2 4 3 3 4 2 5 16 6 17 7 1 8 7 10 8 11 15 12 9 13 13 14
REMARK SMILES IDX 10 15 12 16 14 17 11 19
REMARK H PARENT 1 9 14 18 11 20
REMARK Flexibility Score: inf
ROOT
ATOM      1  C   UNL     1      19.900  27.377 -16.382  1.00  0.00     0.040 C 
ENDROOT
BRANCH   1   2
ATOM      2  C   UNL     1      21.346  27.767 -16.534  1.00  0.00    -0.047 A 
ATOM      3  C   UNL     1      22.335  27.141 -15.757  1.00  0.00     0.007 A 
ATOM      4  C   UNL     1      23.674  27.527 -15.876  1.00  0.00     0.046 A 
ATOM      5  C   UNL     1      24.037  28.548 -16.761  1.00  0.00     0.115 A 
ATOM      6  C   UNL     1      21.713  28.801 -17.411  1.00  0.00     0.007 A 
ATOM      7  C   UNL     1      23.052  29.186 -17.528  1.00  0.00     0.046 A 
BRANCH   5   8
ATOM      8  O   UNL     1      25.374  28.922 -16.868  1.00  0.00    -0.508 OA
ATOM      9  H   UNL     1      26.123  28.267 -16.674  1.00  0.00     0.293 HD
ENDBRANCH   5   8
ENDBRANCH   1   2
BRANCH   1  10
ATOM     10  C   UNL     1      19.133  28.448 -15.601  1.00  0.00     0.040 C 
BRANCH  10  11
ATOM     11  C   UNL     1      19.008  28.058 -14.152  1.00  0.00    -0.040 A 
ATOM     12  C   UNL     1      19.946  28.516 -13.213  1.00  0.00     0.050 A 
ATOM     13  C   UNL     1      17.987  27.187 -13.739  1.00  0.00     0.050 A 
ATOM     14  C   UNL     1      19.851  28.129 -11.872  1.00  0.00     0.119 A 
ATOM     15  C   UNL     1      17.889  26.797 -12.396  1.00  0.00     0.119 A 
ATOM     16  C   UNL     1      18.820  27.271 -11.465  1.00  0.00     0.092 A 
BRANCH  14  17
ATOM     17  O   UNL     1      20.786  28.600 -10.953  1.00  0.00    -0.508 OA
ATOM     18  H   UNL     1      21.567  29.177 -11.241  1.00  0.00     0.293 HD
ENDBRANCH  14  17
BRANCH  15  19
ATOM     19  O   UNL     1      16.875  25.939 -11.977  1.00  0.00    -0.508 OA
ATOM     20  H   UNL     1      16.116  25.676 -12.595  1.00  0.00     0.293 HD
ENDBRANCH  15  19
ENDBRANCH  10  11
ENDBRANCH   1  10
TORSDOF 6
ENDMDL
MODEL 6
REMARK VINA RESULT:    -6.429     10.950     13.271
REMARK INTER + INTRA:          -8.697
REMARK INTER:                  -8.090
REMARK INTRA:                  -0.606
REMARK UNBOUND:                -0.577
REMARK SMILES Oc1ccc(CCc2cc(O)cc(O)c2)cc1
REMARK SMILES IDX 6 1 5 2 4 3 3 4 2 5 16 6 17 7 1 8 7 10 8 11 15 12 9 13 13 14
REMARK SMILES IDX 10 15 12 16 14 17 11 19
REMARK H PARENT 1 9 14 18 11 20
REMARK Flexibility Score: inf
ROOT
ATOM      1  C   UNL     1      19.908  27.491 -16.407  1.00  0.00     0.040 C 
ENDROOT
BRANCH   1   2
ATOM      2  C   UNL     1      21.353  27.881 -16.571  1.00  0.00    -0.047 A 
ATOM      3  C   UNL     1      21.742  28.736 -17.616  1.00  0.00     0.007 A 
ATOM      4  C   UNL     1      23.088  29.072 -17.786  1.00  0.00     0.046 A 
ATOM      5  C   UNL     1      24.059  28.551 -16.925  1.00  0.00     0.115 A 
ATOM      6  C   UNL     1      22.332  27.349 -15.716  1.00  0.00     0.007 A 
ATOM      7  C   UNL     1      23.678  27.687 -15.889  1.00  0.00     0.046 A 
BRANCH   5   8
ATOM      8  O   UNL     1      25.397  28.895 -17.108  1.00  0.00    -0.508 OA
ATOM      9  H   UNL     1      26.007  28.347 -17.702  1.00  0.00     0.293 HD
ENDBRANCH   5   8
ENDBRANCH   1   2
BRANCH   1  10
ATOM     10  C   UNL     1      19.167  28.519 -15.547  1.00  0.00     0.040 C 
BRANCH  10  11
ATOM     11  C   UNL     1      19.061  28.039 -14.124  1.00  0.00    -0.040 A 
ATOM     12  C   UNL     1      18.027  27.168 -13.746  1.00  0.00     0.050 A 
ATOM     13  C   UNL     1      19.961  28.504 -13.151  1.00  0.00     0.050 A 
ATOM     14  C   UNL     1      17.907  26.747 -12.417  1.00  0.00     0.119 A 
ATOM     15  C   UNL     1      19.843  28.083 -11.819  1.00  0.00     0.119 A 
ATOM     16  C   UNL     1      18.817  27.204 -11.456  1.00  0.00     0.092 A 
BRANCH  14  17
ATOM     17  O   UNL     1      16.878  25.876 -12.063  1.00  0.00    -0.508 OA
ATOM     18  H   UNL     1      15.908  26.167 -12.080  1.00  0.00     0.293 HD
ENDBRANCH  14  17
BRANCH  15  19
ATOM     19  O   UNL     1      20.736  28.535 -10.849  1.00  0.00    -0.508 OA
ATOM     20  H   UNL     1      21.682  28.177 -10.794  1.00  0.00     0.293 HD
ENDBRANCH  15  19
ENDBRANCH  10  11
ENDBRANCH   1  10
TORSDOF 6
ENDMDL
MODEL 7
REMARK VINA RESULT:    -6.396      2.794      4.113
REMARK INTER + INTRA:          -8.656
REMARK INTER:                  -8.023
REMARK INTRA:                  -0.633
REMARK UNBOUND:                -0.577
REMARK SMILES Oc1ccc(CCc2cc(O)cc(O)c2)cc1
REMARK SMILES IDX 6 1 5 2 4 3 3 4 2 5 16 6 17 7 1 8 7 10 8 11 15 12 9 13 13 14
REMARK SMILES IDX 10 15 12 16 14 17 11 19
REMARK H PARENT 1 9 14 18 11 20
REMARK Flexibility Score: inf
ROOT
ATOM      1  C   UNL     1      32.404  31.711 -14.296  1.00  0.00     0.040 C 
ENDROOT
BRANCH   1   2
ATOM      2  C   UNL     1      32.046  30.351 -13.759  1.00  0.00    -0.047 A 
ATOM      3  C   UNL     1      30.782  29.797 -14.021  1.00  0.00     0.007 A 
ATOM      4  C   UNL     1      30.438  28.548 -13.495  1.00  0.00     0.046 A 
ATOM      5  C   UNL     1      31.346  27.846 -12.695  1.00  0.00     0.115 A 
ATOM      6  C   UNL     1      32.949  29.650 -12.944  1.00  0.00     0.007 A 
ATOM      7  C   UNL     1      32.602  28.401 -12.419  1.00  0.00     0.046 A 
BRANCH   5   8
ATOM      8  O   UNL     1      30.988  26.603 -12.179  1.00  0.00    -0.508 OA
ATOM      9  H   UNL     1      31.620  26.074 -11.589  1.00  0.00     0.293 HD
ENDBRANCH   5   8
ENDBRANCH   1   2
BRANCH   1  10
ATOM     10  C   UNL     1      33.056  31.590 -15.676  1.00  0.00     0.040 C 
BRANCH  10  11
ATOM     11  C   UNL     1      32.010  31.607 -16.758  1.00  0.00    -0.040 A 
ATOM     12  C   UNL     1      30.917  32.484 -16.672  1.00  0.00     0.050 A 
ATOM     13  C   UNL     1      32.089  30.707 -17.833  1.00  0.00     0.050 A 
ATOM     14  C   UNL     1      29.927  32.479 -17.660  1.00  0.00     0.119 A 
ATOM     15  C   UNL     1      31.097  30.700 -18.824  1.00  0.00     0.119 A 
ATOM     16  C   UNL     1      30.020  31.588 -18.737  1.00  0.00     0.092 A 
BRANCH  14  17
ATOM     17  O   UNL     1      28.853  33.362 -17.561  1.00  0.00    -0.508 OA
ATOM     18  H   UNL     1      28.961  34.351 -17.756  1.00  0.00     0.293 HD
ENDBRANCH  14  17
BRANCH  15  19
ATOM     19  O   UNL     1      31.172  29.814 -19.897  1.00  0.00    -0.508 OA
ATOM     20  H   UNL     1      30.945  30.105 -20.841  1.00  0.00     0.293 HD
ENDBRANCH  15  19
ENDBRANCH  10  11
ENDBRANCH   1  10
TORSDOF 6
ENDMDL
MODEL 8
REMARK VINA RESULT:    -6.347      5.704      9.112
REMARK INTER + INTRA:          -8.594
REMARK INTER:                  -8.079
REMARK INTRA:                  -0.515
REMARK UNBOUND:                -0.577
REMARK SMILES Oc1ccc(CCc2cc(O)cc(O)c2)cc1
REMARK SMILES IDX 6 1 5 2 4 3 3 4 2 5 16 6 17 7 1 8 7 10 8 11 15 12 9 13 13 14
REMARK SMILES IDX 10 15 12 16 14 17 11 19
REMARK H PARENT 1 9 14 18 11 20
REMARK Flexibility Score: inf
ROOT
ATOM      1  C   UNL     1      32.720  34.729 -22.238  1.00  0.00     0.040 C 
ENDROOT
BRANCH   1   2
ATOM      2  C   UNL     1      32.329  36.161 -22.486  1.00  0.00    -0.047 A 
ATOM      3  C   UNL     1      31.271  36.741 -21.766  1.00  0.00     0.007 A 
ATOM      4  C   UNL     1      30.887  38.061 -22.020  1.00  0.00     0.046 A 
ATOM      5  C   UNL     1      31.546  38.811 -23.000  1.00  0.00     0.115 A 
ATOM      6  C   UNL     1      32.979  36.913 -23.479  1.00  0.00     0.007 A 
ATOM      7  C   UNL     1      32.593  38.233 -23.730  1.00  0.00     0.046 A 
BRANCH   5   8
ATOM      8  O   UNL     1      31.152  40.125 -23.241  1.00  0.00    -0.508 OA
ATOM      9  H   UNL     1      31.581  40.680 -23.971  1.00  0.00     0.293 HD
ENDBRANCH   5   8
ENDBRANCH   1   2
BRANCH   1  10
ATOM     10  C   UNL     1      33.205  34.545 -20.797  1.00  0.00     0.040 C 
BRANCH  10  11
ATOM     11  C   UNL     1      32.381  33.501 -20.092  1.00  0.00    -0.040 A 
ATOM     12  C   UNL     1      32.987  32.612 -19.190  1.00  0.00     0.050 A 
ATOM     13  C   UNL     1      31.012  33.369 -20.375  1.00  0.00     0.050 A 
ATOM     14  C   UNL     1      32.230  31.619 -18.559  1.00  0.00     0.119 A 
ATOM     15  C   UNL     1      30.251  32.376 -19.743  1.00  0.00     0.119 A 
ATOM     16  C   UNL     1      30.861  31.504 -18.835  1.00  0.00     0.092 A 
BRANCH  14  17
ATOM     17  O   UNL     1      32.848  30.751 -17.660  1.00  0.00    -0.508 OA
ATOM     18  H   UNL     1      33.308  31.093 -16.825  1.00  0.00     0.293 HD
ENDBRANCH  14  17
BRANCH  15  19
ATOM     19  O   UNL     1      28.890  32.244 -20.013  1.00  0.00    -0.508 OA
ATOM     20  H   UNL     1      28.308  33.051 -20.204  1.00  0.00     0.293 HD
ENDBRANCH  15  19
ENDBRANCH  10  11
ENDBRANCH   1  10
TORSDOF 6
ENDMDL
MODEL 9
REMARK VINA RESULT:    -6.347      5.721      9.263
REMARK INTER + INTRA:          -8.593
REMARK INTER:                  -8.072
REMARK INTRA:                  -0.521
REMARK UNBOUND:                -0.577
REMARK SMILES Oc1ccc(CCc2cc(O)cc(O)c2)cc1
REMARK SMILES IDX 6 1 5 2 4 3 3 4 2 5 16 6 17 7 1 8 7 10 8 11 15 12 9 13 13 14
REMARK SMILES IDX 10 15 12 16 14 17 11 19
REMARK H PARENT 1 9 14 18 11 20
REMARK Flexibility Score: inf
ROOT
ATOM      1  C   UNL     1      32.730  34.726 -22.303  1.00  0.00     0.040 C 
ENDROOT
BRANCH   1   2
ATOM      2  C   UNL     1      32.328  36.158 -22.534  1.00  0.00    -0.047 A 
ATOM      3  C   UNL     1      31.341  36.756 -21.733  1.00  0.00     0.007 A 
ATOM      4  C   UNL     1      30.946  38.076 -21.969  1.00  0.00     0.046 A 
ATOM      5  C   UNL     1      31.522  38.808 -23.013  1.00  0.00     0.115 A 
ATOM      6  C   UNL     1      32.895  36.892 -23.590  1.00  0.00     0.007 A 
ATOM      7  C   UNL     1      32.497  38.212 -23.824  1.00  0.00     0.046 A 
BRANCH   5   8
ATOM      8  O   UNL     1      31.118  40.122 -23.235  1.00  0.00    -0.508 OA
ATOM      9  H   UNL     1      30.167  40.344 -23.506  1.00  0.00     0.293 HD
ENDBRANCH   5   8
ENDBRANCH   1   2
BRANCH   1  10
ATOM     10  C   UNL     1      33.205  34.527 -20.860  1.00  0.00     0.040 C 
BRANCH  10  11
ATOM     11  C   UNL     1      32.396  33.455 -20.181  1.00  0.00    -0.040 A 
ATOM     12  C   UNL     1      31.021  33.336 -20.438  1.00  0.00     0.050 A 
ATOM     13  C   UNL     1      32.998  32.603 -19.241  1.00  0.00     0.050 A 
ATOM     14  C   UNL     1      30.261  32.361 -19.783  1.00  0.00     0.119 A 
ATOM     15  C   UNL     1      32.238  31.625 -18.583  1.00  0.00     0.119 A 
ATOM     16  C   UNL     1      30.872  31.505 -18.857  1.00  0.00     0.092 A 
BRANCH  14  17
ATOM     17  O   UNL     1      28.899  32.253 -20.057  1.00  0.00    -0.508 OA
ATOM     18  H   UNL     1      28.226  32.900 -19.664  1.00  0.00     0.293 HD
ENDBRANCH  14  17
BRANCH  15  19
ATOM     19  O   UNL     1      32.830  30.772 -17.654  1.00  0.00    -0.508 OA
ATOM     20  H   UNL     1      33.523  31.106 -16.995  1.00  0.00     0.293 HD
ENDBRANCH  15  19
ENDBRANCH  10  11
ENDBRANCH   1  10
TORSDOF 6
ENDMDL
