MODEL 1
REMARK VINA RESULT:    -6.317      0.000      0.000
REMARK INTER + INTRA:         -11.233
REMARK INTER:                  -9.641
REMARK INTRA:                  -1.592
REMARK UNBOUND:                -1.592
REMARK SMILES OC[C@@H]1O[C@](CO)(O[C@H]2O[C@H](CO)[C@@H](O)[C@@H](O)[C@@H]2O)[C@@H](O)[C@@H]1O
REMARK SMILES IDX 8 1 9 2 11 3 14 4 10 5 16 6 18 7 12 8 13 9 15 11 17 13 19 15
REMARK SMILES IDX 5 17 20 18 4 19 22 20 3 21 6 22 7 23 21 25 23 27 2 29 1 30
REMARK H PARENT 13 10 15 12 17 14 19 16 7 24 21 26 23 28 1 31
REMARK Flexibility Score: inf
ROOT
ATOM      1  O   UNL     1     -23.567   5.530 -38.468  1.00  0.00    -0.313 OA
ENDROOT
BRANCH   1   2
ATOM      2  C   UNL     1     -22.198   5.440 -38.076  1.00  0.00     0.285 C 
ATOM      3  C   UNL     1     -22.681   6.842 -36.238  1.00  0.00     0.178 C 
ATOM      4  C   UNL     1     -22.890   5.582 -35.337  1.00  0.00     0.177 C 
ATOM      5  O   UNL     1     -21.817   6.594 -37.343  1.00  0.00    -0.341 OA
ATOM      6  C   UNL     1     -21.881   4.485 -35.723  1.00  0.00     0.179 C 
ATOM      7  C   UNL     1     -21.979   4.155 -37.230  1.00  0.00     0.202 C 
BRANCH   3   8
ATOM      8  C   UNL     1     -22.088   8.008 -35.435  1.00  0.00     0.191 C 
BRANCH   8   9
ATOM      9  O   UNL     1     -22.651   9.226 -35.848  1.00  0.00    -0.394 OA
ATOM     10  H   UNL     1     -23.447   9.011 -36.399  1.00  0.00     0.210 HD
ENDBRANCH   8   9
ENDBRANCH   3   8
BRANCH   4  11
ATOM     11  O   UNL     1     -24.206   5.113 -35.506  1.00  0.00    -0.387 OA
ATOM     12  H   UNL     1     -24.773   5.895 -35.736  1.00  0.00     0.211 HD
ENDBRANCH   4  11
BRANCH   6  13
ATOM     13  O   UNL     1     -22.036   3.334 -34.928  1.00  0.00    -0.387 OA
ATOM     14  H   UNL     1     -22.413   2.614 -35.497  1.00  0.00     0.211 HD
ENDBRANCH   6  13
BRANCH   7  15
ATOM     15  O   UNL     1     -20.836   3.454 -37.653  1.00  0.00    -0.385 OA
ATOM     16  H   UNL     1     -20.376   3.112 -36.842  1.00  0.00     0.211 HD
ENDBRANCH   7  15
ENDBRANCH   1   2
BRANCH   1  17
ATOM     17  C   UNL     1     -23.783   5.695 -39.865  1.00  0.00     0.224 C 
ATOM     18  C   UNL     1     -22.461   5.558 -40.673  1.00  0.00     0.208 C 
ATOM     19  O   UNL     1     -24.263   7.017 -40.044  1.00  0.00    -0.337 OA
ATOM     20  C   UNL     1     -22.493   6.744 -41.599  1.00  0.00     0.180 C 
ATOM     21  C   UNL     1     -23.333   7.745 -40.815  1.00  0.00     0.179 C 
BRANCH  17  22
ATOM     22  C   UNL     1     -24.916   4.752 -40.353  1.00  0.00     0.225 C 
BRANCH  22  23
ATOM     23  O   UNL     1     -24.710   3.453 -39.865  1.00  0.00    -0.391 OA
ATOM     24  H   UNL     1     -25.518   3.227 -39.335  1.00  0.00     0.210 HD
ENDBRANCH  22  23
ENDBRANCH  17  22
BRANCH  18  25
ATOM     25  O   UNL     1     -22.388   4.355 -41.397  1.00  0.00    -0.385 OA
ATOM     26  H   UNL     1     -22.161   4.598 -42.332  1.00  0.00     0.211 HD
ENDBRANCH  18  25
BRANCH  20  27
ATOM     27  O   UNL     1     -21.203   7.222 -41.882  1.00  0.00    -0.387 OA
ATOM     28  H   UNL     1     -21.209   7.502 -42.835  1.00  0.00     0.211 HD
ENDBRANCH  20  27
BRANCH  21  29
ATOM     29  C   UNL     1     -22.520   8.661 -39.881  1.00  0.00     0.191 C 
BRANCH  29  30
ATOM     30  O   UNL     1     -23.266   8.972 -38.736  1.00  0.00    -0.394 OA
ATOM     31  H   UNL     1     -23.379   8.120 -38.242  1.00  0.00     0.210 HD
ENDBRANCH  29  30
ENDBRANCH  21  29
ENDBRANCH   1  17
TORSDOF 13
ENDMDL
MODEL 2
REMARK VINA RESULT:    -6.188      1.505      5.050
REMARK INTER + INTRA:         -11.036
REMARK INTER:                  -9.810
REMARK INTRA:                  -1.226
REMARK UNBOUND:                -1.592
REMARK SMILES OC[C@@H]1O[C@](CO)(O[C@H]2O[C@H](CO)[C@@H](O)[C@@H](O)[C@@H]2O)[C@@H](O)[C@@H]1O
REMARK SMILES IDX 8 1 9 2 11 3 14 4 10 5 16 6 18 7 12 8 13 9 15 11 17 13 19 15
REMARK SMILES IDX 5 17 20 18 4 19 22 20 3 21 6 22 7 23 21 25 23 27 2 29 1 30
REMARK H PARENT 13 10 15 12 17 14 19 16 7 24 21 26 23 28 1 31
REMARK Flexibility Score: inf
ROOT
ATOM      1  O   UNL     1     -21.792   5.303 -38.181  1.00  0.00    -0.313 OA
ENDROOT
BRANCH   1   2
ATOM      2  C   UNL     1     -22.993   5.965 -38.577  1.00  0.00     0.285 C 
ATOM      3  C   UNL     1     -21.686   7.484 -39.826  1.00  0.00     0.178 C 
ATOM      4  C   UNL     1     -21.897   6.608 -41.104  1.00  0.00     0.177 C 
ATOM      5  O   UNL     1     -22.731   7.329 -38.871  1.00  0.00    -0.341 OA
ATOM      6  C   UNL     1     -23.322   6.026 -41.115  1.00  0.00     0.179 C 
ATOM      7  C   UNL     1     -23.605   5.245 -39.811  1.00  0.00     0.202 C 
BRANCH   3   8
ATOM      8  C   UNL     1     -21.597   8.974 -40.182  1.00  0.00     0.191 C 
BRANCH   8   9
ATOM      9  O   UNL     1     -22.820   9.615 -39.924  1.00  0.00    -0.394 OA
ATOM     10  H   UNL     1     -23.208   9.193 -39.115  1.00  0.00     0.210 HD
ENDBRANCH   8   9
ENDBRANCH   3   8
BRANCH   4  11
ATOM     11  O   UNL     1     -20.947   5.569 -41.108  1.00  0.00    -0.387 OA
ATOM     12  H   UNL     1     -21.436   4.722 -41.275  1.00  0.00     0.211 HD
ENDBRANCH   4  11
BRANCH   6  13
ATOM     13  O   UNL     1     -23.551   5.234 -42.255  1.00  0.00    -0.387 OA
ATOM     14  H   UNL     1     -22.682   4.859 -42.550  1.00  0.00     0.211 HD
ENDBRANCH   6  13
BRANCH   7  15
ATOM     15  O   UNL     1     -24.987   5.043 -39.651  1.00  0.00    -0.385 OA
ATOM     16  H   UNL     1     -25.209   5.224 -38.699  1.00  0.00     0.211 HD
ENDBRANCH   7  15
ENDBRANCH   1   2
BRANCH   1  17
ATOM     17  C   UNL     1     -21.637   5.129 -36.776  1.00  0.00     0.224 C 
ATOM     18  C   UNL     1     -22.733   5.890 -35.977  1.00  0.00     0.208 C 
ATOM     19  O   UNL     1     -20.383   5.699 -36.438  1.00  0.00    -0.337 OA
ATOM     20  C   UNL     1     -21.952   6.608 -34.909  1.00  0.00     0.180 C 
ATOM     21  C   UNL     1     -20.592   6.791 -35.571  1.00  0.00     0.179 C 
BRANCH  17  22
ATOM     22  C   UNL     1     -21.538   3.621 -36.425  1.00  0.00     0.225 C 
BRANCH  22  23
ATOM     23  O   UNL     1     -22.534   2.898 -37.099  1.00  0.00    -0.391 OA
ATOM     24  H   UNL     1     -22.631   3.328 -37.988  1.00  0.00     0.210 HD
ENDBRANCH  22  23
ENDBRANCH  17  22
BRANCH  18  25
ATOM     25  O   UNL     1     -23.688   5.028 -35.410  1.00  0.00    -0.385 OA
ATOM     26  H   UNL     1     -23.290   4.672 -34.573  1.00  0.00     0.211 HD
ENDBRANCH  18  25
BRANCH  20  27
ATOM     27  O   UNL     1     -22.552   7.827 -34.554  1.00  0.00    -0.387 OA
ATOM     28  H   UNL     1     -22.032   8.540 -35.010  1.00  0.00     0.211 HD
ENDBRANCH  20  27
BRANCH  21  29
ATOM     29  C   UNL     1     -20.447   8.098 -36.373  1.00  0.00     0.191 C 
BRANCH  29  30
ATOM     30  O   UNL     1     -20.219   9.176 -35.507  1.00  0.00    -0.394 OA
ATOM     31  H   UNL     1     -20.507   9.988 -35.999  1.00  0.00     0.210 HD
ENDBRANCH  29  30
ENDBRANCH  21  29
ENDBRANCH   1  17
TORSDOF 13
ENDMDL
MODEL 3
REMARK VINA RESULT:    -6.150      1.701      3.776
REMARK INTER + INTRA:         -10.977
REMARK INTER:                 -10.014
REMARK INTRA:                  -0.963
REMARK UNBOUND:                -1.592
REMARK SMILES OC[C@@H]1O[C@](CO)(O[C@H]2O[C@H](CO)[C@@H](O)[C@@H](O)[C@@H]2O)[C@@H](O)[C@@H]1O
REMARK SMILES IDX 8 1 9 2 11 3 14 4 10 5 16 6 18 7 12 8 13 9 15 11 17 13 19 15
REMARK SMILES IDX 5 17 20 18 4 19 22 20 3 21 6 22 7 23 21 25 23 27 2 29 1 30
REMARK H PARENT 13 10 15 12 17 14 19 16 7 24 21 26 23 28 1 31
REMARK Flexibility Score: inf
ROOT
ATOM      1  O   UNL     1     -22.291   6.066 -38.009  1.00  0.00    -0.313 OA
ENDROOT
BRANCH   1   2
ATOM      2  C   UNL     1     -23.064   6.526 -36.901  1.00  0.00     0.285 C 
ATOM      3  C   UNL     1     -23.951   4.349 -36.677  1.00  0.00     0.178 C 
ATOM      4  C   UNL     1     -22.856   4.017 -35.612  1.00  0.00     0.177 C 
ATOM      5  O   UNL     1     -24.238   5.742 -36.759  1.00  0.00    -0.341 OA
ATOM      6  C   UNL     1     -22.583   5.252 -34.734  1.00  0.00     0.179 C 
ATOM      7  C   UNL     1     -22.207   6.472 -35.606  1.00  0.00     0.202 C 
BRANCH   3   8
ATOM      8  C   UNL     1     -25.266   3.620 -36.370  1.00  0.00     0.191 C 
BRANCH   8   9
ATOM      9  O   UNL     1     -26.202   4.506 -35.813  1.00  0.00    -0.394 OA
ATOM     10  H   UNL     1     -25.716   5.077 -35.163  1.00  0.00     0.210 HD
ENDBRANCH   8   9
ENDBRANCH   3   8
BRANCH   4  11
ATOM     11  O   UNL     1     -21.679   3.622 -36.275  1.00  0.00    -0.387 OA
ATOM     12  H   UNL     1     -21.802   3.817 -37.240  1.00  0.00     0.211 HD
ENDBRANCH   4  11
BRANCH   6  13
ATOM     13  O   UNL     1     -21.604   4.989 -33.759  1.00  0.00    -0.387 OA
ATOM     14  H   UNL     1     -22.058   4.888 -32.883  1.00  0.00     0.211 HD
ENDBRANCH   6  13
BRANCH   7  15
ATOM     15  O   UNL     1     -22.327   7.660 -34.864  1.00  0.00    -0.385 OA
ATOM     16  H   UNL     1     -21.984   8.403 -35.427  1.00  0.00     0.211 HD
ENDBRANCH   7  15
ENDBRANCH   1   2
BRANCH   1  17
ATOM     17  C   UNL     1     -22.027   7.046 -39.007  1.00  0.00     0.224 C 
ATOM     18  C   UNL     1     -23.304   7.855 -39.372  1.00  0.00     0.208 C 
ATOM     19  O   UNL     1     -21.619   6.339 -40.166  1.00  0.00    -0.337 OA
ATOM     20  C   UNL     1     -23.304   7.849 -40.877  1.00  0.00     0.180 C 
ATOM     21  C   UNL     1     -22.558   6.560 -41.195  1.00  0.00     0.179 C 
BRANCH  17  22
ATOM     22  C   UNL     1     -20.822   7.931 -38.591  1.00  0.00     0.225 C 
BRANCH  22  23
ATOM     23  O   UNL     1     -20.519   8.849 -39.609  1.00  0.00    -0.391 OA
ATOM     24  H   UNL     1     -20.584   9.749 -39.196  1.00  0.00     0.210 HD
ENDBRANCH  22  23
ENDBRANCH  17  22
BRANCH  18  25
ATOM     25  O   UNL     1     -23.276   9.169 -38.873  1.00  0.00    -0.385 OA
ATOM     26  H   UNL     1     -22.912   9.116 -37.951  1.00  0.00     0.211 HD
ENDBRANCH  18  25
BRANCH  20  27
ATOM     27  O   UNL     1     -24.607   7.866 -41.400  1.00  0.00    -0.387 OA
ATOM     28  H   UNL     1     -25.169   7.335 -40.775  1.00  0.00     0.211 HD
ENDBRANCH  20  27
BRANCH  21  29
ATOM     29  C   UNL     1     -23.461   5.318 -41.320  1.00  0.00     0.191 C 
BRANCH  29  30
ATOM     30  O   UNL     1     -23.961   5.210 -42.625  1.00  0.00    -0.394 OA
ATOM     31  H   UNL     1     -24.890   5.556 -42.591  1.00  0.00     0.210 HD
ENDBRANCH  29  30
ENDBRANCH  21  29
ENDBRANCH   1  17
TORSDOF 13
ENDMDL
MODEL 4
REMARK VINA RESULT:    -6.128      1.681      2.751
REMARK INTER + INTRA:         -10.944
REMARK INTER:                  -9.581
REMARK INTRA:                  -1.364
REMARK UNBOUND:                -1.592
REMARK SMILES OC[C@@H]1O[C@](CO)(O[C@H]2O[C@H](CO)[C@@H](O)[C@@H](O)[C@@H]2O)[C@@H](O)[C@@H]1O
REMARK SMILES IDX 8 1 9 2 11 3 14 4 10 5 16 6 18 7 12 8 13 9 15 11 17 13 19 15
REMARK SMILES IDX 5 17 20 18 4 19 22 20 3 21 6 22 7 23 21 25 23 27 2 29 1 30
REMARK H PARENT 13 10 15 12 17 14 19 16 7 24 21 26 23 28 1 31
REMARK Flexibility Score: inf
ROOT
ATOM      1  O   UNL     1     -23.103   5.811 -38.635  1.00  0.00    -0.313 OA
ENDROOT
BRANCH   1   2
ATOM      2  C   UNL     1     -23.774   6.505 -37.584  1.00  0.00     0.285 C 
ATOM      3  C   UNL     1     -24.455   4.421 -36.706  1.00  0.00     0.178 C 
ATOM      4  C   UNL     1     -23.219   4.425 -35.749  1.00  0.00     0.177 C 
ATOM      5  O   UNL     1     -24.858   5.731 -37.094  1.00  0.00    -0.341 OA
ATOM      6  C   UNL     1     -22.942   5.856 -35.252  1.00  0.00     0.179 C 
ATOM      7  C   UNL     1     -22.768   6.826 -36.444  1.00  0.00     0.202 C 
BRANCH   3   8
ATOM      8  C   UNL     1     -25.662   3.736 -36.052  1.00  0.00     0.191 C 
BRANCH   8   9
ATOM      9  O   UNL     1     -26.713   4.651 -35.880  1.00  0.00    -0.394 OA
ATOM     10  H   UNL     1     -26.668   5.296 -36.632  1.00  0.00     0.210 HD
ENDBRANCH   8   9
ENDBRANCH   3   8
BRANCH   4  11
ATOM     11  O   UNL     1     -22.101   3.927 -36.444  1.00  0.00    -0.387 OA
ATOM     12  H   UNL     1     -21.488   4.691 -36.606  1.00  0.00     0.211 HD
ENDBRANCH   4  11
BRANCH   6  13
ATOM     13  O   UNL     1     -21.837   5.899 -34.383  1.00  0.00    -0.387 OA
ATOM     14  H   UNL     1     -22.029   5.310 -33.608  1.00  0.00     0.211 HD
ENDBRANCH   6  13
BRANCH   7  15
ATOM     15  O   UNL     1     -22.894   8.158 -36.013  1.00  0.00    -0.385 OA
ATOM     16  H   UNL     1     -23.377   8.660 -36.721  1.00  0.00     0.211 HD
ENDBRANCH   7  15
ENDBRANCH   1   2
BRANCH   1  17
ATOM     17  C   UNL     1     -23.259   6.384 -39.929  1.00  0.00     0.224 C 
ATOM     18  C   UNL     1     -22.090   5.994 -40.877  1.00  0.00     0.208 C 
ATOM     19  O   UNL     1     -23.220   7.790 -39.752  1.00  0.00    -0.337 OA
ATOM     20  C   UNL     1     -21.692   7.305 -41.500  1.00  0.00     0.180 C 
ATOM     21  C   UNL     1     -22.096   8.309 -40.427  1.00  0.00     0.179 C 
BRANCH  17  22
ATOM     22  C   UNL     1     -24.665   6.057 -40.500  1.00  0.00     0.225 C 
BRANCH  22  23
ATOM     23  O   UNL     1     -25.014   4.732 -40.202  1.00  0.00    -0.391 OA
ATOM     24  H   UNL     1     -24.285   4.166 -40.569  1.00  0.00     0.210 HD
ENDBRANCH  22  23
ENDBRANCH  17  22
BRANCH  18  25
ATOM     25  O   UNL     1     -22.473   5.064 -41.859  1.00  0.00    -0.385 OA
ATOM     26  H   UNL     1     -22.292   4.163 -41.484  1.00  0.00     0.211 HD
ENDBRANCH  18  25
BRANCH  20  27
ATOM     27  O   UNL     1     -20.320   7.348 -41.796  1.00  0.00    -0.387 OA
ATOM     28  H   UNL     1     -20.068   8.309 -41.823  1.00  0.00     0.211 HD
ENDBRANCH  20  27
BRANCH  21  29
ATOM     29  C   UNL     1     -20.992   8.614 -39.397  1.00  0.00     0.191 C 
BRANCH  29  30
ATOM     30  O   UNL     1     -20.023   9.456 -39.957  1.00  0.00    -0.394 OA
ATOM     31  H   UNL     1     -19.548   9.874 -39.193  1.00  0.00     0.210 HD
ENDBRANCH  29  30
ENDBRANCH  21  29
ENDBRANCH   1  17
TORSDOF 13
ENDMDL
MODEL 5
REMARK VINA RESULT:    -5.902      2.035      4.326
REMARK INTER + INTRA:         -10.599
REMARK INTER:                  -9.008
REMARK INTRA:                  -1.591
REMARK UNBOUND:                -1.592
REMARK SMILES OC[C@@H]1O[C@](CO)(O[C@H]2O[C@H](CO)[C@@H](O)[C@@H](O)[C@@H]2O)[C@@H](O)[C@@H]1O
REMARK SMILES IDX 8 1 9 2 11 3 14 4 10 5 16 6 18 7 12 8 13 9 15 11 17 13 19 15
REMARK SMILES IDX 5 17 20 18 4 19 22 20 3 21 6 22 7 23 21 25 23 27 2 29 1 30
REMARK H PARENT 13 10 15 12 17 14 19 16 7 24 21 26 23 28 1 31
REMARK Flexibility Score: inf
ROOT
ATOM      1  O   UNL     1     -22.863   5.679 -37.611  1.00  0.00    -0.313 OA
ENDROOT
BRANCH   1   2
ATOM      2  C   UNL     1     -24.043   5.207 -38.259  1.00  0.00     0.285 C 
ATOM      3  C   UNL     1     -23.388   2.998 -37.739  1.00  0.00     0.178 C 
ATOM      4  C   UNL     1     -24.268   3.046 -36.447  1.00  0.00     0.177 C 
ATOM      5  O   UNL     1     -23.844   3.890 -38.751  1.00  0.00    -0.341 OA
ATOM      6  C   UNL     1     -25.561   3.836 -36.719  1.00  0.00     0.179 C 
ATOM      7  C   UNL     1     -25.237   5.246 -37.264  1.00  0.00     0.202 C 
BRANCH   3   8
ATOM      8  C   UNL     1     -23.359   1.586 -38.340  1.00  0.00     0.191 C 
BRANCH   8   9
ATOM      9  O   UNL     1     -22.984   1.635 -39.692  1.00  0.00    -0.394 OA
ATOM     10  H   UNL     1     -22.298   0.933 -39.833  1.00  0.00     0.210 HD
ENDBRANCH   8   9
ENDBRANCH   3   8
BRANCH   4  11
ATOM     11  O   UNL     1     -23.532   3.658 -35.415  1.00  0.00    -0.387 OA
ATOM     12  H   UNL     1     -23.958   4.534 -35.227  1.00  0.00     0.211 HD
ENDBRANCH   4  11
BRANCH   6  13
ATOM     13  O   UNL     1     -26.382   3.896 -35.578  1.00  0.00    -0.387 OA
ATOM     14  H   UNL     1     -26.119   3.160 -34.968  1.00  0.00     0.211 HD
ENDBRANCH   6  13
BRANCH   7  15
ATOM     15  O   UNL     1     -26.377   5.815 -37.858  1.00  0.00    -0.385 OA
ATOM     16  H   UNL     1     -27.133   5.184 -37.725  1.00  0.00     0.211 HD
ENDBRANCH   7  15
ENDBRANCH   1   2
BRANCH   1  17
ATOM     17  C   UNL     1     -22.178   6.722 -38.296  1.00  0.00     0.224 C 
ATOM     18  C   UNL     1     -23.020   7.288 -39.474  1.00  0.00     0.208 C 
ATOM     19  O   UNL     1     -21.006   6.140 -38.845  1.00  0.00    -0.337 OA
ATOM     20  C   UNL     1     -22.042   7.329 -40.616  1.00  0.00     0.180 C 
ATOM     21  C   UNL     1     -21.071   6.213 -40.252  1.00  0.00     0.179 C 
BRANCH  17  22
ATOM     22  C   UNL     1     -21.696   7.803 -37.293  1.00  0.00     0.225 C 
BRANCH  22  23
ATOM     23  O   UNL     1     -22.774   8.267 -36.524  1.00  0.00    -0.391 OA
ATOM     24  H   UNL     1     -22.687   9.256 -36.496  1.00  0.00     0.210 HD
ENDBRANCH  22  23
ENDBRANCH  17  22
BRANCH  18  25
ATOM     25  O   UNL     1     -23.537   8.569 -39.206  1.00  0.00    -0.385 OA
ATOM     26  H   UNL     1     -22.992   8.947 -38.468  1.00  0.00     0.211 HD
ENDBRANCH  18  25
BRANCH  20  27
ATOM     27  O   UNL     1     -22.672   7.118 -41.854  1.00  0.00    -0.387 OA
ATOM     28  H   UNL     1     -22.356   6.237 -42.184  1.00  0.00     0.211 HD
ENDBRANCH  20  27
BRANCH  21  29
ATOM     29  C   UNL     1     -21.459   4.829 -40.805  1.00  0.00     0.191 C 
BRANCH  29  30
ATOM     30  O   UNL     1     -20.980   3.817 -39.963  1.00  0.00    -0.394 OA
ATOM     31  H   UNL     1     -21.582   3.040 -40.098  1.00  0.00     0.210 HD
ENDBRANCH  29  30
ENDBRANCH  21  29
ENDBRANCH   1  17
TORSDOF 13
ENDMDL
MODEL 6
REMARK VINA RESULT:    -5.798      1.630      3.379
REMARK INTER + INTRA:         -10.441
REMARK INTER:                  -9.100
REMARK INTRA:                  -1.341
REMARK UNBOUND:                -1.592
REMARK SMILES OC[C@@H]1O[C@](CO)(O[C@H]2O[C@H](CO)[C@@H](O)[C@@H](O)[C@@H]2O)[C@@H](O)[C@@H]1O
REMARK SMILES IDX 8 1 9 2 11 3 14 4 10 5 16 6 18 7 12 8 13 9 15 11 17 13 19 15
REMARK SMILES IDX 5 17 20 18 4 19 22 20 3 21 6 22 7 23 21 25 23 27 2 29 1 30
REMARK H PARENT 13 10 15 12 17 14 19 16 7 24 21 26 23 28 1 31
REMARK Flexibility Score: inf
ROOT
ATOM      1  O   UNL     1     -22.501   6.065 -37.927  1.00  0.00    -0.313 OA
ENDROOT
BRANCH   1   2
ATOM      2  C   UNL     1     -21.770   4.840 -37.944  1.00  0.00     0.285 C 
ATOM      3  C   UNL     1     -21.692   4.909 -35.585  1.00  0.00     0.178 C 
ATOM      4  C   UNL     1     -22.965   4.003 -35.521  1.00  0.00     0.177 C 
ATOM      5  O   UNL     1     -20.951   4.737 -36.789  1.00  0.00    -0.341 OA
ATOM      6  C   UNL     1     -22.924   2.957 -36.650  1.00  0.00     0.179 C 
ATOM      7  C   UNL     1     -22.757   3.643 -38.026  1.00  0.00     0.202 C 
BRANCH   3   8
ATOM      8  C   UNL     1     -20.747   4.624 -34.410  1.00  0.00     0.191 C 
BRANCH   8   9
ATOM      9  O   UNL     1     -21.478   4.411 -33.230  1.00  0.00    -0.394 OA
ATOM     10  H   UNL     1     -21.302   5.183 -32.632  1.00  0.00     0.210 HD
ENDBRANCH   8   9
ENDBRANCH   3   8
BRANCH   4  11
ATOM     11  O   UNL     1     -24.109   4.812 -35.648  1.00  0.00    -0.387 OA
ATOM     12  H   UNL     1     -23.895   5.694 -35.246  1.00  0.00     0.211 HD
ENDBRANCH   4  11
BRANCH   6  13
ATOM     13  O   UNL     1     -24.053   2.119 -36.622  1.00  0.00    -0.387 OA
ATOM     14  H   UNL     1     -23.874   1.338 -37.207  1.00  0.00     0.211 HD
ENDBRANCH   6  13
BRANCH   7  15
ATOM     15  O   UNL     1     -22.347   2.708 -38.992  1.00  0.00    -0.385 OA
ATOM     16  H   UNL     1     -23.008   2.730 -39.733  1.00  0.00     0.211 HD
ENDBRANCH   7  15
ENDBRANCH   1   2
BRANCH   1  17
ATOM     17  C   UNL     1     -22.120   7.006 -38.926  1.00  0.00     0.224 C 
ATOM     18  C   UNL     1     -23.322   7.878 -39.386  1.00  0.00     0.208 C 
ATOM     19  O   UNL     1     -21.683   6.249 -40.043  1.00  0.00    -0.337 OA
ATOM     20  C   UNL     1     -23.230   7.837 -40.887  1.00  0.00     0.180 C 
ATOM     21  C   UNL     1     -22.543   6.500 -41.133  1.00  0.00     0.179 C 
BRANCH  17  22
ATOM     22  C   UNL     1     -20.892   7.830 -38.453  1.00  0.00     0.225 C 
BRANCH  22  23
ATOM     23  O   UNL     1     -21.049   8.208 -37.112  1.00  0.00    -0.391 OA
ATOM     24  H   UNL     1     -20.375   8.918 -36.945  1.00  0.00     0.210 HD
ENDBRANCH  22  23
ENDBRANCH  17  22
BRANCH  18  25
ATOM     25  O   UNL     1     -23.248   9.200 -38.911  1.00  0.00    -0.385 OA
ATOM     26  H   UNL     1     -22.906   9.752 -39.661  1.00  0.00     0.211 HD
ENDBRANCH  18  25
BRANCH  20  27
ATOM     27  O   UNL     1     -24.496   7.916 -41.491  1.00  0.00    -0.387 OA
ATOM     28  H   UNL     1     -24.588   8.845 -41.832  1.00  0.00     0.211 HD
ENDBRANCH  20  27
BRANCH  21  29
ATOM     29  C   UNL     1     -23.507   5.310 -41.290  1.00  0.00     0.191 C 
BRANCH  29  30
ATOM     30  O   UNL     1     -23.961   5.223 -42.613  1.00  0.00    -0.394 OA
ATOM     31  H   UNL     1     -24.410   6.085 -42.806  1.00  0.00     0.210 HD
ENDBRANCH  29  30
ENDBRANCH  21  29
ENDBRANCH   1  17
TORSDOF 13
ENDMDL
MODEL 7
REMARK VINA RESULT:    -5.783      1.669      5.110
REMARK INTER + INTRA:         -10.418
REMARK INTER:                  -9.752
REMARK INTRA:                  -0.666
REMARK UNBOUND:                -1.592
REMARK SMILES OC[C@@H]1O[C@](CO)(O[C@H]2O[C@H](CO)[C@@H](O)[C@@H](O)[C@@H]2O)[C@@H](O)[C@@H]1O
REMARK SMILES IDX 8 1 9 2 11 3 14 4 10 5 16 6 18 7 12 8 13 9 15 11 17 13 19 15
REMARK SMILES IDX 5 17 20 18 4 19 22 20 3 21 6 22 7 23 21 25 23 27 2 29 1 30
REMARK H PARENT 13 10 15 12 17 14 19 16 7 24 21 26 23 28 1 31
REMARK Flexibility Score: inf
ROOT
ATOM      1  O   UNL     1     -22.130   5.637 -38.455  1.00  0.00    -0.313 OA
ENDROOT
BRANCH   1   2
ATOM      2  C   UNL     1     -22.662   4.560 -39.225  1.00  0.00     0.285 C 
ATOM      3  C   UNL     1     -24.829   5.417 -38.837  1.00  0.00     0.178 C 
ATOM      4  C   UNL     1     -24.762   6.187 -40.195  1.00  0.00     0.177 C 
ATOM      5  O   UNL     1     -23.989   4.267 -38.813  1.00  0.00    -0.341 OA
ATOM      6  C   UNL     1     -24.024   5.340 -41.247  1.00  0.00     0.179 C 
ATOM      7  C   UNL     1     -22.625   4.927 -40.734  1.00  0.00     0.202 C 
BRANCH   3   8
ATOM      8  C   UNL     1     -26.260   4.955 -38.528  1.00  0.00     0.191 C 
BRANCH   8   9
ATOM      9  O   UNL     1     -26.763   5.632 -37.406  1.00  0.00    -0.394 OA
ATOM     10  H   UNL     1     -27.404   6.314 -37.736  1.00  0.00     0.210 HD
ENDBRANCH   8   9
ENDBRANCH   3   8
BRANCH   4  11
ATOM     11  O   UNL     1     -24.090   7.408 -39.996  1.00  0.00    -0.387 OA
ATOM     12  H   UNL     1     -23.136   7.262 -40.226  1.00  0.00     0.211 HD
ENDBRANCH   4  11
BRANCH   6  13
ATOM     13  O   UNL     1     -23.948   6.000 -42.487  1.00  0.00    -0.387 OA
ATOM     14  H   UNL     1     -23.757   6.958 -42.315  1.00  0.00     0.211 HD
ENDBRANCH   6  13
BRANCH   7  15
ATOM     15  O   UNL     1     -22.114   3.867 -41.504  1.00  0.00    -0.385 OA
ATOM     16  H   UNL     1     -22.855   3.223 -41.659  1.00  0.00     0.211 HD
ENDBRANCH   7  15
ENDBRANCH   1   2
BRANCH   1  17
ATOM     17  C   UNL     1     -21.789   5.306 -37.113  1.00  0.00     0.224 C 
ATOM     18  C   UNL     1     -22.799   5.907 -36.095  1.00  0.00     0.208 C 
ATOM     19  O   UNL     1     -20.523   5.895 -36.863  1.00  0.00    -0.337 OA
ATOM     20  C   UNL     1     -21.915   6.532 -35.051  1.00  0.00     0.180 C 
ATOM     21  C   UNL     1     -20.659   6.864 -35.847  1.00  0.00     0.179 C 
BRANCH  17  22
ATOM     22  C   UNL     1     -21.589   3.773 -36.968  1.00  0.00     0.225 C 
BRANCH  22  23
ATOM     23  O   UNL     1     -20.262   3.487 -36.615  1.00  0.00    -0.391 OA
ATOM     24  H   UNL     1     -19.814   4.365 -36.496  1.00  0.00     0.210 HD
ENDBRANCH  22  23
ENDBRANCH  17  22
BRANCH  18  25
ATOM     25  O   UNL     1     -23.641   4.934 -35.527  1.00  0.00    -0.385 OA
ATOM     26  H   UNL     1     -23.055   4.303 -35.034  1.00  0.00     0.211 HD
ENDBRANCH  18  25
BRANCH  20  27
ATOM     27  O   UNL     1     -22.508   7.667 -34.474  1.00  0.00    -0.387 OA
ATOM     28  H   UNL     1     -21.828   8.063 -33.868  1.00  0.00     0.211 HD
ENDBRANCH  20  27
BRANCH  21  29
ATOM     29  C   UNL     1     -20.667   8.263 -36.491  1.00  0.00     0.191 C 
BRANCH  29  30
ATOM     30  O   UNL     1     -20.253   9.228 -35.563  1.00  0.00    -0.394 OA
ATOM     31  H   UNL     1     -19.642   8.760 -34.936  1.00  0.00     0.210 HD
ENDBRANCH  29  30
ENDBRANCH  21  29
ENDBRANCH   1  17
TORSDOF 13
ENDMDL
MODEL 8
REMARK VINA RESULT:    -5.753      1.571      5.530
REMARK INTER + INTRA:         -10.371
REMARK INTER:                  -9.176
REMARK INTRA:                  -1.195
REMARK UNBOUND:                -1.592
REMARK SMILES OC[C@@H]1O[C@](CO)(O[C@H]2O[C@H](CO)[C@@H](O)[C@@H](O)[C@@H]2O)[C@@H](O)[C@@H]1O
REMARK SMILES IDX 8 1 9 2 11 3 14 4 10 5 16 6 18 7 12 8 13 9 15 11 17 13 19 15
REMARK SMILES IDX 5 17 20 18 4 19 22 20 3 21 6 22 7 23 21 25 23 27 2 29 1 30
REMARK H PARENT 13 10 15 12 17 14 19 16 7 24 21 26 23 28 1 31
REMARK Flexibility Score: inf
ROOT
ATOM      1  O   UNL     1     -22.393   6.144 -38.512  1.00  0.00    -0.313 OA
ENDROOT
BRANCH   1   2
ATOM      2  C   UNL     1     -23.672   5.628 -38.880  1.00  0.00     0.285 C 
ATOM      3  C   UNL     1     -23.608   6.983 -40.814  1.00  0.00     0.178 C 
ATOM      4  C   UNL     1     -23.030   5.782 -41.631  1.00  0.00     0.177 C 
ATOM      5  O   UNL     1     -24.370   6.567 -39.684  1.00  0.00    -0.341 OA
ATOM      6  C   UNL     1     -23.674   4.465 -41.161  1.00  0.00     0.179 C 
ATOM      7  C   UNL     1     -23.496   4.282 -39.636  1.00  0.00     0.202 C 
BRANCH   3   8
ATOM      8  C   UNL     1     -24.511   7.866 -41.686  1.00  0.00     0.191 C 
BRANCH   8   9
ATOM      9  O   UNL     1     -24.398   7.501 -43.037  1.00  0.00    -0.394 OA
ATOM     10  H   UNL     1     -23.489   7.126 -43.166  1.00  0.00     0.210 HD
ENDBRANCH   8   9
ENDBRANCH   3   8
BRANCH   4  11
ATOM     11  O   UNL     1     -21.635   5.734 -41.447  1.00  0.00    -0.387 OA
ATOM     12  H   UNL     1     -21.297   4.949 -41.952  1.00  0.00     0.211 HD
ENDBRANCH   4  11
BRANCH   6  13
ATOM     13  O   UNL     1     -23.181   3.361 -41.878  1.00  0.00    -0.387 OA
ATOM     14  H   UNL     1     -22.309   3.101 -41.484  1.00  0.00     0.211 HD
ENDBRANCH   6  13
BRANCH   7  15
ATOM     15  O   UNL     1     -24.385   3.306 -39.153  1.00  0.00    -0.385 OA
ATOM     16  H   UNL     1     -24.353   2.534 -39.778  1.00  0.00     0.211 HD
ENDBRANCH   7  15
ENDBRANCH   1   2
BRANCH   1  17
ATOM     17  C   UNL     1     -22.309   6.650 -37.185  1.00  0.00     0.224 C 
ATOM     18  C   UNL     1     -20.999   6.200 -36.477  1.00  0.00     0.208 C 
ATOM     19  O   UNL     1     -23.399   6.090 -36.471  1.00  0.00    -0.337 OA
ATOM     20  C   UNL     1     -21.476   5.714 -35.135  1.00  0.00     0.180 C 
ATOM     21  C   UNL     1     -22.900   5.268 -35.439  1.00  0.00     0.179 C 
BRANCH  17  22
ATOM     22  C   UNL     1     -22.529   8.187 -37.177  1.00  0.00     0.225 C 
BRANCH  22  23
ATOM     23  O   UNL     1     -22.708   8.645 -35.863  1.00  0.00    -0.391 OA
ATOM     24  H   UNL     1     -23.678   8.554 -35.670  1.00  0.00     0.210 HD
ENDBRANCH  22  23
ENDBRANCH  17  22
BRANCH  18  25
ATOM     25  O   UNL     1     -20.071   7.246 -36.335  1.00  0.00    -0.385 OA
ATOM     26  H   UNL     1     -20.203   7.622 -35.426  1.00  0.00     0.211 HD
ENDBRANCH  18  25
BRANCH  20  27
ATOM     27  O   UNL     1     -20.674   4.672 -34.641  1.00  0.00    -0.387 OA
ATOM     28  H   UNL     1     -20.766   3.918 -35.281  1.00  0.00     0.211 HD
ENDBRANCH  20  27
BRANCH  21  29
ATOM     29  C   UNL     1     -23.026   3.795 -35.871  1.00  0.00     0.191 C 
BRANCH  29  30
ATOM     30  O   UNL     1     -24.360   3.488 -36.170  1.00  0.00    -0.394 OA
ATOM     31  H   UNL     1     -24.895   4.263 -35.861  1.00  0.00     0.210 HD
ENDBRANCH  29  30
ENDBRANCH  21  29
ENDBRANCH   1  17
TORSDOF 13
ENDMDL
MODEL 9
REMARK VINA RESULT:    -5.662     11.903     14.979
REMARK INTER + INTRA:         -10.233
REMARK INTER:                  -8.939
REMARK INTRA:                  -1.295
REMARK UNBOUND:                -1.592
REMARK SMILES OC[C@@H]1O[C@](CO)(O[C@H]2O[C@H](CO)[C@@H](O)[C@@H](O)[C@@H]2O)[C@@H](O)[C@@H]1O
REMARK SMILES IDX 8 1 9 2 11 3 14 4 10 5 16 6 18 7 12 8 13 9 15 11 17 13 19 15
REMARK SMILES IDX 5 17 20 18 4 19 22 20 3 21 6 22 7 23 21 25 23 27 2 29 1 30
REMARK H PARENT 13 10 15 12 17 14 19 16 7 24 21 26 23 28 1 31
REMARK Flexibility Score: inf
ROOT
ATOM      1  O   UNL     1     -35.583   4.908 -43.413  1.00  0.00    -0.313 OA
ENDROOT
BRANCH   1   2
ATOM      2  C   UNL     1     -36.675   4.240 -44.044  1.00  0.00     0.285 C 
ATOM      3  C   UNL     1     -37.793   6.315 -44.194  1.00  0.00     0.178 C 
ATOM      4  C   UNL     1     -37.237   6.505 -45.642  1.00  0.00     0.177 C 
ATOM      5  O   UNL     1     -37.885   4.945 -43.813  1.00  0.00    -0.341 OA
ATOM      6  C   UNL     1     -37.203   5.153 -46.377  1.00  0.00     0.179 C 
ATOM      7  C   UNL     1     -36.397   4.110 -45.567  1.00  0.00     0.202 C 
BRANCH   3   8
ATOM      8  C   UNL     1     -39.190   6.933 -44.049  1.00  0.00     0.191 C 
BRANCH   8   9
ATOM      9  O   UNL     1     -39.643   7.421 -45.285  1.00  0.00    -0.394 OA
ATOM     10  H   UNL     1     -40.133   6.682 -45.731  1.00  0.00     0.210 HD
ENDBRANCH   8   9
ENDBRANCH   3   8
BRANCH   4  11
ATOM     11  O   UNL     1     -35.941   7.050 -45.566  1.00  0.00    -0.387 OA
ATOM     12  H   UNL     1     -35.313   6.298 -45.408  1.00  0.00     0.211 HD
ENDBRANCH   4  11
BRANCH   6  13
ATOM     13  O   UNL     1     -36.711   5.286 -47.688  1.00  0.00    -0.387 OA
ATOM     14  H   UNL     1     -35.796   4.905 -47.715  1.00  0.00     0.211 HD
ENDBRANCH   6  13
BRANCH   7  15
ATOM     15  O   UNL     1     -36.677   2.811 -46.028  1.00  0.00    -0.385 OA
ATOM     16  H   UNL     1     -36.784   2.858 -47.014  1.00  0.00     0.211 HD
ENDBRANCH   7  15
ENDBRANCH   1   2
BRANCH   1  17
ATOM     17  C   UNL     1     -34.972   4.186 -42.348  1.00  0.00     0.224 C 
ATOM     18  C   UNL     1     -33.464   4.538 -42.203  1.00  0.00     0.208 C 
ATOM     19  O   UNL     1     -35.063   2.813 -42.691  1.00  0.00    -0.337 OA
ATOM     20  C   UNL     1     -32.799   3.193 -42.092  1.00  0.00     0.180 C 
ATOM     21  C   UNL     1     -33.762   2.292 -42.855  1.00  0.00     0.179 C 
BRANCH  17  22
ATOM     22  C   UNL     1     -35.786   4.360 -41.038  1.00  0.00     0.225 C 
BRANCH  22  23
ATOM     23  O   UNL     1     -36.354   5.642 -40.987  1.00  0.00    -0.391 OA
ATOM     24  H   UNL     1     -36.472   5.852 -40.024  1.00  0.00     0.210 HD
ENDBRANCH  22  23
ENDBRANCH  17  22
BRANCH  18  25
ATOM     25  O   UNL     1     -33.198   5.328 -41.070  1.00  0.00    -0.385 OA
ATOM     26  H   UNL     1     -33.951   5.186 -40.440  1.00  0.00     0.211 HD
ENDBRANCH  18  25
BRANCH  20  27
ATOM     27  O   UNL     1     -31.508   3.200 -42.644  1.00  0.00    -0.387 OA
ATOM     28  H   UNL     1     -30.992   3.887 -42.145  1.00  0.00     0.211 HD
ENDBRANCH  20  27
BRANCH  21  29
ATOM     29  C   UNL     1     -33.460   2.171 -44.360  1.00  0.00     0.191 C 
BRANCH  29  30
ATOM     30  O   UNL     1     -32.275   1.451 -44.562  1.00  0.00    -0.394 OA
ATOM     31  H   UNL     1     -31.851   1.842 -45.369  1.00  0.00     0.210 HD
ENDBRANCH  29  30
ENDBRANCH  21  29
ENDBRANCH   1  17
TORSDOF 13
ENDMDL
