MODEL 1
REMARK VINA RESULT:    -1.620      0.000      0.000
REMARK INTER + INTRA:          -1.904
REMARK INTER:                  -1.857
REMARK INTRA:                  -0.047
REMARK UNBOUND:                -0.047
REMARK SMILES O=C([O-])c1cc(O)c(O)c(O)c1
REMARK SMILES IDX 4 1 5 2 12 3 6 4 10 5 8 6 2 7 1 8 3 9 7 10 11 12 9 14
REMARK H PARENT 7 11 11 13 9 15
REMARK Flexibility Score: inf
ROOT
ATOM      1  C   UNL     1      27.071  29.842   0.931  1.00  0.00     0.005 A 
ATOM      2  C   UNL     1      26.334  29.910   2.125  1.00  0.00     0.060 A 
ATOM      3  C   UNL     1      27.456  28.584   0.438  1.00  0.00     0.060 A 
ATOM      4  C   UNL     1      25.987  28.744   2.818  1.00  0.00     0.162 A 
ATOM      5  C   UNL     1      27.111  27.411   1.125  1.00  0.00     0.162 A 
ATOM      6  C   UNL     1      26.375  27.489   2.320  1.00  0.00     0.200 A 
ENDROOT
BRANCH   1   7
ATOM      7  C   UNL     1      27.433  31.080   0.207  1.00  0.00     0.072 C 
ATOM      8  O   UNL     1      28.628  31.303  -0.123  1.00  0.00    -0.545 OA
ATOM      9  O   UNL     1      26.459  32.015  -0.122  1.00  0.00    -0.545 OA
ENDBRANCH   1   7
BRANCH   4  10
ATOM     10  O   UNL     1      25.255  28.854   4.000  1.00  0.00    -0.504 OA
ATOM     11  H   UNL     1      24.309  29.216   4.017  1.00  0.00     0.293 HD
ENDBRANCH   4  10
BRANCH   5  12
ATOM     12  O   UNL     1      27.500  26.169   0.625  1.00  0.00    -0.504 OA
ATOM     13  H   UNL     1      26.866  25.379   0.610  1.00  0.00     0.293 HD
ENDBRANCH   5  12
BRANCH   6  14
ATOM     14  O   UNL     1      26.024  26.332   3.016  1.00  0.00    -0.502 OA
ATOM     15  H   UNL     1      26.404  25.423   2.780  1.00  0.00     0.293 HD
ENDBRANCH   6  14
TORSDOF 4
ENDMDL
MODEL 2
REMARK VINA RESULT:    -0.900      1.623      4.781
REMARK INTER + INTRA:          -1.079
REMARK INTER:                  -1.034
REMARK INTRA:                  -0.045
REMARK UNBOUND:                -0.047
REMARK SMILES O=C([O-])c1cc(O)c(O)c(O)c1
REMARK SMILES IDX 4 1 5 2 12 3 6 4 10 5 8 6 2 7 1 8 3 9 7 10 11 12 9 14
REMARK H PARENT 7 11 11 13 9 15
REMARK Flexibility Score: inf
ROOT
ATOM      1  C   UNL     1      26.480  26.542   1.819  1.00  0.00     0.005 A 
ATOM      2  C   UNL     1      27.156  27.274   0.829  1.00  0.00     0.060 A 
ATOM      3  C   UNL     1      25.849  27.233   2.867  1.00  0.00     0.060 A 
ATOM      4  C   UNL     1      27.204  28.671   0.881  1.00  0.00     0.162 A 
ATOM      5  C   UNL     1      25.891  28.633   2.927  1.00  0.00     0.162 A 
ATOM      6  C   UNL     1      26.571  29.357   1.932  1.00  0.00     0.200 A 
ENDROOT
BRANCH   1   7
ATOM      7  C   UNL     1      26.436  25.064   1.756  1.00  0.00     0.072 C 
ATOM      8  O   UNL     1      27.130  24.367   2.543  1.00  0.00    -0.545 OA
ATOM      9  O   UNL     1      25.627  24.423   0.825  1.00  0.00    -0.545 OA
ENDBRANCH   1   7
BRANCH   4  10
ATOM     10  O   UNL     1      27.885  29.361  -0.121  1.00  0.00    -0.504 OA
ATOM     11  H   UNL     1      28.711  29.916   0.072  1.00  0.00     0.293 HD
ENDBRANCH   4  10
BRANCH   5  12
ATOM     12  O   UNL     1      25.261  29.307   3.972  1.00  0.00    -0.504 OA
ATOM     13  H   UNL     1      25.460  29.090   4.941  1.00  0.00     0.293 HD
ENDBRANCH   5  12
BRANCH   6  14
ATOM     14  O   UNL     1      26.622  30.751   1.976  1.00  0.00    -0.502 OA
ATOM     15  H   UNL     1      25.793  31.319   2.101  1.00  0.00     0.293 HD
ENDBRANCH   6  14
TORSDOF 4
ENDMDL
MODEL 3
REMARK VINA RESULT:    -0.371      1.957      4.465
REMARK INTER + INTRA:          -0.472
REMARK INTER:                  -0.419
REMARK INTRA:                  -0.053
REMARK UNBOUND:                -0.047
REMARK SMILES O=C([O-])c1cc(O)c(O)c(O)c1
REMARK SMILES IDX 4 1 5 2 12 3 6 4 10 5 8 6 2 7 1 8 3 9 7 10 11 12 9 14
REMARK H PARENT 7 11 11 13 9 15
REMARK Flexibility Score: inf
ROOT
ATOM      1  C   UNL     1      26.941  27.143   1.724  1.00  0.00     0.005 A 
ATOM      2  C   UNL     1      28.089  27.563   2.416  1.00  0.00     0.060 A 
ATOM      3  C   UNL     1      26.285  28.051   0.875  1.00  0.00     0.060 A 
ATOM      4  C   UNL     1      28.575  28.867   2.268  1.00  0.00     0.162 A 
ATOM      5  C   UNL     1      26.767  29.359   0.720  1.00  0.00     0.162 A 
ATOM      6  C   UNL     1      27.915  29.771   1.418  1.00  0.00     0.200 A 
ENDROOT
BRANCH   1   7
ATOM      7  C   UNL     1      26.435  25.762   1.888  1.00  0.00     0.072 C 
ATOM      8  O   UNL     1      27.116  24.898   2.500  1.00  0.00    -0.545 OA
ATOM      9  O   UNL     1      25.197  25.399   1.370  1.00  0.00    -0.545 OA
ENDBRANCH   1   7
BRANCH   4  10
ATOM     10  O   UNL     1      29.717  29.246   2.973  1.00  0.00    -0.504 OA
ATOM     11  H   UNL     1      29.746  29.256   3.986  1.00  0.00     0.293 HD
ENDBRANCH   4  10
BRANCH   5  12
ATOM     12  O   UNL     1      26.107  30.249  -0.125  1.00  0.00    -0.504 OA
ATOM     13  H   UNL     1      25.254  30.719   0.158  1.00  0.00     0.293 HD
ENDBRANCH   5  12
BRANCH   6  14
ATOM     14  O   UNL     1      28.406  31.069   1.275  1.00  0.00    -0.502 OA
ATOM     15  H   UNL     1      29.393  31.263   1.157  1.00  0.00     0.293 HD
ENDBRANCH   6  14
TORSDOF 4
ENDMDL
MODEL 4
REMARK VINA RESULT:     0.995      1.828      2.250
REMARK INTER + INTRA:           1.093
REMARK INTER:                   1.144
REMARK INTRA:                  -0.050
REMARK UNBOUND:                -0.047
REMARK SMILES O=C([O-])c1cc(O)c(O)c(O)c1
REMARK SMILES IDX 4 1 5 2 12 3 6 4 10 5 8 6 2 7 1 8 3 9 7 10 11 12 9 14
REMARK H PARENT 7 11 11 13 9 15
REMARK Flexibility Score: inf
ROOT
ATOM      1  C   UNL     1      27.277  30.191   0.863  1.00  0.00     0.005 A 
ATOM      2  C   UNL     1      26.488  29.049   0.647  1.00  0.00     0.060 A 
ATOM      3  C   UNL     1      28.379  30.105   1.731  1.00  0.00     0.060 A 
ATOM      4  C   UNL     1      26.791  27.841   1.285  1.00  0.00     0.162 A 
ATOM      5  C   UNL     1      28.690  28.898   2.374  1.00  0.00     0.162 A 
ATOM      6  C   UNL     1      27.894  27.761   2.152  1.00  0.00     0.200 A 
ENDROOT
BRANCH   1   7
ATOM      7  C   UNL     1      26.949  31.464   0.184  1.00  0.00     0.072 C 
ATOM      8  O   UNL     1      27.858  32.279  -0.124  1.00  0.00    -0.545 OA
ATOM      9  O   UNL     1      25.631  31.778  -0.125  1.00  0.00    -0.545 OA
ENDBRANCH   1   7
BRANCH   4  10
ATOM     10  O   UNL     1      25.983  26.730   1.045  1.00  0.00    -0.504 OA
ATOM     11  H   UNL     1      25.172  26.519   1.615  1.00  0.00     0.293 HD
ENDBRANCH   4  10
BRANCH   5  12
ATOM     12  O   UNL     1      29.785  28.826   3.232  1.00  0.00    -0.504 OA
ATOM     13  H   UNL     1      30.641  29.336   3.047  1.00  0.00     0.293 HD
ENDBRANCH   5  12
BRANCH   6  14
ATOM     14  O   UNL     1      28.189  26.552   2.784  1.00  0.00    -0.502 OA
ATOM     15  H   UNL     1      29.071  26.074   2.651  1.00  0.00     0.293 HD
ENDBRANCH   6  14
TORSDOF 4
ENDMDL
MODEL 5
REMARK VINA RESULT:     1.171      1.835      2.133
REMARK INTER + INTRA:           1.295
REMARK INTER:                   1.345
REMARK INTRA:                  -0.050
REMARK UNBOUND:                -0.047
REMARK SMILES O=C([O-])c1cc(O)c(O)c(O)c1
REMARK SMILES IDX 4 1 5 2 12 3 6 4 10 5 8 6 2 7 1 8 3 9 7 10 11 12 9 14
REMARK H PARENT 7 11 11 13 9 15
REMARK Flexibility Score: inf
ROOT
ATOM      1  C   UNL     1      27.229  30.102   0.903  1.00  0.00     0.005 A 
ATOM      2  C   UNL     1      28.327  30.041   1.777  1.00  0.00     0.060 A 
ATOM      3  C   UNL     1      26.452  28.948   0.701  1.00  0.00     0.060 A 
ATOM      4  C   UNL     1      28.648  28.850   2.438  1.00  0.00     0.162 A 
ATOM      5  C   UNL     1      26.767  27.751   1.360  1.00  0.00     0.162 A 
ATOM      6  C   UNL     1      27.868  27.700   2.232  1.00  0.00     0.200 A 
ENDROOT
BRANCH   1   7
ATOM      7  C   UNL     1      26.898  31.366   0.208  1.00  0.00     0.072 C 
ATOM      8  O   UNL     1      25.705  31.640  -0.090  1.00  0.00    -0.545 OA
ATOM      9  O   UNL     1      27.899  32.270  -0.125  1.00  0.00    -0.545 OA
ENDBRANCH   1   7
BRANCH   4  10
ATOM     10  O   UNL     1      29.746  28.830   3.297  1.00  0.00    -0.504 OA
ATOM     11  H   UNL     1      30.543  29.442   3.168  1.00  0.00     0.293 HD
ENDBRANCH   4  10
BRANCH   5  12
ATOM     12  O   UNL     1      25.989  26.614   1.150  1.00  0.00    -0.504 OA
ATOM     13  H   UNL     1      25.672  26.349   0.225  1.00  0.00     0.293 HD
ENDBRANCH   5  12
BRANCH   6  14
ATOM     14  O   UNL     1      28.195  26.516   2.895  1.00  0.00    -0.502 OA
ATOM     15  H   UNL     1      27.872  25.611   2.576  1.00  0.00     0.293 HD
ENDBRANCH   6  14
TORSDOF 4
ENDMDL
MODEL 6
REMARK VINA RESULT:     1.334      2.711      3.992
REMARK INTER + INTRA:           1.482
REMARK INTER:                   1.529
REMARK INTRA:                  -0.048
REMARK UNBOUND:                -0.047
REMARK SMILES O=C([O-])c1cc(O)c(O)c(O)c1
REMARK SMILES IDX 4 1 5 2 12 3 6 4 10 5 8 6 2 7 1 8 3 9 7 10 11 12 9 14
REMARK H PARENT 7 11 11 13 9 15
REMARK Flexibility Score: inf
ROOT
ATOM      1  C   UNL     1      28.956  28.881   2.461  1.00  0.00     0.005 A 
ATOM      2  C   UNL     1      28.051  27.829   2.242  1.00  0.00     0.060 A 
ATOM      3  C   UNL     1      28.749  30.107   1.805  1.00  0.00     0.060 A 
ATOM      4  C   UNL     1      26.959  27.993   1.383  1.00  0.00     0.162 A 
ATOM      5  C   UNL     1      27.656  30.280   0.943  1.00  0.00     0.162 A 
ATOM      6  C   UNL     1      26.757  29.220   0.730  1.00  0.00     0.200 A 
ENDROOT
BRANCH   1   7
ATOM      7  C   UNL     1      30.108  28.698   3.371  1.00  0.00     0.072 C 
ATOM      8  O   UNL     1      30.875  27.707   3.242  1.00  0.00    -0.545 OA
ATOM      9  O   UNL     1      30.362  29.618   4.381  1.00  0.00    -0.545 OA
ENDBRANCH   1   7
BRANCH   4  10
ATOM     10  O   UNL     1      26.085  26.924   1.192  1.00  0.00    -0.504 OA
ATOM     11  H   UNL     1      25.754  26.352   1.961  1.00  0.00     0.293 HD
ENDBRANCH   4  10
BRANCH   5  12
ATOM     12  O   UNL     1      27.462  31.500   0.298  1.00  0.00    -0.504 OA
ATOM     13  H   UNL     1      26.538  31.900   0.182  1.00  0.00     0.293 HD
ENDBRANCH   5  12
BRANCH   6  14
ATOM     14  O   UNL     1      25.665  29.376  -0.125  1.00  0.00    -0.502 OA
ATOM     15  H   UNL     1      24.856  29.930   0.128  1.00  0.00     0.293 HD
ENDBRANCH   6  14
TORSDOF 4
ENDMDL
