MODEL 1
REMARK VINA RESULT:    -3.889      0.000      0.000
REMARK INTER + INTRA:          -5.145
REMARK INTER:                  -5.026
REMARK INTRA:                  -0.118
REMARK UNBOUND:                -0.118
REMARK SMILES CCCCCCC(=O)[O-]
REMARK SMILES IDX 5 1 6 2 7 3 8 4 9 5 4 6 3 7 2 8 1 9
REMARK H PARENT
REMARK Flexibility Score: inf
ROOT
ATOM      1  C   UNL     1      26.382   6.574   5.598  1.00  0.00     0.006 C 
ENDROOT
BRANCH   1   2
ATOM      2  C   UNL     1      26.212   8.018   5.110  1.00  0.00     0.053 C 
BRANCH   2   3
ATOM      3  C   UNL     1      24.845   8.552   5.411  1.00  0.00     0.041 C 
ATOM      4  O   UNL     1      23.878   7.762   5.574  1.00  0.00    -0.550 OA
ATOM      5  O   UNL     1      24.632   9.923   5.481  1.00  0.00    -0.550 OA
ENDBRANCH   2   3
ENDBRANCH   1   2
BRANCH   1   6
ATOM      6  C   UNL     1      27.461   6.453   6.689  1.00  0.00     0.000 C 
BRANCH   6   7
ATOM      7  C   UNL     1      27.349   5.150   7.500  1.00  0.00    -0.000 C 
BRANCH   7   8
ATOM      8  C   UNL     1      27.783   3.879   6.747  1.00  0.00    -0.003 C 
ATOM      9  C   UNL     1      27.378   2.592   7.464  1.00  0.00     0.004 C 
ENDBRANCH   7   8
ENDBRANCH   6   7
ENDBRANCH   1   6
TORSDOF 5
ENDMDL
MODEL 2
REMARK VINA RESULT:    -3.834      1.250      2.353
REMARK INTER + INTRA:          -5.073
REMARK INTER:                  -4.775
REMARK INTRA:                  -0.299
REMARK UNBOUND:                -0.118
REMARK SMILES CCCCCCC(=O)[O-]
REMARK SMILES IDX 5 1 6 2 7 3 8 4 9 5 4 6 3 7 2 8 1 9
REMARK H PARENT
REMARK Flexibility Score: inf
ROOT
ATOM      1  C   UNL     1      26.351   6.464   5.117  1.00  0.00     0.006 C 
ENDROOT
BRANCH   1   2
ATOM      2  C   UNL     1      26.330   7.998   5.143  1.00  0.00     0.053 C 
BRANCH   2   3
ATOM      3  C   UNL     1      24.963   8.533   5.441  1.00  0.00     0.041 C 
ATOM      4  O   UNL     1      24.773   9.776   5.516  1.00  0.00    -0.550 OA
ATOM      5  O   UNL     1      23.907   7.661   5.667  1.00  0.00    -0.550 OA
ENDBRANCH   2   3
ENDBRANCH   1   2
BRANCH   1   6
ATOM      6  C   UNL     1      27.510   5.885   5.948  1.00  0.00     0.000 C 
BRANCH   6   7
ATOM      7  C   UNL     1      27.104   5.563   7.397  1.00  0.00    -0.000 C 
BRANCH   7   8
ATOM      8  C   UNL     1      27.761   6.453   8.468  1.00  0.00    -0.003 C 
ATOM      9  C   UNL     1      26.990   7.745   8.729  1.00  0.00     0.004 C 
ENDBRANCH   7   8
ENDBRANCH   6   7
ENDBRANCH   1   6
TORSDOF 5
ENDMDL
MODEL 3
REMARK VINA RESULT:    -3.751     12.852     14.112
REMARK INTER + INTRA:          -4.966
REMARK INTER:                  -4.808
REMARK INTRA:                  -0.158
REMARK UNBOUND:                -0.118
REMARK SMILES CCCCCCC(=O)[O-]
REMARK SMILES IDX 5 1 6 2 7 3 8 4 9 5 4 6 3 7 2 8 1 9
REMARK H PARENT
REMARK Flexibility Score: inf
ROOT
ATOM      1  C   UNL     1      15.565   3.384   0.872  1.00  0.00     0.006 C 
ENDROOT
BRANCH   1   2
ATOM      2  C   UNL     1      16.352   3.838  -0.364  1.00  0.00     0.053 C 
BRANCH   2   3
ATOM      3  C   UNL     1      15.752   3.315  -1.633  1.00  0.00     0.041 C 
ATOM      4  O   UNL     1      15.079   4.077  -2.376  1.00  0.00    -0.550 OA
ATOM      5  O   UNL     1      15.910   1.980  -1.980  1.00  0.00    -0.550 OA
ENDBRANCH   2   3
ENDBRANCH   1   2
BRANCH   1   6
ATOM      6  C   UNL     1      14.545   4.441   1.331  1.00  0.00     0.000 C 
BRANCH   6   7
ATOM      7  C   UNL     1      13.087   3.970   1.180  1.00  0.00    -0.000 C 
BRANCH   7   8
ATOM      8  C   UNL     1      12.032   4.943   1.739  1.00  0.00    -0.003 C 
ATOM      9  C   UNL     1      11.621   4.620   3.174  1.00  0.00     0.004 C 
ENDBRANCH   7   8
ENDBRANCH   6   7
ENDBRANCH   1   6
TORSDOF 5
ENDMDL
MODEL 4
REMARK VINA RESULT:    -3.713      9.631     12.148
REMARK INTER + INTRA:          -4.917
REMARK INTER:                  -4.766
REMARK INTRA:                  -0.151
REMARK UNBOUND:                -0.118
REMARK SMILES CCCCCCC(=O)[O-]
REMARK SMILES IDX 5 1 6 2 7 3 8 4 9 5 4 6 3 7 2 8 1 9
REMARK H PARENT
REMARK Flexibility Score: inf
ROOT
ATOM      1  C   UNL     1      19.248  16.168   7.600  1.00  0.00     0.006 C 
ENDROOT
BRANCH   1   2
ATOM      2  C   UNL     1      18.270  17.280   7.999  1.00  0.00     0.053 C 
BRANCH   2   3
ATOM      3  C   UNL     1      18.805  18.122   9.116  1.00  0.00     0.041 C 
ATOM      4  O   UNL     1      19.972  18.591   9.051  1.00  0.00    -0.550 OA
ATOM      5  O   UNL     1      18.029  18.363  10.241  1.00  0.00    -0.550 OA
ENDBRANCH   2   3
ENDBRANCH   1   2
BRANCH   1   6
ATOM      6  C   UNL     1      19.598  16.213   6.101  1.00  0.00     0.000 C 
BRANCH   6   7
ATOM      7  C   UNL     1      20.860  15.402   5.756  1.00  0.00    -0.000 C 
BRANCH   7   8
ATOM      8  C   UNL     1      20.877  13.965   6.309  1.00  0.00    -0.003 C 
ATOM      9  C   UNL     1      22.268  13.335   6.294  1.00  0.00     0.004 C 
ENDBRANCH   7   8
ENDBRANCH   6   7
ENDBRANCH   1   6
TORSDOF 5
ENDMDL
MODEL 5
REMARK VINA RESULT:    -3.653     13.511     14.423
REMARK INTER + INTRA:          -4.839
REMARK INTER:                  -4.418
REMARK INTRA:                  -0.421
REMARK UNBOUND:                -0.118
REMARK SMILES CCCCCCC(=O)[O-]
REMARK SMILES IDX 5 1 6 2 7 3 8 4 9 5 4 6 3 7 2 8 1 9
REMARK H PARENT
REMARK Flexibility Score: inf
ROOT
ATOM      1  C   UNL     1      16.626   1.299  -0.930  1.00  0.00     0.006 C 
ENDROOT
BRANCH   1   2
ATOM      2  C   UNL     1      16.823   2.819  -0.889  1.00  0.00     0.053 C 
BRANCH   2   3
ATOM      3  C   UNL     1      15.543   3.556  -1.139  1.00  0.00     0.041 C 
ATOM      4  O   UNL     1      15.298   4.029  -2.281  1.00  0.00    -0.550 OA
ATOM      5  O   UNL     1      14.636   3.748  -0.106  1.00  0.00    -0.550 OA
ENDBRANCH   2   3
ENDBRANCH   1   2
BRANCH   1   6
ATOM      6  C   UNL     1      16.689   0.744  -2.365  1.00  0.00     0.000 C 
BRANCH   6   7
ATOM      7  C   UNL     1      15.430  -0.050  -2.756  1.00  0.00    -0.000 C 
BRANCH   7   8
ATOM      8  C   UNL     1      14.186   0.247  -1.899  1.00  0.00    -0.003 C 
ATOM      9  C   UNL     1      13.180   1.158  -2.599  1.00  0.00     0.004 C 
ENDBRANCH   7   8
ENDBRANCH   6   7
ENDBRANCH   1   6
TORSDOF 5
ENDMDL
MODEL 6
REMARK VINA RESULT:    -3.607     11.344     12.053
REMARK INTER + INTRA:          -4.780
REMARK INTER:                  -4.653
REMARK INTRA:                  -0.127
REMARK UNBOUND:                -0.118
REMARK SMILES CCCCCCC(=O)[O-]
REMARK SMILES IDX 5 1 6 2 7 3 8 4 9 5 4 6 3 7 2 8 1 9
REMARK H PARENT
REMARK Flexibility Score: inf
ROOT
ATOM      1  C   UNL     1      15.701   2.090   1.460  1.00  0.00     0.006 C 
ENDROOT
BRANCH   1   2
ATOM      2  C   UNL     1      15.801   3.384   0.642  1.00  0.00     0.053 C 
BRANCH   2   3
ATOM      3  C   UNL     1      16.214   3.120  -0.773  1.00  0.00     0.041 C 
ATOM      4  O   UNL     1      17.128   2.290  -1.022  1.00  0.00    -0.550 OA
ATOM      5  O   UNL     1      15.613   3.812  -1.816  1.00  0.00    -0.550 OA
ENDBRANCH   2   3
ENDBRANCH   1   2
BRANCH   1   6
ATOM      6  C   UNL     1      15.813   2.350   2.973  1.00  0.00     0.000 C 
BRANCH   6   7
ATOM      7  C   UNL     1      15.742   1.059   3.809  1.00  0.00    -0.000 C 
BRANCH   7   8
ATOM      8  C   UNL     1      16.644   1.045   5.056  1.00  0.00    -0.003 C 
ATOM      9  C   UNL     1      17.261   2.408   5.365  1.00  0.00     0.004 C 
ENDBRANCH   7   8
ENDBRANCH   6   7
ENDBRANCH   1   6
TORSDOF 5
ENDMDL
MODEL 7
REMARK VINA RESULT:    -3.531     15.129     17.426
REMARK INTER + INTRA:          -4.682
REMARK INTER:                  -4.454
REMARK INTRA:                  -0.228
REMARK UNBOUND:                -0.118
REMARK SMILES CCCCCCC(=O)[O-]
REMARK SMILES IDX 5 1 6 2 7 3 8 4 9 5 4 6 3 7 2 8 1 9
REMARK H PARENT
REMARK Flexibility Score: inf
ROOT
ATOM      1  C   UNL     1      16.500  17.068  -1.978  1.00  0.00     0.006 C 
ENDROOT
BRANCH   1   2
ATOM      2  C   UNL     1      16.081  16.459  -0.634  1.00  0.00     0.053 C 
BRANCH   2   3
ATOM      3  C   UNL     1      16.985  16.889   0.481  1.00  0.00     0.041 C 
ATOM      4  O   UNL     1      16.504  17.191   1.605  1.00  0.00    -0.550 OA
ATOM      5  O   UNL     1      18.354  16.984   0.270  1.00  0.00    -0.550 OA
ENDBRANCH   2   3
ENDBRANCH   1   2
BRANCH   1   6
ATOM      6  C   UNL     1      16.028  18.526  -2.127  1.00  0.00     0.000 C 
BRANCH   6   7
ATOM      7  C   UNL     1      15.009  18.712  -3.265  1.00  0.00    -0.000 C 
BRANCH   7   8
ATOM      8  C   UNL     1      14.155  17.469  -3.579  1.00  0.00    -0.003 C 
ATOM      9  C   UNL     1      14.071  17.162  -5.073  1.00  0.00     0.004 C 
ENDBRANCH   7   8
ENDBRANCH   6   7
ENDBRANCH   1   6
TORSDOF 5
ENDMDL
MODEL 8
REMARK VINA RESULT:    -3.512     12.008     12.887
REMARK INTER + INTRA:          -4.657
REMARK INTER:                  -4.530
REMARK INTRA:                  -0.127
REMARK UNBOUND:                -0.118
REMARK SMILES CCCCCCC(=O)[O-]
REMARK SMILES IDX 5 1 6 2 7 3 8 4 9 5 4 6 3 7 2 8 1 9
REMARK H PARENT
REMARK Flexibility Score: inf
ROOT
ATOM      1  C   UNL     1      16.318   3.044  -0.122  1.00  0.00     0.006 C 
ENDROOT
BRANCH   1   2
ATOM      2  C   UNL     1      16.133   2.647  -1.593  1.00  0.00     0.053 C 
BRANCH   2   3
ATOM      3  C   UNL     1      16.970   1.461  -1.961  1.00  0.00     0.041 C 
ATOM      4  O   UNL     1      18.192   1.430  -1.656  1.00  0.00    -0.550 OA
ATOM      5  O   UNL     1      16.410   0.405  -2.668  1.00  0.00    -0.550 OA
ENDBRANCH   2   3
ENDBRANCH   1   2
BRANCH   1   6
ATOM      6  C   UNL     1      15.717   2.004   0.840  1.00  0.00     0.000 C 
BRANCH   6   7
ATOM      7  C   UNL     1      15.628   2.511   2.290  1.00  0.00    -0.000 C 
BRANCH   7   8
ATOM      8  C   UNL     1      15.645   1.408   3.364  1.00  0.00    -0.003 C 
ATOM      9  C   UNL     1      16.431   1.802   4.614  1.00  0.00     0.004 C 
ENDBRANCH   7   8
ENDBRANCH   6   7
ENDBRANCH   1   6
TORSDOF 5
ENDMDL
MODEL 9
REMARK VINA RESULT:    -3.381     14.583     16.137
REMARK INTER + INTRA:          -4.487
REMARK INTER:                  -4.137
REMARK INTRA:                  -0.350
REMARK UNBOUND:                -0.118
REMARK SMILES CCCCCCC(=O)[O-]
REMARK SMILES IDX 5 1 6 2 7 3 8 4 9 5 4 6 3 7 2 8 1 9
REMARK H PARENT
REMARK Flexibility Score: inf
ROOT
ATOM      1  C   UNL     1      16.083  18.355   1.193  1.00  0.00     0.006 C 
ENDROOT
BRANCH   1   2
ATOM      2  C   UNL     1      16.313  19.125  -0.113  1.00  0.00     0.053 C 
BRANCH   2   3
ATOM      3  C   UNL     1      15.446  18.614  -1.223  1.00  0.00     0.041 C 
ATOM      4  O   UNL     1      15.961  18.018  -2.206  1.00  0.00    -0.550 OA
ATOM      5  O   UNL     1      14.074  18.822  -1.188  1.00  0.00    -0.550 OA
ENDBRANCH   2   3
ENDBRANCH   1   2
BRANCH   1   6
ATOM      6  C   UNL     1      17.358  17.640   1.677  1.00  0.00     0.000 C 
BRANCH   6   7
ATOM      7  C   UNL     1      18.532  17.778   0.692  1.00  0.00    -0.000 C 
BRANCH   7   8
ATOM      8  C   UNL     1      19.171  16.447   0.255  1.00  0.00    -0.003 C 
ATOM      9  C   UNL     1      18.405  15.757  -0.872  1.00  0.00     0.004 C 
ENDBRANCH   7   8
ENDBRANCH   6   7
ENDBRANCH   1   6
TORSDOF 5
ENDMDL
