MODEL 1
REMARK VINA RESULT:    -4.330      0.000      0.000
REMARK INTER + INTRA:          -4.762
REMARK INTER:                  -6.609
REMARK INTRA:                   1.847
REMARK UNBOUND:                 1.847
REMARK SMILES CC1=CCC[C@H](C)C(=O)C[C@@H](C(C)C)C(=O)C1
REMARK SMILES IDX 8 1 9 2 6 3 7 4 5 5 4 6 3 7 2 8 1 9 10 11 11 12 15 13 16 14
REMARK SMILES IDX 17 15 12 17 13 18 14 19
REMARK H PARENT
REMARK Flexibility Score: 70.00
ROOT
ATOM      1  C   UNL     1       2.721  13.091  -7.156  1.00  0.00     0.136 C 
ATOM      2  O   UNL     1       2.064  12.888  -6.143  1.00  0.00    -0.299 OA
ENDROOT
BRANCH   1   3
ATOM      3  C   UNL     1       3.494  11.958  -7.806  1.00  0.00     0.053 C 
ATOM      4  C   UNL     1       2.614  10.727  -8.077  1.00  0.00     0.016 C 
BRANCH   3   5
ATOM      5  C   UNL     1       4.219  12.430  -9.084  1.00  0.00     0.015 C 
BRANCH   5   6
ATOM      6  C   UNL     1       5.713  12.747  -8.870  1.00  0.00     0.028 C 
BRANCH   6   7
ATOM      7  C   UNL     1       6.193  12.197  -7.551  1.00  0.00    -0.028 C 
ATOM      8  C   UNL     1       6.281  12.912  -6.405  1.00  0.00    -0.070 CG0
ATOM      9  C   UNL     1       6.726  12.194  -5.156  1.00  0.00     0.039 C 
ATOM     10  G   UNL     1       5.971  14.401  -6.329  1.00  0.00     0.000 G0
ENDBRANCH   6   7
ENDBRANCH   5   6
ENDBRANCH   3   5
ENDBRANCH   1   3
BRANCH   1  11
ATOM     11  C   UNL     1       2.742  14.481  -7.745  1.00  0.00     0.087 C 
BRANCH  11  12
ATOM     12  C   UNL     1       3.637  15.450  -6.926  1.00  0.00     0.066 C 
BRANCH  12  13
ATOM     13  C   UNL     1       4.544  14.687  -5.973  1.00  0.00     0.140 C 
ATOM     14  O   UNL     1       4.132  14.360  -4.869  1.00  0.00    -0.299 OA
BRANCH  13  15
ATOM     15  C   UNL     1       5.982  14.400  -6.337  1.00  0.00     0.106 CG0
ATOM     16  G   UNL     1       6.276  12.908  -6.411  1.00  0.00     0.000 G0
ENDBRANCH  13  15
ENDBRANCH  12  13
BRANCH  12  17
ATOM     17  C   UNL     1       2.828  16.547  -6.162  1.00  0.00    -0.006 C 
ATOM     18  C   UNL     1       3.704  17.637  -5.514  1.00  0.00     0.008 C 
ATOM     19  C   UNL     1       1.899  15.929  -5.104  1.00  0.00     0.008 C 
ENDBRANCH  12  17
ENDBRANCH  11  12
ENDBRANCH   1  11
TORSDOF 1
ENDMDL
MODEL 2
REMARK VINA RESULT:    -3.651      1.997      3.804
REMARK INTER + INTRA:          -3.726
REMARK INTER:                  -5.146
REMARK INTRA:                   1.421
REMARK UNBOUND:                 1.847
REMARK SMILES CC1=CCC[C@H](C)C(=O)C[C@@H](C(C)C)C(=O)C1
REMARK SMILES IDX 8 1 9 2 6 3 7 4 5 5 4 6 3 7 2 8 1 9 10 11 11 12 15 13 16 14
REMARK SMILES IDX 17 15 12 17 13 18 14 19
REMARK H PARENT
REMARK Flexibility Score: 70.00
ROOT
ATOM      1  C   UNL     1       5.109  12.210  -7.289  1.00  0.00     0.136 C 
ATOM      2  O   UNL     1       5.995  11.377  -7.428  1.00  0.00    -0.299 OA
ENDROOT
BRANCH   1   3
ATOM      3  C   UNL     1       3.895  12.195  -8.201  1.00  0.00     0.053 C 
ATOM      4  C   UNL     1       3.871  10.967  -9.125  1.00  0.00     0.016 C 
BRANCH   3   5
ATOM      5  C   UNL     1       2.585  12.328  -7.398  1.00  0.00     0.015 C 
BRANCH   5   6
ATOM      6  C   UNL     1       1.858  13.671  -7.613  1.00  0.00     0.028 C 
BRANCH   6   7
ATOM      7  C   UNL     1       1.568  14.339  -6.293  1.00  0.00    -0.028 C 
ATOM      8  C   UNL     1       2.200  15.444  -5.834  1.00  0.00    -0.070 CG0
ATOM      9  C   UNL     1       1.748  16.023  -4.517  1.00  0.00     0.039 C 
ATOM     10  G   UNL     1       3.349  16.112  -6.577  1.00  0.00     0.000 G0
ENDBRANCH   6   7
ENDBRANCH   5   6
ENDBRANCH   3   5
ENDBRANCH   1   3
BRANCH   1  11
ATOM     11  C   UNL     1       5.244  13.243  -6.196  1.00  0.00     0.087 C 
BRANCH  11  12
ATOM     12  C   UNL     1       5.538  14.658  -6.762  1.00  0.00     0.066 C 
BRANCH  12  13
ATOM     13  C   UNL     1       4.715  15.718  -6.045  1.00  0.00     0.140 C 
ATOM     14  O   UNL     1       5.122  16.201  -4.999  1.00  0.00    -0.299 OA
BRANCH  13  15
ATOM     15  C   UNL     1       3.356  16.123  -6.564  1.00  0.00     0.106 CG0
ATOM     16  G   UNL     1       2.220  15.456  -5.800  1.00  0.00     0.000 G0
ENDBRANCH  13  15
ENDBRANCH  12  13
BRANCH  12  17
ATOM     17  C   UNL     1       5.348  14.761  -8.309  1.00  0.00    -0.006 C 
ATOM     18  C   UNL     1       6.565  14.283  -9.125  1.00  0.00     0.008 C 
ATOM     19  C   UNL     1       4.963  16.187  -8.737  1.00  0.00     0.008 C 
ENDBRANCH  12  17
ENDBRANCH  11  12
ENDBRANCH   1  11
TORSDOF 1
ENDMDL
MODEL 3
REMARK VINA RESULT:    -3.615      2.000      4.575
REMARK INTER + INTRA:          -3.670
REMARK INTER:                  -4.996
REMARK INTRA:                   1.326
REMARK UNBOUND:                 1.847
REMARK SMILES CC1=CCC[C@H](C)C(=O)C[C@@H](C(C)C)C(=O)C1
REMARK SMILES IDX 8 1 9 2 6 3 7 4 5 5 4 6 3 7 2 8 1 9 10 11 11 12 15 13 16 14
REMARK SMILES IDX 17 15 12 17 13 18 14 19
REMARK H PARENT
REMARK Flexibility Score: 70.00
ROOT
ATOM      1  C   UNL     1       3.456  13.735  -5.273  1.00  0.00     0.136 C 
ATOM      2  O   UNL     1       4.504  13.223  -4.901  1.00  0.00    -0.299 OA
ENDROOT
BRANCH   1   3
ATOM      3  C   UNL     1       3.045  15.101  -4.755  1.00  0.00     0.053 C 
ATOM      4  C   UNL     1       4.163  15.783  -3.950  1.00  0.00     0.016 C 
BRANCH   3   5
ATOM      5  C   UNL     1       2.533  16.006  -5.894  1.00  0.00     0.015 C 
BRANCH   5   6
ATOM      6  C   UNL     1       3.613  16.937  -6.481  1.00  0.00     0.028 C 
BRANCH   6   7
ATOM      7  C   UNL     1       4.746  16.137  -7.072  1.00  0.00    -0.028 C 
ATOM      8  C   UNL     1       4.668  15.425  -8.220  1.00  0.00    -0.070 CG0
ATOM      9  C   UNL     1       5.914  14.727  -8.706  1.00  0.00     0.039 C 
ATOM     10  G   UNL     1       3.384  15.285  -9.025  1.00  0.00     0.000 G0
ENDBRANCH   6   7
ENDBRANCH   5   6
ENDBRANCH   3   5
ENDBRANCH   1   3
BRANCH   1  11
ATOM     11  C   UNL     1       2.588  12.986  -6.256  1.00  0.00     0.087 C 
BRANCH  11  12
ATOM     12  C   UNL     1       3.183  12.996  -7.689  1.00  0.00     0.066 C 
BRANCH  12  13
ATOM     13  C   UNL     1       2.558  14.094  -8.537  1.00  0.00     0.140 C 
ATOM     14  O   UNL     1       1.390  14.003  -8.886  1.00  0.00    -0.299 OA
BRANCH  13  15
ATOM     15  C   UNL     1       3.386  15.258  -9.029  1.00  0.00     0.106 CG0
ATOM     16  G   UNL     1       4.671  15.434  -8.232  1.00  0.00     0.000 G0
ENDBRANCH  13  15
ENDBRANCH  12  13
BRANCH  12  17
ATOM     17  C   UNL     1       3.086  11.614  -8.413  1.00  0.00    -0.006 C 
ATOM     18  C   UNL     1       2.595  10.466  -7.510  1.00  0.00     0.008 C 
ATOM     19  C   UNL     1       4.422  11.225  -9.069  1.00  0.00     0.008 C 
ENDBRANCH  12  17
ENDBRANCH  11  12
ENDBRANCH   1  11
TORSDOF 1
ENDMDL
MODEL 4
REMARK VINA RESULT:    -3.613      2.025      4.763
REMARK INTER + INTRA:          -3.668
REMARK INTER:                  -4.939
REMARK INTRA:                   1.272
REMARK UNBOUND:                 1.847
REMARK SMILES CC1=CCC[C@H](C)C(=O)C[C@@H](C(C)C)C(=O)C1
REMARK SMILES IDX 8 1 9 2 6 3 7 4 5 5 4 6 3 7 2 8 1 9 10 11 11 12 15 13 16 14
REMARK SMILES IDX 17 15 12 17 13 18 14 19
REMARK H PARENT
REMARK Flexibility Score: 70.00
ROOT
ATOM      1  C   UNL     1       4.597  15.617  -5.272  1.00  0.00     0.136 C 
ATOM      2  O   UNL     1       5.637  16.195  -4.982  1.00  0.00    -0.299 OA
ENDROOT
BRANCH   1   3
ATOM      3  C   UNL     1       3.260  16.315  -5.098  1.00  0.00     0.053 C 
ATOM      4  C   UNL     1       3.184  17.639  -5.875  1.00  0.00     0.016 C 
BRANCH   3   5
ATOM      5  C   UNL     1       2.085  15.380  -5.453  1.00  0.00     0.015 C 
BRANCH   5   6
ATOM      6  C   UNL     1       1.806  15.282  -6.967  1.00  0.00     0.028 C 
BRANCH   6   7
ATOM      7  C   UNL     1       1.792  13.844  -7.416  1.00  0.00    -0.028 C 
ATOM      8  C   UNL     1       2.629  13.318  -8.340  1.00  0.00    -0.070 CG0
ATOM      9  C   UNL     1       2.523  11.843  -8.634  1.00  0.00     0.039 C 
ATOM     10  G   UNL     1       3.653  14.149  -9.102  1.00  0.00     0.000 G0
ENDBRANCH   6   7
ENDBRANCH   5   6
ENDBRANCH   3   5
ENDBRANCH   1   3
BRANCH   1  11
ATOM     11  C   UNL     1       4.671  14.208  -5.809  1.00  0.00     0.087 C 
BRANCH  11  12
ATOM     12  C   UNL     1       5.427  14.136  -7.162  1.00  0.00     0.066 C 
BRANCH  12  13
ATOM     13  C   UNL     1       4.666  14.869  -8.257  1.00  0.00     0.140 C 
ATOM     14  O   UNL     1       4.807  16.075  -8.394  1.00  0.00    -0.299 OA
BRANCH  13  15
ATOM     15  C   UNL     1       3.668  14.141  -9.125  1.00  0.00     0.106 CG0
ATOM     16  G   UNL     1       2.652  13.355  -8.308  1.00  0.00     0.000 G0
ENDBRANCH  13  15
ENDBRANCH  12  13
BRANCH  12  17
ATOM     17  C   UNL     1       5.769  12.677  -7.607  1.00  0.00    -0.006 C 
ATOM     18  C   UNL     1       6.375  11.806  -6.490  1.00  0.00     0.008 C 
ATOM     19  C   UNL     1       6.691  12.663  -8.837  1.00  0.00     0.008 C 
ENDBRANCH  12  17
ENDBRANCH  11  12
ENDBRANCH   1  11
TORSDOF 1
ENDMDL
MODEL 5
REMARK VINA RESULT:    -3.516      2.026      3.442
REMARK INTER + INTRA:          -3.519
REMARK INTER:                  -5.000
REMARK INTRA:                   1.481
REMARK UNBOUND:                 1.847
REMARK SMILES CC1=CCC[C@H](C)C(=O)C[C@@H](C(C)C)C(=O)C1
REMARK SMILES IDX 8 1 9 2 6 3 7 4 5 5 4 6 3 7 2 8 1 9 10 11 11 12 15 13 16 14
REMARK SMILES IDX 17 15 12 17 13 18 14 19
REMARK H PARENT
REMARK Flexibility Score: 70.00
ROOT
ATOM      1  C   UNL     1       5.868  13.351  -6.639  1.00  0.00     0.136 C 
ATOM      2  O   UNL     1       6.158  12.528  -5.780  1.00  0.00    -0.299 OA
ENDROOT
BRANCH   1   3
ATOM      3  C   UNL     1       5.750  12.930  -8.093  1.00  0.00     0.053 C 
ATOM      4  C   UNL     1       7.107  12.929  -8.815  1.00  0.00     0.016 C 
BRANCH   3   5
ATOM      5  C   UNL     1       5.032  11.572  -8.231  1.00  0.00     0.015 C 
BRANCH   5   6
ATOM      6  C   UNL     1       3.653  11.663  -8.915  1.00  0.00     0.028 C 
BRANCH   6   7
ATOM      7  C   UNL     1       2.634  12.269  -7.985  1.00  0.00    -0.028 C 
ATOM      8  C   UNL     1       2.285  13.577  -7.971  1.00  0.00    -0.070 CG0
ATOM      9  C   UNL     1       1.202  14.011  -7.016  1.00  0.00     0.039 C 
ATOM     10  G   UNL     1       2.947  14.622  -8.859  1.00  0.00     0.000 G0
ENDBRANCH   6   7
ENDBRANCH   5   6
ENDBRANCH   3   5
ENDBRANCH   1   3
BRANCH   1  11
ATOM     11  C   UNL     1       5.628  14.783  -6.225  1.00  0.00     0.087 C 
BRANCH  11  12
ATOM     12  C   UNL     1       4.216  15.281  -6.632  1.00  0.00     0.066 C 
BRANCH  12  13
ATOM     13  C   UNL     1       4.074  15.355  -8.145  1.00  0.00     0.140 C 
ATOM     14  O   UNL     1       4.838  16.053  -8.796  1.00  0.00    -0.299 OA
BRANCH  13  15
ATOM     15  C   UNL     1       2.944  14.644  -8.852  1.00  0.00     0.106 CG0
ATOM     16  G   UNL     1       2.287  13.585  -7.978  1.00  0.00     0.000 G0
ENDBRANCH  13  15
ENDBRANCH  12  13
BRANCH  12  17
ATOM     17  C   UNL     1       3.822  16.641  -5.972  1.00  0.00    -0.006 C 
ATOM     18  C   UNL     1       4.549  16.928  -4.644  1.00  0.00     0.008 C 
ATOM     19  C   UNL     1       2.302  16.750  -5.767  1.00  0.00     0.008 C 
ENDBRANCH  12  17
ENDBRANCH  11  12
ENDBRANCH   1  11
TORSDOF 1
ENDMDL
MODEL 6
REMARK VINA RESULT:    -3.304      1.491      4.136
REMARK INTER + INTRA:          -3.195
REMARK INTER:                  -5.738
REMARK INTRA:                   2.542
REMARK UNBOUND:                 1.847
REMARK SMILES CC1=CCC[C@H](C)C(=O)C[C@@H](C(C)C)C(=O)C1
REMARK SMILES IDX 8 1 9 2 6 3 7 4 5 5 4 6 3 7 2 8 1 9 10 11 11 12 15 13 16 14
REMARK SMILES IDX 17 15 12 17 13 18 14 19
REMARK H PARENT
REMARK Flexibility Score: 70.00
ROOT
ATOM      1  C   UNL     1       3.196  14.101  -4.900  1.00  0.00     0.136 C 
ATOM      2  O   UNL     1       3.452  13.441  -3.902  1.00  0.00    -0.299 OA
ENDROOT
BRANCH   1   3
ATOM      3  C   UNL     1       3.143  15.617  -4.822  1.00  0.00     0.053 C 
ATOM      4  C   UNL     1       4.441  16.220  -4.261  1.00  0.00     0.016 C 
BRANCH   3   5
ATOM      5  C   UNL     1       2.770  16.239  -6.184  1.00  0.00     0.015 C 
BRANCH   5   6
ATOM      6  C   UNL     1       3.931  16.995  -6.860  1.00  0.00     0.028 C 
BRANCH   6   7
ATOM      7  C   UNL     1       4.495  16.195  -8.006  1.00  0.00    -0.028 C 
ATOM      8  C   UNL     1       5.203  15.049  -7.871  1.00  0.00    -0.070 CG0
ATOM      9  C   UNL     1       5.646  14.338  -9.125  1.00  0.00     0.039 C 
ATOM     10  G   UNL     1       5.582  14.463  -6.518  1.00  0.00     0.000 G0
ENDBRANCH   6   7
ENDBRANCH   5   6
ENDBRANCH   3   5
ENDBRANCH   1   3
BRANCH   1  11
ATOM     11  C   UNL     1       2.939  13.384  -6.203  1.00  0.00     0.087 C 
BRANCH  11  12
ATOM     12  C   UNL     1       4.032  12.327  -6.515  1.00  0.00     0.066 C 
BRANCH  12  13
ATOM     13  C   UNL     1       5.421  12.946  -6.477  1.00  0.00     0.140 C 
ATOM     14  O   UNL     1       6.403  12.233  -6.332  1.00  0.00    -0.299 OA
BRANCH  13  15
ATOM     15  C   UNL     1       5.601  14.445  -6.528  1.00  0.00     0.106 CG0
ATOM     16  G   UNL     1       5.189  15.035  -7.870  1.00  0.00     0.000 G0
ENDBRANCH  13  15
ENDBRANCH  12  13
BRANCH  12  17
ATOM     17  C   UNL     1       3.799  11.571  -7.863  1.00  0.00    -0.006 C 
ATOM     18  C   UNL     1       3.514  12.496  -9.061  1.00  0.00     0.008 C 
ATOM     19  C   UNL     1       2.681  10.523  -7.736  1.00  0.00     0.008 C 
ENDBRANCH  12  17
ENDBRANCH  11  12
ENDBRANCH   1  11
TORSDOF 1
ENDMDL
MODEL 7
REMARK VINA RESULT:    -3.172      1.743      3.462
REMARK INTER + INTRA:          -2.994
REMARK INTER:                  -5.957
REMARK INTRA:                   2.963
REMARK UNBOUND:                 1.847
REMARK SMILES CC1=CCC[C@H](C)C(=O)C[C@@H](C(C)C)C(=O)C1
REMARK SMILES IDX 8 1 9 2 6 3 7 4 5 5 4 6 3 7 2 8 1 9 10 11 11 12 15 13 16 14
REMARK SMILES IDX 17 15 12 17 13 18 14 19
REMARK H PARENT
REMARK Flexibility Score: 70.00
ROOT
ATOM      1  C   UNL     1       5.467  13.891  -6.527  1.00  0.00     0.136 C 
ATOM      2  O   UNL     1       5.479  14.709  -7.438  1.00  0.00    -0.299 OA
ENDROOT
BRANCH   1   3
ATOM      3  C   UNL     1       6.486  12.767  -6.494  1.00  0.00     0.053 C 
ATOM      4  C   UNL     1       6.766  12.270  -5.066  1.00  0.00     0.016 C 
BRANCH   3   5
ATOM      5  C   UNL     1       6.079  11.609  -7.428  1.00  0.00     0.015 C 
BRANCH   5   6
ATOM      6  C   UNL     1       5.410  12.073  -8.738  1.00  0.00     0.028 C 
BRANCH   6   7
ATOM      7  C   UNL     1       4.286  11.146  -9.123  1.00  0.00    -0.028 C 
ATOM      8  C   UNL     1       3.136  10.999  -8.425  1.00  0.00    -0.070 CG0
ATOM      9  C   UNL     1       2.084  10.071  -8.981  1.00  0.00     0.039 C 
ATOM     10  G   UNL     1       2.868  11.710  -7.106  1.00  0.00     0.000 G0
ENDBRANCH   6   7
ENDBRANCH   5   6
ENDBRANCH   3   5
ENDBRANCH   1   3
BRANCH   1  11
ATOM     11  C   UNL     1       4.427  14.025  -5.440  1.00  0.00     0.087 C 
BRANCH  11  12
ATOM     12  C   UNL     1       2.987  14.109  -6.015  1.00  0.00     0.066 C 
BRANCH  12  13
ATOM     13  C   UNL     1       2.829  13.213  -7.234  1.00  0.00     0.140 C 
ATOM     14  O   UNL     1       2.612  13.707  -8.330  1.00  0.00    -0.299 OA
BRANCH  13  15
ATOM     15  C   UNL     1       2.851  11.708  -7.095  1.00  0.00     0.106 CG0
ATOM     16  G   UNL     1       3.110  11.006  -8.420  1.00  0.00     0.000 G0
ENDBRANCH  13  15
ENDBRANCH  12  13
BRANCH  12  17
ATOM     17  C   UNL     1       2.531  15.569  -6.338  1.00  0.00    -0.006 C 
ATOM     18  C   UNL     1       3.680  16.510  -6.746  1.00  0.00     0.008 C 
ATOM     19  C   UNL     1       1.743  16.185  -5.170  1.00  0.00     0.008 C 
ENDBRANCH  12  17
ENDBRANCH  11  12
ENDBRANCH   1  11
TORSDOF 1
ENDMDL
MODEL 8
REMARK VINA RESULT:    -3.112      1.432      3.792
REMARK INTER + INTRA:          -2.903
REMARK INTER:                  -5.101
REMARK INTRA:                   2.198
REMARK UNBOUND:                 1.847
REMARK SMILES CC1=CCC[C@H](C)C(=O)C[C@@H](C(C)C)C(=O)C1
REMARK SMILES IDX 8 1 9 2 6 3 7 4 5 5 4 6 3 7 2 8 1 9 10 11 11 12 15 13 16 14
REMARK SMILES IDX 17 15 12 17 13 18 14 19
REMARK H PARENT
REMARK Flexibility Score: 70.00
ROOT
ATOM      1  C   UNL     1       2.852  12.763  -8.564  1.00  0.00     0.136 C 
ATOM      2  O   UNL     1       2.424  11.676  -8.930  1.00  0.00    -0.299 OA
ENDROOT
BRANCH   1   3
ATOM      3  C   UNL     1       1.925  13.963  -8.481  1.00  0.00     0.053 C 
ATOM      4  C   UNL     1       1.451  14.238  -7.045  1.00  0.00     0.016 C 
BRANCH   3   5
ATOM      5  C   UNL     1       2.564  15.214  -9.118  1.00  0.00     0.015 C 
BRANCH   5   6
ATOM      6  C   UNL     1       3.965  15.545  -8.567  1.00  0.00     0.028 C 
BRANCH   6   7
ATOM      7  C   UNL     1       3.866  16.392  -7.325  1.00  0.00    -0.028 C 
ATOM      8  C   UNL     1       4.471  16.107  -6.148  1.00  0.00    -0.070 CG0
ATOM      9  C   UNL     1       4.318  17.092  -5.016  1.00  0.00     0.039 C 
ATOM     10  G   UNL     1       5.275  14.836  -5.914  1.00  0.00     0.000 G0
ENDBRANCH   6   7
ENDBRANCH   5   6
ENDBRANCH   3   5
ENDBRANCH   1   3
BRANCH   1  11
ATOM     11  C   UNL     1       4.311  12.885  -8.194  1.00  0.00     0.087 C 
BRANCH  11  12
ATOM     12  C   UNL     1       4.582  12.446  -6.730  1.00  0.00     0.066 C 
BRANCH  12  13
ATOM     13  C   UNL     1       4.426  13.615  -5.769  1.00  0.00     0.140 C 
ATOM     14  O   UNL     1       3.551  13.591  -4.916  1.00  0.00    -0.299 OA
BRANCH  13  15
ATOM     15  C   UNL     1       5.285  14.850  -5.908  1.00  0.00     0.106 CG0
ATOM     16  G   UNL     1       4.460  16.108  -6.143  1.00  0.00     0.000 G0
ENDBRANCH  13  15
ENDBRANCH  12  13
BRANCH  12  17
ATOM     17  C   UNL     1       5.967  11.750  -6.536  1.00  0.00    -0.006 C 
ATOM     18  C   UNL     1       6.797  12.317  -5.369  1.00  0.00     0.008 C 
ATOM     19  C   UNL     1       6.800  11.779  -7.829  1.00  0.00     0.008 C 
ENDBRANCH  12  17
ENDBRANCH  11  12
ENDBRANCH   1  11
TORSDOF 1
ENDMDL
MODEL 9
REMARK VINA RESULT:    -2.871      1.939      4.674
REMARK INTER + INTRA:          -2.535
REMARK INTER:                  -3.655
REMARK INTRA:                   1.120
REMARK UNBOUND:                 1.847
REMARK SMILES CC1=CCC[C@H](C)C(=O)C[C@@H](C(C)C)C(=O)C1
REMARK SMILES IDX 8 1 9 2 6 3 7 4 5 5 4 6 3 7 2 8 1 9 10 11 11 12 15 13 16 14
REMARK SMILES IDX 17 15 12 17 13 18 14 19
REMARK H PARENT
REMARK Flexibility Score: 70.00
ROOT
ATOM      1  C   UNL     1       3.703  14.762  -5.169  1.00  0.00     0.136 C 
ATOM      2  O   UNL     1       3.875  15.123  -4.012  1.00  0.00    -0.299 OA
ENDROOT
BRANCH   1   3
ATOM      3  C   UNL     1       3.654  15.786  -6.290  1.00  0.00     0.053 C 
ATOM      4  C   UNL     1       3.486  17.221  -5.767  1.00  0.00     0.016 C 
BRANCH   3   5
ATOM      5  C   UNL     1       4.877  15.660  -7.222  1.00  0.00     0.015 C 
BRANCH   5   6
ATOM      6  C   UNL     1       4.522  15.217  -8.656  1.00  0.00     0.028 C 
BRANCH   6   7
ATOM      7  C   UNL     1       3.028  15.128  -8.835  1.00  0.00    -0.028 C 
ATOM      8  C   UNL     1       2.338  13.972  -8.978  1.00  0.00    -0.070 CG0
ATOM      9  C   UNL     1       0.836  14.054  -9.087  1.00  0.00     0.039 C 
ATOM     10  G   UNL     1       3.009  12.608  -9.052  1.00  0.00     0.000 G0
ENDBRANCH   6   7
ENDBRANCH   5   6
ENDBRANCH   3   5
ENDBRANCH   1   3
BRANCH   1  11
ATOM     11  C   UNL     1       3.547  13.289  -5.459  1.00  0.00     0.087 C 
BRANCH  11  12
ATOM     12  C   UNL     1       4.278  12.868  -6.762  1.00  0.00     0.066 C 
BRANCH  12  13
ATOM     13  C   UNL     1       3.358  12.072  -7.675  1.00  0.00     0.140 C 
ATOM     14  O   UNL     1       2.972  10.963  -7.336  1.00  0.00    -0.299 OA
BRANCH  13  15
ATOM     15  C   UNL     1       2.981  12.598  -9.041  1.00  0.00     0.106 CG0
ATOM     16  G   UNL     1       2.324  13.969  -8.975  1.00  0.00     0.000 G0
ENDBRANCH  13  15
ENDBRANCH  12  13
BRANCH  12  17
ATOM     17  C   UNL     1       5.610  12.091  -6.504  1.00  0.00    -0.006 C 
ATOM     18  C   UNL     1       6.446  12.648  -5.336  1.00  0.00     0.008 C 
ATOM     19  C   UNL     1       6.474  12.017  -7.774  1.00  0.00     0.008 C 
ENDBRANCH  12  17
ENDBRANCH  11  12
ENDBRANCH   1  11
TORSDOF 1
ENDMDL
