MODEL 1
REMARK VINA RESULT:    -5.420      0.000      0.000
REMARK INTER + INTRA:          -8.360
REMARK INTER:                  -7.322
REMARK INTRA:                  -1.038
REMARK UNBOUND:                -1.038
REMARK SMILES CC(=O)CCC=C(C)CCC=C(C)C
REMARK SMILES IDX 7 1 6 2 8 3 9 4 10 5 11 6 13 7 12 8 14 9 5 10 4 11 2 12 3 13
REMARK SMILES IDX 1 14
REMARK H PARENT
REMARK Flexibility Score: inf
ROOT
ATOM      1  C   UNL     1     -12.684 -17.518  27.355  1.00  0.00    -0.077 C 
ATOM      2  C   UNL     1     -13.407 -18.371  28.118  1.00  0.00    -0.028 C 
ATOM      3  C   UNL     1     -11.286 -17.856  26.890  1.00  0.00     0.039 C 
ENDROOT
BRANCH   1   4
ATOM      4  C   UNL     1     -13.290 -16.189  26.966  1.00  0.00     0.034 C 
BRANCH   4   5
ATOM      5  C   UNL     1     -13.308 -15.227  28.160  1.00  0.00     0.032 C 
BRANCH   5   6
ATOM      6  C   UNL     1     -12.049 -15.366  28.978  1.00  0.00    -0.028 C 
ATOM      7  C   UNL     1     -10.684 -15.823  30.971  1.00  0.00     0.039 C 
ATOM      8  C   UNL     1     -12.017 -15.767  30.268  1.00  0.00    -0.080 C 
ATOM      9  C   UNL     1     -13.268 -16.173  31.011  1.00  0.00     0.039 C 
ENDBRANCH   5   6
ENDBRANCH   4   5
ENDBRANCH   1   4
BRANCH   2  10
ATOM     10  C   UNL     1     -12.942 -19.742  28.542  1.00  0.00     0.035 C 
BRANCH  10  11
ATOM     11  C   UNL     1     -13.369 -20.037  29.983  1.00  0.00     0.079 C 
BRANCH  11  12
ATOM     12  C   UNL     1     -12.186 -19.965  30.912  1.00  0.00     0.130 C 
ATOM     13  O   UNL     1     -12.296 -20.372  32.059  1.00  0.00    -0.300 OA
ATOM     14  C   UNL     1     -10.868 -19.411  30.457  1.00  0.00     0.087 C 
ENDBRANCH  11  12
ENDBRANCH  10  11
ENDBRANCH   2  10
TORSDOF 6
ENDMDL
MODEL 2
REMARK VINA RESULT:    -5.150      2.818      4.987
REMARK INTER + INTRA:          -7.995
REMARK INTER:                  -7.115
REMARK INTRA:                  -0.880
REMARK UNBOUND:                -1.038
REMARK SMILES CC(=O)CCC=C(C)CCC=C(C)C
REMARK SMILES IDX 7 1 6 2 8 3 9 4 10 5 11 6 13 7 12 8 14 9 5 10 4 11 2 12 3 13
REMARK SMILES IDX 1 14
REMARK H PARENT
REMARK Flexibility Score: inf
ROOT
ATOM      1  C   UNL     1     -11.939 -16.846  28.134  1.00  0.00    -0.077 C 
ATOM      2  C   UNL     1     -13.015 -16.027  28.084  1.00  0.00    -0.028 C 
ATOM      3  C   UNL     1     -10.621 -16.394  28.720  1.00  0.00     0.039 C 
ENDROOT
BRANCH   1   4
ATOM      4  C   UNL     1     -12.058 -18.248  27.580  1.00  0.00     0.034 C 
BRANCH   4   5
ATOM      5  C   UNL     1     -13.296 -18.956  28.145  1.00  0.00     0.032 C 
BRANCH   5   6
ATOM      6  C   UNL     1     -12.902 -19.960  29.200  1.00  0.00    -0.028 C 
ATOM      7  C   UNL     1     -12.371 -20.783  31.454  1.00  0.00     0.039 C 
ATOM      8  C   UNL     1     -12.815 -19.686  30.520  1.00  0.00    -0.080 C 
ATOM      9  C   UNL     1     -13.164 -18.327  31.081  1.00  0.00     0.039 C 
ENDBRANCH   5   6
ENDBRANCH   4   5
ENDBRANCH   1   4
BRANCH   2  10
ATOM     10  C   UNL     1     -13.048 -14.624  28.636  1.00  0.00     0.035 C 
BRANCH  10  11
ATOM     11  C   UNL     1     -14.342 -13.912  28.231  1.00  0.00     0.079 C 
BRANCH  11  12
ATOM     12  C   UNL     1     -15.129 -13.508  29.449  1.00  0.00     0.130 C 
ATOM     13  O   UNL     1     -16.036 -12.696  29.338  1.00  0.00    -0.300 OA
ATOM     14  C   UNL     1     -14.830 -14.089  30.800  1.00  0.00     0.087 C 
ENDBRANCH  11  12
ENDBRANCH  10  11
ENDBRANCH   2  10
TORSDOF 6
ENDMDL
MODEL 3
REMARK VINA RESULT:    -5.140      1.541      2.253
REMARK INTER + INTRA:          -7.981
REMARK INTER:                  -7.450
REMARK INTRA:                  -0.531
REMARK UNBOUND:                -1.038
REMARK SMILES CC(=O)CCC=C(C)CCC=C(C)C
REMARK SMILES IDX 7 1 6 2 8 3 9 4 10 5 11 6 13 7 12 8 14 9 5 10 4 11 2 12 3 13
REMARK SMILES IDX 1 14
REMARK H PARENT
REMARK Flexibility Score: inf
ROOT
ATOM      1  C   UNL     1     -12.727 -17.244  27.307  1.00  0.00    -0.077 C 
ATOM      2  C   UNL     1     -13.157 -18.041  28.312  1.00  0.00    -0.028 C 
ATOM      3  C   UNL     1     -11.577 -17.642  26.411  1.00  0.00     0.039 C 
ENDROOT
BRANCH   1   4
ATOM      4  C   UNL     1     -13.412 -15.915  27.081  1.00  0.00     0.034 C 
BRANCH   4   5
ATOM      5  C   UNL     1     -13.214 -14.986  28.285  1.00  0.00     0.032 C 
BRANCH   5   6
ATOM      6  C   UNL     1     -14.311 -13.953  28.350  1.00  0.00    -0.028 C 
ATOM      7  C   UNL     1     -16.096 -12.610  29.375  1.00  0.00     0.039 C 
ATOM      8  C   UNL     1     -14.998 -13.638  29.470  1.00  0.00    -0.080 C 
ATOM      9  C   UNL     1     -14.684 -14.271  30.806  1.00  0.00     0.039 C 
ENDBRANCH   5   6
ENDBRANCH   4   5
ENDBRANCH   1   4
BRANCH   2  10
ATOM     10  C   UNL     1     -12.593 -19.405  28.622  1.00  0.00     0.035 C 
BRANCH  10  11
ATOM     11  C   UNL     1     -13.240 -19.986  29.883  1.00  0.00     0.079 C 
BRANCH  11  12
ATOM     12  C   UNL     1     -12.249 -20.032  31.015  1.00  0.00     0.130 C 
ATOM     13  O   UNL     1     -12.445 -20.786  31.957  1.00  0.00    -0.300 OA
ATOM     14  C   UNL     1     -11.015 -19.179  31.008  1.00  0.00     0.087 C 
ENDBRANCH  11  12
ENDBRANCH  10  11
ENDBRANCH   2  10
TORSDOF 6
ENDMDL
MODEL 4
REMARK VINA RESULT:    -5.057      1.621      2.745
REMARK INTER + INTRA:          -7.870
REMARK INTER:                  -6.932
REMARK INTRA:                  -0.938
REMARK UNBOUND:                -1.038
REMARK SMILES CC(=O)CCC=C(C)CCC=C(C)C
REMARK SMILES IDX 7 1 6 2 8 3 9 4 10 5 11 6 13 7 12 8 14 9 5 10 4 11 2 12 3 13
REMARK SMILES IDX 1 14
REMARK H PARENT
REMARK Flexibility Score: inf
ROOT
ATOM      1  C   UNL     1     -11.094 -17.037  29.159  1.00  0.00    -0.077 C 
ATOM      2  C   UNL     1     -10.382 -17.445  30.236  1.00  0.00    -0.028 C 
ATOM      3  C   UNL     1     -11.654 -18.018  28.156  1.00  0.00     0.039 C 
ENDROOT
BRANCH   1   4
ATOM      4  C   UNL     1     -11.325 -15.557  28.952  1.00  0.00     0.034 C 
BRANCH   4   5
ATOM      5  C   UNL     1     -12.824 -15.231  28.966  1.00  0.00     0.032 C 
BRANCH   5   6
ATOM      6  C   UNL     1     -13.387 -15.362  30.360  1.00  0.00    -0.028 C 
ATOM      7  C   UNL     1     -14.826 -14.824  32.278  1.00  0.00     0.039 C 
ATOM      8  C   UNL     1     -14.392 -14.605  30.851  1.00  0.00    -0.080 C 
ATOM      9  C   UNL     1     -15.098 -13.568  30.009  1.00  0.00     0.039 C 
ENDBRANCH   5   6
ENDBRANCH   4   5
ENDBRANCH   1   4
BRANCH   2  10
ATOM     10  C   UNL     1     -10.112 -18.888  30.585  1.00  0.00     0.035 C 
BRANCH  10  11
ATOM     11  C   UNL     1     -10.862 -19.287  31.859  1.00  0.00     0.079 C 
BRANCH  11  12
ATOM     12  C   UNL     1     -12.206 -19.877  31.521  1.00  0.00     0.130 C 
ATOM     13  O   UNL     1     -12.317 -21.087  31.390  1.00  0.00    -0.300 OA
ATOM     14  C   UNL     1     -13.419 -19.010  31.350  1.00  0.00     0.087 C 
ENDBRANCH  11  12
ENDBRANCH  10  11
ENDBRANCH   2  10
TORSDOF 6
ENDMDL
MODEL 5
REMARK VINA RESULT:    -4.996      2.308      4.567
REMARK INTER + INTRA:          -7.786
REMARK INTER:                  -7.204
REMARK INTRA:                  -0.583
REMARK UNBOUND:                -1.038
REMARK SMILES CC(=O)CCC=C(C)CCC=C(C)C
REMARK SMILES IDX 7 1 6 2 8 3 9 4 10 5 11 6 13 7 12 8 14 9 5 10 4 11 2 12 3 13
REMARK SMILES IDX 1 14
REMARK H PARENT
REMARK Flexibility Score: inf
ROOT
ATOM      1  C   UNL     1     -11.536 -16.015  28.669  1.00  0.00    -0.077 C 
ATOM      2  C   UNL     1     -12.842 -15.679  28.788  1.00  0.00    -0.028 C 
ATOM      3  C   UNL     1     -10.486 -15.471  29.609  1.00  0.00     0.039 C 
ENDROOT
BRANCH   1   4
ATOM      4  C   UNL     1     -11.119 -16.954  27.559  1.00  0.00     0.034 C 
BRANCH   4   5
ATOM      5  C   UNL     1     -11.950 -18.242  27.592  1.00  0.00     0.032 C 
BRANCH   5   6
ATOM      6  C   UNL     1     -11.943 -18.849  28.972  1.00  0.00    -0.028 C 
ATOM      7  C   UNL     1     -12.748 -20.224  30.843  1.00  0.00     0.039 C 
ATOM      8  C   UNL     1     -12.862 -19.730  29.424  1.00  0.00    -0.080 C 
ATOM      9  C   UNL     1     -13.979 -20.242  28.545  1.00  0.00     0.039 C 
ENDBRANCH   5   6
ENDBRANCH   4   5
ENDBRANCH   1   4
BRANCH   2  10
ATOM     10  C   UNL     1     -13.401 -14.789  29.869  1.00  0.00     0.035 C 
BRANCH  10  11
ATOM     11  C   UNL     1     -13.699 -15.597  31.136  1.00  0.00     0.079 C 
BRANCH  11  12
ATOM     12  C   UNL     1     -14.573 -14.808  32.075  1.00  0.00     0.130 C 
ATOM     13  O   UNL     1     -15.694 -14.476  31.719  1.00  0.00    -0.300 OA
ATOM     14  C   UNL     1     -14.100 -14.426  33.447  1.00  0.00     0.087 C 
ENDBRANCH  11  12
ENDBRANCH  10  11
ENDBRANCH   2  10
TORSDOF 6
ENDMDL
MODEL 6
REMARK VINA RESULT:    -4.967      1.730      4.543
REMARK INTER + INTRA:          -7.748
REMARK INTER:                  -6.962
REMARK INTRA:                  -0.786
REMARK UNBOUND:                -1.038
REMARK SMILES CC(=O)CCC=C(C)CCC=C(C)C
REMARK SMILES IDX 7 1 6 2 8 3 9 4 10 5 11 6 13 7 12 8 14 9 5 10 4 11 2 12 3 13
REMARK SMILES IDX 1 14
REMARK H PARENT
REMARK Flexibility Score: inf
ROOT
ATOM      1  C   UNL     1     -11.133 -16.099  30.047  1.00  0.00    -0.077 C 
ATOM      2  C   UNL     1     -12.397 -15.890  29.613  1.00  0.00    -0.028 C 
ATOM      3  C   UNL     1      -9.942 -15.462  29.368  1.00  0.00     0.039 C 
ENDROOT
BRANCH   1   4
ATOM      4  C   UNL     1     -10.907 -17.002  31.239  1.00  0.00     0.034 C 
BRANCH   4   5
ATOM      5  C   UNL     1     -10.329 -18.353  30.799  1.00  0.00     0.032 C 
BRANCH   5   6
ATOM      6  C   UNL     1     -11.302 -19.088  29.912  1.00  0.00    -0.028 C 
ATOM      7  C   UNL     1     -13.121 -20.642  29.348  1.00  0.00     0.039 C 
ATOM      8  C   UNL     1     -12.240 -19.951  30.358  1.00  0.00    -0.080 C 
ATOM      9  C   UNL     1     -12.440 -20.226  31.831  1.00  0.00     0.039 C 
ENDBRANCH   5   6
ENDBRANCH   4   5
ENDBRANCH   1   4
BRANCH   2  10
ATOM     10  C   UNL     1     -12.768 -14.984  28.466  1.00  0.00     0.035 C 
BRANCH  10  11
ATOM     11  C   UNL     1     -13.623 -15.731  27.438  1.00  0.00     0.079 C 
BRANCH  11  12
ATOM     12  C   UNL     1     -13.016 -17.072  27.117  1.00  0.00     0.130 C 
ATOM     13  O   UNL     1     -13.609 -18.092  27.433  1.00  0.00    -0.300 OA
ATOM     14  C   UNL     1     -11.699 -17.183  26.408  1.00  0.00     0.087 C 
ENDBRANCH  11  12
ENDBRANCH  10  11
ENDBRANCH   2  10
TORSDOF 6
ENDMDL
MODEL 7
REMARK VINA RESULT:    -4.918      2.285      4.775
REMARK INTER + INTRA:          -7.681
REMARK INTER:                  -6.818
REMARK INTRA:                  -0.863
REMARK UNBOUND:                -1.038
REMARK SMILES CC(=O)CCC=C(C)CCC=C(C)C
REMARK SMILES IDX 7 1 6 2 8 3 9 4 10 5 11 6 13 7 12 8 14 9 5 10 4 11 2 12 3 13
REMARK SMILES IDX 1 14
REMARK H PARENT
REMARK Flexibility Score: inf
ROOT
ATOM      1  C   UNL     1     -12.339 -17.831  30.521  1.00  0.00    -0.077 C 
ATOM      2  C   UNL     1     -13.204 -16.796  30.415  1.00  0.00    -0.028 C 
ATOM      3  C   UNL     1     -11.001 -17.683  31.208  1.00  0.00     0.039 C 
ENDROOT
BRANCH   1   4
ATOM      4  C   UNL     1     -12.719 -19.169  29.927  1.00  0.00     0.034 C 
BRANCH   4   5
ATOM      5  C   UNL     1     -13.271 -18.999  28.506  1.00  0.00     0.032 C 
BRANCH   5   6
ATOM      6  C   UNL     1     -12.180 -18.569  27.557  1.00  0.00    -0.028 C 
ATOM      7  C   UNL     1     -11.100 -17.206  25.821  1.00  0.00     0.039 C 
ATOM      8  C   UNL     1     -12.255 -17.492  26.746  1.00  0.00    -0.080 C 
ATOM      9  C   UNL     1     -13.447 -16.564  26.755  1.00  0.00     0.039 C 
ENDBRANCH   5   6
ENDBRANCH   4   5
ENDBRANCH   1   4
BRANCH   2  10
ATOM     10  C   UNL     1     -12.972 -15.424  30.995  1.00  0.00     0.035 C 
BRANCH  10  11
ATOM     11  C   UNL     1     -14.301 -14.693  31.210  1.00  0.00     0.079 C 
BRANCH  11  12
ATOM     12  C   UNL     1     -14.770 -14.852  32.631  1.00  0.00     0.130 C 
ATOM     13  O   UNL     1     -15.806 -15.460  32.859  1.00  0.00    -0.300 OA
ATOM     14  C   UNL     1     -13.987 -14.289  33.780  1.00  0.00     0.087 C 
ENDBRANCH  11  12
ENDBRANCH  10  11
ENDBRANCH   2  10
TORSDOF 6
ENDMDL
MODEL 8
REMARK VINA RESULT:    -4.845      1.621      4.349
REMARK INTER + INTRA:          -7.583
REMARK INTER:                  -6.709
REMARK INTRA:                  -0.874
REMARK UNBOUND:                -1.038
REMARK SMILES CC(=O)CCC=C(C)CCC=C(C)C
REMARK SMILES IDX 7 1 6 2 8 3 9 4 10 5 11 6 13 7 12 8 14 9 5 10 4 11 2 12 3 13
REMARK SMILES IDX 1 14
REMARK H PARENT
REMARK Flexibility Score: inf
ROOT
ATOM      1  C   UNL     1     -12.212 -19.698  30.581  1.00  0.00    -0.077 C 
ATOM      2  C   UNL     1     -11.199 -18.940  30.101  1.00  0.00    -0.028 C 
ATOM      3  C   UNL     1     -12.247 -20.161  32.019  1.00  0.00     0.039 C 
ENDROOT
BRANCH   1   4
ATOM      4  C   UNL     1     -13.333 -20.099  29.649  1.00  0.00     0.034 C 
BRANCH   4   5
ATOM      5  C   UNL     1     -13.009 -19.703  28.203  1.00  0.00     0.032 C 
BRANCH   5   6
ATOM      6  C   UNL     1     -13.551 -18.331  27.891  1.00  0.00    -0.028 C 
ATOM      7  C   UNL     1     -13.544 -16.050  26.976  1.00  0.00     0.039 C 
ATOM      8  C   UNL     1     -12.890 -17.393  27.177  1.00  0.00    -0.080 C 
ATOM      9  C   UNL     1     -11.534 -17.660  26.567  1.00  0.00     0.039 C 
ENDBRANCH   5   6
ENDBRANCH   4   5
ENDBRANCH   1   4
BRANCH   2  10
ATOM     10  C   UNL     1     -10.043 -18.435  30.928  1.00  0.00     0.035 C 
BRANCH  10  11
ATOM     11  C   UNL     1     -10.370 -17.072  31.544  1.00  0.00     0.079 C 
BRANCH  11  12
ATOM     12  C   UNL     1     -10.987 -16.160  30.516  1.00  0.00     0.130 C 
ATOM     13  O   UNL     1     -12.169 -15.861  30.608  1.00  0.00    -0.300 OA
ATOM     14  C   UNL     1     -10.179 -15.600  29.383  1.00  0.00     0.087 C 
ENDBRANCH  11  12
ENDBRANCH  10  11
ENDBRANCH   2  10
TORSDOF 6
ENDMDL
MODEL 9
REMARK VINA RESULT:    -4.843      1.444      3.430
REMARK INTER + INTRA:          -7.581
REMARK INTER:                  -6.757
REMARK INTRA:                  -0.824
REMARK UNBOUND:                -1.038
REMARK SMILES CC(=O)CCC=C(C)CCC=C(C)C
REMARK SMILES IDX 7 1 6 2 8 3 9 4 10 5 11 6 13 7 12 8 14 9 5 10 4 11 2 12 3 13
REMARK SMILES IDX 1 14
REMARK H PARENT
REMARK Flexibility Score: inf
ROOT
ATOM      1  C   UNL     1     -11.682 -17.099  31.012  1.00  0.00    -0.077 C 
ATOM      2  C   UNL     1     -12.603 -18.071  31.205  1.00  0.00    -0.028 C 
ATOM      3  C   UNL     1     -10.214 -17.327  31.288  1.00  0.00     0.039 C 
ENDROOT
BRANCH   1   4
ATOM      4  C   UNL     1     -12.137 -15.745  30.514  1.00  0.00     0.034 C 
BRANCH   4   5
ATOM      5  C   UNL     1     -12.793 -15.863  29.133  1.00  0.00     0.032 C 
BRANCH   5   6
ATOM      6  C   UNL     1     -11.820 -16.420  28.125  1.00  0.00    -0.028 C 
ATOM      7  C   UNL     1     -11.090 -17.470  26.026  1.00  0.00     0.039 C 
ATOM      8  C   UNL     1     -12.171 -16.910  26.916  1.00  0.00    -0.080 C 
ATOM      9  C   UNL     1     -13.601 -16.896  26.430  1.00  0.00     0.039 C 
ENDBRANCH   5   6
ENDBRANCH   4   5
ENDBRANCH   1   4
BRANCH   2  10
ATOM     10  C   UNL     1     -12.283 -19.474  31.656  1.00  0.00     0.035 C 
BRANCH  10  11
ATOM     11  C   UNL     1     -12.945 -20.504  30.735  1.00  0.00     0.079 C 
BRANCH  11  12
ATOM     12  C   UNL     1     -12.846 -20.070  29.296  1.00  0.00     0.130 C 
ATOM     13  O   UNL     1     -11.758 -19.754  28.836  1.00  0.00    -0.300 OA
ATOM     14  C   UNL     1     -14.055 -20.025  28.409  1.00  0.00     0.087 C 
ENDBRANCH  11  12
ENDBRANCH  10  11
ENDBRANCH   2  10
TORSDOF 6
ENDMDL
