MODEL 1
REMARK VINA RESULT:     0.000      0.000      0.000
REMARK INTER + INTRA:           0.000
REMARK INTER:                   0.000
REMARK INTRA:                   0.000
REMARK UNBOUND:                 0.000
REMARK SMILES CC(=O)[O-]
REMARK SMILES IDX 1 1 2 2 3 3 4 4
REMARK H PARENT
REMARK Flexibility Score: inf
ROOT
ATOM      1  C   UNL     1      -9.993  21.626  93.787  1.00  0.00     0.063 C 
ATOM      2  C   UNL     1     -10.155  20.348  94.538  1.00  0.00     0.038 C 
ATOM      3  O   UNL     1      -9.875  19.252  93.986  1.00  0.00    -0.550 OA
ATOM      4  O   UNL     1     -10.564  20.366  95.864  1.00  0.00    -0.550 OA
ENDROOT
TORSDOF 0
ENDMDL
MODEL 2
REMARK VINA RESULT:     0.000      2.776      3.282
REMARK INTER + INTRA:           0.000
REMARK INTER:                   0.000
REMARK INTRA:                   0.000
REMARK UNBOUND:                 0.000
REMARK SMILES CC(=O)[O-]
REMARK SMILES IDX 1 1 2 2 3 3 4 4
REMARK H PARENT
REMARK Flexibility Score: inf
ROOT
ATOM      1  C   UNL     1      -9.588  22.846  94.880  1.00  0.00     0.063 C 
ATOM      2  C   UNL     1      -9.591  22.814  96.370  1.00  0.00     0.038 C 
ATOM      3  O   UNL     1      -9.263  21.763  96.980  1.00  0.00    -0.550 OA
ATOM      4  O   UNL     1      -9.904  23.959  97.090  1.00  0.00    -0.550 OA
ENDROOT
TORSDOF 0
ENDMDL
MODEL 3
REMARK VINA RESULT:     0.000      4.761      5.311
REMARK INTER + INTRA:           0.000
REMARK INTER:                   0.000
REMARK INTRA:                   0.000
REMARK UNBOUND:                 0.000
REMARK SMILES CC(=O)[O-]
REMARK SMILES IDX 1 1 2 2 3 3 4 4
REMARK H PARENT
REMARK Flexibility Score: inf
ROOT
ATOM      1  C   UNL     1     -10.424  23.633  97.141  1.00  0.00     0.063 C 
ATOM      2  C   UNL     1     -10.427  23.601  98.632  1.00  0.00     0.038 C 
ATOM      3  O   UNL     1     -10.099  22.550  99.241  1.00  0.00    -0.550 OA
ATOM      4  O   UNL     1     -10.739  24.746  99.352  1.00  0.00    -0.550 OA
ENDROOT
TORSDOF 0
ENDMDL
MODEL 4
REMARK VINA RESULT:     0.000      5.483      6.070
REMARK INTER + INTRA:           0.000
REMARK INTER:                   0.000
REMARK INTRA:                   0.000
REMARK UNBOUND:                 0.000
REMARK SMILES CC(=O)[O-]
REMARK SMILES IDX 1 1 2 2 3 3 4 4
REMARK H PARENT
REMARK Flexibility Score: inf
ROOT
ATOM      1  C   UNL     1     -12.409  22.878  98.421  1.00  0.00     0.063 C 
ATOM      2  C   UNL     1     -12.009  22.573  99.825  1.00  0.00     0.038 C 
ATOM      3  O   UNL     1     -11.073  21.762 100.052  1.00  0.00    -0.550 OA
ATOM      4  O   UNL     1     -12.630  23.223 100.882  1.00  0.00    -0.550 OA
ENDROOT
TORSDOF 0
ENDMDL
MODEL 5
REMARK VINA RESULT:     0.000      4.459      4.998
REMARK INTER + INTRA:           0.000
REMARK INTER:                   0.000
REMARK INTRA:                   0.000
REMARK UNBOUND:                 0.000
REMARK SMILES CC(=O)[O-]
REMARK SMILES IDX 1 1 2 2 3 3 4 4
REMARK H PARENT
REMARK Flexibility Score: inf
ROOT
ATOM      1  C   UNL     1     -10.995  23.881  91.287  1.00  0.00     0.063 C 
ATOM      2  C   UNL     1     -10.952  22.711  90.364  1.00  0.00     0.038 C 
ATOM      3  O   UNL     1     -10.817  22.888  89.126  1.00  0.00    -0.550 OA
ATOM      4  O   UNL     1     -11.006  21.420  90.874  1.00  0.00    -0.550 OA
ENDROOT
TORSDOF 0
ENDMDL
MODEL 6
REMARK VINA RESULT:     0.000     11.123     11.651
REMARK INTER + INTRA:           0.000
REMARK INTER:                   0.000
REMARK INTRA:                   0.000
REMARK UNBOUND:                 0.000
REMARK SMILES CC(=O)[O-]
REMARK SMILES IDX 1 1 2 2 3 3 4 4
REMARK H PARENT
REMARK Flexibility Score: inf
ROOT
ATOM      1  C   UNL     1     -10.753  27.732  85.312  1.00  0.00     0.063 C 
ATOM      2  C   UNL     1      -9.284  27.618  85.539  1.00  0.00     0.038 C 
ATOM      3  O   UNL     1      -8.485  28.319  84.865  1.00  0.00    -0.550 OA
ATOM      4  O   UNL     1      -8.796  26.780  86.532  1.00  0.00    -0.550 OA
ENDROOT
TORSDOF 0
ENDMDL
MODEL 7
REMARK VINA RESULT:     0.000     12.285     12.915
REMARK INTER + INTRA:           0.000
REMARK INTER:                   0.000
REMARK INTRA:                   0.000
REMARK UNBOUND:                 0.000
REMARK SMILES CC(=O)[O-]
REMARK SMILES IDX 1 1 2 2 3 3 4 4
REMARK H PARENT
REMARK Flexibility Score: inf
ROOT
ATOM      1  C   UNL     1      -9.483  27.286  84.717  1.00  0.00     0.063 C 
ATOM      2  C   UNL     1      -8.356  27.093  83.760  1.00  0.00     0.038 C 
ATOM      3  O   UNL     1      -7.875  28.080  83.144  1.00  0.00    -0.550 OA
ATOM      4  O   UNL     1      -7.799  25.834  83.586  1.00  0.00    -0.550 OA
ENDROOT
TORSDOF 0
ENDMDL
MODEL 8
REMARK VINA RESULT:     0.000      9.551     10.173
REMARK INTER + INTRA:           0.000
REMARK INTER:                   0.000
REMARK INTRA:                   0.000
REMARK UNBOUND:                 0.000
REMARK SMILES CC(=O)[O-]
REMARK SMILES IDX 1 1 2 2 3 3 4 4
REMARK H PARENT
REMARK Flexibility Score: inf
ROOT
ATOM      1  C   UNL     1      -9.297  25.801  86.187  1.00  0.00     0.063 C 
ATOM      2  C   UNL     1      -8.213  24.854  85.798  1.00  0.00     0.038 C 
ATOM      3  O   UNL     1      -8.131  23.727  86.352  1.00  0.00    -0.550 OA
ATOM      4  O   UNL     1      -7.325  25.190  84.786  1.00  0.00    -0.550 OA
ENDROOT
TORSDOF 0
ENDMDL
MODEL 9
REMARK VINA RESULT:     0.000      9.047      9.649
REMARK INTER + INTRA:           0.000
REMARK INTER:                   0.000
REMARK INTRA:                   0.000
REMARK UNBOUND:                 0.000
REMARK SMILES CC(=O)[O-]
REMARK SMILES IDX 1 1 2 2 3 3 4 4
REMARK H PARENT
REMARK Flexibility Score: inf
ROOT
ATOM      1  C   UNL     1     -10.172  23.591  85.787  1.00  0.00     0.063 C 
ATOM      2  C   UNL     1      -9.088  22.644  85.398  1.00  0.00     0.038 C 
ATOM      3  O   UNL     1      -9.006  21.517  85.953  1.00  0.00    -0.550 OA
ATOM      4  O   UNL     1      -8.200  22.980  84.386  1.00  0.00    -0.550 OA
ENDROOT
TORSDOF 0
ENDMDL
