MODEL 1
REMARK VINA RESULT:     0.902      0.000      0.000
REMARK INTER + INTRA:           2.687
REMARK INTER:                   2.380
REMARK INTRA:                   0.307
REMARK UNBOUND:                 0.307
REMARK SMILES CCCCCCCCCCCCCCCCCCCCCCCCCCCCCC(=O)[O-]
REMARK SMILES IDX 16 1 17 2 18 3 19 4 20 5 21 6 22 7 23 8 24 9 25 10 26 11
REMARK SMILES IDX 27 12 28 13 29 14 30 15 31 16 32 17 15 18 14 19 13 20 12 21
REMARK SMILES IDX 11 22 10 23 9 24 8 25 7 26 6 27 5 28 4 29 3 30 2 31 1 32
REMARK H PARENT
REMARK Flexibility Score: inf
ROOT
ATOM      1  C   UNL     1     -20.829   1.288   6.722  1.00  0.00     0.000 C 
ENDROOT
BRANCH   1   2
ATOM      2  C   UNL     1     -21.191  -0.066   7.366  1.00  0.00     0.000 C 
BRANCH   2   3
ATOM      3  C   UNL     1     -21.291  -0.062   8.903  1.00  0.00     0.000 C 
BRANCH   3   4
ATOM      4  C   UNL     1     -21.654   1.293   9.543  1.00  0.00     0.000 C 
BRANCH   4   5
ATOM      5  C   UNL     1     -22.520   1.183  10.815  1.00  0.00     0.000 C 
BRANCH   5   6
ATOM      6  C   UNL     1     -21.754   1.554  12.099  1.00  0.00     0.000 C 
BRANCH   6   7
ATOM      7  C   UNL     1     -22.118   0.649  13.289  1.00  0.00     0.000 C 
BRANCH   7   8
ATOM      8  C   UNL     1     -20.986  -0.284  13.757  1.00  0.00     0.000 C 
BRANCH   8   9
ATOM      9  C   UNL     1     -21.306  -1.783  13.585  1.00  0.00     0.000 C 
BRANCH   9  10
ATOM     10  C   UNL     1     -21.425  -2.186  12.106  1.00  0.00     0.000 C 
BRANCH  10  11
ATOM     11  C   UNL     1     -20.075  -2.170  11.369  1.00  0.00     0.000 C 
BRANCH  11  12
ATOM     12  C   UNL     1     -20.212  -2.129   9.832  1.00  0.00     0.000 C 
BRANCH  12  13
ATOM     13  C   UNL     1     -20.805  -3.433   9.272  1.00  0.00     0.006 C 
BRANCH  13  14
ATOM     14  C   UNL     1     -19.825  -4.169   8.351  1.00  0.00     0.053 C 
BRANCH  14  15
ATOM     15  C   UNL     1     -20.278  -5.569   8.067  1.00  0.00     0.041 C 
ATOM     16  O   UNL     1     -19.490  -6.395   7.536  1.00  0.00    -0.550 OA
ATOM     17  O   UNL     1     -21.584  -5.949   8.349  1.00  0.00    -0.550 OA
ENDBRANCH  14  15
ENDBRANCH  13  14
ENDBRANCH  12  13
ENDBRANCH  11  12
ENDBRANCH  10  11
ENDBRANCH   9  10
ENDBRANCH   8   9
ENDBRANCH   7   8
ENDBRANCH   6   7
ENDBRANCH   5   6
ENDBRANCH   4   5
ENDBRANCH   3   4
ENDBRANCH   2   3
ENDBRANCH   1   2
BRANCH   1  18
ATOM     18  C   UNL     1     -21.887   2.394   6.885  1.00  0.00     0.000 C 
BRANCH  18  19
ATOM     19  C   UNL     1     -21.361   3.623   7.640  1.00  0.00     0.000 C 
BRANCH  19  20
ATOM     20  C   UNL     1     -22.500   4.337   8.382  1.00  0.00     0.000 C 
BRANCH  20  21
ATOM     21  C   UNL     1     -22.061   5.658   9.034  1.00  0.00     0.000 C 
BRANCH  21  22
ATOM     22  C   UNL     1     -20.598   6.045   8.737  1.00  0.00     0.000 C 
BRANCH  22  23
ATOM     23  C   UNL     1     -19.901   6.691   9.948  1.00  0.00     0.000 C 
BRANCH  23  24
ATOM     24  C   UNL     1     -18.371   6.777   9.758  1.00  0.00    -0.000 C 
BRANCH  24  25
ATOM     25  C   UNL     1     -17.858   8.203   9.497  1.00  0.00    -0.000 C 
BRANCH  25  26
ATOM     26  C   UNL     1     -16.334   8.263   9.299  1.00  0.00    -0.000 C 
BRANCH  26  27
ATOM     27  C   UNL     1     -15.737   9.610   9.742  1.00  0.00    -0.000 C 
BRANCH  27  28
ATOM     28  C   UNL     1     -15.596   9.715  11.268  1.00  0.00    -0.000 C 
BRANCH  28  29
ATOM     29  C   UNL     1     -14.142  10.001  11.667  1.00  0.00    -0.000 C 
BRANCH  29  30
ATOM     30  C   UNL     1     -14.004  10.122  13.192  1.00  0.00    -0.000 C 
BRANCH  30  31
ATOM     31  C   UNL     1     -12.539  10.079  13.657  1.00  0.00    -0.003 C 
ATOM     32  C   UNL     1     -11.550  10.075  12.492  1.00  0.00     0.004 C 
ENDBRANCH  30  31
ENDBRANCH  29  30
ENDBRANCH  28  29
ENDBRANCH  27  28
ENDBRANCH  26  27
ENDBRANCH  25  26
ENDBRANCH  24  25
ENDBRANCH  23  24
ENDBRANCH  22  23
ENDBRANCH  21  22
ENDBRANCH  20  21
ENDBRANCH  19  20
ENDBRANCH  18  19
ENDBRANCH   1  18
TORSDOF 28
ENDMDL
MODEL 2
REMARK VINA RESULT:     1.561      3.318      5.770
REMARK INTER + INTRA:           4.424
REMARK INTER:                   5.553
REMARK INTRA:                  -1.129
REMARK UNBOUND:                 0.307
REMARK SMILES CCCCCCCCCCCCCCCCCCCCCCCCCCCCCC(=O)[O-]
REMARK SMILES IDX 16 1 17 2 18 3 19 4 20 5 21 6 22 7 23 8 24 9 25 10 26 11
REMARK SMILES IDX 27 12 28 13 29 14 30 15 31 16 32 17 15 18 14 19 13 20 12 21
REMARK SMILES IDX 11 22 10 23 9 24 8 25 7 26 6 27 5 28 4 29 3 30 2 31 1 32
REMARK H PARENT
REMARK Flexibility Score: inf
ROOT
ATOM      1  C   UNL     1     -20.603   5.964   8.846  1.00  0.00     0.000 C 
ENDROOT
BRANCH   1   2
ATOM      2  C   UNL     1     -22.141   5.857   8.910  1.00  0.00     0.000 C 
BRANCH   2   3
ATOM      3  C   UNL     1     -22.747   4.622   8.217  1.00  0.00     0.000 C 
BRANCH   3   4
ATOM      4  C   UNL     1     -23.020   3.411   9.131  1.00  0.00     0.000 C 
BRANCH   4   5
ATOM      5  C   UNL     1     -21.772   2.563   9.452  1.00  0.00     0.000 C 
BRANCH   5   6
ATOM      6  C   UNL     1     -21.682   1.280   8.604  1.00  0.00     0.000 C 
BRANCH   6   7
ATOM      7  C   UNL     1     -20.987   1.511   7.251  1.00  0.00     0.000 C 
BRANCH   7   8
ATOM      8  C   UNL     1     -21.281   0.438   6.186  1.00  0.00     0.000 C 
BRANCH   8   9
ATOM      9  C   UNL     1     -20.715  -0.954   6.535  1.00  0.00     0.000 C 
BRANCH   9  10
ATOM     10  C   UNL     1     -21.149  -1.424   7.933  1.00  0.00     0.000 C 
BRANCH  10  11
ATOM     11  C   UNL     1     -20.214  -2.493   8.525  1.00  0.00     0.000 C 
BRANCH  11  12
ATOM     12  C   UNL     1     -20.494  -2.802  10.011  1.00  0.00     0.000 C 
BRANCH  12  13
ATOM     13  C   UNL     1     -21.086  -1.590  10.750  1.00  0.00     0.006 C 
BRANCH  13  14
ATOM     14  C   UNL     1     -20.581  -1.487  12.194  1.00  0.00     0.053 C 
BRANCH  14  15
ATOM     15  C   UNL     1     -21.358  -0.475  12.979  1.00  0.00     0.041 C 
ATOM     16  O   UNL     1     -21.551  -0.642  14.213  1.00  0.00    -0.550 OA
ATOM     17  O   UNL     1     -21.907   0.630  12.342  1.00  0.00    -0.550 OA
ENDBRANCH  14  15
ENDBRANCH  13  14
ENDBRANCH  12  13
ENDBRANCH  11  12
ENDBRANCH  10  11
ENDBRANCH   9  10
ENDBRANCH   8   9
ENDBRANCH   7   8
ENDBRANCH   6   7
ENDBRANCH   5   6
ENDBRANCH   4   5
ENDBRANCH   3   4
ENDBRANCH   2   3
ENDBRANCH   1   2
BRANCH   1  18
ATOM     18  C   UNL     1     -19.920   6.385  10.160  1.00  0.00     0.000 C 
BRANCH  18  19
ATOM     19  C   UNL     1     -18.439   6.746   9.978  1.00  0.00     0.000 C 
BRANCH  19  20
ATOM     20  C   UNL     1     -18.283   8.213   9.552  1.00  0.00     0.000 C 
BRANCH  20  21
ATOM     21  C   UNL     1     -16.817   8.632   9.355  1.00  0.00     0.000 C 
BRANCH  21  22
ATOM     22  C   UNL     1     -15.990   8.637  10.657  1.00  0.00     0.000 C 
BRANCH  22  23
ATOM     23  C   UNL     1     -15.373  10.014  10.959  1.00  0.00     0.000 C 
BRANCH  23  24
ATOM     24  C   UNL     1     -14.888  10.124  12.421  1.00  0.00    -0.000 C 
BRANCH  24  25
ATOM     25  C   UNL     1     -13.958   8.978  12.853  1.00  0.00    -0.000 C 
BRANCH  25  26
ATOM     26  C   UNL     1     -14.527   8.152  14.019  1.00  0.00    -0.000 C 
BRANCH  26  27
ATOM     27  C   UNL     1     -15.242   6.877  13.541  1.00  0.00    -0.000 C 
BRANCH  27  28
ATOM     28  C   UNL     1     -14.535   5.597  14.009  1.00  0.00    -0.000 C 
BRANCH  28  29
ATOM     29  C   UNL     1     -14.909   4.404  13.118  1.00  0.00    -0.000 C 
BRANCH  29  30
ATOM     30  C   UNL     1     -13.993   3.202  13.393  1.00  0.00    -0.000 C 
BRANCH  30  31
ATOM     31  C   UNL     1     -13.886   2.255  12.188  1.00  0.00    -0.003 C 
ATOM     32  C   UNL     1     -13.761   0.788  12.599  1.00  0.00     0.004 C 
ENDBRANCH  30  31
ENDBRANCH  29  30
ENDBRANCH  28  29
ENDBRANCH  27  28
ENDBRANCH  26  27
ENDBRANCH  25  26
ENDBRANCH  24  25
ENDBRANCH  23  24
ENDBRANCH  22  23
ENDBRANCH  21  22
ENDBRANCH  20  21
ENDBRANCH  19  20
ENDBRANCH  18  19
ENDBRANCH   1  18
TORSDOF 28
ENDMDL
MODEL 3
REMARK VINA RESULT:     1.586      6.085      9.808
REMARK INTER + INTRA:           4.490
REMARK INTER:                   6.403
REMARK INTRA:                  -1.913
REMARK UNBOUND:                 0.307
REMARK SMILES CCCCCCCCCCCCCCCCCCCCCCCCCCCCCC(=O)[O-]
REMARK SMILES IDX 16 1 17 2 18 3 19 4 20 5 21 6 22 7 23 8 24 9 25 10 26 11
REMARK SMILES IDX 27 12 28 13 29 14 30 15 31 16 32 17 15 18 14 19 13 20 12 21
REMARK SMILES IDX 11 22 10 23 9 24 8 25 7 26 6 27 5 28 4 29 3 30 2 31 1 32
REMARK H PARENT
REMARK Flexibility Score: inf
ROOT
ATOM      1  C   UNL     1     -20.089  -5.711   8.345  1.00  0.00     0.000 C 
ENDROOT
BRANCH   1   2
ATOM      2  C   UNL     1     -21.552  -5.992   7.942  1.00  0.00     0.000 C 
BRANCH   2   3
ATOM      3  C   UNL     1     -22.468  -6.483   9.079  1.00  0.00     0.000 C 
BRANCH   3   4
ATOM      4  C   UNL     1     -23.854  -6.998   8.643  1.00  0.00     0.000 C 
BRANCH   4   5
ATOM      5  C   UNL     1     -23.838  -8.399   7.998  1.00  0.00     0.000 C 
BRANCH   5   6
ATOM      6  C   UNL     1     -25.240  -9.024   7.876  1.00  0.00     0.000 C 
BRANCH   6   7
ATOM      7  C   UNL     1     -26.363  -8.035   8.235  1.00  0.00     0.000 C 
BRANCH   7   8
ATOM      8  C   UNL     1     -26.997  -8.258   9.621  1.00  0.00     0.000 C 
BRANCH   8   9
ATOM      9  C   UNL     1     -26.988  -7.002  10.517  1.00  0.00     0.000 C 
BRANCH   9  10
ATOM     10  C   UNL     1     -27.769  -7.215  11.824  1.00  0.00     0.000 C 
BRANCH  10  11
ATOM     11  C   UNL     1     -28.555  -5.968  12.264  1.00  0.00     0.000 C 
BRANCH  11  12
ATOM     12  C   UNL     1     -28.477  -4.802  11.255  1.00  0.00     0.000 C 
BRANCH  12  13
ATOM     13  C   UNL     1     -28.874  -3.460  11.894  1.00  0.00     0.006 C 
BRANCH  13  14
ATOM     14  C   UNL     1     -29.390  -2.454  10.858  1.00  0.00     0.053 C 
BRANCH  14  15
ATOM     15  C   UNL     1     -28.735  -1.116  11.015  1.00  0.00     0.041 C 
ATOM     16  O   UNL     1     -29.189  -0.280  11.840  1.00  0.00    -0.550 OA
ATOM     17  O   UNL     1     -27.650  -0.774  10.218  1.00  0.00    -0.550 OA
ENDBRANCH  14  15
ENDBRANCH  13  14
ENDBRANCH  12  13
ENDBRANCH  11  12
ENDBRANCH  10  11
ENDBRANCH   9  10
ENDBRANCH   8   9
ENDBRANCH   7   8
ENDBRANCH   6   7
ENDBRANCH   5   6
ENDBRANCH   4   5
ENDBRANCH   3   4
ENDBRANCH   2   3
ENDBRANCH   1   2
BRANCH   1  18
ATOM     18  C   UNL     1     -19.635  -4.250   8.183  1.00  0.00     0.000 C 
BRANCH  18  19
ATOM     19  C   UNL     1     -20.603  -3.244   8.823  1.00  0.00     0.000 C 
BRANCH  19  20
ATOM     20  C   UNL     1     -19.894  -2.412   9.901  1.00  0.00     0.000 C 
BRANCH  20  21
ATOM     21  C   UNL     1     -20.868  -1.666  10.826  1.00  0.00     0.000 C 
BRANCH  21  22
ATOM     22  C   UNL     1     -20.908  -2.219  12.266  1.00  0.00     0.000 C 
BRANCH  22  23
ATOM     23  C   UNL     1     -21.816  -1.388  13.191  1.00  0.00     0.000 C 
BRANCH  23  24
ATOM     24  C   UNL     1     -21.236   0.016  13.464  1.00  0.00    -0.000 C 
BRANCH  24  25
ATOM     25  C   UNL     1     -22.104   1.162  12.916  1.00  0.00    -0.000 C 
BRANCH  25  26
ATOM     26  C   UNL     1     -21.580   1.726  11.585  1.00  0.00    -0.000 C 
BRANCH  26  27
ATOM     27  C   UNL     1     -22.600   1.581  10.443  1.00  0.00    -0.000 C 
BRANCH  27  28
ATOM     28  C   UNL     1     -22.090   2.177   9.122  1.00  0.00    -0.000 C 
BRANCH  28  29
ATOM     29  C   UNL     1     -21.265   1.149   8.337  1.00  0.00    -0.000 C 
BRANCH  29  30
ATOM     30  C   UNL     1     -21.306   1.444   6.830  1.00  0.00    -0.000 C 
BRANCH  30  31
ATOM     31  C   UNL     1     -21.121   0.180   5.976  1.00  0.00    -0.003 C 
ATOM     32  C   UNL     1     -21.373  -1.106   6.762  1.00  0.00     0.004 C 
ENDBRANCH  30  31
ENDBRANCH  29  30
ENDBRANCH  28  29
ENDBRANCH  27  28
ENDBRANCH  26  27
ENDBRANCH  25  26
ENDBRANCH  24  25
ENDBRANCH  23  24
ENDBRANCH  22  23
ENDBRANCH  21  22
ENDBRANCH  20  21
ENDBRANCH  19  20
ENDBRANCH  18  19
ENDBRANCH   1  18
TORSDOF 28
ENDMDL
MODEL 4
REMARK VINA RESULT:     1.832      2.916      6.579
REMARK INTER + INTRA:           5.137
REMARK INTER:                   6.153
REMARK INTRA:                  -1.016
REMARK UNBOUND:                 0.307
REMARK SMILES CCCCCCCCCCCCCCCCCCCCCCCCCCCCCC(=O)[O-]
REMARK SMILES IDX 16 1 17 2 18 3 19 4 20 5 21 6 22 7 23 8 24 9 25 10 26 11
REMARK SMILES IDX 27 12 28 13 29 14 30 15 31 16 32 17 15 18 14 19 13 20 12 21
REMARK SMILES IDX 11 22 10 23 9 24 8 25 7 26 6 27 5 28 4 29 3 30 2 31 1 32
REMARK H PARENT
REMARK Flexibility Score: inf
ROOT
ATOM      1  C   UNL     1     -20.577  -1.909  12.405  1.00  0.00     0.000 C 
ENDROOT
BRANCH   1   2
ATOM      2  C   UNL     1     -21.127  -2.390  11.046  1.00  0.00     0.000 C 
BRANCH   2   3
ATOM      3  C   UNL     1     -20.336  -1.921   9.810  1.00  0.00     0.000 C 
BRANCH   3   4
ATOM      4  C   UNL     1     -21.083  -0.955   8.869  1.00  0.00     0.000 C 
BRANCH   4   5
ATOM      5  C   UNL     1     -20.766  -1.153   7.373  1.00  0.00     0.000 C 
BRANCH   5   6
ATOM      6  C   UNL     1     -20.835  -2.626   6.931  1.00  0.00     0.000 C 
BRANCH   6   7
ATOM      7  C   UNL     1     -20.018  -3.558   7.843  1.00  0.00     0.000 C 
BRANCH   7   8
ATOM      8  C   UNL     1     -19.960  -5.024   7.377  1.00  0.00     0.000 C 
BRANCH   8   9
ATOM      9  C   UNL     1     -20.310  -6.041   8.484  1.00  0.00     0.000 C 
BRANCH   9  10
ATOM     10  C   UNL     1     -21.784  -5.950   8.912  1.00  0.00     0.000 C 
BRANCH  10  11
ATOM     11  C   UNL     1     -22.714  -6.819   8.050  1.00  0.00     0.000 C 
BRANCH  11  12
ATOM     12  C   UNL     1     -24.026  -7.214   8.763  1.00  0.00     0.000 C 
BRANCH  12  13
ATOM     13  C   UNL     1     -24.481  -8.634   8.386  1.00  0.00     0.006 C 
BRANCH  13  14
ATOM     14  C   UNL     1     -25.569  -8.628   7.306  1.00  0.00     0.053 C 
BRANCH  14  15
ATOM     15  C   UNL     1     -26.660  -9.607   7.616  1.00  0.00     0.041 C 
ATOM     16  O   UNL     1     -27.392 -10.054   6.694  1.00  0.00    -0.550 OA
ATOM     17  O   UNL     1     -26.898  -9.993   8.929  1.00  0.00    -0.550 OA
ENDBRANCH  14  15
ENDBRANCH  13  14
ENDBRANCH  12  13
ENDBRANCH  11  12
ENDBRANCH  10  11
ENDBRANCH   9  10
ENDBRANCH   8   9
ENDBRANCH   7   8
ENDBRANCH   6   7
ENDBRANCH   5   6
ENDBRANCH   4   5
ENDBRANCH   3   4
ENDBRANCH   2   3
ENDBRANCH   1   2
BRANCH   1  18
ATOM     18  C   UNL     1     -21.595  -1.909  13.560  1.00  0.00     0.000 C 
BRANCH  18  19
ATOM     19  C   UNL     1     -21.532  -0.637  14.418  1.00  0.00     0.000 C 
BRANCH  19  20
ATOM     20  C   UNL     1     -22.256   0.525  13.725  1.00  0.00     0.000 C 
BRANCH  20  21
ATOM     21  C   UNL     1     -21.320   1.691  13.364  1.00  0.00     0.000 C 
BRANCH  21  22
ATOM     22  C   UNL     1     -21.521   2.233  11.934  1.00  0.00     0.000 C 
BRANCH  22  23
ATOM     23  C   UNL     1     -22.209   1.214  11.008  1.00  0.00     0.000 C 
BRANCH  23  24
ATOM     24  C   UNL     1     -22.664   1.854   9.679  1.00  0.00    -0.000 C 
BRANCH  24  25
ATOM     25  C   UNL     1     -21.809   3.057   9.246  1.00  0.00    -0.000 C 
BRANCH  25  26
ATOM     26  C   UNL     1     -22.584   4.060   8.375  1.00  0.00    -0.000 C 
BRANCH  26  27
ATOM     27  C   UNL     1     -22.253   5.521   8.725  1.00  0.00    -0.000 C 
BRANCH  27  28
ATOM     28  C   UNL     1     -20.976   5.647   9.569  1.00  0.00    -0.000 C 
BRANCH  28  29
ATOM     29  C   UNL     1     -20.014   6.677   8.960  1.00  0.00    -0.000 C 
BRANCH  29  30
ATOM     30  C   UNL     1     -18.772   6.859   9.844  1.00  0.00    -0.000 C 
BRANCH  30  31
ATOM     31  C   UNL     1     -18.193   8.281   9.761  1.00  0.00    -0.003 C 
ATOM     32  C   UNL     1     -16.722   8.297   9.347  1.00  0.00     0.004 C 
ENDBRANCH  30  31
ENDBRANCH  29  30
ENDBRANCH  28  29
ENDBRANCH  27  28
ENDBRANCH  26  27
ENDBRANCH  25  26
ENDBRANCH  24  25
ENDBRANCH  23  24
ENDBRANCH  22  23
ENDBRANCH  21  22
ENDBRANCH  20  21
ENDBRANCH  19  20
ENDBRANCH  18  19
ENDBRANCH   1  18
TORSDOF 28
ENDMDL
MODEL 5
REMARK VINA RESULT:     1.861      2.407      3.626
REMARK INTER + INTRA:           5.214
REMARK INTER:                   5.963
REMARK INTRA:                  -0.749
REMARK UNBOUND:                 0.307
REMARK SMILES CCCCCCCCCCCCCCCCCCCCCCCCCCCCCC(=O)[O-]
REMARK SMILES IDX 16 1 17 2 18 3 19 4 20 5 21 6 22 7 23 8 24 9 25 10 26 11
REMARK SMILES IDX 27 12 28 13 29 14 30 15 31 16 32 17 15 18 14 19 13 20 12 21
REMARK SMILES IDX 11 22 10 23 9 24 8 25 7 26 6 27 5 28 4 29 3 30 2 31 1 32
REMARK H PARENT
REMARK Flexibility Score: inf
ROOT
ATOM      1  C   UNL     1     -22.856   3.583   9.331  1.00  0.00     0.000 C 
ENDROOT
BRANCH   1   2
ATOM      2  C   UNL     1     -22.436   2.113   9.125  1.00  0.00     0.000 C 
BRANCH   2   3
ATOM      3  C   UNL     1     -21.827   1.421  10.360  1.00  0.00     0.000 C 
BRANCH   3   4
ATOM      4  C   UNL     1     -22.532   1.708  11.700  1.00  0.00     0.000 C 
BRANCH   4   5
ATOM      5  C   UNL     1     -21.702   1.341  12.947  1.00  0.00     0.000 C 
BRANCH   5   6
ATOM      6  C   UNL     1     -21.976  -0.086  13.455  1.00  0.00     0.000 C 
BRANCH   6   7
ATOM      7  C   UNL     1     -20.866  -1.078  13.067  1.00  0.00     0.000 C 
BRANCH   7   8
ATOM      8  C   UNL     1     -21.370  -2.455  12.599  1.00  0.00     0.000 C 
BRANCH   8   9
ATOM      9  C   UNL     1     -21.167  -2.710  11.090  1.00  0.00     0.000 C 
BRANCH   9  10
ATOM     10  C   UNL     1     -20.380  -1.579  10.410  1.00  0.00     0.000 C 
BRANCH  10  11
ATOM     11  C   UNL     1     -20.915  -1.232   9.010  1.00  0.00     0.000 C 
BRANCH  11  12
ATOM     12  C   UNL     1     -20.731  -2.368   7.981  1.00  0.00     0.000 C 
BRANCH  12  13
ATOM     13  C   UNL     1     -21.040  -1.903   6.548  1.00  0.00     0.006 C 
BRANCH  13  14
ATOM     14  C   UNL     1     -20.187  -0.698   6.132  1.00  0.00     0.053 C 
BRANCH  14  15
ATOM     15  C   UNL     1     -20.945   0.587   6.266  1.00  0.00     0.041 C 
ATOM     16  O   UNL     1     -20.500   1.512   6.997  1.00  0.00    -0.550 OA
ATOM     17  O   UNL     1     -22.163   0.749   5.620  1.00  0.00    -0.550 OA
ENDBRANCH  14  15
ENDBRANCH  13  14
ENDBRANCH  12  13
ENDBRANCH  11  12
ENDBRANCH  10  11
ENDBRANCH   9  10
ENDBRANCH   8   9
ENDBRANCH   7   8
ENDBRANCH   6   7
ENDBRANCH   5   6
ENDBRANCH   4   5
ENDBRANCH   3   4
ENDBRANCH   2   3
ENDBRANCH   1   2
BRANCH   1  18
ATOM     18  C   UNL     1     -22.115   4.605   8.449  1.00  0.00     0.000 C 
BRANCH  18  19
ATOM     19  C   UNL     1     -21.964   5.979   9.119  1.00  0.00     0.000 C 
BRANCH  19  20
ATOM     20  C   UNL     1     -20.616   6.087   9.846  1.00  0.00     0.000 C 
BRANCH  20  21
ATOM     21  C   UNL     1     -19.509   6.705   8.976  1.00  0.00     0.000 C 
BRANCH  21  22
ATOM     22  C   UNL     1     -18.278   7.179   9.777  1.00  0.00     0.000 C 
BRANCH  22  23
ATOM     23  C   UNL     1     -17.425   8.197   8.999  1.00  0.00     0.000 C 
BRANCH  23  24
ATOM     24  C   UNL     1     -16.010   8.343   9.598  1.00  0.00    -0.000 C 
BRANCH  24  25
ATOM     25  C   UNL     1     -15.663   9.779  10.026  1.00  0.00    -0.000 C 
BRANCH  25  26
ATOM     26  C   UNL     1     -15.501   9.926  11.549  1.00  0.00    -0.000 C 
BRANCH  26  27
ATOM     27  C   UNL     1     -14.030  10.075  11.971  1.00  0.00    -0.000 C 
BRANCH  27  28
ATOM     28  C   UNL     1     -13.860  10.125  13.497  1.00  0.00    -0.000 C 
BRANCH  28  29
ATOM     29  C   UNL     1     -13.701   8.714  14.079  1.00  0.00    -0.000 C 
BRANCH  29  30
ATOM     30  C   UNL     1     -14.764   7.761  13.512  1.00  0.00    -0.000 C 
BRANCH  30  31
ATOM     31  C   UNL     1     -14.926   6.488  14.358  1.00  0.00    -0.003 C 
ATOM     32  C   UNL     1     -14.685   5.210  13.555  1.00  0.00     0.004 C 
ENDBRANCH  30  31
ENDBRANCH  29  30
ENDBRANCH  28  29
ENDBRANCH  27  28
ENDBRANCH  26  27
ENDBRANCH  25  26
ENDBRANCH  24  25
ENDBRANCH  23  24
ENDBRANCH  22  23
ENDBRANCH  21  22
ENDBRANCH  20  21
ENDBRANCH  19  20
ENDBRANCH  18  19
ENDBRANCH   1  18
TORSDOF 28
ENDMDL
MODEL 6
REMARK VINA RESULT:     1.917      2.127      3.163
REMARK INTER + INTRA:           5.362
REMARK INTER:                   6.872
REMARK INTRA:                  -1.510
REMARK UNBOUND:                 0.307
REMARK SMILES CCCCCCCCCCCCCCCCCCCCCCCCCCCCCC(=O)[O-]
REMARK SMILES IDX 16 1 17 2 18 3 19 4 20 5 21 6 22 7 23 8 24 9 25 10 26 11
REMARK SMILES IDX 27 12 28 13 29 14 30 15 31 16 32 17 15 18 14 19 13 20 12 21
REMARK SMILES IDX 11 22 10 23 9 24 8 25 7 26 6 27 5 28 4 29 3 30 2 31 1 32
REMARK H PARENT
REMARK Flexibility Score: inf
ROOT
ATOM      1  C   UNL     1     -22.878   2.231  10.169  1.00  0.00     0.000 C 
ENDROOT
BRANCH   1   2
ATOM      2  C   UNL     1     -21.999   1.411  11.136  1.00  0.00     0.000 C 
BRANCH   2   3
ATOM      3  C   UNL     1     -21.880   1.979  12.564  1.00  0.00     0.000 C 
BRANCH   3   4
ATOM      4  C   UNL     1     -21.980   0.944  13.702  1.00  0.00     0.000 C 
BRANCH   4   5
ATOM      5  C   UNL     1     -20.622   0.382  14.171  1.00  0.00     0.000 C 
BRANCH   5   6
ATOM      6  C   UNL     1     -20.624  -1.151  14.323  1.00  0.00     0.000 C 
BRANCH   6   7
ATOM      7  C   UNL     1     -21.703  -1.830  13.461  1.00  0.00     0.000 C 
BRANCH   7   8
ATOM      8  C   UNL     1     -21.189  -2.418  12.134  1.00  0.00     0.000 C 
BRANCH   8   9
ATOM      9  C   UNL     1     -20.922  -1.355  11.047  1.00  0.00     0.000 C 
BRANCH   9  10
ATOM     10  C   UNL     1     -19.960  -1.862   9.961  1.00  0.00     0.000 C 
BRANCH  10  11
ATOM     11  C   UNL     1     -20.443  -3.157   9.287  1.00  0.00     0.000 C 
BRANCH  11  12
ATOM     12  C   UNL     1     -20.419  -3.096   7.745  1.00  0.00     0.000 C 
BRANCH  12  13
ATOM     13  C   UNL     1     -21.124  -1.839   7.207  1.00  0.00     0.006 C 
BRANCH  13  14
ATOM     14  C   UNL     1     -20.264  -1.082   6.188  1.00  0.00     0.053 C 
BRANCH  14  15
ATOM     15  C   UNL     1     -20.472   0.399   6.283  1.00  0.00     0.041 C 
ATOM     16  O   UNL     1     -19.499   1.161   6.527  1.00  0.00    -0.550 OA
ATOM     17  O   UNL     1     -21.746   0.934   6.146  1.00  0.00    -0.550 OA
ENDBRANCH  14  15
ENDBRANCH  13  14
ENDBRANCH  12  13
ENDBRANCH  11  12
ENDBRANCH  10  11
ENDBRANCH   9  10
ENDBRANCH   8   9
ENDBRANCH   7   8
ENDBRANCH   6   7
ENDBRANCH   5   6
ENDBRANCH   4   5
ENDBRANCH   3   4
ENDBRANCH   2   3
ENDBRANCH   1   2
BRANCH   1  18
ATOM     18  C   UNL     1     -22.358   2.315   8.723  1.00  0.00     0.000 C 
BRANCH  18  19
ATOM     19  C   UNL     1     -21.618   3.627   8.425  1.00  0.00     0.000 C 
BRANCH  19  20
ATOM     20  C   UNL     1     -22.518   4.838   8.708  1.00  0.00     0.000 C 
BRANCH  20  21
ATOM     21  C   UNL     1     -21.747   6.048   9.260  1.00  0.00     0.000 C 
BRANCH  21  22
ATOM     22  C   UNL     1     -20.265   6.090   8.836  1.00  0.00     0.000 C 
BRANCH  22  23
ATOM     23  C   UNL     1     -19.378   6.820   9.861  1.00  0.00     0.000 C 
BRANCH  23  24
ATOM     24  C   UNL     1     -18.534   7.934   9.206  1.00  0.00    -0.000 C 
BRANCH  24  25
ATOM     25  C   UNL     1     -17.017   7.704   9.308  1.00  0.00    -0.000 C 
BRANCH  25  26
ATOM     26  C   UNL     1     -16.418   8.235  10.621  1.00  0.00    -0.000 C 
BRANCH  26  27
ATOM     27  C   UNL     1     -15.524   9.468  10.402  1.00  0.00    -0.000 C 
BRANCH  27  28
ATOM     28  C   UNL     1     -15.095  10.123  11.723  1.00  0.00    -0.000 C 
BRANCH  28  29
ATOM     29  C   UNL     1     -14.014   9.291  12.425  1.00  0.00    -0.000 C 
BRANCH  29  30
ATOM     30  C   UNL     1     -13.418  10.054  13.618  1.00  0.00    -0.000 C 
BRANCH  30  31
ATOM     31  C   UNL     1     -11.917   9.782  13.802  1.00  0.00    -0.003 C 
ATOM     32  C   UNL     1     -11.134   9.883  12.493  1.00  0.00     0.004 C 
ENDBRANCH  30  31
ENDBRANCH  29  30
ENDBRANCH  28  29
ENDBRANCH  27  28
ENDBRANCH  26  27
ENDBRANCH  25  26
ENDBRANCH  24  25
ENDBRANCH  23  24
ENDBRANCH  22  23
ENDBRANCH  21  22
ENDBRANCH  20  21
ENDBRANCH  19  20
ENDBRANCH  18  19
ENDBRANCH   1  18
TORSDOF 28
ENDMDL
MODEL 7
REMARK VINA RESULT:     2.025      3.243      5.429
REMARK INTER + INTRA:           5.646
REMARK INTER:                   7.287
REMARK INTRA:                  -1.641
REMARK UNBOUND:                 0.307
REMARK SMILES CCCCCCCCCCCCCCCCCCCCCCCCCCCCCC(=O)[O-]
REMARK SMILES IDX 16 1 17 2 18 3 19 4 20 5 21 6 22 7 23 8 24 9 25 10 26 11
REMARK SMILES IDX 27 12 28 13 29 14 30 15 31 16 32 17 15 18 14 19 13 20 12 21
REMARK SMILES IDX 11 22 10 23 9 24 8 25 7 26 6 27 5 28 4 29 3 30 2 31 1 32
REMARK H PARENT
REMARK Flexibility Score: inf
ROOT
ATOM      1  C   UNL     1     -22.114   5.643   8.542  1.00  0.00     0.000 C 
ENDROOT
BRANCH   1   2
ATOM      2  C   UNL     1     -22.814   4.270   8.615  1.00  0.00     0.000 C 
BRANCH   2   3
ATOM      3  C   UNL     1     -21.918   3.093   9.046  1.00  0.00     0.000 C 
BRANCH   3   4
ATOM      4  C   UNL     1     -22.061   1.806   8.209  1.00  0.00     0.000 C 
BRANCH   4   5
ATOM      5  C   UNL     1     -20.992   1.641   7.109  1.00  0.00     0.000 C 
BRANCH   5   6
ATOM      6  C   UNL     1     -21.305   0.493   6.132  1.00  0.00     0.000 C 
BRANCH   6   7
ATOM      7  C   UNL     1     -20.659  -0.838   6.555  1.00  0.00     0.000 C 
BRANCH   7   8
ATOM      8  C   UNL     1     -21.145  -1.386   7.910  1.00  0.00     0.000 C 
BRANCH   8   9
ATOM      9  C   UNL     1     -20.209  -2.450   8.521  1.00  0.00     0.000 C 
BRANCH   9  10
ATOM     10  C   UNL     1     -19.879  -2.157   9.993  1.00  0.00     0.000 C 
BRANCH  10  11
ATOM     11  C   UNL     1     -21.131  -1.905  10.850  1.00  0.00     0.000 C 
BRANCH  11  12
ATOM     12  C   UNL     1     -20.894  -2.107  12.363  1.00  0.00     0.000 C 
BRANCH  12  13
ATOM     13  C   UNL     1     -21.778  -1.179  13.213  1.00  0.00     0.006 C 
BRANCH  13  14
ATOM     14  C   UNL     1     -21.064   0.126  13.584  1.00  0.00     0.053 C 
BRANCH  14  15
ATOM     15  C   UNL     1     -21.551   1.276  12.757  1.00  0.00     0.041 C 
ATOM     16  O   UNL     1     -22.343   1.077  11.798  1.00  0.00    -0.550 OA
ATOM     17  O   UNL     1     -21.097   2.563  13.016  1.00  0.00    -0.550 OA
ENDBRANCH  14  15
ENDBRANCH  13  14
ENDBRANCH  12  13
ENDBRANCH  11  12
ENDBRANCH  10  11
ENDBRANCH   9  10
ENDBRANCH   8   9
ENDBRANCH   7   8
ENDBRANCH   6   7
ENDBRANCH   5   6
ENDBRANCH   4   5
ENDBRANCH   3   4
ENDBRANCH   2   3
ENDBRANCH   1   2
BRANCH   1  18
ATOM     18  C   UNL     1     -20.909   5.814   9.484  1.00  0.00     0.000 C 
BRANCH  18  19
ATOM     19  C   UNL     1     -19.781   6.657   8.870  1.00  0.00     0.000 C 
BRANCH  19  20
ATOM     20  C   UNL     1     -18.750   7.049   9.938  1.00  0.00     0.000 C 
BRANCH  20  21
ATOM     21  C   UNL     1     -18.025   8.367   9.621  1.00  0.00     0.000 C 
BRANCH  21  22
ATOM     22  C   UNL     1     -16.537   8.188   9.254  1.00  0.00     0.000 C 
BRANCH  22  23
ATOM     23  C   UNL     1     -15.671   9.376   9.708  1.00  0.00     0.000 C 
BRANCH  23  24
ATOM     24  C   UNL     1     -15.907   9.732  11.191  1.00  0.00    -0.000 C 
BRANCH  24  25
ATOM     25  C   UNL     1     -14.613   9.994  11.980  1.00  0.00    -0.000 C 
BRANCH  25  26
ATOM     26  C   UNL     1     -14.553   9.217  13.306  1.00  0.00    -0.000 C 
BRANCH  26  27
ATOM     27  C   UNL     1     -14.547   7.694  13.096  1.00  0.00    -0.000 C 
BRANCH  27  28
ATOM     28  C   UNL     1     -15.170   6.936  14.277  1.00  0.00    -0.000 C 
BRANCH  28  29
ATOM     29  C   UNL     1     -15.367   5.452  13.936  1.00  0.00    -0.000 C 
BRANCH  29  30
ATOM     30  C   UNL     1     -14.053   4.820  13.452  1.00  0.00    -0.000 C 
BRANCH  30  31
ATOM     31  C   UNL     1     -14.280   3.519  12.665  1.00  0.00    -0.003 C 
ATOM     32  C   UNL     1     -13.858   2.275  13.446  1.00  0.00     0.004 C 
ENDBRANCH  30  31
ENDBRANCH  29  30
ENDBRANCH  28  29
ENDBRANCH  27  28
ENDBRANCH  26  27
ENDBRANCH  25  26
ENDBRANCH  24  25
ENDBRANCH  23  24
ENDBRANCH  22  23
ENDBRANCH  21  22
ENDBRANCH  20  21
ENDBRANCH  19  20
ENDBRANCH  18  19
ENDBRANCH   1  18
TORSDOF 28
ENDMDL
MODEL 8
REMARK VINA RESULT:     2.048      3.833     10.547
REMARK INTER + INTRA:           5.708
REMARK INTER:                   7.982
REMARK INTRA:                  -2.274
REMARK UNBOUND:                 0.307
REMARK SMILES CCCCCCCCCCCCCCCCCCCCCCCCCCCCCC(=O)[O-]
REMARK SMILES IDX 16 1 17 2 18 3 19 4 20 5 21 6 22 7 23 8 24 9 25 10 26 11
REMARK SMILES IDX 27 12 28 13 29 14 30 15 31 16 32 17 15 18 14 19 13 20 12 21
REMARK SMILES IDX 11 22 10 23 9 24 8 25 7 26 6 27 5 28 4 29 3 30 2 31 1 32
REMARK H PARENT
REMARK Flexibility Score: inf
ROOT
ATOM      1  C   UNL     1     -21.336   2.663   7.272  1.00  0.00     0.000 C 
ENDROOT
BRANCH   1   2
ATOM      2  C   UNL     1     -22.131   3.178   8.490  1.00  0.00     0.000 C 
BRANCH   2   3
ATOM      3  C   UNL     1     -22.804   4.551   8.308  1.00  0.00     0.000 C 
BRANCH   3   4
ATOM      4  C   UNL     1     -22.143   5.723   9.060  1.00  0.00     0.000 C 
BRANCH   4   5
ATOM      5  C   UNL     1     -20.613   5.809   8.884  1.00  0.00     0.000 C 
BRANCH   5   6
ATOM      6  C   UNL     1     -19.900   6.433  10.098  1.00  0.00     0.000 C 
BRANCH   6   7
ATOM      7  C   UNL     1     -18.449   6.840   9.789  1.00  0.00     0.000 C 
BRANCH   7   8
ATOM      8  C   UNL     1     -18.250   8.341   9.506  1.00  0.00     0.000 C 
BRANCH   8   9
ATOM      9  C   UNL     1     -16.774   8.744   9.305  1.00  0.00     0.000 C 
BRANCH   9  10
ATOM     10  C   UNL     1     -15.973   8.689  10.615  1.00  0.00     0.000 C 
BRANCH  10  11
ATOM     11  C   UNL     1     -15.170   9.974  10.882  1.00  0.00     0.000 C 
BRANCH  11  12
ATOM     12  C   UNL     1     -14.718  10.124  12.350  1.00  0.00     0.000 C 
BRANCH  12  13
ATOM     13  C   UNL     1     -14.129   8.818  12.909  1.00  0.00     0.006 C 
BRANCH  13  14
ATOM     14  C   UNL     1     -15.065   8.145  13.920  1.00  0.00     0.053 C 
BRANCH  14  15
ATOM     15  C   UNL     1     -14.978   6.651  13.843  1.00  0.00     0.041 C 
ATOM     16  O   UNL     1     -14.423   6.000  14.768  1.00  0.00    -0.550 OA
ATOM     17  O   UNL     1     -15.469   5.980  12.731  1.00  0.00    -0.550 OA
ENDBRANCH  14  15
ENDBRANCH  13  14
ENDBRANCH  12  13
ENDBRANCH  11  12
ENDBRANCH  10  11
ENDBRANCH   9  10
ENDBRANCH   8   9
ENDBRANCH   7   8
ENDBRANCH   6   7
ENDBRANCH   5   6
ENDBRANCH   4   5
ENDBRANCH   3   4
ENDBRANCH   2   3
ENDBRANCH   1   2
BRANCH   1  18
ATOM     18  C   UNL     1     -21.065   1.148   7.261  1.00  0.00     0.000 C 
BRANCH  18  19
ATOM     19  C   UNL     1     -22.120   0.354   6.477  1.00  0.00     0.000 C 
BRANCH  19  20
ATOM     20  C   UNL     1     -21.647  -1.086   6.229  1.00  0.00     0.000 C 
BRANCH  20  21
ATOM     21  C   UNL     1     -20.469  -1.498   7.128  1.00  0.00     0.000 C 
BRANCH  21  22
ATOM     22  C   UNL     1     -20.542  -2.957   7.622  1.00  0.00     0.000 C 
BRANCH  22  23
ATOM     23  C   UNL     1     -20.325  -3.077   9.141  1.00  0.00     0.000 C 
BRANCH  23  24
ATOM     24  C   UNL     1     -20.608  -1.747   9.873  1.00  0.00    -0.000 C 
BRANCH  24  25
ATOM     25  C   UNL     1     -20.052  -1.699  11.306  1.00  0.00    -0.000 C 
BRANCH  25  26
ATOM     26  C   UNL     1     -21.123  -1.984  12.373  1.00  0.00    -0.000 C 
BRANCH  26  27
ATOM     27  C   UNL     1     -20.925  -1.141  13.644  1.00  0.00    -0.000 C 
BRANCH  27  28
ATOM     28  C   UNL     1     -22.253  -0.626  14.219  1.00  0.00    -0.000 C 
BRANCH  28  29
ATOM     29  C   UNL     1     -22.639   0.719  13.590  1.00  0.00    -0.000 C 
BRANCH  29  30
ATOM     30  C   UNL     1     -21.390   1.519  13.191  1.00  0.00    -0.000 C 
BRANCH  30  31
ATOM     31  C   UNL     1     -21.430   1.984  11.727  1.00  0.00    -0.003 C 
ATOM     32  C   UNL     1     -22.469   1.231  10.897  1.00  0.00     0.004 C 
ENDBRANCH  30  31
ENDBRANCH  29  30
ENDBRANCH  28  29
ENDBRANCH  27  28
ENDBRANCH  26  27
ENDBRANCH  25  26
ENDBRANCH  24  25
ENDBRANCH  23  24
ENDBRANCH  22  23
ENDBRANCH  21  22
ENDBRANCH  20  21
ENDBRANCH  19  20
ENDBRANCH  18  19
ENDBRANCH   1  18
TORSDOF 28
ENDMDL
MODEL 9
REMARK VINA RESULT:     2.087      5.942      9.719
REMARK INTER + INTRA:           5.810
REMARK INTER:                   8.228
REMARK INTRA:                  -2.418
REMARK UNBOUND:                 0.307
REMARK SMILES CCCCCCCCCCCCCCCCCCCCCCCCCCCCCC(=O)[O-]
REMARK SMILES IDX 16 1 17 2 18 3 19 4 20 5 21 6 22 7 23 8 24 9 25 10 26 11
REMARK SMILES IDX 27 12 28 13 29 14 30 15 31 16 32 17 15 18 14 19 13 20 12 21
REMARK SMILES IDX 11 22 10 23 9 24 8 25 7 26 6 27 5 28 4 29 3 30 2 31 1 32
REMARK H PARENT
REMARK Flexibility Score: inf
ROOT
ATOM      1  C   UNL     1     -19.760  -3.161   8.737  1.00  0.00     0.000 C 
ENDROOT
BRANCH   1   2
ATOM      2  C   UNL     1     -20.523  -4.196   7.884  1.00  0.00     0.000 C 
BRANCH   2   3
ATOM      3  C   UNL     1     -20.352  -5.664   8.315  1.00  0.00     0.000 C 
BRANCH   3   4
ATOM      4  C   UNL     1     -21.609  -6.338   8.901  1.00  0.00     0.000 C 
BRANCH   4   5
ATOM      5  C   UNL     1     -22.528  -6.993   7.850  1.00  0.00     0.000 C 
BRANCH   5   6
ATOM      6  C   UNL     1     -23.959  -7.232   8.365  1.00  0.00     0.000 C 
BRANCH   6   7
ATOM      7  C   UNL     1     -24.504  -8.618   7.980  1.00  0.00     0.000 C 
BRANCH   7   8
ATOM      8  C   UNL     1     -26.036  -8.691   7.841  1.00  0.00     0.000 C 
BRANCH   8   9
ATOM      9  C   UNL     1     -26.623 -10.082   8.157  1.00  0.00     0.000 C 
BRANCH   9  10
ATOM     10  C   UNL     1     -28.029  -9.995   8.772  1.00  0.00     0.000 C 
BRANCH  10  11
ATOM     11  C   UNL     1     -28.020 -10.098  10.307  1.00  0.00     0.000 C 
BRANCH  11  12
ATOM     12  C   UNL     1     -28.401  -8.780  11.015  1.00  0.00     0.000 C 
BRANCH  12  13
ATOM     13  C   UNL     1     -27.240  -7.772  11.019  1.00  0.00     0.006 C 
BRANCH  13  14
ATOM     14  C   UNL     1     -27.295  -6.827  12.226  1.00  0.00     0.053 C 
BRANCH  14  15
ATOM     15  C   UNL     1     -28.570  -6.041  12.254  1.00  0.00     0.041 C 
ATOM     16  O   UNL     1     -29.517  -6.396  13.005  1.00  0.00    -0.550 OA
ATOM     17  O   UNL     1     -28.731  -4.943  11.420  1.00  0.00    -0.550 OA
ENDBRANCH  14  15
ENDBRANCH  13  14
ENDBRANCH  12  13
ENDBRANCH  11  12
ENDBRANCH  10  11
ENDBRANCH   9  10
ENDBRANCH   8   9
ENDBRANCH   7   8
ENDBRANCH   6   7
ENDBRANCH   5   6
ENDBRANCH   4   5
ENDBRANCH   3   4
ENDBRANCH   2   3
ENDBRANCH   1   2
BRANCH   1  18
ATOM     18  C   UNL     1     -20.637  -2.079   9.392  1.00  0.00     0.000 C 
BRANCH  18  19
ATOM     19  C   UNL     1     -21.146  -2.478  10.785  1.00  0.00     0.000 C 
BRANCH  19  20
ATOM     20  C   UNL     1     -20.634  -1.502  11.854  1.00  0.00     0.000 C 
BRANCH  20  21
ATOM     21  C   UNL     1     -20.980  -1.940  13.286  1.00  0.00     0.000 C 
BRANCH  21  22
ATOM     22  C   UNL     1     -21.435  -0.783  14.199  1.00  0.00     0.000 C 
BRANCH  22  23
ATOM     23  C   UNL     1     -22.369   0.206  13.478  1.00  0.00     0.000 C 
BRANCH  23  24
ATOM     24  C   UNL     1     -21.786   1.635  13.445  1.00  0.00    -0.000 C 
BRANCH  24  25
ATOM     25  C   UNL     1     -21.406   2.116  12.035  1.00  0.00    -0.000 C 
BRANCH  25  26
ATOM     26  C   UNL     1     -22.247   1.454  10.930  1.00  0.00    -0.000 C 
BRANCH  26  27
ATOM     27  C   UNL     1     -22.016   2.097   9.551  1.00  0.00    -0.000 C 
BRANCH  27  28
ATOM     28  C   UNL     1     -21.436   1.105   8.532  1.00  0.00    -0.000 C 
BRANCH  28  29
ATOM     29  C   UNL     1     -21.360   1.734   7.134  1.00  0.00    -0.000 C 
BRANCH  29  30
ATOM     30  C   UNL     1     -21.919   0.779   6.069  1.00  0.00    -0.000 C 
BRANCH  30  31
ATOM     31  C   UNL     1     -21.364  -0.647   6.207  1.00  0.00    -0.003 C 
ATOM     32  C   UNL     1     -19.890  -0.748   5.816  1.00  0.00     0.004 C 
ENDBRANCH  30  31
ENDBRANCH  29  30
ENDBRANCH  28  29
ENDBRANCH  27  28
ENDBRANCH  26  27
ENDBRANCH  25  26
ENDBRANCH  24  25
ENDBRANCH  23  24
ENDBRANCH  22  23
ENDBRANCH  21  22
ENDBRANCH  20  21
ENDBRANCH  19  20
ENDBRANCH  18  19
ENDBRANCH   1  18
TORSDOF 28
ENDMDL
