MODEL 1
REMARK VINA RESULT:    -4.919      0.000      0.000
REMARK INTER + INTRA:          -5.062
REMARK INTER:                  -5.062
REMARK INTRA:                   0.000
REMARK UNBOUND:                 0.000
REMARK SMILES Nc1ncnc2nc[nH]c12
REMARK SMILES IDX 8 1 7 2 6 3 5 4 4 5 3 6 2 7 10 8 9 9 1 11
REMARK H PARENT 9 10 1 12 1 13
REMARK Flexibility Score: inf
ROOT
ATOM      1  C   UNL     1       6.959  15.576  16.054  1.00  0.00     0.199 A 
ATOM      2  N   UNL     1       7.082  14.864  17.207  1.00  0.00    -0.217 NA
ATOM      3  C   UNL     1       6.014  14.051  17.156  1.00  0.00     0.182 A 
ATOM      4  N   UNL     1       5.660  13.122  18.076  1.00  0.00    -0.215 NA
ATOM      5  C   UNL     1       4.531  12.386  17.848  1.00  0.00     0.226 A 
ATOM      6  N   UNL     1       3.784  12.589  16.716  1.00  0.00    -0.217 NA
ATOM      7  C   UNL     1       4.140  13.525  15.786  1.00  0.00     0.152 A 
ATOM      8  C   UNL     1       5.292  14.267  16.032  1.00  0.00     0.127 A 
ATOM      9  N   UNL     1       5.874  15.235  15.314  1.00  0.00    -0.340 N 
ATOM     10  H   UNL     1       5.575  15.639  14.400  1.00  0.00     0.168 HD
ENDROOT
BRANCH   7  11
ATOM     11  N   UNL     1       3.347  13.719  14.614  1.00  0.00    -0.382 N 
ATOM     12  H   UNL     1       2.366  14.069  14.673  1.00  0.00     0.158 HD
ATOM     13  H   UNL     1       3.748  13.510  13.673  1.00  0.00     0.158 HD
ENDBRANCH   7  11
TORSDOF 1
ENDMDL
MODEL 2
REMARK VINA RESULT:    -4.779      1.195      2.913
REMARK INTER + INTRA:          -4.919
REMARK INTER:                  -4.919
REMARK INTRA:                   0.000
REMARK UNBOUND:                 0.000
REMARK SMILES Nc1ncnc2nc[nH]c12
REMARK SMILES IDX 8 1 7 2 6 3 5 4 4 5 3 6 2 7 10 8 9 9 1 11
REMARK H PARENT 9 10 1 12 1 13
REMARK Flexibility Score: inf
ROOT
ATOM      1  C   UNL     1       4.319  11.657  17.999  1.00  0.00     0.199 A 
ATOM      2  N   UNL     1       5.147  12.599  18.527  1.00  0.00    -0.217 NA
ATOM      3  C   UNL     1       4.995  13.624  17.674  1.00  0.00     0.182 A 
ATOM      4  N   UNL     1       5.607  14.831  17.742  1.00  0.00    -0.215 NA
ATOM      5  C   UNL     1       5.323  15.754  16.774  1.00  0.00     0.226 A 
ATOM      6  N   UNL     1       4.442  15.457  15.765  1.00  0.00    -0.217 NA
ATOM      7  C   UNL     1       3.823  14.241  15.694  1.00  0.00     0.152 A 
ATOM      8  C   UNL     1       4.122  13.312  16.687  1.00  0.00     0.127 A 
ATOM      9  N   UNL     1       3.678  12.063  16.874  1.00  0.00    -0.340 N 
ATOM     10  H   UNL     1       3.000  11.519  16.297  1.00  0.00     0.168 HD
ENDROOT
BRANCH   7  11
ATOM     11  N   UNL     1       2.909  13.954  14.636  1.00  0.00    -0.382 N 
ATOM     12  H   UNL     1       2.482  13.008  14.527  1.00  0.00     0.158 HD
ATOM     13  H   UNL     1       2.655  14.699  13.950  1.00  0.00     0.158 HD
ENDBRANCH   7  11
TORSDOF 1
ENDMDL
MODEL 3
REMARK VINA RESULT:    -4.596      2.559      3.841
REMARK INTER + INTRA:          -4.730
REMARK INTER:                  -4.730
REMARK INTRA:                   0.000
REMARK UNBOUND:                 0.000
REMARK SMILES Nc1ncnc2nc[nH]c12
REMARK SMILES IDX 8 1 7 2 6 3 5 4 4 5 3 6 2 7 10 8 9 9 1 11
REMARK H PARENT 9 10 1 12 1 13
REMARK Flexibility Score: inf
ROOT
ATOM      1  C   UNL     1       4.369  13.350  17.328  1.00  0.00     0.199 A 
ATOM      2  N   UNL     1       5.526  12.958  16.728  1.00  0.00    -0.217 NA
ATOM      3  C   UNL     1       5.526  11.633  16.945  1.00  0.00     0.182 A 
ATOM      4  N   UNL     1       6.472  10.748  16.547  1.00  0.00    -0.215 NA
ATOM      5  C   UNL     1       6.296   9.430  16.864  1.00  0.00     0.226 A 
ATOM      6  N   UNL     1       5.190   9.023  17.567  1.00  0.00    -0.217 NA
ATOM      7  C   UNL     1       4.235   9.914  17.969  1.00  0.00     0.152 A 
ATOM      8  C   UNL     1       4.428  11.253  17.639  1.00  0.00     0.127 A 
ATOM      9  N   UNL     1       3.675  12.330  17.894  1.00  0.00    -0.340 N 
ATOM     10  H   UNL     1       2.768  12.385  18.406  1.00  0.00     0.168 HD
ENDROOT
BRANCH   7  11
ATOM     11  N   UNL     1       3.091   9.469  18.699  1.00  0.00    -0.382 N 
ATOM     12  H   UNL     1       2.220  10.041  18.748  1.00  0.00     0.158 HD
ATOM     13  H   UNL     1       3.115   8.552  19.198  1.00  0.00     0.158 HD
ENDBRANCH   7  11
TORSDOF 1
ENDMDL
MODEL 4
REMARK VINA RESULT:    -4.523      4.484      6.370
REMARK INTER + INTRA:          -4.656
REMARK INTER:                  -4.656
REMARK INTRA:                   0.000
REMARK UNBOUND:                 0.000
REMARK SMILES Nc1ncnc2nc[nH]c12
REMARK SMILES IDX 8 1 7 2 6 3 5 4 4 5 3 6 2 7 10 8 9 9 1 11
REMARK H PARENT 9 10 1 12 1 13
REMARK Flexibility Score: inf
ROOT
ATOM      1  C   UNL     1       8.356  15.980  17.624  1.00  0.00     0.199 A 
ATOM      2  N   UNL     1       7.878  16.423  18.818  1.00  0.00    -0.217 NA
ATOM      3  C   UNL     1       8.075  17.749  18.730  1.00  0.00     0.182 A 
ATOM      4  N   UNL     1       7.768  18.676  19.669  1.00  0.00    -0.215 NA
ATOM      5  C   UNL     1       8.047  19.987  19.397  1.00  0.00     0.226 A 
ATOM      6  N   UNL     1       8.621  20.344  18.203  1.00  0.00    -0.217 NA
ATOM      7  C   UNL     1       8.930  19.410  17.254  1.00  0.00     0.152 A 
ATOM      8  C   UNL     1       8.641  18.079  17.546  1.00  0.00     0.127 A 
ATOM      9  N   UNL     1       8.830  16.968  16.824  1.00  0.00    -0.340 N 
ATOM     10  H   UNL     1       9.242  16.872  15.871  1.00  0.00     0.168 HD
ENDROOT
BRANCH   7  11
ATOM     11  N   UNL     1       9.527  19.804  16.018  1.00  0.00    -0.382 N 
ATOM     12  H   UNL     1      10.397  20.380  15.993  1.00  0.00     0.158 HD
ATOM     13  H   UNL     1       9.093  19.514  15.114  1.00  0.00     0.158 HD
ENDBRANCH   7  11
TORSDOF 1
ENDMDL
MODEL 5
REMARK VINA RESULT:    -4.328      5.058      6.528
REMARK INTER + INTRA:          -4.455
REMARK INTER:                  -4.455
REMARK INTRA:                   0.000
REMARK UNBOUND:                 0.000
REMARK SMILES Nc1ncnc2nc[nH]c12
REMARK SMILES IDX 8 1 7 2 6 3 5 4 4 5 3 6 2 7 10 8 9 9 1 11
REMARK H PARENT 9 10 1 12 1 13
REMARK Flexibility Score: inf
ROOT
ATOM      1  C   UNL     1       7.556  20.529  20.362  1.00  0.00     0.199 A 
ATOM      2  N   UNL     1       7.324  19.250  20.763  1.00  0.00    -0.217 NA
ATOM      3  C   UNL     1       7.770  18.537  19.716  1.00  0.00     0.182 A 
ATOM      4  N   UNL     1       7.771  17.187  19.598  1.00  0.00    -0.215 NA
ATOM      5  C   UNL     1       8.271  16.641  18.449  1.00  0.00     0.226 A 
ATOM      6  N   UNL     1       8.756  17.445  17.448  1.00  0.00    -0.217 NA
ATOM      7  C   UNL     1       8.757  18.806  17.566  1.00  0.00     0.152 A 
ATOM      8  C   UNL     1       8.244  19.348  18.742  1.00  0.00     0.127 A 
ATOM      9  N   UNL     1       8.118  20.622  19.131  1.00  0.00    -0.340 N 
ATOM     10  H   UNL     1       8.385  21.490  18.618  1.00  0.00     0.168 HD
ENDROOT
BRANCH   7  11
ATOM     11  N   UNL     1       9.267  19.623  16.512  1.00  0.00    -0.382 N 
ATOM     12  H   UNL     1      10.290  19.799  16.406  1.00  0.00     0.158 HD
ATOM     13  H   UNL     1       8.611  20.060  15.826  1.00  0.00     0.158 HD
ENDBRANCH   7  11
TORSDOF 1
ENDMDL
MODEL 6
REMARK VINA RESULT:    -4.257      1.441      2.950
REMARK INTER + INTRA:          -4.381
REMARK INTER:                  -4.381
REMARK INTRA:                   0.000
REMARK UNBOUND:                 0.000
REMARK SMILES Nc1ncnc2nc[nH]c12
REMARK SMILES IDX 8 1 7 2 6 3 5 4 4 5 3 6 2 7 10 8 9 9 1 11
REMARK H PARENT 9 10 1 12 1 13
REMARK Flexibility Score: inf
ROOT
ATOM      1  C   UNL     1       2.868  15.133  15.980  1.00  0.00     0.199 A 
ATOM      2  N   UNL     1       4.062  15.780  16.076  1.00  0.00    -0.217 NA
ATOM      3  C   UNL     1       4.810  14.900  16.760  1.00  0.00     0.182 A 
ATOM      4  N   UNL     1       6.104  15.054  17.129  1.00  0.00    -0.215 NA
ATOM      5  C   UNL     1       6.701  14.041  17.826  1.00  0.00     0.226 A 
ATOM      6  N   UNL     1       6.001  12.903  18.139  1.00  0.00    -0.217 NA
ATOM      7  C   UNL     1       4.696  12.746  17.767  1.00  0.00     0.152 A 
ATOM      8  C   UNL     1       4.102  13.786  17.058  1.00  0.00     0.127 A 
ATOM      9  N   UNL     1       2.861  13.912  16.571  1.00  0.00    -0.340 N 
ATOM     10  H   UNL     1       2.067  13.237  16.626  1.00  0.00     0.168 HD
ENDROOT
BRANCH   7  11
ATOM     11  N   UNL     1       3.986  11.553  18.102  1.00  0.00    -0.382 N 
ATOM     12  H   UNL     1       3.925  10.750  17.438  1.00  0.00     0.158 HD
ATOM     13  H   UNL     1       3.515  11.470  19.030  1.00  0.00     0.158 HD
ENDBRANCH   7  11
TORSDOF 1
ENDMDL
MODEL 7
REMARK VINA RESULT:    -4.248      1.798      1.905
REMARK INTER + INTRA:          -4.372
REMARK INTER:                  -4.372
REMARK INTRA:                   0.000
REMARK UNBOUND:                 0.000
REMARK SMILES Nc1ncnc2nc[nH]c12
REMARK SMILES IDX 8 1 7 2 6 3 5 4 4 5 3 6 2 7 10 8 9 9 1 11
REMARK H PARENT 9 10 1 12 1 13
REMARK Flexibility Score: inf
ROOT
ATOM      1  C   UNL     1       8.479  15.551  16.848  1.00  0.00     0.199 A 
ATOM      2  N   UNL     1       8.223  14.881  18.005  1.00  0.00    -0.217 NA
ATOM      3  C   UNL     1       6.885  14.772  17.982  1.00  0.00     0.182 A 
ATOM      4  N   UNL     1       6.106  14.177  18.917  1.00  0.00    -0.215 NA
ATOM      5  C   UNL     1       4.753  14.165  18.717  1.00  0.00     0.226 A 
ATOM      6  N   UNL     1       4.209  14.741  17.597  1.00  0.00    -0.217 NA
ATOM      7  C   UNL     1       4.994  15.341  16.652  1.00  0.00     0.152 A 
ATOM      8  C   UNL     1       6.369  15.345  16.870  1.00  0.00     0.127 A 
ATOM      9  N   UNL     1       7.366  15.848  16.132  1.00  0.00    -0.340 N 
ATOM     10  H   UNL     1       7.313  16.353  15.221  1.00  0.00     0.168 HD
ENDROOT
BRANCH   7  11
ATOM     11  N   UNL     1       4.407  15.934  15.493  1.00  0.00    -0.382 N 
ATOM     12  H   UNL     1       3.512  16.468  15.550  1.00  0.00     0.158 HD
ATOM     13  H   UNL     1       4.874  15.839  14.565  1.00  0.00     0.158 HD
ENDBRANCH   7  11
TORSDOF 1
ENDMDL
MODEL 8
REMARK VINA RESULT:    -4.189      1.676      3.038
REMARK INTER + INTRA:          -4.312
REMARK INTER:                  -4.312
REMARK INTRA:                   0.000
REMARK UNBOUND:                 0.000
REMARK SMILES Nc1ncnc2nc[nH]c12
REMARK SMILES IDX 8 1 7 2 6 3 5 4 4 5 3 6 2 7 10 8 9 9 1 11
REMARK H PARENT 9 10 1 12 1 13
REMARK Flexibility Score: inf
ROOT
ATOM      1  C   UNL     1       3.084  15.510  15.757  1.00  0.00     0.199 A 
ATOM      2  N   UNL     1       2.877  14.719  16.845  1.00  0.00    -0.217 NA
ATOM      3  C   UNL     1       4.124  14.548  17.315  1.00  0.00     0.182 A 
ATOM      4  N   UNL     1       4.486  13.829  18.405  1.00  0.00    -0.215 NA
ATOM      5  C   UNL     1       5.813  13.772  18.728  1.00  0.00     0.226 A 
ATOM      6  N   UNL     1       6.745  14.428  17.964  1.00  0.00    -0.217 NA
ATOM      7  C   UNL     1       6.382  15.154  16.865  1.00  0.00     0.152 A 
ATOM      8  C   UNL     1       5.027  15.203  16.549  1.00  0.00     0.127 A 
ATOM      9  N   UNL     1       4.387  15.823  15.550  1.00  0.00    -0.340 N 
ATOM     10  H   UNL     1       4.786  16.412  14.786  1.00  0.00     0.168 HD
ENDROOT
BRANCH   7  11
ATOM     11  N   UNL     1       7.369  15.829  16.085  1.00  0.00    -0.382 N 
ATOM     12  H   UNL     1       8.291  15.389  15.874  1.00  0.00     0.158 HD
ATOM     13  H   UNL     1       7.175  16.785  15.711  1.00  0.00     0.158 HD
ENDBRANCH   7  11
TORSDOF 1
ENDMDL
MODEL 9
REMARK VINA RESULT:    -4.176      4.711      6.002
REMARK INTER + INTRA:          -4.298
REMARK INTER:                  -4.298
REMARK INTRA:                   0.000
REMARK UNBOUND:                 0.000
REMARK SMILES Nc1ncnc2nc[nH]c12
REMARK SMILES IDX 8 1 7 2 6 3 5 4 4 5 3 6 2 7 10 8 9 9 1 11
REMARK H PARENT 9 10 1 12 1 13
REMARK Flexibility Score: inf
ROOT
ATOM      1  C   UNL     1       8.419  17.208  17.921  1.00  0.00     0.199 A 
ATOM      2  N   UNL     1       8.144  15.993  18.469  1.00  0.00    -0.217 NA
ATOM      3  C   UNL     1       7.774  16.320  19.717  1.00  0.00     0.182 A 
ATOM      4  N   UNL     1       7.391  15.465  20.697  1.00  0.00    -0.215 NA
ATOM      5  C   UNL     1       7.048  15.990  21.913  1.00  0.00     0.226 A 
ATOM      6  N   UNL     1       7.093  17.344  22.125  1.00  0.00    -0.217 NA
ATOM      7  C   UNL     1       7.478  18.208  21.138  1.00  0.00     0.152 A 
ATOM      8  C   UNL     1       7.825  17.659  19.906  1.00  0.00     0.127 A 
ATOM      9  N   UNL     1       8.233  18.246  18.775  1.00  0.00    -0.340 N 
ATOM     10  H   UNL     1       8.378  19.261  18.582  1.00  0.00     0.168 HD
ENDROOT
BRANCH   7  11
ATOM     11  N   UNL     1       7.517  19.614  21.381  1.00  0.00    -0.382 N 
ATOM     12  H   UNL     1       6.741  20.102  21.879  1.00  0.00     0.158 HD
ATOM     13  H   UNL     1       8.335  20.177  21.058  1.00  0.00     0.158 HD
ENDBRANCH   7  11
TORSDOF 1
ENDMDL
