MODEL 1
REMARK VINA RESULT:    -2.679      0.000      0.000
REMARK INTER + INTRA:          -3.238
REMARK INTER:                  -3.149
REMARK INTRA:                  -0.089
REMARK UNBOUND:                -0.089
REMARK SMILES O=C([O-])CCC(=O)[O-]
REMARK SMILES IDX 4 1 2 2 1 3 3 4 5 5 6 6 7 7 8 8
REMARK H PARENT
REMARK Flexibility Score: inf
ROOT
ATOM      1  C   UNL     1     -24.157 -26.082  -5.600  1.00  0.00     0.059 C 
ENDROOT
BRANCH   1   2
ATOM      2  C   UNL     1     -24.033 -26.113  -4.107  1.00  0.00     0.042 C 
ATOM      3  O   UNL     1     -23.343 -25.244  -3.511  1.00  0.00    -0.550 OA
ATOM      4  O   UNL     1     -24.645 -27.125  -3.378  1.00  0.00    -0.550 OA
ENDBRANCH   1   2
BRANCH   1   5
ATOM      5  C   UNL     1     -23.727 -24.729  -6.175  1.00  0.00     0.059 C 
BRANCH   5   6
ATOM      6  C   UNL     1     -22.585 -24.873  -7.133  1.00  0.00     0.042 C 
ATOM      7  O   UNL     1     -22.268 -23.917  -7.889  1.00  0.00    -0.550 OA
ATOM      8  O   UNL     1     -21.898 -26.077  -7.221  1.00  0.00    -0.550 OA
ENDBRANCH   5   6
ENDBRANCH   1   5
TORSDOF 3
ENDMDL
MODEL 2
REMARK VINA RESULT:    -2.646      0.116      4.050
REMARK INTER + INTRA:          -3.199
REMARK INTER:                  -3.116
REMARK INTRA:                  -0.083
REMARK UNBOUND:                -0.089
REMARK SMILES O=C([O-])CCC(=O)[O-]
REMARK SMILES IDX 4 1 2 2 1 3 3 4 5 5 6 6 7 7 8 8
REMARK H PARENT
REMARK Flexibility Score: inf
ROOT
ATOM      1  C   UNL     1     -23.735 -24.875  -6.179  1.00  0.00     0.059 C 
ENDROOT
BRANCH   1   2
ATOM      2  C   UNL     1     -22.605 -24.960  -7.160  1.00  0.00     0.042 C 
ATOM      3  O   UNL     1     -21.951 -26.028  -7.280  1.00  0.00    -0.550 OA
ATOM      4  O   UNL     1     -22.250 -23.847  -7.912  1.00  0.00    -0.550 OA
ENDBRANCH   1   2
BRANCH   1   5
ATOM      5  C   UNL     1     -24.068 -26.244  -5.580  1.00  0.00     0.059 C 
BRANCH   5   6
ATOM      6  C   UNL     1     -24.042 -26.213  -4.082  1.00  0.00     0.042 C 
ATOM      7  O   UNL     1     -23.391 -25.319  -3.479  1.00  0.00    -0.550 OA
ATOM      8  O   UNL     1     -24.701 -27.195  -3.353  1.00  0.00    -0.550 OA
ENDBRANCH   5   6
ENDBRANCH   1   5
TORSDOF 3
ENDMDL
MODEL 3
REMARK VINA RESULT:    -2.639     19.033     19.677
REMARK INTER + INTRA:          -3.191
REMARK INTER:                  -3.132
REMARK INTRA:                  -0.058
REMARK UNBOUND:                -0.089
REMARK SMILES O=C([O-])CCC(=O)[O-]
REMARK SMILES IDX 4 1 2 2 1 3 3 4 5 5 6 6 7 7 8 8
REMARK H PARENT
REMARK Flexibility Score: inf
ROOT
ATOM      1  C   UNL     1     -10.037 -16.426   5.641  1.00  0.00     0.059 C 
ENDROOT
BRANCH   1   2
ATOM      2  C   UNL     1     -11.157 -16.202   4.670  1.00  0.00     0.042 C 
ATOM      3  O   UNL     1     -12.042 -17.083   4.512  1.00  0.00    -0.550 OA
ATOM      4  O   UNL     1     -11.199 -15.040   3.911  1.00  0.00    -0.550 OA
ENDBRANCH   1   2
BRANCH   1   5
ATOM      5  C   UNL     1      -8.683 -16.033   5.041  1.00  0.00     0.059 C 
BRANCH   5   6
ATOM      6  C   UNL     1      -7.767 -17.213   4.925  1.00  0.00     0.042 C 
ATOM      7  O   UNL     1      -6.736 -17.145   4.204  1.00  0.00    -0.550 OA
ATOM      8  O   UNL     1      -8.073 -18.400   5.578  1.00  0.00    -0.550 OA
ENDBRANCH   5   6
ENDBRANCH   1   5
TORSDOF 3
ENDMDL
MODEL 4
REMARK VINA RESULT:    -2.634      6.441      7.819
REMARK INTER + INTRA:          -3.184
REMARK INTER:                  -3.091
REMARK INTRA:                  -0.093
REMARK UNBOUND:                -0.089
REMARK SMILES O=C([O-])CCC(=O)[O-]
REMARK SMILES IDX 4 1 2 2 1 3 3 4 5 5 6 6 7 7 8 8
REMARK H PARENT
REMARK Flexibility Score: inf
ROOT
ATOM      1  C   UNL     1     -22.180 -19.423  -0.782  1.00  0.00     0.059 C 
ENDROOT
BRANCH   1   2
ATOM      2  C   UNL     1     -23.421 -18.948  -1.476  1.00  0.00     0.042 C 
ATOM      3  O   UNL     1     -24.543 -19.424  -1.160  1.00  0.00    -0.550 OA
ATOM      4  O   UNL     1     -23.333 -18.011  -2.497  1.00  0.00    -0.550 OA
ENDBRANCH   1   2
BRANCH   1   5
ATOM      5  C   UNL     1     -21.717 -20.781  -1.320  1.00  0.00     0.059 C 
BRANCH   5   6
ATOM      6  C   UNL     1     -22.131 -21.903  -0.419  1.00  0.00     0.042 C 
ATOM      7  O   UNL     1     -22.598 -22.967  -0.907  1.00  0.00    -0.550 OA
ATOM      8  O   UNL     1     -22.040 -21.760   0.960  1.00  0.00    -0.550 OA
ENDBRANCH   5   6
ENDBRANCH   1   5
TORSDOF 3
ENDMDL
MODEL 5
REMARK VINA RESULT:    -2.631      6.465      7.358
REMARK INTER + INTRA:          -3.181
REMARK INTER:                  -3.088
REMARK INTRA:                  -0.093
REMARK UNBOUND:                -0.089
REMARK SMILES O=C([O-])CCC(=O)[O-]
REMARK SMILES IDX 4 1 2 2 1 3 3 4 5 5 6 6 7 7 8 8
REMARK H PARENT
REMARK Flexibility Score: inf
ROOT
ATOM      1  C   UNL     1     -21.662 -20.712  -1.281  1.00  0.00     0.059 C 
ENDROOT
BRANCH   1   2
ATOM      2  C   UNL     1     -22.091 -21.812  -0.359  1.00  0.00     0.042 C 
ATOM      3  O   UNL     1     -21.915 -21.702   0.882  1.00  0.00    -0.550 OA
ATOM      4  O   UNL     1     -22.647 -22.976  -0.875  1.00  0.00    -0.550 OA
ENDBRANCH   1   2
BRANCH   1   5
ATOM      5  C   UNL     1     -22.161 -19.345  -0.801  1.00  0.00     0.059 C 
BRANCH   5   6
ATOM      6  C   UNL     1     -23.429 -18.946  -1.491  1.00  0.00     0.042 C 
ATOM      7  O   UNL     1     -23.407 -18.078  -2.404  1.00  0.00    -0.550 OA
ATOM      8  O   UNL     1     -24.641 -19.501  -1.099  1.00  0.00    -0.550 OA
ENDBRANCH   5   6
ENDBRANCH   1   5
TORSDOF 3
ENDMDL
MODEL 6
REMARK VINA RESULT:    -2.599     18.913     19.560
REMARK INTER + INTRA:          -3.144
REMARK INTER:                  -3.078
REMARK INTRA:                  -0.065
REMARK UNBOUND:                -0.089
REMARK SMILES O=C([O-])CCC(=O)[O-]
REMARK SMILES IDX 4 1 2 2 1 3 3 4 5 5 6 6 7 7 8 8
REMARK H PARENT
REMARK Flexibility Score: inf
ROOT
ATOM      1  C   UNL     1      -9.527 -16.867   5.940  1.00  0.00     0.059 C 
ENDROOT
BRANCH   1   2
ATOM      2  C   UNL     1      -8.238 -17.546   5.587  1.00  0.00     0.042 C 
ATOM      3  O   UNL     1      -7.392 -16.960   4.862  1.00  0.00    -0.550 OA
ATOM      4  O   UNL     1      -7.991 -18.841   6.025  1.00  0.00    -0.550 OA
ENDBRANCH   1   2
BRANCH   1   5
ATOM      5  C   UNL     1      -9.846 -15.723   4.972  1.00  0.00     0.059 C 
BRANCH   5   6
ATOM      6  C   UNL     1     -11.191 -15.898   4.335  1.00  0.00     0.042 C 
ATOM      7  O   UNL     1     -11.653 -15.003   3.578  1.00  0.00    -0.550 OA
ATOM      8  O   UNL     1     -11.950 -17.028   4.609  1.00  0.00    -0.550 OA
ENDBRANCH   5   6
ENDBRANCH   1   5
TORSDOF 3
ENDMDL
MODEL 7
REMARK VINA RESULT:    -2.582      7.124      8.217
REMARK INTER + INTRA:          -3.124
REMARK INTER:                  -3.023
REMARK INTRA:                  -0.101
REMARK UNBOUND:                -0.089
REMARK SMILES O=C([O-])CCC(=O)[O-]
REMARK SMILES IDX 4 1 2 2 1 3 3 4 5 5 6 6 7 7 8 8
REMARK H PARENT
REMARK Flexibility Score: inf
ROOT
ATOM      1  C   UNL     1     -21.629 -20.816  -1.043  1.00  0.00     0.059 C 
ENDROOT
BRANCH   1   2
ATOM      2  C   UNL     1     -22.293 -21.982  -0.375  1.00  0.00     0.042 C 
ATOM      3  O   UNL     1     -22.539 -21.948   0.859  1.00  0.00    -0.550 OA
ATOM      4  O   UNL     1     -22.602 -23.121  -1.108  1.00  0.00    -0.550 OA
ENDBRANCH   1   2
BRANCH   1   5
ATOM      5  C   UNL     1     -22.147 -19.482  -0.496  1.00  0.00     0.059 C 
BRANCH   5   6
ATOM      6  C   UNL     1     -21.130 -18.811   0.378  1.00  0.00     0.042 C 
ATOM      7  O   UNL     1     -20.129 -19.455   0.792  1.00  0.00    -0.550 OA
ATOM      8  O   UNL     1     -21.310 -17.490   0.768  1.00  0.00    -0.550 OA
ENDBRANCH   5   6
ENDBRANCH   1   5
TORSDOF 3
ENDMDL
MODEL 8
REMARK VINA RESULT:    -2.550      6.529      7.864
REMARK INTER + INTRA:          -3.087
REMARK INTER:                  -2.948
REMARK INTRA:                  -0.139
REMARK UNBOUND:                -0.089
REMARK SMILES O=C([O-])CCC(=O)[O-]
REMARK SMILES IDX 4 1 2 2 1 3 3 4 5 5 6 6 7 7 8 8
REMARK H PARENT
REMARK Flexibility Score: inf
ROOT
ATOM      1  C   UNL     1     -22.091 -19.953  -1.585  1.00  0.00     0.059 C 
ENDROOT
BRANCH   1   2
ATOM      2  C   UNL     1     -23.173 -19.052  -1.071  1.00  0.00     0.042 C 
ATOM      3  O   UNL     1     -22.877 -17.970  -0.499  1.00  0.00    -0.550 OA
ATOM      4  O   UNL     1     -24.505 -19.427  -1.187  1.00  0.00    -0.550 OA
ENDBRANCH   1   2
BRANCH   1   5
ATOM      5  C   UNL     1     -21.419 -20.733  -0.451  1.00  0.00     0.059 C 
BRANCH   5   6
ATOM      6  C   UNL     1     -22.257 -21.893  -0.005  1.00  0.00     0.042 C 
ATOM      7  O   UNL     1     -22.651 -21.966   1.189  1.00  0.00    -0.550 OA
ATOM      8  O   UNL     1     -22.567 -22.911  -0.897  1.00  0.00    -0.550 OA
ENDBRANCH   5   6
ENDBRANCH   1   5
TORSDOF 3
ENDMDL
MODEL 9
REMARK VINA RESULT:    -2.511     12.992     14.163
REMARK INTER + INTRA:          -3.040
REMARK INTER:                  -2.965
REMARK INTRA:                  -0.075
REMARK UNBOUND:                -0.089
REMARK SMILES O=C([O-])CCC(=O)[O-]
REMARK SMILES IDX 4 1 2 2 1 3 3 4 5 5 6 6 7 7 8 8
REMARK H PARENT
REMARK Flexibility Score: inf
ROOT
ATOM      1  C   UNL     1     -19.482 -12.503  -3.294  1.00  0.00     0.059 C 
ENDROOT
BRANCH   1   2
ATOM      2  C   UNL     1     -19.615 -11.661  -4.527  1.00  0.00     0.042 C 
ATOM      3  O   UNL     1     -19.552 -10.407  -4.446  1.00  0.00    -0.550 OA
ATOM      4  O   UNL     1     -19.848 -12.261  -5.758  1.00  0.00    -0.550 OA
ENDBRANCH   1   2
BRANCH   1   5
ATOM      5  C   UNL     1     -18.750 -13.817  -3.583  1.00  0.00     0.059 C 
BRANCH   5   6
ATOM      6  C   UNL     1     -17.425 -13.876  -2.884  1.00  0.00     0.042 C 
ATOM      7  O   UNL     1     -16.886 -14.989  -2.643  1.00  0.00    -0.550 OA
ATOM      8  O   UNL     1     -16.807 -12.706  -2.463  1.00  0.00    -0.550 OA
ENDBRANCH   5   6
ENDBRANCH   1   5
TORSDOF 3
ENDMDL
