MODEL 1
REMARK VINA RESULT:    -4.144      0.000      0.000
REMARK INTER + INTRA:          -5.078
REMARK INTER:                  -4.992
REMARK INTRA:                  -0.086
REMARK UNBOUND:                -0.086
REMARK SMILES OCCc1ccc(O)c(O)c1
REMARK SMILES IDX 3 1 4 2 5 3 6 4 7 5 11 6 9 7 8 8 10 10 2 12 1 13
REMARK H PARENT 8 9 10 11 1 14
REMARK Flexibility Score: inf
ROOT
ATOM      1  C   UNL     1     176.028 169.175 170.639  1.00  0.00     0.064 C 
ENDROOT
BRANCH   1   2
ATOM      2  C   UNL     1     176.510 170.265 171.561  1.00  0.00    -0.042 A 
ATOM      3  C   UNL     1     175.638 170.832 172.500  1.00  0.00     0.008 A 
ATOM      4  C   UNL     1     176.076 171.860 173.337  1.00  0.00     0.050 A 
ATOM      5  C   UNL     1     177.386 172.346 173.245  1.00  0.00     0.157 A 
ATOM      6  C   UNL     1     177.821 170.755 171.457  1.00  0.00     0.054 A 
ATOM      7  C   UNL     1     178.270 171.787 172.291  1.00  0.00     0.157 A 
BRANCH   5   8
ATOM      8  O   UNL     1     177.763 173.374 174.112  1.00  0.00    -0.504 OA
ATOM      9  H   UNL     1     178.547 173.989 173.951  1.00  0.00     0.293 HD
ENDBRANCH   5   8
BRANCH   7  10
ATOM     10  O   UNL     1     179.588 172.224 172.137  1.00  0.00    -0.504 OA
ATOM     11  H   UNL     1     180.197 172.461 172.906  1.00  0.00     0.293 HD
ENDBRANCH   7  10
ENDBRANCH   1   2
BRANCH   1  12
ATOM     12  C   UNL     1     177.106 168.792 169.620  1.00  0.00     0.161 C 
BRANCH  12  13
ATOM     13  O   UNL     1     177.330 167.408 169.622  1.00  0.00    -0.396 OA
ATOM     14  H   UNL     1     177.381 167.127 168.672  1.00  0.00     0.210 HD
ENDBRANCH  12  13
ENDBRANCH   1  12
TORSDOF 5
ENDMDL
MODEL 2
REMARK VINA RESULT:    -4.134      2.184      3.590
REMARK INTER + INTRA:          -5.066
REMARK INTER:                  -4.986
REMARK INTRA:                  -0.080
REMARK UNBOUND:                -0.086
REMARK SMILES OCCc1ccc(O)c(O)c1
REMARK SMILES IDX 3 1 4 2 5 3 6 4 7 5 11 6 9 7 8 8 10 10 2 12 1 13
REMARK H PARENT 8 9 10 11 1 14
REMARK Flexibility Score: inf
ROOT
ATOM      1  C   UNL     1     174.136 170.028 172.743  1.00  0.00     0.064 C 
ENDROOT
BRANCH   1   2
ATOM      2  C   UNL     1     175.466 170.726 172.629  1.00  0.00    -0.042 A 
ATOM      3  C   UNL     1     176.444 170.242 171.749  1.00  0.00     0.008 A 
ATOM      4  C   UNL     1     177.686 170.872 171.662  1.00  0.00     0.050 A 
ATOM      5  C   UNL     1     177.978 171.988 172.456  1.00  0.00     0.157 A 
ATOM      6  C   UNL     1     175.756 171.837 173.435  1.00  0.00     0.054 A 
ATOM      7  C   UNL     1     177.001 172.476 173.356  1.00  0.00     0.157 A 
BRANCH   5   8
ATOM      8  O   UNL     1     179.238 172.575 172.320  1.00  0.00    -0.504 OA
ATOM      9  H   UNL     1     179.636 172.859 171.438  1.00  0.00     0.293 HD
ENDBRANCH   5   8
BRANCH   7  10
ATOM     10  O   UNL     1     177.221 173.579 174.185  1.00  0.00    -0.504 OA
ATOM     11  H   UNL     1     177.908 173.600 174.925  1.00  0.00     0.293 HD
ENDBRANCH   7  10
ENDBRANCH   1   2
BRANCH   1  12
ATOM     12  C   UNL     1     173.334 170.551 173.939  1.00  0.00     0.161 C 
BRANCH  12  13
ATOM     13  O   UNL     1     171.980 170.706 173.606  1.00  0.00    -0.396 OA
ATOM     14  H   UNL     1     171.483 170.011 174.111  1.00  0.00     0.210 HD
ENDBRANCH  12  13
ENDBRANCH   1  12
TORSDOF 5
ENDMDL
MODEL 3
REMARK VINA RESULT:    -4.088      2.331      2.560
REMARK INTER + INTRA:          -5.010
REMARK INTER:                  -4.922
REMARK INTRA:                  -0.089
REMARK UNBOUND:                -0.086
REMARK SMILES OCCc1ccc(O)c(O)c1
REMARK SMILES IDX 3 1 4 2 5 3 6 4 7 5 11 6 9 7 8 8 10 10 2 12 1 13
REMARK H PARENT 8 9 10 11 1 14
REMARK Flexibility Score: inf
ROOT
ATOM      1  C   UNL     1     174.910 169.978 171.304  1.00  0.00     0.064 C 
ENDROOT
BRANCH   1   2
ATOM      2  C   UNL     1     175.987 170.839 171.912  1.00  0.00    -0.042 A 
ATOM      3  C   UNL     1     176.747 170.363 172.989  1.00  0.00     0.008 A 
ATOM      4  C   UNL     1     177.726 171.169 173.570  1.00  0.00     0.050 A 
ATOM      5  C   UNL     1     177.958 172.466 173.095  1.00  0.00     0.157 A 
ATOM      6  C   UNL     1     176.207 172.142 171.438  1.00  0.00     0.054 A 
ATOM      7  C   UNL     1     177.186 172.960 172.016  1.00  0.00     0.157 A 
BRANCH   5   8
ATOM      8  O   UNL     1     178.954 173.222 173.718  1.00  0.00    -0.504 OA
ATOM      9  H   UNL     1     179.934 172.984 173.705  1.00  0.00     0.293 HD
ENDBRANCH   5   8
BRANCH   7  10
ATOM     10  O   UNL     1     177.355 174.244 171.493  1.00  0.00    -0.504 OA
ATOM     11  H   UNL     1     177.585 175.054 172.049  1.00  0.00     0.293 HD
ENDBRANCH   7  10
ENDBRANCH   1   2
BRANCH   1  12
ATOM     12  C   UNL     1     174.169 170.721 170.187  1.00  0.00     0.161 C 
BRANCH  12  13
ATOM     13  O   UNL     1     172.797 170.806 170.467  1.00  0.00    -0.396 OA
ATOM     14  H   UNL     1     172.393 171.350 169.741  1.00  0.00     0.210 HD
ENDBRANCH  12  13
ENDBRANCH   1  12
TORSDOF 5
ENDMDL
MODEL 4
REMARK VINA RESULT:    -3.972      1.709      1.880
REMARK INTER + INTRA:          -4.871
REMARK INTER:                  -4.814
REMARK INTRA:                  -0.057
REMARK UNBOUND:                -0.086
REMARK SMILES OCCc1ccc(O)c(O)c1
REMARK SMILES IDX 3 1 4 2 5 3 6 4 7 5 11 6 9 7 8 8 10 10 2 12 1 13
REMARK H PARENT 8 9 10 11 1 14
REMARK Flexibility Score: inf
ROOT
ATOM      1  C   UNL     1     175.881 168.631 172.883  1.00  0.00     0.064 C 
ENDROOT
BRANCH   1   2
ATOM      2  C   UNL     1     176.330 170.051 172.651  1.00  0.00    -0.042 A 
ATOM      3  C   UNL     1     175.688 170.845 171.691  1.00  0.00     0.008 A 
ATOM      4  C   UNL     1     176.121 172.152 171.456  1.00  0.00     0.050 A 
ATOM      5  C   UNL     1     177.203 172.684 172.166  1.00  0.00     0.157 A 
ATOM      6  C   UNL     1     177.422 170.575 173.358  1.00  0.00     0.054 A 
ATOM      7  C   UNL     1     177.865 171.885 173.129  1.00  0.00     0.157 A 
BRANCH   5   8
ATOM      8  O   UNL     1     177.585 173.998 171.886  1.00  0.00    -0.504 OA
ATOM      9  H   UNL     1     177.130 174.585 171.203  1.00  0.00     0.293 HD
ENDBRANCH   5   8
BRANCH   7  10
ATOM     10  O   UNL     1     178.956 172.344 173.871  1.00  0.00    -0.504 OA
ATOM     11  H   UNL     1     179.546 173.112 173.589  1.00  0.00     0.293 HD
ENDBRANCH   7  10
ENDBRANCH   1   2
BRANCH   1  12
ATOM     12  C   UNL     1     175.875 167.829 171.578  1.00  0.00     0.161 C 
BRANCH  12  13
ATOM     13  O   UNL     1     176.205 166.487 171.813  1.00  0.00    -0.396 OA
ATOM     14  H   UNL     1     175.694 165.950 171.153  1.00  0.00     0.210 HD
ENDBRANCH  12  13
ENDBRANCH   1  12
TORSDOF 5
ENDMDL
MODEL 5
REMARK VINA RESULT:    -3.946      2.173      4.707
REMARK INTER + INTRA:          -4.840
REMARK INTER:                  -4.737
REMARK INTRA:                  -0.103
REMARK UNBOUND:                -0.086
REMARK SMILES OCCc1ccc(O)c(O)c1
REMARK SMILES IDX 3 1 4 2 5 3 6 4 7 5 11 6 9 7 8 8 10 10 2 12 1 13
REMARK H PARENT 8 9 10 11 1 14
REMARK Flexibility Score: inf
ROOT
ATOM      1  C   UNL     1     177.424 172.990 173.178  1.00  0.00     0.064 C 
ENDROOT
BRANCH   1   2
ATOM      2  C   UNL     1     176.716 171.756 172.681  1.00  0.00    -0.042 A 
ATOM      3  C   UNL     1     177.276 170.988 171.651  1.00  0.00     0.008 A 
ATOM      4  C   UNL     1     176.608 169.860 171.172  1.00  0.00     0.050 A 
ATOM      5  C   UNL     1     175.368 169.485 171.703  1.00  0.00     0.157 A 
ATOM      6  C   UNL     1     175.468 171.392 173.210  1.00  0.00     0.054 A 
ATOM      7  C   UNL     1     174.789 170.262 172.735  1.00  0.00     0.157 A 
BRANCH   5   8
ATOM      8  O   UNL     1     174.752 168.345 171.181  1.00  0.00    -0.504 OA
ATOM      9  H   UNL     1     175.204 167.695 170.555  1.00  0.00     0.293 HD
ENDBRANCH   5   8
BRANCH   7  10
ATOM     10  O   UNL     1     173.554 169.955 173.309  1.00  0.00    -0.504 OA
ATOM     11  H   UNL     1     173.442 169.392 174.139  1.00  0.00     0.293 HD
ENDBRANCH   7  10
ENDBRANCH   1   2
BRANCH   1  12
ATOM     12  C   UNL     1     178.850 172.666 173.634  1.00  0.00     0.161 C 
BRANCH  12  13
ATOM     13  O   UNL     1     178.843 171.730 174.678  1.00  0.00    -0.396 OA
ATOM     14  H   UNL     1     178.256 172.102 175.388  1.00  0.00     0.210 HD
ENDBRANCH  12  13
ENDBRANCH   1  12
TORSDOF 5
ENDMDL
MODEL 6
REMARK VINA RESULT:    -3.913      1.748      2.544
REMARK INTER + INTRA:          -4.800
REMARK INTER:                  -4.691
REMARK INTRA:                  -0.109
REMARK UNBOUND:                -0.086
REMARK SMILES OCCc1ccc(O)c(O)c1
REMARK SMILES IDX 3 1 4 2 5 3 6 4 7 5 11 6 9 7 8 8 10 10 2 12 1 13
REMARK H PARENT 8 9 10 11 1 14
REMARK Flexibility Score: inf
ROOT
ATOM      1  C   UNL     1     175.331 169.754 171.542  1.00  0.00     0.064 C 
ENDROOT
BRANCH   1   2
ATOM      2  C   UNL     1     176.276 170.793 172.089  1.00  0.00    -0.042 A 
ATOM      3  C   UNL     1     177.599 170.854 171.629  1.00  0.00     0.008 A 
ATOM      4  C   UNL     1     178.482 171.799 172.154  1.00  0.00     0.050 A 
ATOM      5  C   UNL     1     178.066 172.690 173.150  1.00  0.00     0.157 A 
ATOM      6  C   UNL     1     175.856 171.676 173.095  1.00  0.00     0.054 A 
ATOM      7  C   UNL     1     176.736 172.627 173.629  1.00  0.00     0.157 A 
BRANCH   5   8
ATOM      8  O   UNL     1     178.998 173.613 173.632  1.00  0.00    -0.504 OA
ATOM      9  H   UNL     1     179.724 173.388 174.295  1.00  0.00     0.293 HD
ENDBRANCH   5   8
BRANCH   7  10
ATOM     10  O   UNL     1     176.250 173.477 174.625  1.00  0.00    -0.504 OA
ATOM     11  H   UNL     1     175.302 173.820 174.661  1.00  0.00     0.293 HD
ENDBRANCH   7  10
ENDBRANCH   1   2
BRANCH   1  12
ATOM     12  C   UNL     1     175.805 168.337 171.883  1.00  0.00     0.161 C 
BRANCH  12  13
ATOM     13  O   UNL     1     175.563 168.039 173.232  1.00  0.00    -0.396 OA
ATOM     14  H   UNL     1     176.356 168.355 173.739  1.00  0.00     0.210 HD
ENDBRANCH  12  13
ENDBRANCH   1  12
TORSDOF 5
ENDMDL
MODEL 7
REMARK VINA RESULT:    -3.908      1.660      4.292
REMARK INTER + INTRA:          -4.794
REMARK INTER:                  -4.712
REMARK INTRA:                  -0.082
REMARK UNBOUND:                -0.086
REMARK SMILES OCCc1ccc(O)c(O)c1
REMARK SMILES IDX 3 1 4 2 5 3 6 4 7 5 11 6 9 7 8 8 10 10 2 12 1 13
REMARK H PARENT 8 9 10 11 1 14
REMARK Flexibility Score: inf
ROOT
ATOM      1  C   UNL     1     178.096 172.670 172.487  1.00  0.00     0.064 C 
ENDROOT
BRANCH   1   2
ATOM      2  C   UNL     1     177.068 171.586 172.288  1.00  0.00    -0.042 A 
ATOM      3  C   UNL     1     175.887 171.588 173.042  1.00  0.00     0.008 A 
ATOM      4  C   UNL     1     174.946 170.570 172.878  1.00  0.00     0.050 A 
ATOM      5  C   UNL     1     175.170 169.530 171.967  1.00  0.00     0.157 A 
ATOM      6  C   UNL     1     177.304 170.541 171.382  1.00  0.00     0.054 A 
ATOM      7  C   UNL     1     176.366 169.514 171.210  1.00  0.00     0.157 A 
BRANCH   5   8
ATOM      8  O   UNL     1     174.189 168.543 171.848  1.00  0.00    -0.504 OA
ATOM      9  H   UNL     1     173.663 168.173 172.626  1.00  0.00     0.293 HD
ENDBRANCH   5   8
BRANCH   7  10
ATOM     10  O   UNL     1     176.663 168.507 170.289  1.00  0.00    -0.504 OA
ATOM     11  H   UNL     1     176.492 168.581 169.297  1.00  0.00     0.293 HD
ENDBRANCH   7  10
ENDBRANCH   1   2
BRANCH   1  12
ATOM     12  C   UNL     1     178.346 172.932 173.976  1.00  0.00     0.161 C 
BRANCH  12  13
ATOM     13  O   UNL     1     178.920 171.811 174.593  1.00  0.00    -0.396 OA
ATOM     14  H   UNL     1     179.902 171.953 174.581  1.00  0.00     0.210 HD
ENDBRANCH  12  13
ENDBRANCH   1  12
TORSDOF 5
ENDMDL
MODEL 8
REMARK VINA RESULT:    -3.865      2.325      3.162
REMARK INTER + INTRA:          -4.742
REMARK INTER:                  -4.650
REMARK INTRA:                  -0.092
REMARK UNBOUND:                -0.086
REMARK SMILES OCCc1ccc(O)c(O)c1
REMARK SMILES IDX 3 1 4 2 5 3 6 4 7 5 11 6 9 7 8 8 10 10 2 12 1 13
REMARK H PARENT 8 9 10 11 1 14
REMARK Flexibility Score: inf
ROOT
ATOM      1  C   UNL     1     174.054 170.070 172.418  1.00  0.00     0.064 C 
ENDROOT
BRANCH   1   2
ATOM      2  C   UNL     1     175.340 170.829 172.619  1.00  0.00    -0.042 A 
ATOM      3  C   UNL     1     175.425 171.825 173.601  1.00  0.00     0.008 A 
ATOM      4  C   UNL     1     176.608 172.546 173.771  1.00  0.00     0.050 A 
ATOM      5  C   UNL     1     177.721 172.294 172.959  1.00  0.00     0.157 A 
ATOM      6  C   UNL     1     176.448 170.579 171.795  1.00  0.00     0.054 A 
ATOM      7  C   UNL     1     177.639 171.299 171.956  1.00  0.00     0.157 A 
BRANCH   5   8
ATOM      8  O   UNL     1     178.875 173.049 173.180  1.00  0.00    -0.504 OA
ATOM      9  H   UNL     1     179.232 173.737 172.534  1.00  0.00     0.293 HD
ENDBRANCH   5   8
BRANCH   7  10
ATOM     10  O   UNL     1     178.704 170.996 171.104  1.00  0.00    -0.504 OA
ATOM     11  H   UNL     1     179.190 170.111 171.101  1.00  0.00     0.293 HD
ENDBRANCH   7  10
ENDBRANCH   1   2
BRANCH   1  12
ATOM     12  C   UNL     1     173.252 169.981 173.720  1.00  0.00     0.161 C 
BRANCH  12  13
ATOM     13  O   UNL     1     172.032 170.663 173.606  1.00  0.00    -0.396 OA
ATOM     14  H   UNL     1     171.968 171.263 174.394  1.00  0.00     0.210 HD
ENDBRANCH  12  13
ENDBRANCH   1  12
TORSDOF 5
ENDMDL
MODEL 9
REMARK VINA RESULT:    -3.725     15.494     16.457
REMARK INTER + INTRA:          -4.573
REMARK INTER:                  -4.485
REMARK INTRA:                  -0.089
REMARK UNBOUND:                -0.086
REMARK SMILES OCCc1ccc(O)c(O)c1
REMARK SMILES IDX 3 1 4 2 5 3 6 4 7 5 11 6 9 7 8 8 10 10 2 12 1 13
REMARK H PARENT 8 9 10 11 1 14
REMARK Flexibility Score: inf
ROOT
ATOM      1  C   UNL     1     168.049 158.840 179.513  1.00  0.00     0.064 C 
ENDROOT
BRANCH   1   2
ATOM      2  C   UNL     1     167.232 160.075 179.791  1.00  0.00    -0.042 A 
ATOM      3  C   UNL     1     166.242 160.056 180.782  1.00  0.00     0.008 A 
ATOM      4  C   UNL     1     165.465 161.191 181.023  1.00  0.00     0.050 A 
ATOM      5  C   UNL     1     165.656 162.358 180.274  1.00  0.00     0.157 A 
ATOM      6  C   UNL     1     167.420 161.238 179.029  1.00  0.00     0.054 A 
ATOM      7  C   UNL     1     166.645 162.382 179.261  1.00  0.00     0.157 A 
BRANCH   5   8
ATOM      8  O   UNL     1     164.849 163.461 180.564  1.00  0.00    -0.504 OA
ATOM      9  H   UNL     1     164.682 163.808 181.497  1.00  0.00     0.293 HD
ENDBRANCH   5   8
BRANCH   7  10
ATOM     10  O   UNL     1     166.888 163.506 178.469  1.00  0.00    -0.504 OA
ATOM     11  H   UNL     1     166.698 164.453 178.760  1.00  0.00     0.293 HD
ENDBRANCH   7  10
ENDBRANCH   1   2
BRANCH   1  12
ATOM     12  C   UNL     1     169.128 158.635 180.582  1.00  0.00     0.161 C 
BRANCH  12  13
ATOM     13  O   UNL     1     170.295 159.343 180.259  1.00  0.00    -0.396 OA
ATOM     14  H   UNL     1     171.058 158.751 180.488  1.00  0.00     0.210 HD
ENDBRANCH  12  13
ENDBRANCH   1  12
TORSDOF 5
ENDMDL
