MODEL 1
REMARK VINA RESULT:    -7.136      0.000      0.000
REMARK INTER + INTRA:          -7.761
REMARK INTER:                  -7.761
REMARK INTRA:                   0.000
REMARK UNBOUND:                 0.000
REMARK SMILES Cc1cc(O)c2c(c1)C(=O)c1cc(O)cc(O)c1C2=O
REMARK SMILES IDX 1 1 2 2 8 3 7 4 6 5 4 6 3 7 19 8 20 9 18 10 11 11 9 12 10 13
REMARK SMILES IDX 12 14 13 15 15 16 16 17 5 18 17 20 14 22
REMARK H PARENT 5 19 17 21 14 23
REMARK Flexibility Score: inf
ROOT
ATOM      1  C   UNL     1       3.365   7.286 -24.846  1.00  0.00     0.044 C 
ATOM      2  C   UNL     1       3.139   6.558 -23.554  1.00  0.00    -0.047 A 
ATOM      3  C   UNL     1       2.492   5.316 -23.548  1.00  0.00     0.016 A 
ATOM      4  C   UNL     1       2.242   4.644 -22.339  1.00  0.00     0.038 A 
ATOM      5  C   UNL     1       2.641   5.226 -21.117  1.00  0.00     0.076 A 
ATOM      6  C   UNL     1       3.270   6.492 -21.125  1.00  0.00     0.127 A 
ATOM      7  C   UNL     1       3.509   7.148 -22.340  1.00  0.00     0.050 A 
ATOM      8  C   UNL     1       2.407   4.483 -19.851  1.00  0.00     0.201 C 
ATOM      9  O   UNL     1       3.060   4.794 -18.819  1.00  0.00    -0.288 OA
ATOM     10  C   UNL     1       1.495   3.306 -19.832  1.00  0.00     0.076 A 
ATOM     11  C   UNL     1       1.153   2.700 -21.064  1.00  0.00     0.041 A 
ATOM     12  C   UNL     1       1.564   3.328 -22.342  1.00  0.00     0.194 C 
ATOM     13  O   UNL     1       1.318   2.750 -23.436  1.00  0.00    -0.289 OA
ATOM     14  C   UNL     1       0.416   1.503 -21.075  1.00  0.00     0.059 A 
ATOM     15  C   UNL     1       0.001   0.913 -19.879  1.00  0.00     0.120 A 
ATOM     16  C   UNL     1       0.293   1.531 -18.665  1.00  0.00     0.093 A 
ATOM     17  C   UNL     1       1.002   2.736 -18.626  1.00  0.00     0.131 A 
ENDROOT
BRANCH   6  18
ATOM     18  O   UNL     1       3.648   7.107 -19.931  1.00  0.00    -0.507 OA
ATOM     19  H   UNL     1       4.551   6.935 -19.505  1.00  0.00     0.293 HD
ENDBRANCH   6  18
BRANCH  17  20
ATOM     20  O   UNL     1       1.159   3.342 -17.377  1.00  0.00    -0.507 OA
ATOM     21  H   UNL     1       0.999   4.325 -17.207  1.00  0.00     0.293 HD
ENDBRANCH  17  20
BRANCH  15  22
ATOM     22  O   UNL     1      -0.716  -0.281 -19.887  1.00  0.00    -0.508 OA
ATOM     23  H   UNL     1      -1.480  -0.447 -19.243  1.00  0.00     0.293 HD
ENDBRANCH  15  22
TORSDOF 3
ENDMDL
MODEL 2
REMARK VINA RESULT:    -6.751      2.221      5.334
REMARK INTER + INTRA:          -7.343
REMARK INTER:                  -7.343
REMARK INTRA:                   0.000
REMARK UNBOUND:                 0.000
REMARK SMILES Cc1cc(O)c2c(c1)C(=O)c1cc(O)cc(O)c1C2=O
REMARK SMILES IDX 1 1 2 2 8 3 7 4 6 5 4 6 3 7 19 8 20 9 18 10 11 11 9 12 10 13
REMARK SMILES IDX 12 14 13 15 15 16 16 17 5 18 17 20 14 22
REMARK H PARENT 5 19 17 21 14 23
REMARK Flexibility Score: inf
ROOT
ATOM      1  C   UNL     1       0.743   2.183 -17.743  1.00  0.00     0.044 C 
ATOM      2  C   UNL     1       1.199   2.865 -19.000  1.00  0.00    -0.047 A 
ATOM      3  C   UNL     1       0.785   2.388 -20.250  1.00  0.00     0.016 A 
ATOM      4  C   UNL     1       1.237   2.996 -21.434  1.00  0.00     0.038 A 
ATOM      5  C   UNL     1       2.120   4.094 -21.366  1.00  0.00     0.076 A 
ATOM      6  C   UNL     1       2.557   4.556 -20.103  1.00  0.00     0.127 A 
ATOM      7  C   UNL     1       2.097   3.936 -18.934  1.00  0.00     0.050 A 
ATOM      8  C   UNL     1       2.555   4.752 -22.626  1.00  0.00     0.201 C 
ATOM      9  O   UNL     1       3.028   5.920 -22.585  1.00  0.00    -0.288 OA
ATOM     10  C   UNL     1       2.326   4.083 -23.937  1.00  0.00     0.076 A 
ATOM     11  C   UNL     1       1.393   3.022 -23.996  1.00  0.00     0.041 A 
ATOM     12  C   UNL     1       0.790   2.490 -22.751  1.00  0.00     0.194 C 
ATOM     13  O   UNL     1      -0.094   1.591 -22.813  1.00  0.00    -0.289 OA
ATOM     14  C   UNL     1       1.043   2.465 -25.239  1.00  0.00     0.059 A 
ATOM     15  C   UNL     1       1.623   2.940 -26.418  1.00  0.00     0.120 A 
ATOM     16  C   UNL     1       2.578   3.952 -26.361  1.00  0.00     0.093 A 
ATOM     17  C   UNL     1       2.964   4.505 -25.136  1.00  0.00     0.131 A 
ENDROOT
BRANCH   6  18
ATOM     18  O   UNL     1       3.454   5.619 -20.005  1.00  0.00    -0.507 OA
ATOM     19  H   UNL     1       4.192   5.632 -19.310  1.00  0.00     0.293 HD
ENDBRANCH   6  18
BRANCH  17  20
ATOM     20  O   UNL     1       4.004   5.438 -25.158  1.00  0.00    -0.507 OA
ATOM     21  H   UNL     1       4.207   6.033 -25.950  1.00  0.00     0.293 HD
ENDBRANCH  17  20
BRANCH  15  22
ATOM     22  O   UNL     1       1.265   2.401 -27.652  1.00  0.00    -0.508 OA
ATOM     23  H   UNL     1       0.614   2.872 -28.269  1.00  0.00     0.293 HD
ENDBRANCH  15  22
TORSDOF 3
ENDMDL
MODEL 3
REMARK VINA RESULT:    -6.585      2.233      6.455
REMARK INTER + INTRA:          -7.163
REMARK INTER:                  -7.163
REMARK INTRA:                   0.000
REMARK UNBOUND:                 0.000
REMARK SMILES Cc1cc(O)c2c(c1)C(=O)c1cc(O)cc(O)c1C2=O
REMARK SMILES IDX 1 1 2 2 8 3 7 4 6 5 4 6 3 7 19 8 20 9 18 10 11 11 9 12 10 13
REMARK SMILES IDX 12 14 13 15 15 16 16 17 5 18 17 20 14 22
REMARK H PARENT 5 19 17 21 14 23
REMARK Flexibility Score: inf
ROOT
ATOM      1  C   UNL     1       1.207   1.497 -17.371  1.00  0.00     0.044 C 
ATOM      2  C   UNL     1       0.838   1.557 -18.825  1.00  0.00    -0.047 A 
ATOM      3  C   UNL     1       1.360   2.566 -19.643  1.00  0.00     0.016 A 
ATOM      4  C   UNL     1       0.991   2.653 -20.997  1.00  0.00     0.038 A 
ATOM      5  C   UNL     1       0.082   1.720 -21.537  1.00  0.00     0.076 A 
ATOM      6  C   UNL     1      -0.464   0.719 -20.701  1.00  0.00     0.127 A 
ATOM      7  C   UNL     1      -0.085   0.648 -19.354  1.00  0.00     0.050 A 
ATOM      8  C   UNL     1      -0.266   1.801 -22.980  1.00  0.00     0.201 C 
ATOM      9  O   UNL     1      -0.765   0.796 -23.555  1.00  0.00    -0.288 OA
ATOM     10  C   UNL     1       0.081   3.017 -23.767  1.00  0.00     0.076 A 
ATOM     11  C   UNL     1       1.039   3.912 -23.234  1.00  0.00     0.041 A 
ATOM     12  C   UNL     1       1.552   3.719 -21.857  1.00  0.00     0.194 C 
ATOM     13  O   UNL     1       2.457   4.477 -21.409  1.00  0.00    -0.289 OA
ATOM     14  C   UNL     1       1.498   4.990 -24.010  1.00  0.00     0.059 A 
ATOM     15  C   UNL     1       1.004   5.198 -25.300  1.00  0.00     0.120 A 
ATOM     16  C   UNL     1       0.026   4.349 -25.811  1.00  0.00     0.093 A 
ATOM     17  C   UNL     1      -0.468   3.284 -25.051  1.00  0.00     0.131 A 
ENDROOT
BRANCH   6  18
ATOM     18  O   UNL     1      -1.388  -0.199 -21.200  1.00  0.00    -0.507 OA
ATOM     19  H   UNL     1      -1.795  -0.919 -20.613  1.00  0.00     0.293 HD
ENDBRANCH   6  18
BRANCH  17  20
ATOM     20  O   UNL     1      -1.523   2.548 -25.596  1.00  0.00    -0.507 OA
ATOM     21  H   UNL     1      -2.488   2.847 -25.572  1.00  0.00     0.293 HD
ENDBRANCH  17  20
BRANCH  15  22
ATOM     22  O   UNL     1       1.470   6.257 -26.076  1.00  0.00    -0.508 OA
ATOM     23  H   UNL     1       2.089   6.962 -25.696  1.00  0.00     0.293 HD
ENDBRANCH  15  22
TORSDOF 3
ENDMDL
MODEL 4
REMARK VINA RESULT:    -6.555      1.755      4.005
REMARK INTER + INTRA:          -7.129
REMARK INTER:                  -7.129
REMARK INTRA:                   0.000
REMARK UNBOUND:                 0.000
REMARK SMILES Cc1cc(O)c2c(c1)C(=O)c1cc(O)cc(O)c1C2=O
REMARK SMILES IDX 1 1 2 2 8 3 7 4 6 5 4 6 3 7 19 8 20 9 18 10 11 11 9 12 10 13
REMARK SMILES IDX 12 14 13 15 15 16 16 17 5 18 17 20 14 22
REMARK H PARENT 5 19 17 21 14 23
REMARK Flexibility Score: inf
ROOT
ATOM      1  C   UNL     1       3.814   4.940 -26.953  1.00  0.00     0.044 C 
ATOM      2  C   UNL     1       3.091   4.394 -25.757  1.00  0.00    -0.047 A 
ATOM      3  C   UNL     1       3.220   5.017 -24.510  1.00  0.00     0.016 A 
ATOM      4  C   UNL     1       2.578   4.491 -23.375  1.00  0.00     0.038 A 
ATOM      5  C   UNL     1       1.799   3.321 -23.490  1.00  0.00     0.076 A 
ATOM      6  C   UNL     1       1.693   2.679 -24.745  1.00  0.00     0.127 A 
ATOM      7  C   UNL     1       2.342   3.217 -25.865  1.00  0.00     0.050 A 
ATOM      8  C   UNL     1       1.093   2.801 -22.290  1.00  0.00     0.201 C 
ATOM      9  O   UNL     1       0.128   2.003 -22.435  1.00  0.00    -0.288 OA
ATOM     10  C   UNL     1       1.445   3.310 -20.935  1.00  0.00     0.076 A 
ATOM     11  C   UNL     1       2.177   4.518 -20.840  1.00  0.00     0.041 A 
ATOM     12  C   UNL     1       2.714   5.161 -22.062  1.00  0.00     0.194 C 
ATOM     13  O   UNL     1       3.306   6.273 -21.982  1.00  0.00    -0.289 OA
ATOM     14  C   UNL     1       2.400   5.104 -19.582  1.00  0.00     0.059 A 
ATOM     15  C   UNL     1       1.921   4.495 -18.419  1.00  0.00     0.120 A 
ATOM     16  C   UNL     1       1.242   3.282 -18.504  1.00  0.00     0.093 A 
ATOM     17  C   UNL     1       1.029   2.663 -19.739  1.00  0.00     0.131 A 
ENDROOT
BRANCH   6  18
ATOM     18  O   UNL     1       0.955   1.503 -24.883  1.00  0.00    -0.507 OA
ATOM     19  H   UNL     1       1.403   0.609 -25.048  1.00  0.00     0.293 HD
ENDBRANCH   6  18
BRANCH  17  20
ATOM     20  O   UNL     1       0.435   1.398 -19.724  1.00  0.00    -0.507 OA
ATOM     21  H   UNL     1       0.268   0.848 -20.555  1.00  0.00     0.293 HD
ENDBRANCH  17  20
BRANCH  15  22
ATOM     22  O   UNL     1       2.128   5.083 -17.173  1.00  0.00    -0.508 OA
ATOM     23  H   UNL     1       2.038   4.553 -16.315  1.00  0.00     0.293 HD
ENDBRANCH  15  22
TORSDOF 3
ENDMDL
MODEL 5
REMARK VINA RESULT:    -6.509      2.050      6.707
REMARK INTER + INTRA:          -7.080
REMARK INTER:                  -7.080
REMARK INTRA:                   0.000
REMARK UNBOUND:                 0.000
REMARK SMILES Cc1cc(O)c2c(c1)C(=O)c1cc(O)cc(O)c1C2=O
REMARK SMILES IDX 1 1 2 2 8 3 7 4 6 5 4 6 3 7 19 8 20 9 18 10 11 11 9 12 10 13
REMARK SMILES IDX 12 14 13 15 15 16 16 17 5 18 17 20 14 22
REMARK H PARENT 5 19 17 21 14 23
REMARK Flexibility Score: inf
ROOT
ATOM      1  C   UNL     1       0.417   1.927 -18.778  1.00  0.00     0.044 C 
ATOM      2  C   UNL     1       0.744   2.230 -20.211  1.00  0.00    -0.047 A 
ATOM      3  C   UNL     1       1.464   3.384 -20.541  1.00  0.00     0.016 A 
ATOM      4  C   UNL     1       1.742   3.696 -21.884  1.00  0.00     0.038 A 
ATOM      5  C   UNL     1       1.288   2.843 -22.911  1.00  0.00     0.076 A 
ATOM      6  C   UNL     1       0.538   1.692 -22.575  1.00  0.00     0.127 A 
ATOM      7  C   UNL     1       0.270   1.398 -21.232  1.00  0.00     0.050 A 
ATOM      8  C   UNL     1       1.626   3.165 -24.322  1.00  0.00     0.201 C 
ATOM      9  O   UNL     1       1.558   2.261 -25.198  1.00  0.00    -0.288 OA
ATOM     10  C   UNL     1       2.154   4.512 -24.676  1.00  0.00     0.076 A 
ATOM     11  C   UNL     1       2.659   5.330 -23.638  1.00  0.00     0.041 A 
ATOM     12  C   UNL     1       2.509   4.916 -22.223  1.00  0.00     0.194 C 
ATOM     13  O   UNL     1       3.021   5.613 -21.304  1.00  0.00    -0.289 OA
ATOM     14  C   UNL     1       3.296   6.544 -23.951  1.00  0.00     0.059 A 
ATOM     15  C   UNL     1       3.421   6.959 -25.279  1.00  0.00     0.120 A 
ATOM     16  C   UNL     1       2.883   6.181 -26.300  1.00  0.00     0.093 A 
ATOM     17  C   UNL     1       2.221   4.982 -26.017  1.00  0.00     0.131 A 
ENDROOT
BRANCH   6  18
ATOM     18  O   UNL     1       0.049   0.845 -23.571  1.00  0.00    -0.507 OA
ATOM     19  H   UNL     1      -0.904   0.913 -23.908  1.00  0.00     0.293 HD
ENDBRANCH   6  18
BRANCH  17  20
ATOM     20  O   UNL     1       1.618   4.318 -27.088  1.00  0.00    -0.507 OA
ATOM     21  H   UNL     1       0.907   4.731 -27.675  1.00  0.00     0.293 HD
ENDBRANCH  17  20
BRANCH  15  22
ATOM     22  O   UNL     1       4.067   8.153 -25.591  1.00  0.00    -0.508 OA
ATOM     23  H   UNL     1       4.940   8.166 -26.104  1.00  0.00     0.293 HD
ENDBRANCH  15  22
TORSDOF 3
ENDMDL
MODEL 6
REMARK VINA RESULT:    -6.493      2.793      3.899
REMARK INTER + INTRA:          -7.062
REMARK INTER:                  -7.062
REMARK INTRA:                   0.000
REMARK UNBOUND:                 0.000
REMARK SMILES Cc1cc(O)c2c(c1)C(=O)c1cc(O)cc(O)c1C2=O
REMARK SMILES IDX 1 1 2 2 8 3 7 4 6 5 4 6 3 7 19 8 20 9 18 10 11 11 9 12 10 13
REMARK SMILES IDX 12 14 13 15 15 16 16 17 5 18 17 20 14 22
REMARK H PARENT 5 19 17 21 14 23
REMARK Flexibility Score: inf
ROOT
ATOM      1  C   UNL     1       3.876   8.139 -25.654  1.00  0.00     0.044 C 
ATOM      2  C   UNL     1       3.180   7.001 -24.967  1.00  0.00    -0.047 A 
ATOM      3  C   UNL     1       2.244   6.226 -25.661  1.00  0.00     0.016 A 
ATOM      4  C   UNL     1       1.559   5.181 -25.015  1.00  0.00     0.038 A 
ATOM      5  C   UNL     1       1.812   4.913 -23.654  1.00  0.00     0.076 A 
ATOM      6  C   UNL     1       2.738   5.715 -22.949  1.00  0.00     0.127 A 
ATOM      7  C   UNL     1       3.411   6.753 -23.609  1.00  0.00     0.050 A 
ATOM      8  C   UNL     1       1.110   3.779 -22.997  1.00  0.00     0.201 C 
ATOM      9  O   UNL     1       1.573   3.299 -21.928  1.00  0.00    -0.288 OA
ATOM     10  C   UNL     1      -0.061   3.140 -23.659  1.00  0.00     0.076 A 
ATOM     11  C   UNL     1      -0.264   3.375 -25.039  1.00  0.00     0.041 A 
ATOM     12  C   UNL     1       0.575   4.362 -25.758  1.00  0.00     0.194 C 
ATOM     13  O   UNL     1       0.438   4.519 -27.003  1.00  0.00    -0.289 OA
ATOM     14  C   UNL     1      -1.271   2.675 -25.728  1.00  0.00     0.059 A 
ATOM     15  C   UNL     1      -2.086   1.759 -25.057  1.00  0.00     0.120 A 
ATOM     16  C   UNL     1      -1.921   1.561 -23.689  1.00  0.00     0.093 A 
ATOM     17  C   UNL     1      -0.946   2.263 -22.974  1.00  0.00     0.131 A 
ENDROOT
BRANCH   6  18
ATOM     18  O   UNL     1       2.987   5.494 -21.595  1.00  0.00    -0.507 OA
ATOM     19  H   UNL     1       3.909   5.247 -21.254  1.00  0.00     0.293 HD
ENDBRANCH   6  18
BRANCH  17  20
ATOM     20  O   UNL     1      -0.920   2.083 -21.588  1.00  0.00    -0.507 OA
ATOM     21  H   UNL     1      -1.530   1.449 -21.093  1.00  0.00     0.293 HD
ENDBRANCH  17  20
BRANCH  15  22
ATOM     22  O   UNL     1      -3.072   1.053 -25.742  1.00  0.00    -0.508 OA
ATOM     23  H   UNL     1      -3.169   1.117 -26.748  1.00  0.00     0.293 HD
ENDBRANCH  15  22
TORSDOF 3
ENDMDL
MODEL 7
REMARK VINA RESULT:    -6.442      1.974      2.509
REMARK INTER + INTRA:          -7.007
REMARK INTER:                  -7.007
REMARK INTRA:                   0.000
REMARK UNBOUND:                 0.000
REMARK SMILES Cc1cc(O)c2c(c1)C(=O)c1cc(O)cc(O)c1C2=O
REMARK SMILES IDX 1 1 2 2 8 3 7 4 6 5 4 6 3 7 19 8 20 9 18 10 11 11 9 12 10 13
REMARK SMILES IDX 12 14 13 15 15 16 16 17 5 18 17 20 14 22
REMARK H PARENT 5 19 17 21 14 23
REMARK Flexibility Score: inf
ROOT
ATOM      1  C   UNL     1       3.020   4.006 -27.047  1.00  0.00     0.044 C 
ATOM      2  C   UNL     1       2.641   3.836 -25.605  1.00  0.00    -0.047 A 
ATOM      3  C   UNL     1       1.862   2.745 -25.205  1.00  0.00     0.016 A 
ATOM      4  C   UNL     1       1.470   2.597 -23.863  1.00  0.00     0.038 A 
ATOM      5  C   UNL     1       1.860   3.560 -22.909  1.00  0.00     0.076 A 
ATOM      6  C   UNL     1       2.624   4.675 -23.321  1.00  0.00     0.127 A 
ATOM      7  C   UNL     1       3.004   4.806 -24.664  1.00  0.00     0.050 A 
ATOM      8  C   UNL     1       1.472   3.368 -21.486  1.00  0.00     0.201 C 
ATOM      9  O   UNL     1       2.096   3.989 -20.584  1.00  0.00    -0.288 OA
ATOM     10  C   UNL     1       0.436   2.362 -21.122  1.00  0.00     0.076 A 
ATOM     11  C   UNL     1       0.101   1.368 -22.072  1.00  0.00     0.041 A 
ATOM     12  C   UNL     1       0.651   1.436 -23.447  1.00  0.00     0.194 C 
ATOM     13  O   UNL     1       0.407   0.512 -24.270  1.00  0.00    -0.289 OA
ATOM     14  C   UNL     1      -0.763   0.319 -21.713  1.00  0.00     0.059 A 
ATOM     15  C   UNL     1      -1.308   0.256 -20.428  1.00  0.00     0.120 A 
ATOM     16  C   UNL     1      -1.020   1.258 -19.505  1.00  0.00     0.093 A 
ATOM     17  C   UNL     1      -0.185   2.328 -19.844  1.00  0.00     0.131 A 
ENDROOT
BRANCH   6  18
ATOM     18  O   UNL     1       2.999   5.660 -22.407  1.00  0.00    -0.507 OA
ATOM     19  H   UNL     1       3.892   6.134 -22.469  1.00  0.00     0.293 HD
ENDBRANCH   6  18
BRANCH  17  20
ATOM     20  O   UNL     1      -0.035   3.343 -18.896  1.00  0.00    -0.507 OA
ATOM     21  H   UNL     1      -0.639   4.151 -18.838  1.00  0.00     0.293 HD
ENDBRANCH  17  20
BRANCH  15  22
ATOM     22  O   UNL     1      -2.151  -0.792 -20.065  1.00  0.00    -0.508 OA
ATOM     23  H   UNL     1      -2.341  -1.009 -19.095  1.00  0.00     0.293 HD
ENDBRANCH  15  22
TORSDOF 3
ENDMDL
MODEL 8
REMARK VINA RESULT:    -6.368      1.944      4.122
REMARK INTER + INTRA:          -6.926
REMARK INTER:                  -6.926
REMARK INTRA:                   0.000
REMARK UNBOUND:                 0.000
REMARK SMILES Cc1cc(O)c2c(c1)C(=O)c1cc(O)cc(O)c1C2=O
REMARK SMILES IDX 1 1 2 2 8 3 7 4 6 5 4 6 3 7 19 8 20 9 18 10 11 11 9 12 10 13
REMARK SMILES IDX 12 14 13 15 15 16 16 17 5 18 17 20 14 22
REMARK H PARENT 5 19 17 21 14 23
REMARK Flexibility Score: inf
ROOT
ATOM      1  C   UNL     1       4.055   5.102 -26.411  1.00  0.00     0.044 C 
ATOM      2  C   UNL     1       3.048   4.329 -25.611  1.00  0.00    -0.047 A 
ATOM      3  C   UNL     1       2.985   4.482 -24.221  1.00  0.00     0.016 A 
ATOM      4  C   UNL     1       2.071   3.735 -23.458  1.00  0.00     0.038 A 
ATOM      5  C   UNL     1       1.210   2.817 -24.096  1.00  0.00     0.076 A 
ATOM      6  C   UNL     1       1.295   2.646 -25.497  1.00  0.00     0.127 A 
ATOM      7  C   UNL     1       2.214   3.398 -26.241  1.00  0.00     0.050 A 
ATOM      8  C   UNL     1       0.221   2.065 -23.281  1.00  0.00     0.201 C 
ATOM      9  O   UNL     1      -0.774   1.535 -23.845  1.00  0.00    -0.288 OA
ATOM     10  C   UNL     1       0.341   2.038 -21.796  1.00  0.00     0.076 A 
ATOM     11  C   UNL     1       1.163   3.005 -21.171  1.00  0.00     0.041 A 
ATOM     12  C   UNL     1       2.006   3.907 -21.989  1.00  0.00     0.194 C 
ATOM     13  O   UNL     1       2.685   4.814 -21.433  1.00  0.00    -0.289 OA
ATOM     14  C   UNL     1       1.186   3.102 -19.768  1.00  0.00     0.059 A 
ATOM     15  C   UNL     1       0.416   2.241 -18.984  1.00  0.00     0.120 A 
ATOM     16  C   UNL     1      -0.358   1.257 -19.593  1.00  0.00     0.093 A 
ATOM     17  C   UNL     1      -0.379   1.119 -20.984  1.00  0.00     0.131 A 
ENDROOT
BRANCH   6  18
ATOM     18  O   UNL     1       0.479   1.723 -26.153  1.00  0.00    -0.507 OA
ATOM     19  H   UNL     1       0.829   0.821 -26.453  1.00  0.00     0.293 HD
ENDBRANCH   6  18
BRANCH  17  20
ATOM     20  O   UNL     1      -1.096   0.040 -21.507  1.00  0.00    -0.507 OA
ATOM     21  H   UNL     1      -0.916  -0.924 -21.263  1.00  0.00     0.293 HD
ENDBRANCH  17  20
BRANCH  15  22
ATOM     22  O   UNL     1       0.424   2.348 -17.595  1.00  0.00    -0.508 OA
ATOM     23  H   UNL     1       1.289   2.343 -17.067  1.00  0.00     0.293 HD
ENDBRANCH  15  22
TORSDOF 3
ENDMDL
MODEL 9
REMARK VINA RESULT:    -6.240      1.969      2.554
REMARK INTER + INTRA:          -6.787
REMARK INTER:                  -6.787
REMARK INTRA:                   0.000
REMARK UNBOUND:                 0.000
REMARK SMILES Cc1cc(O)c2c(c1)C(=O)c1cc(O)cc(O)c1C2=O
REMARK SMILES IDX 1 1 2 2 8 3 7 4 6 5 4 6 3 7 19 8 20 9 18 10 11 11 9 12 10 13
REMARK SMILES IDX 12 14 13 15 15 16 16 17 5 18 17 20 14 22
REMARK H PARENT 5 19 17 21 14 23
REMARK Flexibility Score: inf
ROOT
ATOM      1  C   UNL     1       4.125   7.467 -26.552  1.00  0.00     0.044 C 
ATOM      2  C   UNL     1       3.613   6.635 -25.412  1.00  0.00    -0.047 A 
ATOM      3  C   UNL     1       3.095   5.357 -25.650  1.00  0.00     0.016 A 
ATOM      4  C   UNL     1       2.578   4.585 -24.595  1.00  0.00     0.038 A 
ATOM      5  C   UNL     1       2.574   5.103 -23.283  1.00  0.00     0.076 A 
ATOM      6  C   UNL     1       3.074   6.405 -23.051  1.00  0.00     0.127 A 
ATOM      7  C   UNL     1       3.584   7.160 -24.115  1.00  0.00     0.050 A 
ATOM      8  C   UNL     1       2.062   4.258 -22.172  1.00  0.00     0.201 C 
ATOM      9  O   UNL     1       2.378   4.538 -20.984  1.00  0.00    -0.288 OA
ATOM     10  C   UNL     1       1.281   3.025 -22.469  1.00  0.00     0.076 A 
ATOM     11  C   UNL     1       1.344   2.488 -23.775  1.00  0.00     0.041 A 
ATOM     12  C   UNL     1       2.038   3.231 -24.854  1.00  0.00     0.194 C 
ATOM     13  O   UNL     1       2.153   2.717 -26.001  1.00  0.00    -0.289 OA
ATOM     14  C   UNL     1       0.740   1.249 -24.053  1.00  0.00     0.059 A 
ATOM     15  C   UNL     1       0.062   0.549 -23.052  1.00  0.00     0.120 A 
ATOM     16  C   UNL     1      -0.044   1.097 -21.776  1.00  0.00     0.093 A 
ATOM     17  C   UNL     1       0.524   2.340 -21.479  1.00  0.00     0.131 A 
ENDROOT
BRANCH   6  18
ATOM     18  O   UNL     1       3.056   6.957 -21.770  1.00  0.00    -0.507 OA
ATOM     19  H   UNL     1       2.299   6.775 -21.121  1.00  0.00     0.293 HD
ENDBRANCH   6  18
BRANCH  17  20
ATOM     20  O   UNL     1       0.279   2.865 -20.207  1.00  0.00    -0.507 OA
ATOM     21  H   UNL     1       0.452   3.828 -19.956  1.00  0.00     0.293 HD
ENDBRANCH  17  20
BRANCH  15  22
ATOM     22  O   UNL     1      -0.523  -0.686 -23.321  1.00  0.00    -0.508 OA
ATOM     23  H   UNL     1      -0.522  -1.082 -24.253  1.00  0.00     0.293 HD
ENDBRANCH  15  22
TORSDOF 3
ENDMDL
