MODEL 1
REMARK VINA RESULT:    -6.367      0.000      0.000
REMARK INTER + INTRA:         -10.182
REMARK INTER:                  -8.973
REMARK INTRA:                  -1.209
REMARK UNBOUND:                -1.209
REMARK SMILES C[C@H](CO)CCC(=O)[C@@H](C)[C@H]1C(=O)C[C@H]2[C@@H]3CC=C4C[C@@H](O)CC[C@]4(C)[C@@H]3CC[C@@]12C
REMARK SMILES IDX 6 1 5 2 2 3 1 4 3 5 4 6 7 8 8 9 9 10 10 11 11 12 12 13 30 14
REMARK SMILES IDX 13 15 14 16 15 17 29 18 31 19 16 20 28 21 27 22 17 23 25 24
REMARK SMILES IDX 18 25 19 26 24 27 26 28 20 29 23 30 21 31 22 32
REMARK H PARENT 4 7 22 33
REMARK Flexibility Score: inf
ROOT
ATOM      1  C   UNL     1     174.224 175.580 182.473  1.00  0.00     0.076 C 
ENDROOT
BRANCH   1   2
ATOM      2  C   UNL     1     173.284 176.324 181.509  1.00  0.00     0.013 C 
BRANCH   2   3
ATOM      3  C   UNL     1     173.113 175.639 180.131  1.00  0.00     0.012 C 
ATOM      4  C   UNL     1     173.351 174.123 180.208  1.00  0.00     0.010 C 
BRANCH   3   5
ATOM      5  C   UNL     1     174.044 176.280 179.082  1.00  0.00     0.159 C 
BRANCH   5   6
ATOM      6  O   UNL     1     174.490 177.546 179.498  1.00  0.00    -0.396 OA
ATOM      7  H   UNL     1     175.367 177.700 179.056  1.00  0.00     0.210 HD
ENDBRANCH   5   6
ENDBRANCH   3   5
ENDBRANCH   2   3
ENDBRANCH   1   2
BRANCH   1   8
ATOM      8  C   UNL     1     175.484 176.361 182.748  1.00  0.00     0.136 C 
ATOM      9  O   UNL     1     175.612 177.475 182.260  1.00  0.00    -0.299 OA
BRANCH   8  10
ATOM     10  C   UNL     1     176.596 175.760 183.585  1.00  0.00     0.064 C 
ATOM     11  C   UNL     1     176.032 174.859 184.701  1.00  0.00     0.017 C 
BRANCH  10  12
ATOM     12  C   UNL     1     177.767 175.175 182.718  1.00  0.00     0.072 C 
ATOM     13  C   UNL     1     179.007 174.920 183.514  1.00  0.00     0.137 C 
ATOM     14  C   UNL     1     177.601 173.864 181.864  1.00  0.00    -0.019 C 
ATOM     15  O   UNL     1     179.405 175.658 184.402  1.00  0.00    -0.299 OA
ATOM     16  C   UNL     1     179.763 173.729 183.069  1.00  0.00     0.080 C 
ATOM     17  C   UNL     1     179.077 173.341 181.751  1.00  0.00     0.007 C 
ATOM     18  C   UNL     1     176.719 172.799 182.568  1.00  0.00     0.008 C 
ATOM     19  C   UNL     1     177.012 174.223 180.474  1.00  0.00     0.012 C 
ATOM     20  C   UNL     1     179.290 171.835 181.404  1.00  0.00     0.001 C 
ATOM     21  C   UNL     1     176.877 171.377 182.010  1.00  0.00     0.005 C 
ATOM     22  C   UNL     1     178.334 170.883 182.169  1.00  0.00     0.003 C 
ATOM     23  C   UNL     1     179.232 171.598 179.884  1.00  0.00     0.031 C 
ATOM     24  C   UNL     1     178.602 169.362 181.801  1.00  0.00    -0.008 C 
ATOM     25  C   UNL     1     179.279 170.151 179.502  1.00  0.00    -0.027 C 
ATOM     26  C   UNL     1     178.866 169.151 180.306  1.00  0.00    -0.065 C 
ATOM     27  C   UNL     1     177.407 168.448 182.224  1.00  0.00     0.014 C 
ATOM     28  C   UNL     1     179.873 168.905 182.575  1.00  0.00     0.016 C 
ATOM     29  C   UNL     1     178.913 167.730 179.769  1.00  0.00     0.063 C 
ATOM     30  C   UNL     1     177.546 166.989 181.764  1.00  0.00     0.033 C 
ATOM     31  C   UNL     1     177.702 166.915 180.238  1.00  0.00     0.118 C 
BRANCH  31  32
ATOM     32  O   UNL     1     177.865 165.580 179.837  1.00  0.00    -0.393 OA
ATOM     33  H   UNL     1     177.029 165.104 180.082  1.00  0.00     0.210 HD
ENDBRANCH  31  32
ENDBRANCH  10  12
ENDBRANCH   8  10
ENDBRANCH   1   8
TORSDOF 8
ENDMDL
MODEL 2
REMARK VINA RESULT:    -6.045      6.794     10.938
REMARK INTER + INTRA:          -9.727
REMARK INTER:                  -9.227
REMARK INTRA:                  -0.500
REMARK UNBOUND:                -1.209
REMARK SMILES C[C@H](CO)CCC(=O)[C@@H](C)[C@H]1C(=O)C[C@H]2[C@@H]3CC=C4C[C@@H](O)CC[C@]4(C)[C@@H]3CC[C@@]12C
REMARK SMILES IDX 6 1 5 2 2 3 1 4 3 5 4 6 7 8 8 9 9 10 10 11 11 12 12 13 30 14
REMARK SMILES IDX 13 15 14 16 15 17 29 18 31 19 16 20 28 21 27 22 17 23 25 24
REMARK SMILES IDX 18 25 19 26 24 27 26 28 20 29 23 30 21 31 22 32
REMARK H PARENT 4 7 22 33
REMARK Flexibility Score: inf
ROOT
ATOM      1  C   UNL     1     164.504 176.052 181.847  1.00  0.00     0.076 C 
ENDROOT
BRANCH   1   2
ATOM      2  C   UNL     1     163.467 177.149 182.145  1.00  0.00     0.013 C 
BRANCH   2   3
ATOM      3  C   UNL     1     162.070 176.888 181.530  1.00  0.00     0.012 C 
ATOM      4  C   UNL     1     161.177 176.056 182.463  1.00  0.00     0.010 C 
BRANCH   3   5
ATOM      5  C   UNL     1     162.197 176.207 180.152  1.00  0.00     0.159 C 
BRANCH   5   6
ATOM      6  O   UNL     1     161.299 176.759 179.223  1.00  0.00    -0.396 OA
ATOM      7  H   UNL     1     161.680 176.590 178.321  1.00  0.00     0.210 HD
ENDBRANCH   5   6
ENDBRANCH   3   5
ENDBRANCH   2   3
ENDBRANCH   1   2
BRANCH   1   8
ATOM      8  C   UNL     1     165.578 175.988 182.902  1.00  0.00     0.136 C 
ATOM      9  O   UNL     1     166.039 174.901 183.218  1.00  0.00    -0.299 OA
BRANCH   8  10
ATOM     10  C   UNL     1     166.052 177.250 183.595  1.00  0.00     0.064 C 
ATOM     11  C   UNL     1     166.693 176.932 184.960  1.00  0.00     0.017 C 
BRANCH  10  12
ATOM     12  C   UNL     1     166.847 178.212 182.641  1.00  0.00     0.072 C 
ATOM     13  C   UNL     1     167.236 179.494 183.303  1.00  0.00     0.137 C 
ATOM     14  C   UNL     1     168.163 177.761 181.906  1.00  0.00    -0.019 C 
ATOM     15  O   UNL     1     166.518 180.099 184.084  1.00  0.00    -0.299 OA
ATOM     16  C   UNL     1     168.547 180.017 182.857  1.00  0.00     0.080 C 
ATOM     17  C   UNL     1     168.899 179.125 181.659  1.00  0.00     0.007 C 
ATOM     18  C   UNL     1     169.050 176.835 182.781  1.00  0.00     0.008 C 
ATOM     19  C   UNL     1     167.795 177.057 180.573  1.00  0.00     0.012 C 
ATOM     20  C   UNL     1     170.437 179.082 181.395  1.00  0.00     0.001 C 
ATOM     21  C   UNL     1     170.507 176.725 182.309  1.00  0.00     0.005 C 
ATOM     22  C   UNL     1     171.197 178.108 182.331  1.00  0.00     0.003 C 
ATOM     23  C   UNL     1     170.743 178.803 179.912  1.00  0.00     0.031 C 
ATOM     24  C   UNL     1     172.759 178.116 182.042  1.00  0.00    -0.008 C 
ATOM     25  C   UNL     1     172.199 178.602 179.630  1.00  0.00    -0.027 C 
ATOM     26  C   UNL     1     173.084 178.158 180.544  1.00  0.00    -0.065 C 
ATOM     27  C   UNL     1     173.466 176.868 182.664  1.00  0.00     0.014 C 
ATOM     28  C   UNL     1     173.354 179.398 182.692  1.00  0.00     0.016 C 
ATOM     29  C   UNL     1     174.523 177.941 180.107  1.00  0.00     0.063 C 
ATOM     30  C   UNL     1     174.952 176.746 182.294  1.00  0.00     0.033 C 
ATOM     31  C   UNL     1     175.128 176.698 180.769  1.00  0.00     0.118 C 
BRANCH  31  32
ATOM     32  O   UNL     1     176.491 176.623 180.446  1.00  0.00    -0.393 OA
ATOM     33  H   UNL     1     176.714 175.660 180.363  1.00  0.00     0.210 HD
ENDBRANCH  31  32
ENDBRANCH  10  12
ENDBRANCH   8  10
ENDBRANCH   1   8
TORSDOF 8
ENDMDL
MODEL 3
REMARK VINA RESULT:    -5.920      6.053     10.604
REMARK INTER + INTRA:          -9.552
REMARK INTER:                  -8.745
REMARK INTRA:                  -0.807
REMARK UNBOUND:                -1.209
REMARK SMILES C[C@H](CO)CCC(=O)[C@@H](C)[C@H]1C(=O)C[C@H]2[C@@H]3CC=C4C[C@@H](O)CC[C@]4(C)[C@@H]3CC[C@@]12C
REMARK SMILES IDX 6 1 5 2 2 3 1 4 3 5 4 6 7 8 8 9 9 10 10 11 11 12 12 13 30 14
REMARK SMILES IDX 13 15 14 16 15 17 29 18 31 19 16 20 28 21 27 22 17 23 25 24
REMARK SMILES IDX 18 25 19 26 24 27 26 28 20 29 23 30 21 31 22 32
REMARK H PARENT 4 7 22 33
REMARK Flexibility Score: inf
ROOT
ATOM      1  C   UNL     1     176.784 167.074 182.364  1.00  0.00     0.076 C 
ENDROOT
BRANCH   1   2
ATOM      2  C   UNL     1     176.820 167.666 180.945  1.00  0.00     0.013 C 
BRANCH   2   3
ATOM      3  C   UNL     1     177.695 168.937 180.807  1.00  0.00     0.012 C 
ATOM      4  C   UNL     1     176.854 170.222 180.848  1.00  0.00     0.010 C 
BRANCH   3   5
ATOM      5  C   UNL     1     178.539 168.884 179.518  1.00  0.00     0.159 C 
BRANCH   5   6
ATOM      6  O   UNL     1     179.361 167.744 179.490  1.00  0.00    -0.396 OA
ATOM      7  H   UNL     1     178.814 167.005 179.115  1.00  0.00     0.210 HD
ENDBRANCH   5   6
ENDBRANCH   3   5
ENDBRANCH   2   3
ENDBRANCH   1   2
BRANCH   1   8
ATOM      8  C   UNL     1     177.879 166.061 182.580  1.00  0.00     0.136 C 
ATOM      9  O   UNL     1     178.958 166.225 182.030  1.00  0.00    -0.299 OA
BRANCH   8  10
ATOM     10  C   UNL     1     177.635 164.834 183.437  1.00  0.00     0.064 C 
ATOM     11  C   UNL     1     176.643 165.135 184.577  1.00  0.00     0.017 C 
BRANCH  10  12
ATOM     12  C   UNL     1     177.377 163.538 182.589  1.00  0.00     0.072 C 
ATOM     13  C   UNL     1     177.450 162.287 183.405  1.00  0.00     0.137 C 
ATOM     14  C   UNL     1     176.070 163.344 181.734  1.00  0.00    -0.019 C 
ATOM     15  O   UNL     1     178.263 162.108 184.299  1.00  0.00    -0.299 OA
ATOM     16  C   UNL     1     176.497 161.241 182.974  1.00  0.00     0.080 C 
ATOM     17  C   UNL     1     175.949 161.781 181.645  1.00  0.00     0.007 C 
ATOM     18  C   UNL     1     174.810 163.931 182.424  1.00  0.00     0.008 C 
ATOM     19  C   UNL     1     176.269 163.985 180.334  1.00  0.00     0.012 C 
ATOM     20  C   UNL     1     174.551 161.180 181.303  1.00  0.00     0.001 C 
ATOM     21  C   UNL     1     173.481 163.400 181.870  1.00  0.00     0.005 C 
ATOM     22  C   UNL     1     173.381 161.868 182.053  1.00  0.00     0.003 C 
ATOM     23  C   UNL     1     174.312 161.150 179.782  1.00  0.00     0.031 C 
ATOM     24  C   UNL     1     171.983 161.208 181.691  1.00  0.00    -0.008 C 
ATOM     25  C   UNL     1     172.929 160.723 179.402  1.00  0.00    -0.027 C 
ATOM     26  C   UNL     1     171.853 160.875 180.200  1.00  0.00    -0.065 C 
ATOM     27  C   UNL     1     170.789 162.132 182.096  1.00  0.00     0.014 C 
ATOM     28  C   UNL     1     171.869 159.875 182.485  1.00  0.00     0.016 C 
ATOM     29  C   UNL     1     170.494 160.453 179.666  1.00  0.00     0.063 C 
ATOM     30  C   UNL     1     169.417 161.611 181.639  1.00  0.00     0.033 C 
ATOM     31  C   UNL     1     169.392 161.418 180.116  1.00  0.00     0.118 C 
BRANCH  31  32
ATOM     32  O   UNL     1     168.146 160.908 179.719  1.00  0.00    -0.393 OA
ATOM     33  H   UNL     1     168.058 161.091 178.748  1.00  0.00     0.210 HD
ENDBRANCH  31  32
ENDBRANCH  10  12
ENDBRANCH   8  10
ENDBRANCH   1   8
TORSDOF 8
ENDMDL
MODEL 4
REMARK VINA RESULT:    -5.869      4.671     10.588
REMARK INTER + INTRA:          -9.479
REMARK INTER:                  -9.403
REMARK INTRA:                  -0.076
REMARK UNBOUND:                -1.209
REMARK SMILES C[C@H](CO)CCC(=O)[C@@H](C)[C@H]1C(=O)C[C@H]2[C@@H]3CC=C4C[C@@H](O)CC[C@]4(C)[C@@H]3CC[C@@]12C
REMARK SMILES IDX 6 1 5 2 2 3 1 4 3 5 4 6 7 8 8 9 9 10 10 11 11 12 12 13 30 14
REMARK SMILES IDX 13 15 14 16 15 17 29 18 31 19 16 20 28 21 27 22 17 23 25 24
REMARK SMILES IDX 18 25 19 26 24 27 26 28 20 29 23 30 21 31 22 32
REMARK H PARENT 4 7 22 33
REMARK Flexibility Score: inf
ROOT
ATOM      1  C   UNL     1     175.721 175.489 181.862  1.00  0.00     0.076 C 
ENDROOT
BRANCH   1   2
ATOM      2  C   UNL     1     177.248 175.334 181.954  1.00  0.00     0.013 C 
BRANCH   2   3
ATOM      3  C   UNL     1     177.762 174.912 183.353  1.00  0.00     0.012 C 
ATOM      4  C   UNL     1     177.016 175.639 184.483  1.00  0.00     0.010 C 
BRANCH   3   5
ATOM      5  C   UNL     1     179.282 175.144 183.471  1.00  0.00     0.159 C 
BRANCH   5   6
ATOM      6  O   UNL     1     179.597 175.906 184.608  1.00  0.00    -0.396 OA
ATOM      7  H   UNL     1     178.875 176.581 184.710  1.00  0.00     0.210 HD
ENDBRANCH   5   6
ENDBRANCH   3   5
ENDBRANCH   2   3
ENDBRANCH   1   2
BRANCH   1   8
ATOM      8  C   UNL     1     175.293 176.089 180.547  1.00  0.00     0.136 C 
ATOM      9  O   UNL     1     175.749 175.634 179.508  1.00  0.00    -0.299 OA
BRANCH   8  10
ATOM     10  C   UNL     1     174.342 177.269 180.512  1.00  0.00     0.064 C 
ATOM     11  C   UNL     1     173.541 177.303 179.197  1.00  0.00     0.017 C 
BRANCH  10  12
ATOM     12  C   UNL     1     173.532 177.443 181.846  1.00  0.00     0.072 C 
ATOM     13  C   UNL     1     173.515 178.855 182.335  1.00  0.00     0.137 C 
ATOM     14  C   UNL     1     172.031 176.988 181.978  1.00  0.00    -0.019 C 
ATOM     15  O   UNL     1     174.475 179.606 182.270  1.00  0.00    -0.299 OA
ATOM     16  C   UNL     1     172.244 179.241 182.990  1.00  0.00     0.080 C 
ATOM     17  C   UNL     1     171.497 177.907 183.133  1.00  0.00     0.007 C 
ATOM     18  C   UNL     1     171.213 177.240 180.684  1.00  0.00     0.008 C 
ATOM     19  C   UNL     1     171.979 175.487 182.369  1.00  0.00     0.012 C 
ATOM     20  C   UNL     1     169.953 178.113 183.243  1.00  0.00     0.001 C 
ATOM     21  C   UNL     1     169.691 177.232 180.886  1.00  0.00     0.005 C 
ATOM     22  C   UNL     1     169.262 178.341 181.873  1.00  0.00     0.003 C 
ATOM     23  C   UNL     1     169.291 176.968 184.030  1.00  0.00     0.031 C 
ATOM     24  C   UNL     1     167.699 178.568 182.037  1.00  0.00    -0.008 C 
ATOM     25  C   UNL     1     167.796 177.033 184.038  1.00  0.00    -0.027 C 
ATOM     26  C   UNL     1     167.068 177.629 183.072  1.00  0.00    -0.065 C 
ATOM     27  C   UNL     1     166.946 178.382 180.680  1.00  0.00     0.014 C 
ATOM     28  C   UNL     1     167.481 180.028 182.528  1.00  0.00     0.016 C 
ATOM     29  C   UNL     1     165.553 177.570 183.172  1.00  0.00     0.063 C 
ATOM     30  C   UNL     1     165.416 178.447 180.804  1.00  0.00     0.033 C 
ATOM     31  C   UNL     1     164.908 177.388 181.794  1.00  0.00     0.118 C 
BRANCH  31  32
ATOM     32  O   UNL     1     163.514 177.483 181.924  1.00  0.00    -0.393 OA
ATOM     33  H   UNL     1     163.136 176.627 181.593  1.00  0.00     0.210 HD
ENDBRANCH  31  32
ENDBRANCH  10  12
ENDBRANCH   8  10
ENDBRANCH   1   8
TORSDOF 8
ENDMDL
MODEL 5
REMARK VINA RESULT:    -5.835     14.041     18.087
REMARK INTER + INTRA:          -9.431
REMARK INTER:                  -8.658
REMARK INTRA:                  -0.773
REMARK UNBOUND:                -1.209
REMARK SMILES C[C@H](CO)CCC(=O)[C@@H](C)[C@H]1C(=O)C[C@H]2[C@@H]3CC=C4C[C@@H](O)CC[C@]4(C)[C@@H]3CC[C@@]12C
REMARK SMILES IDX 6 1 5 2 2 3 1 4 3 5 4 6 7 8 8 9 9 10 10 11 11 12 12 13 30 14
REMARK SMILES IDX 13 15 14 16 15 17 29 18 31 19 16 20 28 21 27 22 17 23 25 24
REMARK SMILES IDX 18 25 19 26 24 27 26 28 20 29 23 30 21 31 22 32
REMARK H PARENT 4 7 22 33
REMARK Flexibility Score: inf
ROOT
ATOM      1  C   UNL     1     164.692 161.081 183.035  1.00  0.00     0.076 C 
ENDROOT
BRANCH   1   2
ATOM      2  C   UNL     1     165.702 159.978 183.394  1.00  0.00     0.013 C 
BRANCH   2   3
ATOM      3  C   UNL     1     167.078 160.505 183.871  1.00  0.00     0.012 C 
ATOM      4  C   UNL     1     167.024 161.994 184.250  1.00  0.00     0.010 C 
BRANCH   3   5
ATOM      5  C   UNL     1     168.160 160.259 182.800  1.00  0.00     0.159 C 
BRANCH   5   6
ATOM      6  O   UNL     1     167.589 159.880 181.573  1.00  0.00    -0.396 OA
ATOM      7  H   UNL     1     167.143 160.688 181.203  1.00  0.00     0.210 HD
ENDBRANCH   5   6
ENDBRANCH   3   5
ENDBRANCH   2   3
ENDBRANCH   1   2
BRANCH   1   8
ATOM      8  C   UNL     1     163.980 160.794 181.738  1.00  0.00     0.136 C 
ATOM      9  O   UNL     1     164.593 160.249 180.830  1.00  0.00    -0.299 OA
BRANCH   8  10
ATOM     10  C   UNL     1     162.536 161.210 181.543  1.00  0.00     0.064 C 
ATOM     11  C   UNL     1     161.812 161.370 182.894  1.00  0.00     0.017 C 
BRANCH  10  12
ATOM     12  C   UNL     1     162.368 162.373 180.502  1.00  0.00     0.072 C 
ATOM     13  C   UNL     1     160.940 162.620 180.133  1.00  0.00     0.137 C 
ATOM     14  C   UNL     1     162.938 163.816 180.761  1.00  0.00    -0.019 C 
ATOM     15  O   UNL     1     160.117 161.732 179.979  1.00  0.00    -0.299 OA
ATOM     16  C   UNL     1     160.630 164.045 179.885  1.00  0.00     0.080 C 
ATOM     17  C   UNL     1     162.012 164.714 179.865  1.00  0.00     0.007 C 
ATOM     18  C   UNL     1     162.814 164.251 182.245  1.00  0.00     0.008 C 
ATOM     19  C   UNL     1     164.418 163.878 180.299  1.00  0.00     0.012 C 
ATOM     20  C   UNL     1     161.930 166.235 180.202  1.00  0.00     0.001 C 
ATOM     21  C   UNL     1     162.938 165.764 182.473  1.00  0.00     0.005 C 
ATOM     22  C   UNL     1     161.822 166.526 181.722  1.00  0.00     0.003 C 
ATOM     23  C   UNL     1     163.088 167.016 179.554  1.00  0.00     0.031 C 
ATOM     24  C   UNL     1     161.718 168.083 182.014  1.00  0.00    -0.008 C 
ATOM     25  C   UNL     1     163.144 168.454 179.966  1.00  0.00    -0.027 C 
ATOM     26  C   UNL     1     162.656 168.917 181.134  1.00  0.00    -0.065 C 
ATOM     27  C   UNL     1     162.027 168.409 183.511  1.00  0.00     0.014 C 
ATOM     28  C   UNL     1     160.259 168.527 181.703  1.00  0.00     0.016 C 
ATOM     29  C   UNL     1     162.834 170.392 181.455  1.00  0.00     0.063 C 
ATOM     30  C   UNL     1     162.083 169.913 183.822  1.00  0.00     0.033 C 
ATOM     31  C   UNL     1     163.133 170.608 182.942  1.00  0.00     0.118 C 
BRANCH  31  32
ATOM     32  O   UNL     1     163.147 171.986 183.211  1.00  0.00    -0.393 OA
ATOM     33  H   UNL     1     162.873 172.443 182.375  1.00  0.00     0.210 HD
ENDBRANCH  31  32
ENDBRANCH  10  12
ENDBRANCH   8  10
ENDBRANCH   1   8
TORSDOF 8
ENDMDL
MODEL 6
REMARK VINA RESULT:    -5.789     16.261     19.097
REMARK INTER + INTRA:          -9.367
REMARK INTER:                  -8.473
REMARK INTRA:                  -0.894
REMARK UNBOUND:                -1.209
REMARK SMILES C[C@H](CO)CCC(=O)[C@@H](C)[C@H]1C(=O)C[C@H]2[C@@H]3CC=C4C[C@@H](O)CC[C@]4(C)[C@@H]3CC[C@@]12C
REMARK SMILES IDX 6 1 5 2 2 3 1 4 3 5 4 6 7 8 8 9 9 10 10 11 11 12 12 13 30 14
REMARK SMILES IDX 13 15 14 16 15 17 29 18 31 19 16 20 28 21 27 22 17 23 25 24
REMARK SMILES IDX 18 25 19 26 24 27 26 28 20 29 23 30 21 31 22 32
REMARK H PARENT 4 7 22 33
REMARK Flexibility Score: inf
ROOT
ATOM      1  C   UNL     1     162.752 163.558 182.739  1.00  0.00     0.076 C 
ENDROOT
BRANCH   1   2
ATOM      2  C   UNL     1     163.980 163.257 183.615  1.00  0.00     0.013 C 
BRANCH   2   3
ATOM      3  C   UNL     1     165.337 163.578 182.942  1.00  0.00     0.012 C 
ATOM      4  C   UNL     1     165.156 164.197 181.548  1.00  0.00     0.010 C 
BRANCH   3   5
ATOM      5  C   UNL     1     166.222 162.318 182.864  1.00  0.00     0.159 C 
BRANCH   5   6
ATOM      6  O   UNL     1     165.492 161.159 183.182  1.00  0.00    -0.396 OA
ATOM      7  H   UNL     1     165.995 160.694 183.902  1.00  0.00     0.210 HD
ENDBRANCH   5   6
ENDBRANCH   3   5
ENDBRANCH   2   3
ENDBRANCH   1   2
BRANCH   1   8
ATOM      8  C   UNL     1     161.846 162.362 182.606  1.00  0.00     0.136 C 
ATOM      9  O   UNL     1     161.253 161.952 183.594  1.00  0.00    -0.299 OA
BRANCH   8  10
ATOM     10  C   UNL     1     161.700 161.649 181.276  1.00  0.00     0.064 C 
ATOM     11  C   UNL     1     160.235 161.649 180.799  1.00  0.00     0.017 C 
BRANCH  10  12
ATOM     12  C   UNL     1     162.792 162.075 180.230  1.00  0.00     0.072 C 
ATOM     13  C   UNL     1     163.788 160.994 179.959  1.00  0.00     0.137 C 
ATOM     14  C   UNL     1     162.416 162.599 178.795  1.00  0.00    -0.019 C 
ATOM     15  O   UNL     1     164.229 160.248 180.819  1.00  0.00    -0.299 OA
ATOM     16  C   UNL     1     164.261 160.962 178.557  1.00  0.00     0.080 C 
ATOM     17  C   UNL     1     163.702 162.262 177.961  1.00  0.00     0.007 C 
ATOM     18  C   UNL     1     161.189 161.865 178.192  1.00  0.00     0.008 C 
ATOM     19  C   UNL     1     162.156 164.128 178.856  1.00  0.00     0.012 C 
ATOM     20  C   UNL     1     163.560 162.178 176.409  1.00  0.00     0.001 C 
ATOM     21  C   UNL     1     161.049 162.013 176.670  1.00  0.00     0.005 C 
ATOM     22  C   UNL     1     162.283 161.429 175.945  1.00  0.00     0.003 C 
ATOM     23  C   UNL     1     163.669 163.571 175.762  1.00  0.00     0.031 C 
ATOM     24  C   UNL     1     162.194 161.349 174.362  1.00  0.00    -0.008 C 
ATOM     25  C   UNL     1     163.390 163.570 174.291  1.00  0.00    -0.027 C 
ATOM     26  C   UNL     1     162.613 162.655 173.677  1.00  0.00    -0.065 C 
ATOM     27  C   UNL     1     160.750 160.984 173.885  1.00  0.00     0.014 C 
ATOM     28  C   UNL     1     163.169 160.233 173.888  1.00  0.00     0.016 C 
ATOM     29  C   UNL     1     162.363 162.807 172.186  1.00  0.00     0.063 C 
ATOM     30  C   UNL     1     160.568 161.034 172.360  1.00  0.00     0.033 C 
ATOM     31  C   UNL     1     160.924 162.426 171.818  1.00  0.00     0.118 C 
BRANCH  31  32
ATOM     32  O   UNL     1     160.787 162.445 170.422  1.00  0.00    -0.393 OA
ATOM     33  H   UNL     1     160.335 163.297 170.190  1.00  0.00     0.210 HD
ENDBRANCH  31  32
ENDBRANCH  10  12
ENDBRANCH   8  10
ENDBRANCH   1   8
TORSDOF 8
ENDMDL
MODEL 7
REMARK VINA RESULT:    -5.745     15.190     18.456
REMARK INTER + INTRA:          -9.305
REMARK INTER:                  -8.370
REMARK INTRA:                  -0.934
REMARK UNBOUND:                -1.209
REMARK SMILES C[C@H](CO)CCC(=O)[C@@H](C)[C@H]1C(=O)C[C@H]2[C@@H]3CC=C4C[C@@H](O)CC[C@]4(C)[C@@H]3CC[C@@]12C
REMARK SMILES IDX 6 1 5 2 2 3 1 4 3 5 4 6 7 8 8 9 9 10 10 11 11 12 12 13 30 14
REMARK SMILES IDX 13 15 14 16 15 17 29 18 31 19 16 20 28 21 27 22 17 23 25 24
REMARK SMILES IDX 18 25 19 26 24 27 26 28 20 29 23 30 21 31 22 32
REMARK H PARENT 4 7 22 33
REMARK Flexibility Score: inf
ROOT
ATOM      1  C   UNL     1     163.695 161.457 178.864  1.00  0.00     0.076 C 
ENDROOT
BRANCH   1   2
ATOM      2  C   UNL     1     163.973 162.216 177.555  1.00  0.00     0.013 C 
BRANCH   2   3
ATOM      3  C   UNL     1     162.708 162.796 176.875  1.00  0.00     0.012 C 
ATOM      4  C   UNL     1     161.417 162.210 177.466  1.00  0.00     0.010 C 
BRANCH   3   5
ATOM      5  C   UNL     1     162.755 162.572 175.350  1.00  0.00     0.159 C 
BRANCH   5   6
ATOM      6  O   UNL     1     162.855 161.206 175.036  1.00  0.00    -0.396 OA
ATOM      7  H   UNL     1     161.927 160.851 175.003  1.00  0.00     0.210 HD
ENDBRANCH   5   6
ENDBRANCH   3   5
ENDBRANCH   2   3
ENDBRANCH   1   2
BRANCH   1   8
ATOM      8  C   UNL     1     163.926 162.321 180.077  1.00  0.00     0.136 C 
ATOM      9  O   UNL     1     164.962 162.965 180.161  1.00  0.00    -0.299 OA
BRANCH   8  10
ATOM     10  C   UNL     1     162.908 162.362 181.199  1.00  0.00     0.064 C 
ATOM     11  C   UNL     1     163.595 162.462 182.575  1.00  0.00     0.017 C 
BRANCH  10  12
ATOM     12  C   UNL     1     161.726 163.356 180.918  1.00  0.00     0.072 C 
ATOM     13  C   UNL     1     160.569 163.158 181.843  1.00  0.00     0.137 C 
ATOM     14  C   UNL     1     161.929 164.916 180.909  1.00  0.00    -0.019 C 
ATOM     15  O   UNL     1     160.180 162.063 182.217  1.00  0.00    -0.299 OA
ATOM     16  C   UNL     1     159.875 164.415 182.203  1.00  0.00     0.080 C 
ATOM     17  C   UNL     1     160.492 165.450 181.250  1.00  0.00     0.007 C 
ATOM     18  C   UNL     1     162.937 165.395 181.987  1.00  0.00     0.008 C 
ATOM     19  C   UNL     1     162.389 165.370 179.498  1.00  0.00     0.012 C 
ATOM     20  C   UNL     1     160.370 166.902 181.808  1.00  0.00     0.001 C 
ATOM     21  C   UNL     1     162.848 166.891 182.318  1.00  0.00     0.005 C 
ATOM     22  C   UNL     1     161.448 167.250 182.867  1.00  0.00     0.003 C 
ATOM     23  C   UNL     1     160.337 167.937 180.669  1.00  0.00     0.031 C 
ATOM     24  C   UNL     1     161.269 168.727 183.421  1.00  0.00    -0.008 C 
ATOM     25  C   UNL     1     160.373 169.355 181.148  1.00  0.00    -0.027 C 
ATOM     26  C   UNL     1     160.917 169.735 182.321  1.00  0.00    -0.065 C 
ATOM     27  C   UNL     1     162.558 169.227 184.152  1.00  0.00     0.014 C 
ATOM     28  C   UNL     1     160.096 168.712 184.442  1.00  0.00     0.016 C 
ATOM     29  C   UNL     1     160.940 171.217 182.658  1.00  0.00     0.063 C 
ATOM     30  C   UNL     1     162.497 170.700 184.583  1.00  0.00     0.033 C 
ATOM     31  C   UNL     1     162.239 171.608 183.371  1.00  0.00     0.118 C 
BRANCH  31  32
ATOM     32  O   UNL     1     162.150 172.946 183.785  1.00  0.00    -0.393 OA
ATOM     33  H   UNL     1     161.885 172.933 184.741  1.00  0.00     0.210 HD
ENDBRANCH  31  32
ENDBRANCH  10  12
ENDBRANCH   8  10
ENDBRANCH   1   8
TORSDOF 8
ENDMDL
MODEL 8
REMARK VINA RESULT:    -5.665     14.536     16.519
REMARK INTER + INTRA:          -9.192
REMARK INTER:                  -9.279
REMARK INTRA:                   0.087
REMARK UNBOUND:                -1.209
REMARK SMILES C[C@H](CO)CCC(=O)[C@@H](C)[C@H]1C(=O)C[C@H]2[C@@H]3CC=C4C[C@@H](O)CC[C@]4(C)[C@@H]3CC[C@@]12C
REMARK SMILES IDX 6 1 5 2 2 3 1 4 3 5 4 6 7 8 8 9 9 10 10 11 11 12 12 13 30 14
REMARK SMILES IDX 13 15 14 16 15 17 29 18 31 19 16 20 28 21 27 22 17 23 25 24
REMARK SMILES IDX 18 25 19 26 24 27 26 28 20 29 23 30 21 31 22 32
REMARK H PARENT 4 7 22 33
REMARK Flexibility Score: inf
ROOT
ATOM      1  C   UNL     1     161.997 173.079 182.729  1.00  0.00     0.076 C 
ENDROOT
BRANCH   1   2
ATOM      2  C   UNL     1     161.712 174.282 181.814  1.00  0.00     0.013 C 
BRANCH   2   3
ATOM      3  C   UNL     1     161.455 175.610 182.569  1.00  0.00     0.012 C 
ATOM      4  C   UNL     1     160.309 175.483 183.584  1.00  0.00     0.010 C 
BRANCH   3   5
ATOM      5  C   UNL     1     161.176 176.758 181.578  1.00  0.00     0.159 C 
BRANCH   5   6
ATOM      6  O   UNL     1     162.037 177.847 181.799  1.00  0.00    -0.396 OA
ATOM      7  H   UNL     1     161.468 178.608 182.089  1.00  0.00     0.210 HD
ENDBRANCH   5   6
ENDBRANCH   3   5
ENDBRANCH   2   3
ENDBRANCH   1   2
BRANCH   1   8
ATOM      8  C   UNL     1     160.963 171.994 182.572  1.00  0.00     0.136 C 
ATOM      9  O   UNL     1     159.921 172.244 181.984  1.00  0.00    -0.299 OA
BRANCH   8  10
ATOM     10  C   UNL     1     161.192 170.620 183.170  1.00  0.00     0.064 C 
ATOM     11  C   UNL     1     159.877 170.010 183.691  1.00  0.00     0.017 C 
BRANCH  10  12
ATOM     12  C   UNL     1     162.098 169.704 182.272  1.00  0.00     0.072 C 
ATOM     13  C   UNL     1     163.377 169.316 182.943  1.00  0.00     0.137 C 
ATOM     14  C   UNL     1     161.575 168.351 181.663  1.00  0.00    -0.019 C 
ATOM     15  O   UNL     1     164.028 170.071 183.647  1.00  0.00    -0.299 OA
ATOM     16  C   UNL     1     163.833 167.950 182.604  1.00  0.00     0.080 C 
ATOM     17  C   UNL     1     162.901 167.535 181.457  1.00  0.00     0.007 C 
ATOM     18  C   UNL     1     160.631 167.585 182.628  1.00  0.00     0.008 C 
ATOM     19  C   UNL     1     160.859 168.633 180.316  1.00  0.00     0.012 C 
ATOM     20  C   UNL     1     162.786 165.984 181.330  1.00  0.00     0.001 C 
ATOM     21  C   UNL     1     160.448 166.099 182.288  1.00  0.00     0.005 C 
ATOM     22  C   UNL     1     161.800 165.352 182.346  1.00  0.00     0.003 C 
ATOM     23  C   UNL     1     162.462 165.564 179.884  1.00  0.00     0.031 C 
ATOM     24  C   UNL     1     161.735 163.772 182.194  1.00  0.00    -0.008 C 
ATOM     25  C   UNL     1     162.192 164.099 179.734  1.00  0.00    -0.027 C 
ATOM     26  C   UNL     1     161.731 163.317 180.730  1.00  0.00    -0.065 C 
ATOM     27  C   UNL     1     160.472 163.179 182.898  1.00  0.00     0.014 C 
ATOM     28  C   UNL     1     163.004 163.178 182.871  1.00  0.00     0.016 C 
ATOM     29  C   UNL     1     161.443 161.856 180.424  1.00  0.00     0.063 C 
ATOM     30  C   UNL     1     160.278 161.673 182.662  1.00  0.00     0.033 C 
ATOM     31  C   UNL     1     160.189 161.368 181.159  1.00  0.00     0.118 C 
BRANCH  31  32
ATOM     32  O   UNL     1     160.049 159.986 180.958  1.00  0.00    -0.393 OA
ATOM     33  H   UNL     1     159.076 159.794 180.958  1.00  0.00     0.210 HD
ENDBRANCH  31  32
ENDBRANCH  10  12
ENDBRANCH   8  10
ENDBRANCH   1   8
TORSDOF 8
ENDMDL
MODEL 9
REMARK VINA RESULT:    -5.630      8.741     13.820
REMARK INTER + INTRA:          -9.142
REMARK INTER:                  -8.621
REMARK INTRA:                  -0.522
REMARK UNBOUND:                -1.209
REMARK SMILES C[C@H](CO)CCC(=O)[C@@H](C)[C@H]1C(=O)C[C@H]2[C@@H]3CC=C4C[C@@H](O)CC[C@]4(C)[C@@H]3CC[C@@]12C
REMARK SMILES IDX 6 1 5 2 2 3 1 4 3 5 4 6 7 8 8 9 9 10 10 11 11 12 12 13 30 14
REMARK SMILES IDX 13 15 14 16 15 17 29 18 31 19 16 20 28 21 27 22 17 23 25 24
REMARK SMILES IDX 18 25 19 26 24 27 26 28 20 29 23 30 21 31 22 32
REMARK H PARENT 4 7 22 33
REMARK Flexibility Score: inf
ROOT
ATOM      1  C   UNL     1     177.232 162.804 178.994  1.00  0.00     0.076 C 
ENDROOT
BRANCH   1   2
ATOM      2  C   UNL     1     176.590 162.875 180.390  1.00  0.00     0.013 C 
BRANCH   2   3
ATOM      3  C   UNL     1     177.522 163.435 181.492  1.00  0.00     0.012 C 
ATOM      4  C   UNL     1     177.121 162.939 182.891  1.00  0.00     0.010 C 
BRANCH   3   5
ATOM      5  C   UNL     1     177.552 164.976 181.453  1.00  0.00     0.159 C 
BRANCH   5   6
ATOM      6  O   UNL     1     178.667 165.449 180.739  1.00  0.00    -0.396 OA
ATOM      7  H   UNL     1     179.153 166.069 181.345  1.00  0.00     0.210 HD
ENDBRANCH   5   6
ENDBRANCH   3   5
ENDBRANCH   2   3
ENDBRANCH   1   2
BRANCH   1   8
ATOM      8  C   UNL     1     176.460 163.603 177.976  1.00  0.00     0.136 C 
ATOM      9  O   UNL     1     176.773 164.766 177.769  1.00  0.00    -0.299 OA
BRANCH   8  10
ATOM     10  C   UNL     1     175.282 162.987 177.246  1.00  0.00     0.064 C 
ATOM     11  C   UNL     1     174.406 164.068 176.585  1.00  0.00     0.017 C 
BRANCH  10  12
ATOM     12  C   UNL     1     175.687 161.756 176.359  1.00  0.00     0.072 C 
ATOM     13  C   UNL     1     174.507 161.052 175.770  1.00  0.00     0.137 C 
ATOM     14  C   UNL     1     176.682 161.889 175.147  1.00  0.00    -0.019 C 
ATOM     15  O   UNL     1     173.458 160.874 176.367  1.00  0.00    -0.299 OA
ATOM     16  C   UNL     1     174.756 160.511 174.415  1.00  0.00     0.080 C 
ATOM     17  C   UNL     1     176.272 160.679 174.235  1.00  0.00     0.007 C 
ATOM     18  C   UNL     1     176.501 163.219 174.368  1.00  0.00     0.008 C 
ATOM     19  C   UNL     1     178.141 161.754 175.658  1.00  0.00     0.012 C 
ATOM     20  C   UNL     1     176.678 160.734 172.729  1.00  0.00     0.001 C 
ATOM     21  C   UNL     1     177.111 163.215 172.959  1.00  0.00     0.005 C 
ATOM     22  C   UNL     1     176.457 162.125 172.080  1.00  0.00     0.003 C 
ATOM     23  C   UNL     1     178.118 160.230 172.520  1.00  0.00     0.031 C 
ATOM     24  C   UNL     1     176.862 162.126 170.545  1.00  0.00    -0.008 C 
ATOM     25  C   UNL     1     178.613 160.401 171.118  1.00  0.00    -0.027 C 
ATOM     26  C   UNL     1     178.151 161.343 170.271  1.00  0.00    -0.065 C 
ATOM     27  C   UNL     1     177.042 163.579 169.999  1.00  0.00     0.014 C 
ATOM     28  C   UNL     1     175.713 161.438 169.752  1.00  0.00     0.016 C 
ATOM     29  C   UNL     1     178.785 161.446 168.893  1.00  0.00     0.063 C 
ATOM     30  C   UNL     1     177.574 163.641 168.558  1.00  0.00     0.033 C 
ATOM     31  C   UNL     1     178.918 162.906 168.447  1.00  0.00     0.118 C 
BRANCH  31  32
ATOM     32  O   UNL     1     179.373 162.940 167.120  1.00  0.00    -0.393 OA
ATOM     33  H   UNL     1     180.194 162.384 167.084  1.00  0.00     0.210 HD
ENDBRANCH  31  32
ENDBRANCH  10  12
ENDBRANCH   8  10
ENDBRANCH   1   8
TORSDOF 8
ENDMDL
