MODEL 1
REMARK VINA RESULT:    -7.645      0.000      0.000
REMARK INTER + INTRA:         -11.514
REMARK INTER:                 -10.550
REMARK INTRA:                  -0.964
REMARK UNBOUND:                -0.964
REMARK SMILES O=C([O-])[C@H]1O[C@@H](Oc2cc3oc(-c4ccccc4)cc(=O)c3c(O)c2O)[C@@H](O)[C@@H](O)[C@H]1O
REMARK SMILES IDX 7 1 6 2 4 3 31 4 5 5 29 6 27 7 2 8 1 9 3 10 32 11 30 13
REMARK SMILES IDX 28 15 8 17 25 18 9 19 23 20 10 21 22 22 11 23 20 24 12 25
REMARK SMILES IDX 19 26 21 27 26 28 24 30 13 32 14 33 18 34 15 35 17 36 16 37
REMARK H PARENT 32 12 30 14 28 16 26 29 24 31
REMARK Flexibility Score: inf
ROOT
ATOM      1  O   UNL     1     -15.076 -28.743  10.791  1.00  0.00    -0.458 OA
ENDROOT
BRANCH   1   2
ATOM      2  C   UNL     1     -15.982 -29.836  10.562  1.00  0.00     0.339 C 
ATOM      3  C   UNL     1     -16.602 -32.008  11.240  1.00  0.00     0.199 C 
ATOM      4  C   UNL     1     -17.398 -32.195   9.876  1.00  0.00     0.180 C 
ATOM      5  O   UNL     1     -15.604 -30.991  11.266  1.00  0.00    -0.328 OA
ATOM      6  C   UNL     1     -17.349 -30.994   8.876  1.00  0.00     0.181 C 
ATOM      7  C   UNL     1     -16.087 -30.151   9.074  1.00  0.00     0.214 C 
BRANCH   3   8
ATOM      8  C   UNL     1     -15.900 -33.291  11.598  1.00  0.00     0.073 C 
ATOM      9  O   UNL     1     -14.822 -33.616  11.022  1.00  0.00    -0.547 OA
ATOM     10  O   UNL     1     -14.716 -33.686  10.981  1.00  0.00    -0.547 OA
ENDBRANCH   3   8
BRANCH   4  11
ATOM     11  O   UNL     1     -17.067 -33.405   9.207  1.00  0.00    -0.387 OA
ATOM     12  H   UNL     1     -16.507 -33.944   9.831  1.00  0.00     0.211 HD
ENDBRANCH   4  11
BRANCH   6  13
ATOM     13  O   UNL     1     -17.434 -31.448   7.544  1.00  0.00    -0.387 OA
ATOM     14  H   UNL     1     -16.775 -30.912   7.018  1.00  0.00     0.211 HD
ENDBRANCH   6  13
BRANCH   7  15
ATOM     15  O   UNL     1     -14.956 -30.840   8.610  1.00  0.00    -0.384 OA
ATOM     16  H   UNL     1     -14.167 -30.344   8.972  1.00  0.00     0.211 HD
ENDBRANCH   7  15
ENDBRANCH   1   2
BRANCH   1  17
ATOM     17  C   UNL     1     -15.331 -27.354  10.872  1.00  0.00     0.172 A 
ATOM     18  C   UNL     1     -15.238 -26.755  12.137  1.00  0.00     0.201 A 
ATOM     19  C   UNL     1     -15.615 -26.557   9.757  1.00  0.00     0.098 A 
ATOM     20  C   UNL     1     -15.425 -25.359  12.294  1.00  0.00     0.176 A 
ATOM     21  C   UNL     1     -15.746 -25.169   9.887  1.00  0.00     0.146 A 
ATOM     22  C   UNL     1     -15.640 -24.545  11.152  1.00  0.00     0.111 A 
ATOM     23  O   UNL     1     -15.973 -24.452   8.786  1.00  0.00    -0.456 OA
ATOM     24  C   UNL     1     -15.717 -23.130  11.160  1.00  0.00     0.197 A 
ATOM     25  C   UNL     1     -16.066 -23.127   8.776  1.00  0.00     0.138 A 
ATOM     26  C   UNL     1     -15.911 -22.430   9.973  1.00  0.00     0.100 A 
ATOM     27  O   UNL     1     -15.647 -22.458  12.225  1.00  0.00    -0.289 OA
BRANCH  18  28
ATOM     28  O   UNL     1     -15.019 -27.576  13.246  1.00  0.00    -0.502 OA
ATOM     29  H   UNL     1     -15.767 -28.051  13.726  1.00  0.00     0.293 HD
ENDBRANCH  18  28
BRANCH  20  30
ATOM     30  O   UNL     1     -15.387 -24.865  13.598  1.00  0.00    -0.504 OA
ATOM     31  H   UNL     1     -15.336 -25.425  14.425  1.00  0.00     0.293 HD
ENDBRANCH  20  30
BRANCH  25  32
ATOM     32  C   UNL     1     -16.318 -22.442   7.481  1.00  0.00     0.017 A 
ATOM     33  C   UNL     1     -15.226 -22.026   6.699  1.00  0.00     0.012 A 
ATOM     34  C   UNL     1     -17.626 -22.232   6.994  1.00  0.00     0.012 A 
ATOM     35  C   UNL     1     -15.434 -21.438   5.445  1.00  0.00     0.001 A 
ATOM     36  C   UNL     1     -17.826 -21.629   5.753  1.00  0.00     0.001 A 
ATOM     37  C   UNL     1     -16.736 -21.244   4.972  1.00  0.00     0.000 A 
ENDBRANCH  25  32
ENDBRANCH   1  17
TORSDOF 9
ENDMDL
MODEL 2
REMARK VINA RESULT:    -7.553      1.543      2.267
REMARK INTER + INTRA:         -11.387
REMARK INTER:                 -10.197
REMARK INTRA:                  -1.190
REMARK UNBOUND:                -0.964
REMARK SMILES O=C([O-])[C@H]1O[C@@H](Oc2cc3oc(-c4ccccc4)cc(=O)c3c(O)c2O)[C@@H](O)[C@@H](O)[C@H]1O
REMARK SMILES IDX 7 1 6 2 4 3 31 4 5 5 29 6 27 7 2 8 1 9 3 10 32 11 30 13
REMARK SMILES IDX 28 15 8 17 25 18 9 19 23 20 10 21 22 22 11 23 20 24 12 25
REMARK SMILES IDX 19 26 21 27 26 28 24 30 13 32 14 33 18 34 15 35 17 36 16 37
REMARK H PARENT 32 12 30 14 28 16 26 29 24 31
REMARK Flexibility Score: inf
ROOT
ATOM      1  O   UNL     1     -17.465 -28.499   9.190  1.00  0.00    -0.458 OA
ENDROOT
BRANCH   1   2
ATOM      2  C   UNL     1     -16.614 -29.589   8.800  1.00  0.00     0.339 C 
ATOM      3  C   UNL     1     -16.224 -31.906   9.000  1.00  0.00     0.199 C 
ATOM      4  C   UNL     1     -14.739 -31.693   8.472  1.00  0.00     0.180 C 
ATOM      5  O   UNL     1     -16.891 -30.761   9.523  1.00  0.00    -0.328 OA
ATOM      6  C   UNL     1     -14.325 -30.219   8.152  1.00  0.00     0.181 C 
ATOM      7  C   UNL     1     -15.144 -29.216   8.967  1.00  0.00     0.214 C 
BRANCH   3   8
ATOM      8  C   UNL     1     -16.227 -32.932  10.104  1.00  0.00     0.073 C 
ATOM      9  O   UNL     1     -16.108 -34.162   9.837  1.00  0.00    -0.547 OA
ATOM     10  O   UNL     1     -16.105 -34.295   9.849  1.00  0.00    -0.547 OA
ENDBRANCH   3   8
BRANCH   4  11
ATOM     11  O   UNL     1     -13.765 -32.306   9.305  1.00  0.00    -0.387 OA
ATOM     12  H   UNL     1     -13.254 -31.576   9.750  1.00  0.00     0.211 HD
ENDBRANCH   4  11
BRANCH   6  13
ATOM     13  O   UNL     1     -12.947 -30.026   8.376  1.00  0.00    -0.387 OA
ATOM     14  H   UNL     1     -12.861 -29.203   8.936  1.00  0.00     0.211 HD
ENDBRANCH   6  13
BRANCH   7  15
ATOM     15  O   UNL     1     -14.755 -29.242  10.315  1.00  0.00    -0.384 OA
ATOM     16  H   UNL     1     -14.667 -28.286  10.592  1.00  0.00     0.211 HD
ENDBRANCH   7  15
ENDBRANCH   1   2
BRANCH   1  17
ATOM     17  C   UNL     1     -17.152 -27.139   9.421  1.00  0.00     0.172 A 
ATOM     18  C   UNL     1     -16.967 -26.739  10.753  1.00  0.00     0.201 A 
ATOM     19  C   UNL     1     -16.970 -26.206   8.394  1.00  0.00     0.098 A 
ATOM     20  C   UNL     1     -16.597 -25.406  11.065  1.00  0.00     0.176 A 
ATOM     21  C   UNL     1     -16.549 -24.902   8.682  1.00  0.00     0.146 A 
ATOM     22  C   UNL     1     -16.342 -24.484  10.017  1.00  0.00     0.111 A 
ATOM     23  O   UNL     1     -16.349 -24.066   7.663  1.00  0.00    -0.456 OA
ATOM     24  C   UNL     1     -15.848 -23.167  10.191  1.00  0.00     0.197 A 
ATOM     25  C   UNL     1     -15.903 -22.823   7.806  1.00  0.00     0.138 A 
ATOM     26  C   UNL     1     -15.616 -22.352   9.086  1.00  0.00     0.100 A 
ATOM     27  O   UNL     1     -15.634 -22.673  11.331  1.00  0.00    -0.289 OA
BRANCH  18  28
ATOM     28  O   UNL     1     -17.216 -27.667  11.766  1.00  0.00    -0.502 OA
ATOM     29  H   UNL     1     -17.775 -28.492  11.621  1.00  0.00     0.293 HD
ENDBRANCH  18  28
BRANCH  20  30
ATOM     30  O   UNL     1     -16.507 -25.081  12.418  1.00  0.00    -0.504 OA
ATOM     31  H   UNL     1     -17.031 -25.517  13.150  1.00  0.00     0.293 HD
ENDBRANCH  20  30
BRANCH  25  32
ATOM     32  C   UNL     1     -15.717 -21.988   6.590  1.00  0.00     0.017 A 
ATOM     33  C   UNL     1     -16.842 -21.608   5.838  1.00  0.00     0.012 A 
ATOM     34  C   UNL     1     -14.443 -21.532   6.190  1.00  0.00     0.012 A 
ATOM     35  C   UNL     1     -16.703 -20.768   4.727  1.00  0.00     0.001 A 
ATOM     36  C   UNL     1     -14.309 -20.711   5.071  1.00  0.00     0.001 A 
ATOM     37  C   UNL     1     -15.435 -20.316   4.347  1.00  0.00     0.000 A 
ENDBRANCH  25  32
ENDBRANCH   1  17
TORSDOF 9
ENDMDL
MODEL 3
REMARK VINA RESULT:    -7.369     15.947     17.408
REMARK INTER + INTRA:         -11.133
REMARK INTER:                 -10.153
REMARK INTRA:                  -0.980
REMARK UNBOUND:                -0.964
REMARK SMILES O=C([O-])[C@H]1O[C@@H](Oc2cc3oc(-c4ccccc4)cc(=O)c3c(O)c2O)[C@@H](O)[C@@H](O)[C@H]1O
REMARK SMILES IDX 7 1 6 2 4 3 31 4 5 5 29 6 27 7 2 8 1 9 3 10 32 11 30 13
REMARK SMILES IDX 28 15 8 17 25 18 9 19 23 20 10 21 22 22 11 23 20 24 12 25
REMARK SMILES IDX 19 26 21 27 26 28 24 30 13 32 14 33 18 34 15 35 17 36 16 37
REMARK H PARENT 32 12 30 14 28 16 26 29 24 31
REMARK Flexibility Score: inf
ROOT
ATOM      1  O   UNL     1       1.310 -26.895   7.254  1.00  0.00    -0.458 OA
ENDROOT
BRANCH   1   2
ATOM      2  C   UNL     1       0.605 -27.267   8.450  1.00  0.00     0.339 C 
ATOM      3  C   UNL     1      -1.406 -27.040   9.660  1.00  0.00     0.199 C 
ATOM      4  C   UNL     1      -0.667 -27.559  10.968  1.00  0.00     0.180 C 
ATOM      5  O   UNL     1      -0.581 -26.534   8.614  1.00  0.00    -0.328 OA
ATOM      6  C   UNL     1       0.853 -27.891  10.817  1.00  0.00     0.181 C 
ATOM      7  C   UNL     1       1.492 -27.093   9.679  1.00  0.00     0.214 C 
BRANCH   3   8
ATOM      8  C   UNL     1      -2.353 -25.926  10.021  1.00  0.00     0.073 C 
ATOM      9  O   UNL     1      -3.468 -26.180  10.562  1.00  0.00    -0.547 OA
ATOM     10  O   UNL     1      -3.591 -26.167  10.611  1.00  0.00    -0.547 OA
ENDBRANCH   3   8
BRANCH   4  11
ATOM     11  O   UNL     1      -0.875 -26.713  12.091  1.00  0.00    -0.387 OA
ATOM     12  H   UNL     1       0.009 -26.587  12.534  1.00  0.00     0.211 HD
ENDBRANCH   4  11
BRANCH   6  13
ATOM     13  O   UNL     1       1.540 -27.660  12.027  1.00  0.00    -0.387 OA
ATOM     14  H   UNL     1       1.580 -28.536  12.504  1.00  0.00     0.211 HD
ENDBRANCH   6  13
BRANCH   7  15
ATOM     15  O   UNL     1       1.620 -25.742  10.036  1.00  0.00    -0.384 OA
ATOM     16  H   UNL     1       0.688 -25.400  10.148  1.00  0.00     0.211 HD
ENDBRANCH   7  15
ENDBRANCH   1   2
BRANCH   1  17
ATOM     17  C   UNL     1       1.136 -27.339   5.922  1.00  0.00     0.172 A 
ATOM     18  C   UNL     1       1.505 -28.661   5.630  1.00  0.00     0.201 A 
ATOM     19  C   UNL     1       0.573 -26.548   4.914  1.00  0.00     0.098 A 
ATOM     20  C   UNL     1       1.311 -29.198   4.332  1.00  0.00     0.176 A 
ATOM     21  C   UNL     1       0.322 -27.081   3.644  1.00  0.00     0.146 A 
ATOM     22  C   UNL     1       0.673 -28.416   3.336  1.00  0.00     0.111 A 
ATOM     23  O   UNL     1      -0.256 -26.296   2.735  1.00  0.00    -0.456 OA
ATOM     24  C   UNL     1       0.310 -28.876   2.045  1.00  0.00     0.197 A 
ATOM     25  C   UNL     1      -0.588 -26.703   1.515  1.00  0.00     0.138 A 
ATOM     26  C   UNL     1      -0.333 -28.024   1.151  1.00  0.00     0.100 A 
ATOM     27  O   UNL     1       0.577 -30.042   1.646  1.00  0.00    -0.289 OA
BRANCH  18  28
ATOM     28  O   UNL     1       2.125 -29.413   6.630  1.00  0.00    -0.502 OA
ATOM     29  H   UNL     1       2.314 -29.045   7.548  1.00  0.00     0.293 HD
ENDBRANCH  18  28
BRANCH  20  30
ATOM     30  O   UNL     1       1.775 -30.495   4.117  1.00  0.00    -0.504 OA
ATOM     31  H   UNL     1       2.445 -30.759   3.422  1.00  0.00     0.293 HD
ENDBRANCH  20  30
BRANCH  25  32
ATOM     32  C   UNL     1      -1.232 -25.733   0.591  1.00  0.00     0.017 A 
ATOM     33  C   UNL     1      -0.636 -24.476   0.390  1.00  0.00     0.012 A 
ATOM     34  C   UNL     1      -2.406 -26.054  -0.123  1.00  0.00     0.012 A 
ATOM     35  C   UNL     1      -1.185 -23.568  -0.524  1.00  0.00     0.001 A 
ATOM     36  C   UNL     1      -2.958 -25.138  -1.018  1.00  0.00     0.001 A 
ATOM     37  C   UNL     1      -2.344 -23.903  -1.231  1.00  0.00     0.000 A 
ENDBRANCH  25  32
ENDBRANCH   1  17
TORSDOF 9
ENDMDL
MODEL 4
REMARK VINA RESULT:    -7.260     14.859     16.437
REMARK INTER + INTRA:         -10.983
REMARK INTER:                  -9.917
REMARK INTRA:                  -1.066
REMARK UNBOUND:                -0.964
REMARK SMILES O=C([O-])[C@H]1O[C@@H](Oc2cc3oc(-c4ccccc4)cc(=O)c3c(O)c2O)[C@@H](O)[C@@H](O)[C@H]1O
REMARK SMILES IDX 7 1 6 2 4 3 31 4 5 5 29 6 27 7 2 8 1 9 3 10 32 11 30 13
REMARK SMILES IDX 28 15 8 17 25 18 9 19 23 20 10 21 22 22 11 23 20 24 12 25
REMARK SMILES IDX 19 26 21 27 26 28 24 30 13 32 14 33 18 34 15 35 17 36 16 37
REMARK H PARENT 32 12 30 14 28 16 26 29 24 31
REMARK Flexibility Score: inf
ROOT
ATOM      1  O   UNL     1      -1.162 -27.471  10.073  1.00  0.00    -0.458 OA
ENDROOT
BRANCH   1   2
ATOM      2  C   UNL     1      -1.641 -26.216  10.583  1.00  0.00     0.339 C 
ATOM      3  C   UNL     1      -1.587 -24.722  12.406  1.00  0.00     0.199 C 
ATOM      4  C   UNL     1      -2.894 -24.008  11.848  1.00  0.00     0.180 C 
ATOM      5  O   UNL     1      -1.329 -26.044  11.941  1.00  0.00    -0.328 OA
ATOM      6  C   UNL     1      -3.502 -24.607  10.539  1.00  0.00     0.181 C 
ATOM      7  C   UNL     1      -3.148 -26.087  10.380  1.00  0.00     0.214 C 
BRANCH   3   8
ATOM      8  C   UNL     1      -1.663 -24.815  13.908  1.00  0.00     0.073 C 
ATOM      9  O   UNL     1      -1.414 -23.805  14.627  1.00  0.00    -0.547 OA
ATOM     10  O   UNL     1      -1.389 -23.728  14.733  1.00  0.00    -0.547 OA
ENDBRANCH   3   8
BRANCH   4  11
ATOM     11  O   UNL     1      -3.905 -23.860  12.836  1.00  0.00    -0.387 OA
ATOM     12  H   UNL     1      -3.467 -23.499  13.655  1.00  0.00     0.211 HD
ENDBRANCH   4  11
BRANCH   6  13
ATOM     13  O   UNL     1      -4.901 -24.431  10.509  1.00  0.00    -0.387 OA
ATOM     14  H   UNL     1      -5.295 -25.187  11.028  1.00  0.00     0.211 HD
ENDBRANCH   6  13
BRANCH   7  15
ATOM     15  O   UNL     1      -3.861 -26.866  11.303  1.00  0.00    -0.384 OA
ATOM     16  H   UNL     1      -4.818 -26.592  11.212  1.00  0.00     0.211 HD
ENDBRANCH   7  15
ENDBRANCH   1   2
BRANCH   1  17
ATOM     17  C   UNL     1      -0.519 -27.769   8.848  1.00  0.00     0.172 A 
ATOM     18  C   UNL     1       0.462 -28.772   8.863  1.00  0.00     0.201 A 
ATOM     19  C   UNL     1      -0.850 -27.153   7.636  1.00  0.00     0.098 A 
ATOM     20  C   UNL     1       1.114 -29.166   7.667  1.00  0.00     0.176 A 
ATOM     21  C   UNL     1      -0.256 -27.570   6.438  1.00  0.00     0.146 A 
ATOM     22  C   UNL     1       0.723 -28.591   6.431  1.00  0.00     0.111 A 
ATOM     23  O   UNL     1      -0.639 -26.980   5.307  1.00  0.00    -0.456 OA
ATOM     24  C   UNL     1       1.205 -28.985   5.158  1.00  0.00     0.197 A 
ATOM     25  C   UNL     1      -0.186 -27.323   4.106  1.00  0.00     0.138 A 
ATOM     26  C   UNL     1       0.736 -28.363   4.005  1.00  0.00     0.100 A 
ATOM     27  O   UNL     1       2.087 -29.876   5.019  1.00  0.00    -0.289 OA
BRANCH  18  28
ATOM     28  O   UNL     1       0.824 -29.328  10.092  1.00  0.00    -0.502 OA
ATOM     29  H   UNL     1       1.764 -29.630  10.295  1.00  0.00     0.293 HD
ENDBRANCH  18  28
BRANCH  20  30
ATOM     30  O   UNL     1       2.125 -30.118   7.791  1.00  0.00    -0.504 OA
ATOM     31  H   UNL     1       3.008 -30.084   7.323  1.00  0.00     0.293 HD
ENDBRANCH  20  30
BRANCH  25  32
ATOM     32  C   UNL     1      -0.694 -26.590   2.917  1.00  0.00     0.017 A 
ATOM     33  C   UNL     1      -1.353 -27.302   1.899  1.00  0.00     0.012 A 
ATOM     34  C   UNL     1      -0.570 -25.189   2.799  1.00  0.00     0.012 A 
ATOM     35  C   UNL     1      -1.899 -26.628   0.800  1.00  0.00     0.001 A 
ATOM     36  C   UNL     1      -1.101 -24.526   1.693  1.00  0.00     0.001 A 
ATOM     37  C   UNL     1      -1.776 -25.239   0.702  1.00  0.00     0.000 A 
ENDBRANCH  25  32
ENDBRANCH   1  17
TORSDOF 9
ENDMDL
MODEL 5
REMARK VINA RESULT:    -7.183     15.469     17.271
REMARK INTER + INTRA:         -10.877
REMARK INTER:                  -9.789
REMARK INTRA:                  -1.088
REMARK UNBOUND:                -0.964
REMARK SMILES O=C([O-])[C@H]1O[C@@H](Oc2cc3oc(-c4ccccc4)cc(=O)c3c(O)c2O)[C@@H](O)[C@@H](O)[C@H]1O
REMARK SMILES IDX 7 1 6 2 4 3 31 4 5 5 29 6 27 7 2 8 1 9 3 10 32 11 30 13
REMARK SMILES IDX 28 15 8 17 25 18 9 19 23 20 10 21 22 22 11 23 20 24 12 25
REMARK SMILES IDX 19 26 21 27 26 28 24 30 13 32 14 33 18 34 15 35 17 36 16 37
REMARK H PARENT 32 12 30 14 28 16 26 29 24 31
REMARK Flexibility Score: inf
ROOT
ATOM      1  O   UNL     1      -0.249 -28.027   4.972  1.00  0.00    -0.458 OA
ENDROOT
BRANCH   1   2
ATOM      2  C   UNL     1      -0.472 -26.884   4.130  1.00  0.00     0.339 C 
ATOM      3  C   UNL     1      -1.663 -26.055   2.271  1.00  0.00     0.199 C 
ATOM      4  C   UNL     1      -0.625 -24.857   2.152  1.00  0.00     0.180 C 
ATOM      5  O   UNL     1      -1.236 -27.205   2.996  1.00  0.00    -0.328 OA
ATOM      6  C   UNL     1       0.544 -24.850   3.190  1.00  0.00     0.181 C 
ATOM      7  C   UNL     1       0.851 -26.260   3.699  1.00  0.00     0.214 C 
BRANCH   3   8
ATOM      8  C   UNL     1      -2.034 -26.543   0.895  1.00  0.00     0.073 C 
ATOM      9  O   UNL     1      -2.679 -25.799   0.102  1.00  0.00    -0.547 OA
ATOM     10  O   UNL     1      -2.749 -25.756  -0.003  1.00  0.00    -0.547 OA
ENDBRANCH   3   8
BRANCH   4  11
ATOM     11  O   UNL     1      -0.114 -24.700   0.836  1.00  0.00    -0.387 OA
ATOM     12  H   UNL     1      -0.374 -25.511   0.319  1.00  0.00     0.211 HD
ENDBRANCH   4  11
BRANCH   6  13
ATOM     13  O   UNL     1       1.701 -24.264   2.638  1.00  0.00    -0.387 OA
ATOM     14  H   UNL     1       1.388 -23.572   1.988  1.00  0.00     0.211 HD
ENDBRANCH   6  13
BRANCH   7  15
ATOM     15  O   UNL     1       1.478 -27.019   2.700  1.00  0.00    -0.384 OA
ATOM     16  H   UNL     1       1.456 -26.456   1.874  1.00  0.00     0.211 HD
ENDBRANCH   7  15
ENDBRANCH   1   2
BRANCH   1  17
ATOM     17  C   UNL     1      -0.128 -28.108   6.380  1.00  0.00     0.172 A 
ATOM     18  C   UNL     1       0.788 -29.037   6.895  1.00  0.00     0.201 A 
ATOM     19  C   UNL     1      -0.833 -27.281   7.262  1.00  0.00     0.098 A 
ATOM     20  C   UNL     1       1.007 -29.141   8.292  1.00  0.00     0.176 A 
ATOM     21  C   UNL     1      -0.587 -27.332   8.639  1.00  0.00     0.146 A 
ATOM     22  C   UNL     1       0.345 -28.251   9.176  1.00  0.00     0.111 A 
ATOM     23  O   UNL     1      -1.255 -26.492   9.429  1.00  0.00    -0.456 OA
ATOM     24  C   UNL     1       0.569 -28.169  10.573  1.00  0.00     0.197 A 
ATOM     25  C   UNL     1      -1.071 -26.412  10.743  1.00  0.00     0.138 A 
ATOM     26  C   UNL     1      -0.125 -27.240  11.344  1.00  0.00     0.100 A 
ATOM     27  O   UNL     1       1.367 -28.940  11.172  1.00  0.00    -0.289 OA
BRANCH  18  28
ATOM     28  O   UNL     1       1.433 -29.898   6.005  1.00  0.00    -0.502 OA
ATOM     29  H   UNL     1       0.995 -30.728   5.638  1.00  0.00     0.293 HD
ENDBRANCH  18  28
BRANCH  20  30
ATOM     30  O   UNL     1       1.881 -30.141   8.716  1.00  0.00    -0.504 OA
ATOM     31  H   UNL     1       1.724 -30.752   9.492  1.00  0.00     0.293 HD
ENDBRANCH  20  30
BRANCH  25  32
ATOM     32  C   UNL     1      -1.875 -25.430  11.516  1.00  0.00     0.017 A 
ATOM     33  C   UNL     1      -1.395 -24.970  12.755  1.00  0.00     0.012 A 
ATOM     34  C   UNL     1      -3.091 -24.912  11.021  1.00  0.00     0.012 A 
ATOM     35  C   UNL     1      -2.100 -23.996  13.472  1.00  0.00     0.001 A 
ATOM     36  C   UNL     1      -3.798 -23.955  11.749  1.00  0.00     0.001 A 
ATOM     37  C   UNL     1      -3.299 -23.486  12.965  1.00  0.00     0.000 A 
ENDBRANCH  25  32
ENDBRANCH   1  17
TORSDOF 9
ENDMDL
MODEL 6
REMARK VINA RESULT:    -6.938     15.872     17.307
REMARK INTER + INTRA:         -10.539
REMARK INTER:                  -9.736
REMARK INTRA:                  -0.802
REMARK UNBOUND:                -0.964
REMARK SMILES O=C([O-])[C@H]1O[C@@H](Oc2cc3oc(-c4ccccc4)cc(=O)c3c(O)c2O)[C@@H](O)[C@@H](O)[C@H]1O
REMARK SMILES IDX 7 1 6 2 4 3 31 4 5 5 29 6 27 7 2 8 1 9 3 10 32 11 30 13
REMARK SMILES IDX 28 15 8 17 25 18 9 19 23 20 10 21 22 22 11 23 20 24 12 25
REMARK SMILES IDX 19 26 21 27 26 28 24 30 13 32 14 33 18 34 15 35 17 36 16 37
REMARK H PARENT 32 12 30 14 28 16 26 29 24 31
REMARK Flexibility Score: inf
ROOT
ATOM      1  O   UNL     1      -0.406 -27.032  10.820  1.00  0.00    -0.458 OA
ENDROOT
BRANCH   1   2
ATOM      2  C   UNL     1       0.384 -26.643  11.956  1.00  0.00     0.339 C 
ATOM      3  C   UNL     1       1.274 -27.342  14.025  1.00  0.00     0.199 C 
ATOM      4  C   UNL     1       1.519 -25.822  14.423  1.00  0.00     0.180 C 
ATOM      5  O   UNL     1       0.325 -27.590  12.991  1.00  0.00    -0.328 OA
ATOM      6  C   UNL     1       1.070 -24.753  13.374  1.00  0.00     0.181 C 
ATOM      7  C   UNL     1      -0.055 -25.279  12.481  1.00  0.00     0.214 C 
BRANCH   3   8
ATOM      8  C   UNL     1       0.790 -28.109  15.228  1.00  0.00     0.073 C 
ATOM      9  O   UNL     1      -0.352 -27.880  15.719  1.00  0.00    -0.547 OA
ATOM     10  O   UNL     1      -0.458 -27.880  15.801  1.00  0.00    -0.547 OA
ENDBRANCH   3   8
BRANCH   4  11
ATOM     11  O   UNL     1       1.001 -25.499  15.706  1.00  0.00    -0.387 OA
ATOM     12  H   UNL     1       0.007 -25.491  15.630  1.00  0.00     0.211 HD
ENDBRANCH   4  11
BRANCH   6  13
ATOM     13  O   UNL     1       0.673 -23.560  14.013  1.00  0.00    -0.387 OA
ATOM     14  H   UNL     1       0.263 -22.982  13.309  1.00  0.00     0.211 HD
ENDBRANCH   6  13
BRANCH   7  15
ATOM     15  O   UNL     1      -1.256 -25.366  13.200  1.00  0.00    -0.384 OA
ATOM     16  H   UNL     1      -1.629 -24.439  13.222  1.00  0.00     0.211 HD
ENDBRANCH   7  15
ENDBRANCH   1   2
BRANCH   1  17
ATOM     17  C   UNL     1       0.001 -27.472   9.538  1.00  0.00     0.172 A 
ATOM     18  C   UNL     1       0.833 -28.600   9.479  1.00  0.00     0.201 A 
ATOM     19  C   UNL     1      -0.426 -26.873   8.348  1.00  0.00     0.098 A 
ATOM     20  C   UNL     1       1.240 -29.136   8.231  1.00  0.00     0.176 A 
ATOM     21  C   UNL     1      -0.080 -27.424   7.108  1.00  0.00     0.146 A 
ATOM     22  C   UNL     1       0.745 -28.570   7.028  1.00  0.00     0.111 A 
ATOM     23  O   UNL     1      -0.550 -26.838   6.006  1.00  0.00    -0.456 OA
ATOM     24  C   UNL     1       0.974 -29.086   5.728  1.00  0.00     0.197 A 
ATOM     25  C   UNL     1      -0.332 -27.297   4.779  1.00  0.00     0.138 A 
ATOM     26  C   UNL     1       0.421 -28.458   4.615  1.00  0.00     0.100 A 
ATOM     27  O   UNL     1       1.700 -30.095   5.523  1.00  0.00    -0.289 OA
BRANCH  18  28
ATOM     28  O   UNL     1       1.301 -29.144  10.677  1.00  0.00    -0.502 OA
ATOM     29  H   UNL     1       1.730 -30.054  10.729  1.00  0.00     0.293 HD
ENDBRANCH  18  28
BRANCH  20  30
ATOM     30  O   UNL     1       2.125 -30.212   8.271  1.00  0.00    -0.504 OA
ATOM     31  H   UNL     1       2.772 -30.453   7.547  1.00  0.00     0.293 HD
ENDBRANCH  20  30
BRANCH  25  32
ATOM     32  C   UNL     1      -0.914 -26.556   3.629  1.00  0.00     0.017 A 
ATOM     33  C   UNL     1      -0.674 -25.176   3.507  1.00  0.00     0.012 A 
ATOM     34  C   UNL     1      -1.669 -27.208   2.631  1.00  0.00     0.012 A 
ATOM     35  C   UNL     1      -1.154 -24.467   2.399  1.00  0.00     0.001 A 
ATOM     36  C   UNL     1      -2.160 -26.492   1.539  1.00  0.00     0.001 A 
ATOM     37  C   UNL     1      -1.893 -25.128   1.413  1.00  0.00     0.000 A 
ENDBRANCH  25  32
ENDBRANCH   1  17
TORSDOF 9
ENDMDL
MODEL 7
REMARK VINA RESULT:    -6.828     15.876     17.448
REMARK INTER + INTRA:         -10.387
REMARK INTER:                  -9.286
REMARK INTRA:                  -1.100
REMARK UNBOUND:                -0.964
REMARK SMILES O=C([O-])[C@H]1O[C@@H](Oc2cc3oc(-c4ccccc4)cc(=O)c3c(O)c2O)[C@@H](O)[C@@H](O)[C@H]1O
REMARK SMILES IDX 7 1 6 2 4 3 31 4 5 5 29 6 27 7 2 8 1 9 3 10 32 11 30 13
REMARK SMILES IDX 28 15 8 17 25 18 9 19 23 20 10 21 22 22 11 23 20 24 12 25
REMARK SMILES IDX 19 26 21 27 26 28 24 30 13 32 14 33 18 34 15 35 17 36 16 37
REMARK H PARENT 32 12 30 14 28 16 26 29 24 31
REMARK Flexibility Score: inf
ROOT
ATOM      1  O   UNL     1       1.737 -25.935  13.425  1.00  0.00    -0.458 OA
ENDROOT
BRANCH   1   2
ATOM      2  C   UNL     1       0.822 -25.295  14.330  1.00  0.00     0.339 C 
ATOM      3  C   UNL     1      -0.409 -25.536  16.327  1.00  0.00     0.199 C 
ATOM      4  C   UNL     1      -1.323 -24.307  15.901  1.00  0.00     0.180 C 
ATOM      5  O   UNL     1       0.315 -26.189  15.288  1.00  0.00    -0.328 OA
ATOM      6  C   UNL     1      -1.001 -23.653  14.518  1.00  0.00     0.181 C 
ATOM      7  C   UNL     1      -0.331 -24.649  13.568  1.00  0.00     0.214 C 
BRANCH   3   8
ATOM      8  C   UNL     1      -1.258 -26.598  16.976  1.00  0.00     0.073 C 
ATOM      9  O   UNL     1      -1.928 -26.338  18.016  1.00  0.00    -0.547 OA
ATOM     10  O   UNL     1      -2.004 -26.352  18.125  1.00  0.00    -0.547 OA
ENDBRANCH   3   8
BRANCH   4  11
ATOM     11  O   UNL     1      -2.712 -24.594  15.996  1.00  0.00    -0.387 OA
ATOM     12  H   UNL     1      -2.822 -25.574  15.849  1.00  0.00     0.211 HD
ENDBRANCH   4  11
BRANCH   6  13
ATOM     13  O   UNL     1      -2.167 -23.122  13.930  1.00  0.00    -0.387 OA
ATOM     14  H   UNL     1      -2.277 -23.580  13.050  1.00  0.00     0.211 HD
ENDBRANCH   6  13
BRANCH   7  15
ATOM     15  O   UNL     1      -1.257 -25.605  13.124  1.00  0.00    -0.384 OA
ATOM     16  H   UNL     1      -2.076 -25.472  13.681  1.00  0.00     0.211 HD
ENDBRANCH   7  15
ENDBRANCH   1   2
BRANCH   1  17
ATOM     17  C   UNL     1       1.531 -27.018  12.539  1.00  0.00     0.172 A 
ATOM     18  C   UNL     1       1.506 -28.307  13.093  1.00  0.00     0.201 A 
ATOM     19  C   UNL     1       1.302 -26.858  11.168  1.00  0.00     0.098 A 
ATOM     20  C   UNL     1       1.251 -29.441  12.280  1.00  0.00     0.176 A 
ATOM     21  C   UNL     1       0.992 -27.961  10.363  1.00  0.00     0.146 A 
ATOM     22  C   UNL     1       0.947 -29.266  10.906  1.00  0.00     0.111 A 
ATOM     23  O   UNL     1       0.741 -27.747   9.072  1.00  0.00    -0.456 OA
ATOM     24  C   UNL     1       0.553 -30.299  10.019  1.00  0.00     0.197 A 
ATOM     25  C   UNL     1       0.387 -28.704   8.221  1.00  0.00     0.138 A 
ATOM     26  C   UNL     1       0.259 -30.010   8.689  1.00  0.00     0.100 A 
ATOM     27  O   UNL     1       0.485 -31.506  10.379  1.00  0.00    -0.289 OA
BRANCH  18  28
ATOM     28  O   UNL     1       1.801 -28.453  14.450  1.00  0.00    -0.502 OA
ATOM     29  H   UNL     1       1.787 -27.678  15.095  1.00  0.00     0.293 HD
ENDBRANCH  18  28
BRANCH  20  30
ATOM     30  O   UNL     1       1.318 -30.686  12.904  1.00  0.00    -0.504 OA
ATOM     31  H   UNL     1       0.971 -31.542  12.520  1.00  0.00     0.293 HD
ENDBRANCH  20  30
BRANCH  25  32
ATOM     32  C   UNL     1       0.129 -28.337   6.804  1.00  0.00     0.017 A 
ATOM     33  C   UNL     1       0.162 -29.338   5.817  1.00  0.00     0.012 A 
ATOM     34  C   UNL     1      -0.190 -27.015   6.425  1.00  0.00     0.012 A 
ATOM     35  C   UNL     1      -0.142 -29.032   4.485  1.00  0.00     0.001 A 
ATOM     36  C   UNL     1      -0.474 -26.714   5.093  1.00  0.00     0.001 A 
ATOM     37  C   UNL     1      -0.465 -27.719   4.126  1.00  0.00     0.000 A 
ENDBRANCH  25  32
ENDBRANCH   1  17
TORSDOF 9
ENDMDL
MODEL 8
REMARK VINA RESULT:    -6.765     16.221     17.519
REMARK INTER + INTRA:         -10.300
REMARK INTER:                  -9.596
REMARK INTRA:                  -0.704
REMARK UNBOUND:                -0.964
REMARK SMILES O=C([O-])[C@H]1O[C@@H](Oc2cc3oc(-c4ccccc4)cc(=O)c3c(O)c2O)[C@@H](O)[C@@H](O)[C@H]1O
REMARK SMILES IDX 7 1 6 2 4 3 31 4 5 5 29 6 27 7 2 8 1 9 3 10 32 11 30 13
REMARK SMILES IDX 28 15 8 17 25 18 9 19 23 20 10 21 22 22 11 23 20 24 12 25
REMARK SMILES IDX 19 26 21 27 26 28 24 30 13 32 14 33 18 34 15 35 17 36 16 37
REMARK H PARENT 32 12 30 14 28 16 26 29 24 31
REMARK Flexibility Score: inf
ROOT
ATOM      1  O   UNL     1      -0.226 -27.328   7.819  1.00  0.00    -0.458 OA
ENDROOT
BRANCH   1   2
ATOM      2  C   UNL     1       0.660 -27.455   8.944  1.00  0.00     0.339 C 
ATOM      3  C   UNL     1       1.398 -28.880  10.672  1.00  0.00     0.199 C 
ATOM      4  C   UNL     1       2.012 -27.625  11.431  1.00  0.00     0.180 C 
ATOM      5  O   UNL     1       0.396 -28.613   9.695  1.00  0.00    -0.328 OA
ATOM      6  C   UNL     1       1.813 -26.236  10.743  1.00  0.00     0.181 C 
ATOM      7  C   UNL     1       0.574 -26.227   9.844  1.00  0.00     0.214 C 
BRANCH   3   8
ATOM      8  C   UNL     1       0.770 -29.819  11.669  1.00  0.00     0.073 C 
ATOM      9  O   UNL     1       1.493 -30.533  12.422  1.00  0.00    -0.547 OA
ATOM     10  O   UNL     1       1.532 -30.625  12.510  1.00  0.00    -0.547 OA
ENDBRANCH   3   8
BRANCH   4  11
ATOM     11  O   UNL     1       1.616 -27.559  12.794  1.00  0.00    -0.387 OA
ATOM     12  H   UNL     1       1.250 -28.453  13.040  1.00  0.00     0.211 HD
ENDBRANCH   4  11
BRANCH   6  13
ATOM     13  O   UNL     1       1.730 -25.207  11.704  1.00  0.00    -0.387 OA
ATOM     14  H   UNL     1       2.643 -24.807  11.772  1.00  0.00     0.211 HD
ENDBRANCH   6  13
BRANCH   7  15
ATOM     15  O   UNL     1      -0.596 -26.234  10.617  1.00  0.00    -0.384 OA
ATOM     16  H   UNL     1      -1.155 -26.982  10.261  1.00  0.00     0.211 HD
ENDBRANCH   7  15
ENDBRANCH   1   2
BRANCH   1  17
ATOM     17  C   UNL     1      -0.011 -27.632   6.454  1.00  0.00     0.172 A 
ATOM     18  C   UNL     1       0.674 -28.820   6.160  1.00  0.00     0.201 A 
ATOM     19  C   UNL     1      -0.489 -26.840   5.405  1.00  0.00     0.098 A 
ATOM     20  C   UNL     1       0.882 -29.224   4.817  1.00  0.00     0.176 A 
ATOM     21  C   UNL     1      -0.342 -27.253   4.075  1.00  0.00     0.146 A 
ATOM     22  C   UNL     1       0.332 -28.456   3.759  1.00  0.00     0.111 A 
ATOM     23  O   UNL     1      -0.854 -26.481   3.116  1.00  0.00    -0.456 OA
ATOM     24  C   UNL     1       0.360 -28.815   2.388  1.00  0.00     0.197 A 
ATOM     25  C   UNL     1      -0.822 -26.792   1.825  1.00  0.00     0.138 A 
ATOM     26  C   UNL     1      -0.230 -27.991   1.433  1.00  0.00     0.100 A 
ATOM     27  O   UNL     1       0.939 -29.857   1.977  1.00  0.00    -0.289 OA
BRANCH  18  28
ATOM     28  O   UNL     1       1.200 -29.564   7.219  1.00  0.00    -0.502 OA
ATOM     29  H   UNL     1       2.177 -29.799   7.284  1.00  0.00     0.293 HD
ENDBRANCH  18  28
BRANCH  20  30
ATOM     30  O   UNL     1       1.635 -30.381   4.620  1.00  0.00    -0.504 OA
ATOM     31  H   UNL     1       1.464 -31.065   3.911  1.00  0.00     0.293 HD
ENDBRANCH  20  30
BRANCH  25  32
ATOM     32  C   UNL     1      -1.432 -25.849   0.850  1.00  0.00     0.017 A 
ATOM     33  C   UNL     1      -0.936 -24.537   0.760  1.00  0.00     0.012 A 
ATOM     34  C   UNL     1      -2.470 -26.248  -0.018  1.00  0.00     0.012 A 
ATOM     35  C   UNL     1      -1.448 -23.649  -0.194  1.00  0.00     0.001 A 
ATOM     36  C   UNL     1      -2.988 -25.353  -0.954  1.00  0.00     0.001 A 
ATOM     37  C   UNL     1      -2.471 -24.061  -1.054  1.00  0.00     0.000 A 
ENDBRANCH  25  32
ENDBRANCH   1  17
TORSDOF 9
ENDMDL
