MODEL 1
REMARK VINA RESULT:    -3.811      0.000      0.000
REMARK INTER + INTRA:          -4.296
REMARK INTER:                  -4.256
REMARK INTRA:                  -0.040
REMARK UNBOUND:                -0.040
REMARK SMILES CCCC(=O)[O-]
REMARK SMILES IDX 3 1 4 2 5 3 6 4 2 5 1 6
REMARK H PARENT
REMARK Flexibility Score: inf
ROOT
ATOM      1  C   UNL     1      88.118  -7.123  -5.943  1.00  0.00     0.052 C 
ENDROOT
BRANCH   1   2
ATOM      2  C   UNL     1      89.189  -8.048  -5.452  1.00  0.00     0.041 C 
ATOM      3  O   UNL     1      90.402  -7.731  -5.565  1.00  0.00    -0.550 OA
ATOM      4  O   UNL     1      88.848  -9.277  -4.902  1.00  0.00    -0.550 OA
ENDBRANCH   1   2
BRANCH   1   5
ATOM      5  C   UNL     1      88.615  -5.675  -6.032  1.00  0.00     0.003 C 
ATOM      6  C   UNL     1      88.323  -4.882  -4.758  1.00  0.00     0.004 C 
ENDBRANCH   1   5
TORSDOF 2
ENDMDL
MODEL 2
REMARK VINA RESULT:    -3.801     20.641     21.743
REMARK INTER + INTRA:          -4.286
REMARK INTER:                  -4.248
REMARK INTRA:                  -0.038
REMARK UNBOUND:                -0.040
REMARK SMILES CCCC(=O)[O-]
REMARK SMILES IDX 3 1 4 2 5 3 6 4 2 5 1 6
REMARK H PARENT
REMARK Flexibility Score: inf
ROOT
ATOM      1  C   UNL     1      93.967   6.681  11.039  1.00  0.00     0.052 C 
ENDROOT
BRANCH   1   2
ATOM      2  C   UNL     1      92.525   7.066  11.160  1.00  0.00     0.041 C 
ATOM      3  O   UNL     1      91.982   7.778  10.275  1.00  0.00    -0.550 OA
ATOM      4  O   UNL     1      91.789   6.668  12.269  1.00  0.00    -0.550 OA
ENDBRANCH   1   2
BRANCH   1   5
ATOM      5  C   UNL     1      94.417   6.617   9.575  1.00  0.00     0.003 C 
ATOM      6  C   UNL     1      94.367   5.197   9.013  1.00  0.00     0.004 C 
ENDBRANCH   1   5
TORSDOF 2
ENDMDL
MODEL 3
REMARK VINA RESULT:    -3.728     20.367     21.481
REMARK INTER + INTRA:          -4.204
REMARK INTER:                  -4.176
REMARK INTRA:                  -0.028
REMARK UNBOUND:                -0.040
REMARK SMILES CCCC(=O)[O-]
REMARK SMILES IDX 3 1 4 2 5 3 6 4 2 5 1 6
REMARK H PARENT
REMARK Flexibility Score: inf
ROOT
ATOM      1  C   UNL     1      92.919   7.091  10.373  1.00  0.00     0.052 C 
ENDROOT
BRANCH   1   2
ATOM      2  C   UNL     1      91.774   6.548  11.172  1.00  0.00     0.041 C 
ATOM      3  O   UNL     1      91.668   6.823  12.396  1.00  0.00    -0.550 OA
ATOM      4  O   UNL     1      90.844   5.708  10.572  1.00  0.00    -0.550 OA
ENDBRANCH   1   2
BRANCH   1   5
ATOM      5  C   UNL     1      94.132   6.153  10.409  1.00  0.00     0.003 C 
ATOM      6  C   UNL     1      94.439   5.548   9.039  1.00  0.00     0.004 C 
ENDBRANCH   1   5
TORSDOF 2
ENDMDL
MODEL 4
REMARK VINA RESULT:    -3.599     20.480     21.204
REMARK INTER + INTRA:          -4.060
REMARK INTER:                  -4.024
REMARK INTRA:                  -0.036
REMARK UNBOUND:                -0.040
REMARK SMILES CCCC(=O)[O-]
REMARK SMILES IDX 3 1 4 2 5 3 6 4 2 5 1 6
REMARK H PARENT
REMARK Flexibility Score: inf
ROOT
ATOM      1  C   UNL     1      94.243   6.915  10.492  1.00  0.00     0.052 C 
ENDROOT
BRANCH   1   2
ATOM      2  C   UNL     1      94.867   6.348   9.254  1.00  0.00     0.041 C 
ATOM      3  O   UNL     1      94.435   5.273   8.761  1.00  0.00    -0.550 OA
ATOM      4  O   UNL     1      95.950   6.989   8.665  1.00  0.00    -0.550 OA
ENDBRANCH   1   2
BRANCH   1   5
ATOM      5  C   UNL     1      92.852   7.497  10.211  1.00  0.00     0.003 C 
ATOM      6  C   UNL     1      91.744   6.722  10.924  1.00  0.00     0.004 C 
ENDBRANCH   1   5
TORSDOF 2
ENDMDL
MODEL 5
REMARK VINA RESULT:    -3.519      2.123      3.117
REMARK INTER + INTRA:          -3.970
REMARK INTER:                  -3.938
REMARK INTRA:                  -0.032
REMARK UNBOUND:                -0.040
REMARK SMILES CCCC(=O)[O-]
REMARK SMILES IDX 3 1 4 2 5 3 6 4 2 5 1 6
REMARK H PARENT
REMARK Flexibility Score: inf
ROOT
ATOM      1  C   UNL     1      89.710  -7.518  -5.616  1.00  0.00     0.052 C 
ENDROOT
BRANCH   1   2
ATOM      2  C   UNL     1      88.509  -6.664  -5.881  1.00  0.00     0.041 C 
ATOM      3  O   UNL     1      87.863  -6.792  -6.954  1.00  0.00    -0.550 OA
ATOM      4  O   UNL     1      88.123  -5.701  -4.956  1.00  0.00    -0.550 OA
ENDBRANCH   1   2
BRANCH   1   5
ATOM      5  C   UNL     1      89.366  -8.724  -4.734  1.00  0.00     0.003 C 
ATOM      6  C   UNL     1      89.994  -8.625  -3.344  1.00  0.00     0.004 C 
ENDBRANCH   1   5
TORSDOF 2
ENDMDL
MODEL 6
REMARK VINA RESULT:    -3.454     20.632     21.517
REMARK INTER + INTRA:          -3.898
REMARK INTER:                  -3.862
REMARK INTRA:                  -0.036
REMARK UNBOUND:                -0.040
REMARK SMILES CCCC(=O)[O-]
REMARK SMILES IDX 3 1 4 2 5 3 6 4 2 5 1 6
REMARK H PARENT
REMARK Flexibility Score: inf
ROOT
ATOM      1  C   UNL     1      92.442   7.251  10.498  1.00  0.00     0.052 C 
ENDROOT
BRANCH   1   2
ATOM      2  C   UNL     1      93.703   6.447  10.568  1.00  0.00     0.041 C 
ATOM      3  O   UNL     1      94.450   6.526  11.579  1.00  0.00    -0.550 OA
ATOM      4  O   UNL     1      94.071   5.635   9.502  1.00  0.00    -0.550 OA
ENDBRANCH   1   2
BRANCH   1   5
ATOM      5  C   UNL     1      91.368   6.710  11.450  1.00  0.00     0.003 C 
ATOM      6  C   UNL     1      90.402   5.753  10.751  1.00  0.00     0.004 C 
ENDBRANCH   1   5
TORSDOF 2
ENDMDL
MODEL 7
REMARK VINA RESULT:    -3.379     17.062     17.726
REMARK INTER + INTRA:          -3.814
REMARK INTER:                  -3.782
REMARK INTRA:                  -0.033
REMARK UNBOUND:                -0.040
REMARK SMILES CCCC(=O)[O-]
REMARK SMILES IDX 3 1 4 2 5 3 6 4 2 5 1 6
REMARK H PARENT
REMARK Flexibility Score: inf
ROOT
ATOM      1  C   UNL     1      94.861  -3.634  11.148  1.00  0.00     0.052 C 
ENDROOT
BRANCH   1   2
ATOM      2  C   UNL     1      96.331  -3.464  10.921  1.00  0.00     0.041 C 
ATOM      3  O   UNL     1      97.091  -4.468  10.906  1.00  0.00    -0.550 OA
ATOM      4  O   UNL     1      96.868  -2.193  10.761  1.00  0.00    -0.550 OA
ENDBRANCH   1   2
BRANCH   1   5
ATOM      5  C   UNL     1      94.217  -4.512  10.068  1.00  0.00     0.003 C 
ATOM      6  C   UNL     1      93.590  -3.686   8.945  1.00  0.00     0.004 C 
ENDBRANCH   1   5
TORSDOF 2
ENDMDL
MODEL 8
REMARK VINA RESULT:    -3.357     16.660     17.263
REMARK INTER + INTRA:          -3.789
REMARK INTER:                  -3.730
REMARK INTRA:                  -0.059
REMARK UNBOUND:                -0.040
REMARK SMILES CCCC(=O)[O-]
REMARK SMILES IDX 3 1 4 2 5 3 6 4 2 5 1 6
REMARK H PARENT
REMARK Flexibility Score: inf
ROOT
ATOM      1  C   UNL     1      95.262  -4.661  10.824  1.00  0.00     0.052 C 
ENDROOT
BRANCH   1   2
ATOM      2  C   UNL     1      94.557  -4.109   9.623  1.00  0.00     0.041 C 
ATOM      3  O   UNL     1      93.460  -3.504   9.754  1.00  0.00    -0.550 OA
ATOM      4  O   UNL     1      95.094  -4.292   8.355  1.00  0.00    -0.550 OA
ENDBRANCH   1   2
BRANCH   1   5
ATOM      5  C   UNL     1      96.737  -4.245  10.857  1.00  0.00     0.003 C 
ATOM      6  C   UNL     1      96.912  -2.727  10.897  1.00  0.00     0.004 C 
ENDBRANCH   1   5
TORSDOF 2
ENDMDL
MODEL 9
REMARK VINA RESULT:    -3.322     10.297     11.165
REMARK INTER + INTRA:          -3.751
REMARK INTER:                  -3.684
REMARK INTRA:                  -0.067
REMARK UNBOUND:                -0.040
REMARK SMILES CCCC(=O)[O-]
REMARK SMILES IDX 3 1 4 2 5 3 6 4 2 5 1 6
REMARK H PARENT
REMARK Flexibility Score: inf
ROOT
ATOM      1  C   UNL     1      81.233  -3.335   2.579  1.00  0.00     0.052 C 
ENDROOT
BRANCH   1   2
ATOM      2  C   UNL     1      82.678  -2.941   2.624  1.00  0.00     0.041 C 
ATOM      3  O   UNL     1      83.572  -3.821   2.736  1.00  0.00    -0.550 OA
ATOM      4  O   UNL     1      83.035  -1.600   2.576  1.00  0.00    -0.550 OA
ENDBRANCH   1   2
BRANCH   1   5
ATOM      5  C   UNL     1      80.564  -2.891   1.273  1.00  0.00     0.003 C 
ATOM      6  C   UNL     1      81.314  -3.389   0.038  1.00  0.00     0.004 C 
ENDBRANCH   1   5
TORSDOF 2
ENDMDL
