MODEL 1
REMARK VINA RESULT:    -3.234      0.000      0.000
REMARK INTER + INTRA:          -4.104
REMARK INTER:                  -3.896
REMARK INTRA:                  -0.208
REMARK UNBOUND:                -0.208
REMARK SMILES OCC(O)CO
REMARK SMILES IDX 3 1 5 2 6 3 2 5 1 6 4 8
REMARK H PARENT 6 4 1 7 4 9
REMARK Flexibility Score: inf
ROOT
ATOM      1  C   UNL     1     232.564 239.937 240.141  1.00  0.00     0.165 C 
ENDROOT
BRANCH   1   2
ATOM      2  C   UNL     1     233.262 239.028 239.116  1.00  0.00     0.190 C 
BRANCH   2   3
ATOM      3  O   UNL     1     232.378 238.688 238.084  1.00  0.00    -0.394 OA
ATOM      4  H   UNL     1     232.738 239.113 237.262  1.00  0.00     0.210 HD
ENDBRANCH   2   3
ENDBRANCH   1   2
BRANCH   1   5
ATOM      5  C   UNL     1     231.841 239.123 241.226  1.00  0.00     0.190 C 
BRANCH   5   6
ATOM      6  O   UNL     1     230.767 238.400 240.686  1.00  0.00    -0.394 OA
ATOM      7  H   UNL     1     229.951 238.940 240.846  1.00  0.00     0.210 HD
ENDBRANCH   5   6
ENDBRANCH   1   5
BRANCH   1   8
ATOM      8  O   UNL     1     231.621 240.742 239.483  1.00  0.00    -0.388 OA
ATOM      9  H   UNL     1     231.896 241.685 239.628  1.00  0.00     0.211 HD
ENDBRANCH   1   8
TORSDOF 5
ENDMDL
MODEL 2
REMARK VINA RESULT:    -3.172      1.276      2.578
REMARK INTER + INTRA:          -4.028
REMARK INTER:                  -4.023
REMARK INTRA:                  -0.006
REMARK UNBOUND:                -0.208
REMARK SMILES OCC(O)CO
REMARK SMILES IDX 3 1 5 2 6 3 2 5 1 6 4 8
REMARK H PARENT 6 4 1 7 4 9
REMARK Flexibility Score: inf
ROOT
ATOM      1  C   UNL     1     232.527 239.983 240.388  1.00  0.00     0.165 C 
ENDROOT
BRANCH   1   2
ATOM      2  C   UNL     1     231.821 238.984 241.320  1.00  0.00     0.190 C 
BRANCH   2   3
ATOM      3  O   UNL     1     230.678 238.463 240.701  1.00  0.00    -0.394 OA
ATOM      4  H   UNL     1     230.550 238.991 239.870  1.00  0.00     0.210 HD
ENDBRANCH   2   3
ENDBRANCH   1   2
BRANCH   1   5
ATOM      5  C   UNL     1     233.273 241.071 241.178  1.00  0.00     0.190 C 
BRANCH   5   6
ATOM      6  O   UNL     1     232.408 242.108 241.554  1.00  0.00    -0.394 OA
ATOM      7  H   UNL     1     231.832 242.298 240.768  1.00  0.00     0.210 HD
ENDBRANCH   5   6
ENDBRANCH   1   5
BRANCH   1   8
ATOM      8  O   UNL     1     231.576 240.604 239.564  1.00  0.00    -0.388 OA
ATOM      9  H   UNL     1     231.567 240.104 238.706  1.00  0.00     0.211 HD
ENDBRANCH   1   8
TORSDOF 5
ENDMDL
MODEL 3
REMARK VINA RESULT:    -3.129      5.188      5.437
REMARK INTER + INTRA:          -3.977
REMARK INTER:                  -3.975
REMARK INTRA:                  -0.002
REMARK UNBOUND:                -0.208
REMARK SMILES OCC(O)CO
REMARK SMILES IDX 3 1 5 2 6 3 2 5 1 6 4 8
REMARK H PARENT 6 4 1 7 4 9
REMARK Flexibility Score: inf
ROOT
ATOM      1  C   UNL     1     234.694 240.903 244.224  1.00  0.00     0.165 C 
ENDROOT
BRANCH   1   2
ATOM      2  C   UNL     1     234.650 241.317 242.743  1.00  0.00     0.190 C 
BRANCH   2   3
ATOM      3  O   UNL     1     235.411 240.433 241.967  1.00  0.00    -0.394 OA
ATOM      4  H   UNL     1     236.268 240.309 242.452  1.00  0.00     0.210 HD
ENDBRANCH   2   3
ENDBRANCH   1   2
BRANCH   1   5
ATOM      5  C   UNL     1     233.462 241.407 244.994  1.00  0.00     0.190 C 
BRANCH   5   6
ATOM      6  O   UNL     1     233.120 240.529 246.032  1.00  0.00    -0.394 OA
ATOM      7  H   UNL     1     232.424 239.920 245.673  1.00  0.00     0.210 HD
ENDBRANCH   5   6
ENDBRANCH   1   5
BRANCH   1   8
ATOM      8  O   UNL     1     235.845 241.439 244.824  1.00  0.00    -0.388 OA
ATOM      9  H   UNL     1     236.226 240.729 245.402  1.00  0.00     0.211 HD
ENDBRANCH   1   8
TORSDOF 5
ENDMDL
MODEL 4
REMARK VINA RESULT:    -3.098      0.794      2.425
REMARK INTER + INTRA:          -3.940
REMARK INTER:                  -3.747
REMARK INTRA:                  -0.192
REMARK UNBOUND:                -0.208
REMARK SMILES OCC(O)CO
REMARK SMILES IDX 3 1 5 2 6 3 2 5 1 6 4 8
REMARK H PARENT 6 4 1 7 4 9
REMARK Flexibility Score: inf
ROOT
ATOM      1  C   UNL     1     232.062 240.234 239.960  1.00  0.00     0.165 C 
ENDROOT
BRANCH   1   2
ATOM      2  C   UNL     1     231.861 239.117 240.997  1.00  0.00     0.190 C 
BRANCH   2   3
ATOM      3  O   UNL     1     230.711 238.375 240.699  1.00  0.00    -0.394 OA
ATOM      4  H   UNL     1     230.393 238.001 241.561  1.00  0.00     0.210 HD
ENDBRANCH   2   3
ENDBRANCH   1   2
BRANCH   1   5
ATOM      5  C   UNL     1     232.993 239.793 238.819  1.00  0.00     0.190 C 
BRANCH   5   6
ATOM      6  O   UNL     1     232.457 238.702 238.120  1.00  0.00    -0.394 OA
ATOM      7  H   UNL     1     231.645 238.418 238.615  1.00  0.00     0.210 HD
ENDBRANCH   5   6
ENDBRANCH   1   5
BRANCH   1   8
ATOM      8  O   UNL     1     232.625 241.357 240.586  1.00  0.00    -0.388 OA
ATOM      9  H   UNL     1     233.609 241.233 240.572  1.00  0.00     0.211 HD
ENDBRANCH   1   8
TORSDOF 5
ENDMDL
MODEL 5
REMARK VINA RESULT:    -3.086      4.452      5.047
REMARK INTER + INTRA:          -3.926
REMARK INTER:                  -3.923
REMARK INTRA:                  -0.002
REMARK UNBOUND:                -0.208
REMARK SMILES OCC(O)CO
REMARK SMILES IDX 3 1 5 2 6 3 2 5 1 6 4 8
REMARK H PARENT 6 4 1 7 4 9
REMARK Flexibility Score: inf
ROOT
ATOM      1  C   UNL     1     233.850 241.170 243.173  1.00  0.00     0.165 C 
ENDROOT
BRANCH   1   2
ATOM      2  C   UNL     1     232.981 242.374 242.774  1.00  0.00     0.190 C 
BRANCH   2   3
ATOM      3  O   UNL     1     232.416 242.169 241.509  1.00  0.00    -0.394 OA
ATOM      4  H   UNL     1     231.448 242.366 241.603  1.00  0.00     0.210 HD
ENDBRANCH   2   3
ENDBRANCH   1   2
BRANCH   1   5
ATOM      5  C   UNL     1     234.242 241.218 244.659  1.00  0.00     0.190 C 
BRANCH   5   6
ATOM      6  O   UNL     1     235.621 241.423 244.814  1.00  0.00    -0.394 OA
ATOM      7  H   UNL     1     236.057 240.542 244.677  1.00  0.00     0.210 HD
ENDBRANCH   5   6
ENDBRANCH   1   5
BRANCH   1   8
ATOM      8  O   UNL     1     235.024 241.166 242.403  1.00  0.00    -0.388 OA
ATOM      9  H   UNL     1     235.410 242.079 242.460  1.00  0.00     0.211 HD
ENDBRANCH   1   8
TORSDOF 5
ENDMDL
MODEL 6
REMARK VINA RESULT:    -3.053      4.499      5.294
REMARK INTER + INTRA:          -3.885
REMARK INTER:                  -3.662
REMARK INTRA:                  -0.223
REMARK UNBOUND:                -0.208
REMARK SMILES OCC(O)CO
REMARK SMILES IDX 3 1 5 2 6 3 2 5 1 6 4 8
REMARK H PARENT 6 4 1 7 4 9
REMARK Flexibility Score: inf
ROOT
ATOM      1  C   UNL     1     234.549 241.386 242.983  1.00  0.00     0.165 C 
ENDROOT
BRANCH   1   2
ATOM      2  C   UNL     1     234.578 240.798 244.404  1.00  0.00     0.190 C 
BRANCH   2   3
ATOM      3  O   UNL     1     234.102 241.736 245.329  1.00  0.00    -0.394 OA
ATOM      4  H   UNL     1     234.685 242.534 245.238  1.00  0.00     0.210 HD
ENDBRANCH   2   3
ENDBRANCH   1   2
BRANCH   1   5
ATOM      5  C   UNL     1     233.111 241.580 242.475  1.00  0.00     0.190 C 
BRANCH   5   6
ATOM      6  O   UNL     1     232.536 242.742 243.011  1.00  0.00    -0.394 OA
ATOM      7  H   UNL     1     232.362 243.351 242.248  1.00  0.00     0.210 HD
ENDBRANCH   5   6
ENDBRANCH   1   5
BRANCH   1   8
ATOM      8  O   UNL     1     235.219 240.519 242.106  1.00  0.00    -0.388 OA
ATOM      9  H   UNL     1     234.539 239.896 241.741  1.00  0.00     0.211 HD
ENDBRANCH   1   8
TORSDOF 5
ENDMDL
MODEL 7
REMARK VINA RESULT:    -3.047      1.653      3.125
REMARK INTER + INTRA:          -3.878
REMARK INTER:                  -3.688
REMARK INTRA:                  -0.189
REMARK UNBOUND:                -0.208
REMARK SMILES OCC(O)CO
REMARK SMILES IDX 3 1 5 2 6 3 2 5 1 6 4 8
REMARK H PARENT 6 4 1 7 4 9
REMARK Flexibility Score: inf
ROOT
ATOM      1  C   UNL     1     232.442 239.812 240.615  1.00  0.00     0.165 C 
ENDROOT
BRANCH   1   2
ATOM      2  C   UNL     1     232.932 240.546 241.875  1.00  0.00     0.190 C 
BRANCH   2   3
ATOM      3  O   UNL     1     232.406 241.844 241.919  1.00  0.00    -0.394 OA
ATOM      4  H   UNL     1     232.584 242.243 241.028  1.00  0.00     0.210 HD
ENDBRANCH   2   3
ENDBRANCH   1   2
BRANCH   1   5
ATOM      5  C   UNL     1     232.633 240.664 239.349  1.00  0.00     0.190 C 
BRANCH   5   6
ATOM      6  O   UNL     1     231.694 241.703 239.291  1.00  0.00    -0.394 OA
ATOM      7  H   UNL     1     230.949 241.383 238.718  1.00  0.00     0.210 HD
ENDBRANCH   5   6
ENDBRANCH   1   5
BRANCH   1   8
ATOM      8  O   UNL     1     231.077 239.514 240.751  1.00  0.00    -0.388 OA
ATOM      9  H   UNL     1     230.824 238.959 239.967  1.00  0.00     0.211 HD
ENDBRANCH   1   8
TORSDOF 5
ENDMDL
MODEL 8
REMARK VINA RESULT:    -3.035      9.004      9.842
REMARK INTER + INTRA:          -3.863
REMARK INTER:                  -3.648
REMARK INTRA:                  -0.215
REMARK UNBOUND:                -0.208
REMARK SMILES OCC(O)CO
REMARK SMILES IDX 3 1 5 2 6 3 2 5 1 6 4 8
REMARK H PARENT 6 4 1 7 4 9
REMARK Flexibility Score: inf
ROOT
ATOM      1  C   UNL     1     236.956 230.699 238.992  1.00  0.00     0.165 C 
ENDROOT
BRANCH   1   2
ATOM      2  C   UNL     1     237.533 230.881 240.406  1.00  0.00     0.190 C 
BRANCH   2   3
ATOM      3  O   UNL     1     236.513 230.800 241.362  1.00  0.00    -0.394 OA
ATOM      4  H   UNL     1     236.051 229.937 241.201  1.00  0.00     0.210 HD
ENDBRANCH   2   3
ENDBRANCH   1   2
BRANCH   1   5
ATOM      5  C   UNL     1     235.794 231.668 238.721  1.00  0.00     0.190 C 
BRANCH   5   6
ATOM      6  O   UNL     1     234.606 231.212 239.309  1.00  0.00    -0.394 OA
ATOM      7  H   UNL     1     234.868 230.584 240.031  1.00  0.00     0.210 HD
ENDBRANCH   5   6
ENDBRANCH   1   5
BRANCH   1   8
ATOM      8  O   UNL     1     236.485 229.385 238.847  1.00  0.00    -0.388 OA
ATOM      9  H   UNL     1     237.223 228.855 238.448  1.00  0.00     0.211 HD
ENDBRANCH   1   8
TORSDOF 5
ENDMDL
MODEL 9
REMARK VINA RESULT:    -3.022     12.940     13.617
REMARK INTER + INTRA:          -3.848
REMARK INTER:                  -3.694
REMARK INTRA:                  -0.154
REMARK UNBOUND:                -0.208
REMARK SMILES OCC(O)CO
REMARK SMILES IDX 3 1 5 2 6 3 2 5 1 6 4 8
REMARK H PARENT 6 4 1 7 4 9
REMARK Flexibility Score: inf
ROOT
ATOM      1  C   UNL     1     232.730 247.802 228.230  1.00  0.00     0.165 C 
ENDROOT
BRANCH   1   2
ATOM      2  C   UNL     1     234.044 247.005 228.169  1.00  0.00     0.190 C 
BRANCH   2   3
ATOM      3  O   UNL     1     233.785 245.630 228.226  1.00  0.00    -0.394 OA
ATOM      4  H   UNL     1     234.406 245.206 227.579  1.00  0.00     0.210 HD
ENDBRANCH   2   3
ENDBRANCH   1   2
BRANCH   1   5
ATOM      5  C   UNL     1     232.099 247.754 229.631  1.00  0.00     0.190 C 
BRANCH   5   6
ATOM      6  O   UNL     1     232.108 246.450 230.147  1.00  0.00    -0.394 OA
ATOM      7  H   UNL     1     231.450 245.929 229.618  1.00  0.00     0.210 HD
ENDBRANCH   5   6
ENDBRANCH   1   5
BRANCH   1   8
ATOM      8  O   UNL     1     231.817 247.264 227.310  1.00  0.00    -0.388 OA
ATOM      9  H   UNL     1     232.216 247.375 226.408  1.00  0.00     0.211 HD
ENDBRANCH   1   8
TORSDOF 5
ENDMDL
