MODEL 1
REMARK VINA RESULT:    -7.013      0.000      0.000
REMARK INTER + INTRA:          -9.051
REMARK INTER:                  -8.653
REMARK INTRA:                  -0.397
REMARK UNBOUND:                -0.397
REMARK SMILES COc1cc(-c2oc3cc(O)cc(O)c3c(=O)c2O)ccc1O
REMARK SMILES IDX 6 1 18 2 16 3 17 4 15 5 13 6 12 7 10 8 9 9 8 10 7 11 5 12
REMARK SMILES IDX 3 13 22 14 4 15 21 16 20 17 2 18 1 19 23 20 19 22 14 24
REMARK SMILES IDX 11 26
REMARK H PARENT 23 21 19 23 14 25 11 27
REMARK Flexibility Score: inf
ROOT
ATOM      1  C   UNL     1       3.777 -71.445 208.919  1.00  0.00     0.180 A 
ATOM      2  C   UNL     1       3.927 -72.511 208.012  1.00  0.00     0.208 A 
ATOM      3  C   UNL     1       4.589 -72.279 206.796  1.00  0.00     0.238 A 
ATOM      4  O   UNL     1       4.720 -73.223 205.971  1.00  0.00    -0.285 OA
ATOM      5  C   UNL     1       5.104 -70.996 206.517  1.00  0.00     0.111 A 
ATOM      6  C   UNL     1       5.787 -70.680 205.317  1.00  0.00     0.134 A 
ATOM      7  C   UNL     1       6.279 -69.382 205.118  1.00  0.00     0.093 A 
ATOM      8  C   UNL     1       6.102 -68.396 206.092  1.00  0.00     0.123 A 
ATOM      9  C   UNL     1       5.428 -68.702 207.279  1.00  0.00     0.094 A 
ATOM     10  C   UNL     1       4.929 -69.990 207.495  1.00  0.00     0.146 A 
ATOM     11  O   UNL     1       4.288 -70.253 208.628  1.00  0.00    -0.452 OA
ENDROOT
BRANCH   1  12
ATOM     12  C   UNL     1       3.075 -71.606 210.213  1.00  0.00     0.025 A 
ATOM     13  C   UNL     1       1.042 -71.515 211.571  1.00  0.00     0.161 A 
ATOM     14  C   UNL     1       1.791 -71.872 212.702  1.00  0.00     0.157 A 
ATOM     15  C   UNL     1       1.691 -71.376 210.329  1.00  0.00     0.062 A 
ATOM     16  C   UNL     1       3.171 -72.080 212.592  1.00  0.00     0.051 A 
ATOM     17  C   UNL     1       3.810 -71.941 211.359  1.00  0.00     0.016 A 
BRANCH  13  18
ATOM     18  O   UNL     1      -0.337 -71.304 211.723  1.00  0.00    -0.493 OA
ATOM     19  C   UNL     1      -1.323 -71.707 210.778  1.00  0.00     0.278 C 
ENDBRANCH  13  18
BRANCH  14  20
ATOM     20  O   UNL     1       1.155 -72.014 213.933  1.00  0.00    -0.504 OA
ATOM     21  H   UNL     1       1.578 -71.679 214.791  1.00  0.00     0.293 HD
ENDBRANCH  14  20
ENDBRANCH   1  12
BRANCH   2  22
ATOM     22  O   UNL     1       3.451 -73.785 208.333  1.00  0.00    -0.502 OA
ATOM     23  H   UNL     1       2.811 -74.292 207.735  1.00  0.00     0.293 HD
ENDBRANCH   2  22
BRANCH   6  24
ATOM     24  O   UNL     1       5.980 -71.643 204.325  1.00  0.00    -0.507 OA
ATOM     25  H   UNL     1       5.285 -71.815 203.608  1.00  0.00     0.293 HD
ENDBRANCH   6  24
BRANCH   8  26
ATOM     26  O   UNL     1       6.602 -67.115 205.869  1.00  0.00    -0.508 OA
ATOM     27  H   UNL     1       7.274 -66.929 205.134  1.00  0.00     0.293 HD
ENDBRANCH   8  26
TORSDOF 6
ENDMDL
MODEL 2
REMARK VINA RESULT:    -6.200      1.177      2.815
REMARK INTER + INTRA:          -8.047
REMARK INTER:                  -7.657
REMARK INTRA:                  -0.390
REMARK UNBOUND:                -0.397
REMARK SMILES COc1cc(-c2oc3cc(O)cc(O)c3c(=O)c2O)ccc1O
REMARK SMILES IDX 6 1 18 2 16 3 17 4 15 5 13 6 12 7 10 8 9 9 8 10 7 11 5 12
REMARK SMILES IDX 3 13 22 14 4 15 21 16 20 17 2 18 1 19 23 20 19 22 14 24
REMARK SMILES IDX 11 26
REMARK H PARENT 23 21 19 23 14 25 11 27
REMARK Flexibility Score: inf
ROOT
ATOM      1  C   UNL     1       3.735 -70.875 209.014  1.00  0.00     0.180 A 
ATOM      2  C   UNL     1       4.201 -69.581 208.712  1.00  0.00     0.208 A 
ATOM      3  C   UNL     1       4.856 -69.364 207.489  1.00  0.00     0.238 A 
ATOM      4  O   UNL     1       5.288 -68.212 207.212  1.00  0.00    -0.285 OA
ATOM      5  C   UNL     1       5.015 -70.434 206.584  1.00  0.00     0.111 A 
ATOM      6  C   UNL     1       5.659 -70.300 205.331  1.00  0.00     0.134 A 
ATOM      7  C   UNL     1       5.769 -71.411 204.482  1.00  0.00     0.093 A 
ATOM      8  C   UNL     1       5.250 -72.651 204.861  1.00  0.00     0.123 A 
ATOM      9  C   UNL     1       4.613 -72.791 206.098  1.00  0.00     0.094 A 
ATOM     10  C   UNL     1       4.494 -71.696 206.958  1.00  0.00     0.146 A 
ATOM     11  O   UNL     1       3.890 -71.856 208.131  1.00  0.00    -0.452 OA
ENDROOT
BRANCH   1  12
ATOM     12  C   UNL     1       3.052 -71.186 210.290  1.00  0.00     0.025 A 
ATOM     13  C   UNL     1       1.022 -71.383 211.640  1.00  0.00     0.161 A 
ATOM     14  C   UNL     1       1.803 -71.735 212.751  1.00  0.00     0.157 A 
ATOM     15  C   UNL     1       1.653 -71.102 210.413  1.00  0.00     0.062 A 
ATOM     16  C   UNL     1       3.197 -71.797 212.636  1.00  0.00     0.051 A 
ATOM     17  C   UNL     1       3.818 -71.518 211.417  1.00  0.00     0.016 A 
BRANCH  13  18
ATOM     18  O   UNL     1      -0.371 -71.320 211.798  1.00  0.00    -0.493 OA
ATOM     19  C   UNL     1      -1.313 -71.725 210.810  1.00  0.00     0.278 C 
ENDBRANCH  13  18
BRANCH  14  20
ATOM     20  O   UNL     1       1.185 -72.016 213.967  1.00  0.00    -0.504 OA
ATOM     21  H   UNL     1       0.463 -71.416 214.348  1.00  0.00     0.293 HD
ENDBRANCH  14  20
ENDBRANCH   1  12
BRANCH   2  22
ATOM     22  O   UNL     1       3.988 -68.526 209.604  1.00  0.00    -0.502 OA
ATOM     23  H   UNL     1       4.293 -68.561 210.568  1.00  0.00     0.293 HD
ENDBRANCH   2  22
BRANCH   6  24
ATOM     24  O   UNL     1       6.188 -69.074 204.923  1.00  0.00    -0.507 OA
ATOM     25  H   UNL     1       7.130 -68.995 204.559  1.00  0.00     0.293 HD
ENDBRANCH   6  24
BRANCH   8  26
ATOM     26  O   UNL     1       5.371 -73.738 203.998  1.00  0.00    -0.508 OA
ATOM     27  H   UNL     1       5.905 -73.675 203.139  1.00  0.00     0.293 HD
ENDBRANCH   8  26
TORSDOF 6
ENDMDL
MODEL 3
REMARK VINA RESULT:    -5.869     10.820     13.328
REMARK INTER + INTRA:          -7.639
REMARK INTER:                  -7.622
REMARK INTRA:                  -0.017
REMARK UNBOUND:                -0.397
REMARK SMILES COc1cc(-c2oc3cc(O)cc(O)c3c(=O)c2O)ccc1O
REMARK SMILES IDX 6 1 18 2 16 3 17 4 15 5 13 6 12 7 10 8 9 9 8 10 7 11 5 12
REMARK SMILES IDX 3 13 22 14 4 15 21 16 20 17 2 18 1 19 23 20 19 22 14 24
REMARK SMILES IDX 11 26
REMARK H PARENT 23 21 19 23 14 25 11 27
REMARK Flexibility Score: inf
ROOT
ATOM      1  C   UNL     1      14.591 -76.488 202.752  1.00  0.00     0.180 A 
ATOM      2  C   UNL     1      15.379 -77.154 201.794  1.00  0.00     0.208 A 
ATOM      3  C   UNL     1      15.432 -76.645 200.487  1.00  0.00     0.238 A 
ATOM      4  O   UNL     1      16.125 -77.238 199.617  1.00  0.00    -0.285 OA
ATOM      5  C   UNL     1      14.715 -75.473 200.166  1.00  0.00     0.111 A 
ATOM      6  C   UNL     1      14.717 -74.893 198.875  1.00  0.00     0.134 A 
ATOM      7  C   UNL     1      13.986 -73.720 198.638  1.00  0.00     0.093 A 
ATOM      8  C   UNL     1      13.253 -73.118 199.663  1.00  0.00     0.123 A 
ATOM      9  C   UNL     1      13.246 -73.686 200.941  1.00  0.00     0.094 A 
ATOM     10  C   UNL     1      13.968 -74.856 201.197  1.00  0.00     0.146 A 
ATOM     11  O   UNL     1      13.940 -75.379 202.418  1.00  0.00    -0.452 OA
ENDROOT
BRANCH   1  12
ATOM     12  C   UNL     1      14.470 -76.975 204.146  1.00  0.00     0.025 A 
ATOM     13  C   UNL     1      13.121 -77.536 206.107  1.00  0.00     0.161 A 
ATOM     14  C   UNL     1      14.291 -77.853 206.812  1.00  0.00     0.157 A 
ATOM     15  C   UNL     1      13.216 -77.091 204.775  1.00  0.00     0.062 A 
ATOM     16  C   UNL     1      15.541 -77.717 206.195  1.00  0.00     0.051 A 
ATOM     17  C   UNL     1      15.630 -77.275 204.874  1.00  0.00     0.016 A 
BRANCH  13  18
ATOM     18  O   UNL     1      11.888 -77.674 206.764  1.00  0.00    -0.493 OA
ATOM     19  C   UNL     1      10.658 -77.976 206.114  1.00  0.00     0.278 C 
ENDBRANCH  13  18
BRANCH  14  20
ATOM     20  O   UNL     1      14.204 -78.297 208.130  1.00  0.00    -0.504 OA
ATOM     21  H   UNL     1      14.148 -79.283 208.356  1.00  0.00     0.293 HD
ENDBRANCH  14  20
ENDBRANCH   1  12
BRANCH   2  22
ATOM     22  O   UNL     1      16.119 -78.285 202.149  1.00  0.00    -0.502 OA
ATOM     23  H   UNL     1      17.127 -78.320 202.072  1.00  0.00     0.293 HD
ENDBRANCH   2  22
BRANCH   6  24
ATOM     24  O   UNL     1      15.439 -75.471 197.829  1.00  0.00    -0.507 OA
ATOM     25  H   UNL     1      16.399 -75.211 197.637  1.00  0.00     0.293 HD
ENDBRANCH   6  24
BRANCH   8  26
ATOM     26  O   UNL     1      12.536 -71.952 199.401  1.00  0.00    -0.508 OA
ATOM     27  H   UNL     1      11.912 -71.883 198.606  1.00  0.00     0.293 HD
ENDBRANCH   8  26
TORSDOF 6
ENDMDL
MODEL 4
REMARK VINA RESULT:    -5.292      3.604      6.307
REMARK INTER + INTRA:          -6.926
REMARK INTER:                  -7.529
REMARK INTRA:                   0.602
REMARK UNBOUND:                -0.397
REMARK SMILES COc1cc(-c2oc3cc(O)cc(O)c3c(=O)c2O)ccc1O
REMARK SMILES IDX 6 1 18 2 16 3 17 4 15 5 13 6 12 7 10 8 9 9 8 10 7 11 5 12
REMARK SMILES IDX 3 13 22 14 4 15 21 16 20 17 2 18 1 19 23 20 19 22 14 24
REMARK SMILES IDX 11 26
REMARK H PARENT 23 21 19 23 14 25 11 27
REMARK Flexibility Score: inf
ROOT
ATOM      1  C   UNL     1       3.649 -73.827 206.577  1.00  0.00     0.180 A 
ATOM      2  C   UNL     1       4.676 -73.153 205.890  1.00  0.00     0.208 A 
ATOM      3  C   UNL     1       5.148 -71.933 206.402  1.00  0.00     0.238 A 
ATOM      4  O   UNL     1       6.060 -71.315 205.790  1.00  0.00    -0.285 OA
ATOM      5  C   UNL     1       4.600 -71.421 207.597  1.00  0.00     0.111 A 
ATOM      6  C   UNL     1       5.021 -70.202 208.181  1.00  0.00     0.134 A 
ATOM      7  C   UNL     1       4.433 -69.765 209.377  1.00  0.00     0.093 A 
ATOM      8  C   UNL     1       3.436 -70.519 209.999  1.00  0.00     0.123 A 
ATOM      9  C   UNL     1       3.015 -71.724 209.426  1.00  0.00     0.094 A 
ATOM     10  C   UNL     1       3.588 -72.176 208.234  1.00  0.00     0.146 A 
ATOM     11  O   UNL     1       3.166 -73.321 207.708  1.00  0.00    -0.452 OA
ENDROOT
BRANCH   1  12
ATOM     12  C   UNL     1       3.086 -75.107 206.090  1.00  0.00     0.025 A 
ATOM     13  C   UNL     1       2.225 -76.518 204.287  1.00  0.00     0.161 A 
ATOM     14  C   UNL     1       1.968 -77.536 205.217  1.00  0.00     0.157 A 
ATOM     15  C   UNL     1       2.778 -75.302 204.730  1.00  0.00     0.062 A 
ATOM     16  C   UNL     1       2.253 -77.336 206.573  1.00  0.00     0.051 A 
ATOM     17  C   UNL     1       2.801 -76.129 207.008  1.00  0.00     0.016 A 
BRANCH  13  18
ATOM     18  O   UNL     1       1.914 -76.753 202.938  1.00  0.00    -0.493 OA
ATOM     19  C   UNL     1       2.202 -77.962 202.244  1.00  0.00     0.278 C 
ENDBRANCH  13  18
BRANCH  14  20
ATOM     20  O   UNL     1       1.423 -78.744 204.785  1.00  0.00    -0.504 OA
ATOM     21  H   UNL     1       0.427 -78.852 204.628  1.00  0.00     0.293 HD
ENDBRANCH  14  20
ENDBRANCH   1  12
BRANCH   2  22
ATOM     22  O   UNL     1       5.236 -73.706 204.735  1.00  0.00    -0.502 OA
ATOM     23  H   UNL     1       6.231 -73.683 204.550  1.00  0.00     0.293 HD
ENDBRANCH   2  22
BRANCH   6  24
ATOM     24  O   UNL     1       6.015 -69.425 207.584  1.00  0.00    -0.507 OA
ATOM     25  H   UNL     1       6.542 -68.739 208.110  1.00  0.00     0.293 HD
ENDBRANCH   6  24
BRANCH   8  26
ATOM     26  O   UNL     1       2.870 -70.062 211.187  1.00  0.00    -0.508 OA
ATOM     27  H   UNL     1       2.267 -70.653 211.747  1.00  0.00     0.293 HD
ENDBRANCH   8  26
TORSDOF 6
ENDMDL
MODEL 5
REMARK VINA RESULT:    -5.101      1.489      7.189
REMARK INTER + INTRA:          -6.691
REMARK INTER:                  -6.300
REMARK INTRA:                  -0.391
REMARK UNBOUND:                -0.397
REMARK SMILES COc1cc(-c2oc3cc(O)cc(O)c3c(=O)c2O)ccc1O
REMARK SMILES IDX 6 1 18 2 16 3 17 4 15 5 13 6 12 7 10 8 9 9 8 10 7 11 5 12
REMARK SMILES IDX 3 13 22 14 4 15 21 16 20 17 2 18 1 19 23 20 19 22 14 24
REMARK SMILES IDX 11 26
REMARK H PARENT 23 21 19 23 14 25 11 27
REMARK Flexibility Score: inf
ROOT
ATOM      1  C   UNL     1       3.806 -70.634 208.909  1.00  0.00     0.180 A 
ATOM      2  C   UNL     1       4.526 -70.964 210.073  1.00  0.00     0.208 A 
ATOM      3  C   UNL     1       3.817 -71.304 211.236  1.00  0.00     0.238 A 
ATOM      4  O   UNL     1       4.451 -71.591 212.288  1.00  0.00    -0.285 OA
ATOM      5  C   UNL     1       2.407 -71.326 211.210  1.00  0.00     0.111 A 
ATOM      6  C   UNL     1       1.618 -71.661 212.337  1.00  0.00     0.134 A 
ATOM      7  C   UNL     1       0.219 -71.670 212.229  1.00  0.00     0.093 A 
ATOM      8  C   UNL     1      -0.404 -71.351 211.020  1.00  0.00     0.123 A 
ATOM      9  C   UNL     1       0.370 -71.020 209.904  1.00  0.00     0.094 A 
ATOM     10  C   UNL     1       1.765 -71.003 209.992  1.00  0.00     0.146 A 
ATOM     11  O   UNL     1       2.478 -70.679 208.918  1.00  0.00    -0.452 OA
ENDROOT
BRANCH   1  12
ATOM     12  C   UNL     1       4.482 -70.246 207.650  1.00  0.00     0.025 A 
ATOM     13  C   UNL     1       5.531 -70.825 205.518  1.00  0.00     0.161 A 
ATOM     14  C   UNL     1       5.813 -69.469 205.296  1.00  0.00     0.157 A 
ATOM     15  C   UNL     1       4.872 -71.210 206.701  1.00  0.00     0.062 A 
ATOM     16  C   UNL     1       5.446 -68.512 206.250  1.00  0.00     0.051 A 
ATOM     17  C   UNL     1       4.792 -68.898 207.421  1.00  0.00     0.016 A 
BRANCH  13  18
ATOM     18  O   UNL     1       5.926 -71.756 204.544  1.00  0.00    -0.493 OA
ATOM     19  C   UNL     1       5.171 -72.907 204.177  1.00  0.00     0.278 C 
ENDBRANCH  13  18
BRANCH  14  20
ATOM     20  O   UNL     1       6.463 -69.082 204.127  1.00  0.00    -0.504 OA
ATOM     21  H   UNL     1       7.326 -69.522 203.827  1.00  0.00     0.293 HD
ENDBRANCH  14  20
ENDBRANCH   1  12
BRANCH   2  22
ATOM     22  O   UNL     1       5.924 -70.982 210.059  1.00  0.00    -0.502 OA
ATOM     23  H   UNL     1       6.479 -70.153 210.231  1.00  0.00     0.293 HD
ENDBRANCH   2  22
BRANCH   6  24
ATOM     24  O   UNL     1       2.210 -71.984 213.559  1.00  0.00    -0.507 OA
ATOM     25  H   UNL     1       1.711 -72.500 214.273  1.00  0.00     0.293 HD
ENDBRANCH   6  24
BRANCH   8  26
ATOM     26  O   UNL     1      -1.795 -71.370 210.939  1.00  0.00    -0.508 OA
ATOM     27  H   UNL     1      -2.296 -70.751 210.313  1.00  0.00     0.293 HD
ENDBRANCH   8  26
TORSDOF 6
ENDMDL
MODEL 6
REMARK VINA RESULT:    -4.851      3.274      5.716
REMARK INTER + INTRA:          -6.382
REMARK INTER:                  -6.985
REMARK INTRA:                   0.603
REMARK UNBOUND:                -0.397
REMARK SMILES COc1cc(-c2oc3cc(O)cc(O)c3c(=O)c2O)ccc1O
REMARK SMILES IDX 6 1 18 2 16 3 17 4 15 5 13 6 12 7 10 8 9 9 8 10 7 11 5 12
REMARK SMILES IDX 3 13 22 14 4 15 21 16 20 17 2 18 1 19 23 20 19 22 14 24
REMARK SMILES IDX 11 26
REMARK H PARENT 23 21 19 23 14 25 11 27
REMARK Flexibility Score: inf
ROOT
ATOM      1  C   UNL     1       3.573 -73.345 206.735  1.00  0.00     0.180 A 
ATOM      2  C   UNL     1       3.025 -72.666 207.840  1.00  0.00     0.208 A 
ATOM      3  C   UNL     1       3.507 -71.386 208.157  1.00  0.00     0.238 A 
ATOM      4  O   UNL     1       3.032 -70.772 209.150  1.00  0.00    -0.285 OA
ATOM      5  C   UNL     1       4.511 -70.802 207.357  1.00  0.00     0.111 A 
ATOM      6  C   UNL     1       5.049 -69.516 207.606  1.00  0.00     0.134 A 
ATOM      7  C   UNL     1       6.040 -69.000 206.758  1.00  0.00     0.093 A 
ATOM      8  C   UNL     1       6.502 -69.743 205.669  1.00  0.00     0.123 A 
ATOM      9  C   UNL     1       5.975 -71.013 205.418  1.00  0.00     0.094 A 
ATOM     10  C   UNL     1       4.989 -71.546 206.252  1.00  0.00     0.146 A 
ATOM     11  O   UNL     1       4.508 -72.757 205.995  1.00  0.00    -0.452 OA
ENDROOT
BRANCH   1  12
ATOM     12  C   UNL     1       3.130 -74.704 206.349  1.00  0.00     0.025 A 
ATOM     13  C   UNL     1       2.332 -76.302 204.678  1.00  0.00     0.161 A 
ATOM     14  C   UNL     1       2.243 -77.287 205.672  1.00  0.00     0.157 A 
ATOM     15  C   UNL     1       2.770 -75.009 205.023  1.00  0.00     0.062 A 
ATOM     16  C   UNL     1       2.580 -76.979 206.996  1.00  0.00     0.051 A 
ATOM     17  C   UNL     1       3.014 -75.696 207.334  1.00  0.00     0.016 A 
BRANCH  13  18
ATOM     18  O   UNL     1       1.974 -76.646 203.365  1.00  0.00    -0.493 OA
ATOM     19  C   UNL     1       2.346 -77.860 202.720  1.00  0.00     0.278 C 
ENDBRANCH  13  18
BRANCH  14  20
ATOM     20  O   UNL     1       1.813 -78.569 205.337  1.00  0.00    -0.504 OA
ATOM     21  H   UNL     1       2.227 -79.394 205.754  1.00  0.00     0.293 HD
ENDBRANCH  14  20
ENDBRANCH   1  12
BRANCH   2  22
ATOM     22  O   UNL     1       1.996 -73.246 208.587  1.00  0.00    -0.502 OA
ATOM     23  H   UNL     1       1.679 -72.858 209.466  1.00  0.00     0.293 HD
ENDBRANCH   2  22
BRANCH   6  24
ATOM     24  O   UNL     1       4.608 -68.750 208.686  1.00  0.00    -0.507 OA
ATOM     25  H   UNL     1       4.188 -67.837 208.556  1.00  0.00     0.293 HD
ENDBRANCH   6  24
BRANCH   8  26
ATOM     26  O   UNL     1       7.486 -69.206 204.841  1.00  0.00    -0.508 OA
ATOM     27  H   UNL     1       8.467 -69.237 205.095  1.00  0.00     0.293 HD
ENDBRANCH   8  26
TORSDOF 6
ENDMDL
MODEL 7
REMARK VINA RESULT:    -4.713      1.564      7.213
REMARK INTER + INTRA:          -6.212
REMARK INTER:                  -5.829
REMARK INTRA:                  -0.384
REMARK UNBOUND:                -0.397
REMARK SMILES COc1cc(-c2oc3cc(O)cc(O)c3c(=O)c2O)ccc1O
REMARK SMILES IDX 6 1 18 2 16 3 17 4 15 5 13 6 12 7 10 8 9 9 8 10 7 11 5 12
REMARK SMILES IDX 3 13 22 14 4 15 21 16 20 17 2 18 1 19 23 20 19 22 14 24
REMARK SMILES IDX 11 26
REMARK H PARENT 23 21 19 23 14 25 11 27
REMARK Flexibility Score: inf
ROOT
ATOM      1  C   UNL     1       3.195 -70.136 208.419  1.00  0.00     0.180 A 
ATOM      2  C   UNL     1       1.848 -69.842 208.134  1.00  0.00     0.208 A 
ATOM      3  C   UNL     1       0.869 -70.149 209.093  1.00  0.00     0.238 A 
ATOM      4  O   UNL     1      -0.342 -69.900 208.845  1.00  0.00    -0.285 OA
ATOM      5  C   UNL     1       1.254 -70.723 210.322  1.00  0.00     0.111 A 
ATOM      6  C   UNL     1       0.331 -71.059 211.342  1.00  0.00     0.134 A 
ATOM      7  C   UNL     1       0.794 -71.620 212.542  1.00  0.00     0.093 A 
ATOM      8  C   UNL     1       2.157 -71.850 212.741  1.00  0.00     0.123 A 
ATOM      9  C   UNL     1       3.073 -71.521 211.738  1.00  0.00     0.094 A 
ATOM     10  C   UNL     1       2.631 -70.963 210.534  1.00  0.00     0.146 A 
ATOM     11  O   UNL     1       3.522 -70.665 209.594  1.00  0.00    -0.452 OA
ENDROOT
BRANCH   1  12
ATOM     12  C   UNL     1       4.281 -69.860 207.452  1.00  0.00     0.025 A 
ATOM     13  C   UNL     1       5.819 -70.588 205.695  1.00  0.00     0.161 A 
ATOM     14  C   UNL     1       6.384 -69.305 205.668  1.00  0.00     0.157 A 
ATOM     15  C   UNL     1       4.771 -70.863 206.595  1.00  0.00     0.062 A 
ATOM     16  C   UNL     1       5.912 -68.312 206.535  1.00  0.00     0.051 A 
ATOM     17  C   UNL     1       4.874 -68.589 207.426  1.00  0.00     0.016 A 
BRANCH  13  18
ATOM     18  O   UNL     1       6.327 -71.559 204.818  1.00  0.00    -0.493 OA
ATOM     19  C   UNL     1       5.527 -72.490 204.096  1.00  0.00     0.278 C 
ENDBRANCH  13  18
BRANCH  14  20
ATOM     20  O   UNL     1       7.419 -69.025 204.777  1.00  0.00    -0.504 OA
ATOM     21  H   UNL     1       7.281 -69.061 203.774  1.00  0.00     0.293 HD
ENDBRANCH  14  20
ENDBRANCH   1  12
BRANCH   2  22
ATOM     22  O   UNL     1       1.498 -69.227 206.929  1.00  0.00    -0.502 OA
ATOM     23  H   UNL     1       2.165 -68.709 206.371  1.00  0.00     0.293 HD
ENDBRANCH   2  22
BRANCH   6  24
ATOM     24  O   UNL     1      -1.037 -70.841 211.173  1.00  0.00    -0.507 OA
ATOM     25  H   UNL     1      -1.401 -69.942 210.880  1.00  0.00     0.293 HD
ENDBRANCH   6  24
BRANCH   8  26
ATOM     26  O   UNL     1       2.590 -72.407 213.943  1.00  0.00    -0.508 OA
ATOM     27  H   UNL     1       2.039 -73.102 214.433  1.00  0.00     0.293 HD
ENDBRANCH   8  26
TORSDOF 6
ENDMDL
MODEL 8
REMARK VINA RESULT:    -4.670      1.494      7.218
REMARK INTER + INTRA:          -6.159
REMARK INTER:                  -5.800
REMARK INTRA:                  -0.359
REMARK UNBOUND:                -0.397
REMARK SMILES COc1cc(-c2oc3cc(O)cc(O)c3c(=O)c2O)ccc1O
REMARK SMILES IDX 6 1 18 2 16 3 17 4 15 5 13 6 12 7 10 8 9 9 8 10 7 11 5 12
REMARK SMILES IDX 3 13 22 14 4 15 21 16 20 17 2 18 1 19 23 20 19 22 14 24
REMARK SMILES IDX 11 26
REMARK H PARENT 23 21 19 23 14 25 11 27
REMARK Flexibility Score: inf
ROOT
ATOM      1  C   UNL     1       3.708 -71.858 208.718  1.00  0.00     0.180 A 
ATOM      2  C   UNL     1       4.480 -71.768 209.893  1.00  0.00     0.208 A 
ATOM      3  C   UNL     1       3.824 -71.633 211.127  1.00  0.00     0.238 A 
ATOM      4  O   UNL     1       4.504 -71.541 212.184  1.00  0.00    -0.285 OA
ATOM      5  C   UNL     1       2.414 -71.610 211.168  1.00  0.00     0.111 A 
ATOM      6  C   UNL     1       1.677 -71.480 212.370  1.00  0.00     0.134 A 
ATOM      7  C   UNL     1       0.275 -71.475 212.328  1.00  0.00     0.093 A 
ATOM      8  C   UNL     1      -0.402 -71.596 211.113  1.00  0.00     0.123 A 
ATOM      9  C   UNL     1       0.320 -71.724 209.922  1.00  0.00     0.094 A 
ATOM     10  C   UNL     1       1.718 -71.730 209.943  1.00  0.00     0.146 A 
ATOM     11  O   UNL     1       2.381 -71.847 208.797  1.00  0.00    -0.452 OA
ENDROOT
BRANCH   1  12
ATOM     12  C   UNL     1       4.326 -71.983 207.379  1.00  0.00     0.025 A 
ATOM     13  C   UNL     1       5.449 -71.002 205.440  1.00  0.00     0.161 A 
ATOM     14  C   UNL     1       5.442 -72.256 204.811  1.00  0.00     0.157 A 
ATOM     15  C   UNL     1       4.882 -70.870 206.722  1.00  0.00     0.062 A 
ATOM     16  C   UNL     1       4.870 -73.360 205.454  1.00  0.00     0.051 A 
ATOM     17  C   UNL     1       4.309 -73.224 206.725  1.00  0.00     0.016 A 
BRANCH  13  18
ATOM     18  O   UNL     1       6.021 -69.917 204.758  1.00  0.00    -0.493 OA
ATOM     19  C   UNL     1       6.677 -68.823 205.391  1.00  0.00     0.278 C 
ENDBRANCH  13  18
BRANCH  14  20
ATOM     20  O   UNL     1       6.003 -72.395 203.543  1.00  0.00    -0.504 OA
ATOM     21  H   UNL     1       5.952 -71.653 202.855  1.00  0.00     0.293 HD
ENDBRANCH  14  20
ENDBRANCH   1  12
BRANCH   2  22
ATOM     22  O   UNL     1       5.874 -71.843 209.830  1.00  0.00    -0.502 OA
ATOM     23  H   UNL     1       6.453 -71.872 210.659  1.00  0.00     0.293 HD
ENDBRANCH   2  22
BRANCH   6  24
ATOM     24  O   UNL     1       2.325 -71.357 213.600  1.00  0.00    -0.507 OA
ATOM     25  H   UNL     1       1.822 -71.433 214.476  1.00  0.00     0.293 HD
ENDBRANCH   6  24
BRANCH   8  26
ATOM     26  O   UNL     1      -1.796 -71.590 211.100  1.00  0.00    -0.508 OA
ATOM     27  H   UNL     1      -2.331 -72.395 211.402  1.00  0.00     0.293 HD
ENDBRANCH   8  26
TORSDOF 6
ENDMDL
