MODEL 1
REMARK VINA RESULT:    -7.057      0.000      0.000
REMARK INTER + INTRA:          -8.557
REMARK INTER:                  -8.294
REMARK INTRA:                  -0.262
REMARK UNBOUND:                -0.262
REMARK SMILES O=c1cc(-c2ccc(O)c(O)c2)oc2cc(O)cc(O)c12
REMARK SMILES IDX 4 1 3 2 2 3 1 4 21 5 19 6 18 7 16 8 15 9 14 10 13 11 5 12
REMARK SMILES IDX 6 13 7 14 8 15 12 16 10 17 9 18 11 20 20 22 17 24
REMARK H PARENT 9 19 11 21 20 23 17 25
REMARK Flexibility Score: inf
ROOT
ATOM      1  C   UNL     1      22.355  48.009   3.241  1.00  0.00     0.138 A 
ATOM      2  C   UNL     1      21.702  46.769   3.247  1.00  0.00     0.100 A 
ATOM      3  C   UNL     1      21.040  46.343   4.401  1.00  0.00     0.197 A 
ATOM      4  O   UNL     1      20.417  45.251   4.357  1.00  0.00    -0.289 OA
ATOM      5  C   UNL     1      21.063  47.149   5.564  1.00  0.00     0.107 A 
ATOM      6  C   UNL     1      20.453  46.804   6.807  1.00  0.00     0.134 A 
ATOM      7  C   UNL     1      20.459  47.728   7.860  1.00  0.00     0.093 A 
ATOM      8  C   UNL     1      21.100  48.958   7.735  1.00  0.00     0.123 A 
ATOM      9  C   UNL     1      21.744  49.287   6.541  1.00  0.00     0.094 A 
ATOM     10  C   UNL     1      21.726  48.402   5.461  1.00  0.00     0.146 A 
ATOM     11  O   UNL     1      22.336  48.760   4.336  1.00  0.00    -0.456 OA
ENDROOT
BRANCH   1  12
ATOM     12  C   UNL     1      23.078  48.509   2.044  1.00  0.00     0.021 A 
ATOM     13  C   UNL     1      24.473  48.367   1.908  1.00  0.00     0.016 A 
ATOM     14  C   UNL     1      25.125  48.838   0.766  1.00  0.00     0.051 A 
ATOM     15  C   UNL     1      24.398  49.449  -0.262  1.00  0.00     0.157 A 
ATOM     16  C   UNL     1      22.354  49.111   1.000  1.00  0.00     0.062 A 
ATOM     17  C   UNL     1      23.010  49.584  -0.146  1.00  0.00     0.158 A 
BRANCH  15  18
ATOM     18  O   UNL     1      25.046  49.921  -1.402  1.00  0.00    -0.504 OA
ATOM     19  H   UNL     1      26.024  50.184  -1.385  1.00  0.00     0.293 HD
ENDBRANCH  15  18
BRANCH  17  20
ATOM     20  O   UNL     1      22.287  50.190  -1.173  1.00  0.00    -0.504 OA
ATOM     21  H   UNL     1      21.279  50.285  -1.128  1.00  0.00     0.293 HD
ENDBRANCH  17  20
ENDBRANCH   1  12
BRANCH   6  22
ATOM     22  O   UNL     1      19.852  45.568   7.068  1.00  0.00    -0.507 OA
ATOM     23  H   UNL     1      19.498  44.936   6.367  1.00  0.00     0.293 HD
ENDBRANCH   6  22
BRANCH   8  24
ATOM     24  O   UNL     1      21.099  49.846   8.808  1.00  0.00    -0.508 OA
ATOM     25  H   UNL     1      20.914  49.535   9.754  1.00  0.00     0.293 HD
ENDBRANCH   8  24
TORSDOF 5
ENDMDL
MODEL 2
REMARK VINA RESULT:    -6.655      1.951      3.977
REMARK INTER + INTRA:          -8.084
REMARK INTER:                  -7.804
REMARK INTRA:                  -0.280
REMARK UNBOUND:                -0.262
REMARK SMILES O=c1cc(-c2ccc(O)c(O)c2)oc2cc(O)cc(O)c12
REMARK SMILES IDX 4 1 3 2 2 3 1 4 21 5 19 6 18 7 16 8 15 9 14 10 13 11 5 12
REMARK SMILES IDX 6 13 7 14 8 15 12 16 10 17 9 18 11 20 20 22 17 24
REMARK H PARENT 9 19 11 21 20 23 17 25
REMARK Flexibility Score: inf
ROOT
ATOM      1  C   UNL     1      21.520  47.910   5.814  1.00  0.00     0.138 A 
ATOM      2  C   UNL     1      21.634  49.157   6.443  1.00  0.00     0.100 A 
ATOM      3  C   UNL     1      21.393  49.263   7.814  1.00  0.00     0.197 A 
ATOM      4  O   UNL     1      21.558  50.385   8.359  1.00  0.00    -0.289 OA
ATOM      5  C   UNL     1      21.001  48.120   8.550  1.00  0.00     0.107 A 
ATOM      6  C   UNL     1      20.696  48.114   9.945  1.00  0.00     0.134 A 
ATOM      7  C   UNL     1      20.415  46.901  10.585  1.00  0.00     0.093 A 
ATOM      8  C   UNL     1      20.370  45.704   9.873  1.00  0.00     0.123 A 
ATOM      9  C   UNL     1      20.617  45.703   8.500  1.00  0.00     0.094 A 
ATOM     10  C   UNL     1      20.935  46.892   7.839  1.00  0.00     0.146 A 
ATOM     11  O   UNL     1      21.181  46.846   6.533  1.00  0.00    -0.456 OA
ENDROOT
BRANCH   1  12
ATOM     12  C   UNL     1      21.761  47.740   4.359  1.00  0.00     0.021 A 
ATOM     13  C   UNL     1      20.975  46.874   3.574  1.00  0.00     0.016 A 
ATOM     14  C   UNL     1      21.217  46.743   2.204  1.00  0.00     0.051 A 
ATOM     15  C   UNL     1      22.240  47.477   1.594  1.00  0.00     0.157 A 
ATOM     16  C   UNL     1      22.778  48.485   3.734  1.00  0.00     0.062 A 
ATOM     17  C   UNL     1      23.021  48.351   2.359  1.00  0.00     0.158 A 
BRANCH  15  18
ATOM     18  O   UNL     1      22.486  47.347   0.228  1.00  0.00    -0.504 OA
ATOM     19  H   UNL     1      22.069  46.602  -0.317  1.00  0.00     0.293 HD
ENDBRANCH  15  18
BRANCH  17  20
ATOM     20  O   UNL     1      24.037  49.085   1.748  1.00  0.00    -0.504 OA
ATOM     21  H   UNL     1      24.592  49.756   2.266  1.00  0.00     0.293 HD
ENDBRANCH  17  20
ENDBRANCH   1  12
BRANCH   6  22
ATOM     22  O   UNL     1      20.634  49.265  10.738  1.00  0.00    -0.507 OA
ATOM     23  H   UNL     1      19.957  49.430  11.467  1.00  0.00     0.293 HD
ENDBRANCH   6  22
BRANCH   8  24
ATOM     24  O   UNL     1      20.072  44.517  10.541  1.00  0.00    -0.508 OA
ATOM     25  H   UNL     1      20.744  44.069  11.151  1.00  0.00     0.293 HD
ENDBRANCH   8  24
TORSDOF 5
ENDMDL
MODEL 3
REMARK VINA RESULT:    -5.646      1.573      6.890
REMARK INTER + INTRA:          -6.899
REMARK INTER:                  -6.605
REMARK INTRA:                  -0.294
REMARK UNBOUND:                -0.262
REMARK SMILES O=c1cc(-c2ccc(O)c(O)c2)oc2cc(O)cc(O)c12
REMARK SMILES IDX 4 1 3 2 2 3 1 4 21 5 19 6 18 7 16 8 15 9 14 10 13 11 5 12
REMARK SMILES IDX 6 13 7 14 8 15 12 16 10 17 9 18 11 20 20 22 17 24
REMARK H PARENT 9 19 11 21 20 23 17 25
REMARK Flexibility Score: inf
ROOT
ATOM      1  C   UNL     1      21.550  48.124   5.853  1.00  0.00     0.138 A 
ATOM      2  C   UNL     1      20.731  47.031   5.540  1.00  0.00     0.100 A 
ATOM      3  C   UNL     1      20.712  46.533   4.236  1.00  0.00     0.197 A 
ATOM      4  O   UNL     1      20.009  45.517   4.000  1.00  0.00    -0.289 OA
ATOM      5  C   UNL     1      21.492  47.157   3.233  1.00  0.00     0.107 A 
ATOM      6  C   UNL     1      21.527  46.758   1.863  1.00  0.00     0.134 A 
ATOM      7  C   UNL     1      22.413  47.391   0.982  1.00  0.00     0.093 A 
ATOM      8  C   UNL     1      23.222  48.444   1.406  1.00  0.00     0.123 A 
ATOM      9  C   UNL     1      23.160  48.876   2.731  1.00  0.00     0.094 A 
ATOM     10  C   UNL     1      22.313  48.242   3.643  1.00  0.00     0.146 A 
ATOM     11  O   UNL     1      22.296  48.673   4.900  1.00  0.00    -0.456 OA
ENDROOT
BRANCH   1  12
ATOM     12  C   UNL     1      21.606  48.697   7.222  1.00  0.00     0.021 A 
ATOM     13  C   UNL     1      22.355  49.855   7.510  1.00  0.00     0.016 A 
ATOM     14  C   UNL     1      22.380  50.378   8.805  1.00  0.00     0.051 A 
ATOM     15  C   UNL     1      21.655  49.761   9.831  1.00  0.00     0.157 A 
ATOM     16  C   UNL     1      20.869  48.092   8.255  1.00  0.00     0.062 A 
ATOM     17  C   UNL     1      20.896  48.618   9.556  1.00  0.00     0.158 A 
BRANCH  15  18
ATOM     18  O   UNL     1      21.679  50.279  11.125  1.00  0.00    -0.504 OA
ATOM     19  H   UNL     1      22.481  50.788  11.477  1.00  0.00     0.293 HD
ENDBRANCH  15  18
BRANCH  17  20
ATOM     20  O   UNL     1      20.170  48.007  10.578  1.00  0.00    -0.504 OA
ATOM     21  H   UNL     1      19.837  47.054  10.496  1.00  0.00     0.293 HD
ENDBRANCH  17  20
ENDBRANCH   1  12
BRANCH   6  22
ATOM     22  O   UNL     1      20.703  45.770   1.313  1.00  0.00    -0.507 OA
ATOM     23  H   UNL     1      20.647  45.542   0.333  1.00  0.00     0.293 HD
ENDBRANCH   6  22
BRANCH   8  24
ATOM     24  O   UNL     1      24.081  49.060   0.498  1.00  0.00    -0.508 OA
ATOM     25  H   UNL     1      24.815  48.544   0.029  1.00  0.00     0.293 HD
ENDBRANCH   8  24
TORSDOF 5
ENDMDL
MODEL 4
REMARK VINA RESULT:    -4.681      2.505      6.995
REMARK INTER + INTRA:          -5.764
REMARK INTER:                  -5.449
REMARK INTRA:                  -0.315
REMARK UNBOUND:                -0.262
REMARK SMILES O=c1cc(-c2ccc(O)c(O)c2)oc2cc(O)cc(O)c12
REMARK SMILES IDX 4 1 3 2 2 3 1 4 21 5 19 6 18 7 16 8 15 9 14 10 13 11 5 12
REMARK SMILES IDX 6 13 7 14 8 15 12 16 10 17 9 18 11 20 20 22 17 24
REMARK H PARENT 9 19 11 21 20 23 17 25
REMARK Flexibility Score: inf
ROOT
ATOM      1  C   UNL     1      21.711  48.358   5.772  1.00  0.00     0.138 A 
ATOM      2  C   UNL     1      22.208  49.094   4.689  1.00  0.00     0.100 A 
ATOM      3  C   UNL     1      22.142  48.558   3.401  1.00  0.00     0.197 A 
ATOM      4  O   UNL     1      22.546  49.266   2.443  1.00  0.00    -0.289 OA
ATOM      5  C   UNL     1      21.606  47.263   3.205  1.00  0.00     0.107 A 
ATOM      6  C   UNL     1      21.517  46.600   1.944  1.00  0.00     0.134 A 
ATOM      7  C   UNL     1      20.877  45.358   1.860  1.00  0.00     0.093 A 
ATOM      8  C   UNL     1      20.373  44.728   2.996  1.00  0.00     0.123 A 
ATOM      9  C   UNL     1      20.498  45.343   4.243  1.00  0.00     0.094 A 
ATOM     10  C   UNL     1      21.100  46.598   4.355  1.00  0.00     0.146 A 
ATOM     11  O   UNL     1      21.184  47.157   5.558  1.00  0.00    -0.456 OA
ENDROOT
BRANCH   1  12
ATOM     12  C   UNL     1      21.760  48.877   7.162  1.00  0.00     0.021 A 
ATOM     13  C   UNL     1      22.544  49.995   7.509  1.00  0.00     0.016 A 
ATOM     14  C   UNL     1      22.562  50.468   8.823  1.00  0.00     0.051 A 
ATOM     15  C   UNL     1      21.794  49.841   9.811  1.00  0.00     0.157 A 
ATOM     16  C   UNL     1      20.980  48.262   8.158  1.00  0.00     0.062 A 
ATOM     17  C   UNL     1      21.000  48.738   9.478  1.00  0.00     0.158 A 
BRANCH  15  18
ATOM     18  O   UNL     1      21.811  50.310  11.124  1.00  0.00    -0.504 OA
ATOM     19  H   UNL     1      20.964  50.368  11.676  1.00  0.00     0.293 HD
ENDBRANCH  15  18
BRANCH  17  20
ATOM     20  O   UNL     1      20.232  48.117  10.463  1.00  0.00    -0.504 OA
ATOM     21  H   UNL     1      20.227  47.110  10.576  1.00  0.00     0.293 HD
ENDBRANCH  17  20
ENDBRANCH   1  12
BRANCH   6  22
ATOM     22  O   UNL     1      22.058  47.102   0.755  1.00  0.00    -0.507 OA
ATOM     23  H   UNL     1      21.616  47.785   0.160  1.00  0.00     0.293 HD
ENDBRANCH   6  22
BRANCH   8  24
ATOM     24  O   UNL     1      19.755  43.485   2.877  1.00  0.00    -0.508 OA
ATOM     25  H   UNL     1      18.776  43.401   2.634  1.00  0.00     0.293 HD
ENDBRANCH   8  24
TORSDOF 5
ENDMDL
MODEL 5
REMARK VINA RESULT:    -4.515      2.491      4.369
REMARK INTER + INTRA:          -5.569
REMARK INTER:                  -5.254
REMARK INTRA:                  -0.315
REMARK UNBOUND:                -0.262
REMARK SMILES O=c1cc(-c2ccc(O)c(O)c2)oc2cc(O)cc(O)c12
REMARK SMILES IDX 4 1 3 2 2 3 1 4 21 5 19 6 18 7 16 8 15 9 14 10 13 11 5 12
REMARK SMILES IDX 6 13 7 14 8 15 12 16 10 17 9 18 11 20 20 22 17 24
REMARK H PARENT 9 19 11 21 20 23 17 25
REMARK Flexibility Score: inf
ROOT
ATOM      1  C   UNL     1      21.534  48.096   5.658  1.00  0.00     0.138 A 
ATOM      2  C   UNL     1      22.216  49.278   5.976  1.00  0.00     0.100 A 
ATOM      3  C   UNL     1      22.252  49.720   7.299  1.00  0.00     0.197 A 
ATOM      4  O   UNL     1      22.919  50.754   7.561  1.00  0.00    -0.289 OA
ATOM      5  C   UNL     1      21.570  48.992   8.303  1.00  0.00     0.107 A 
ATOM      6  C   UNL     1      21.509  49.364   9.680  1.00  0.00     0.134 A 
ATOM      7  C   UNL     1      20.885  48.511  10.599  1.00  0.00     0.093 A 
ATOM      8  C   UNL     1      20.272  47.330  10.185  1.00  0.00     0.123 A 
ATOM      9  C   UNL     1      20.281  46.980   8.834  1.00  0.00     0.094 A 
ATOM     10  C   UNL     1      20.926  47.792   7.898  1.00  0.00     0.146 A 
ATOM     11  O   UNL     1      20.927  47.415   6.624  1.00  0.00    -0.456 OA
ENDROOT
BRANCH   1  12
ATOM     12  C   UNL     1      21.459  47.582   4.267  1.00  0.00     0.021 A 
ATOM     13  C   UNL     1      21.804  48.384   3.161  1.00  0.00     0.016 A 
ATOM     14  C   UNL     1      21.735  47.870   1.864  1.00  0.00     0.051 A 
ATOM     15  C   UNL     1      21.329  46.548   1.649  1.00  0.00     0.157 A 
ATOM     16  C   UNL     1      21.067  46.251   4.042  1.00  0.00     0.062 A 
ATOM     17  C   UNL     1      20.997  45.736   2.739  1.00  0.00     0.158 A 
BRANCH  15  18
ATOM     18  O   UNL     1      21.258  46.032   0.355  1.00  0.00    -0.504 OA
ATOM     19  H   UNL     1      21.940  46.279  -0.352  1.00  0.00     0.293 HD
ENDBRANCH  15  18
BRANCH  17  20
ATOM     20  O   UNL     1      20.597  44.418   2.522  1.00  0.00    -0.504 OA
ATOM     21  H   UNL     1      19.646  44.188   2.258  1.00  0.00     0.293 HD
ENDBRANCH  17  20
ENDBRANCH   1  12
BRANCH   6  22
ATOM     22  O   UNL     1      22.019  50.562  10.191  1.00  0.00    -0.507 OA
ATOM     23  H   UNL     1      21.463  51.332  10.528  1.00  0.00     0.293 HD
ENDBRANCH   6  22
BRANCH   8  24
ATOM     24  O   UNL     1      19.648  46.513  11.125  1.00  0.00    -0.508 OA
ATOM     25  H   UNL     1      19.140  45.681  10.850  1.00  0.00     0.293 HD
ENDBRANCH   8  24
TORSDOF 5
ENDMDL
