MODEL 1
REMARK VINA RESULT:    -4.296      0.000      0.000
REMARK INTER + INTRA:          -6.909
REMARK INTER:                  -6.556
REMARK INTRA:                  -0.353
REMARK UNBOUND:                -0.353
REMARK SMILES CC1=CCC[C@@H](C)C(=O)C[C@H](C(C)C)C(=O)C1
REMARK SMILES IDX 8 1 9 2 6 3 7 4 5 5 4 6 3 7 2 8 1 9 10 11 11 12 15 13 16 14
REMARK SMILES IDX 17 15 12 17 13 18 14 19
REMARK H PARENT
REMARK Flexibility Score: 70.00
ROOT
ATOM      1  C   UNL     1      26.528  56.196  10.793  1.00  0.00     0.136 C 
ATOM      2  O   UNL     1      25.886  56.822   9.960  1.00  0.00    -0.299 OA
ENDROOT
BRANCH   1   3
ATOM      3  C   UNL     1      27.551  56.907  11.660  1.00  0.00     0.053 C 
ATOM      4  C   UNL     1      26.918  58.009  12.523  1.00  0.00     0.016 C 
BRANCH   3   5
ATOM      5  C   UNL     1      28.726  57.446  10.818  1.00  0.00     0.015 C 
BRANCH   5   6
ATOM      6  C   UNL     1      29.928  56.483  10.729  1.00  0.00     0.028 C 
BRANCH   6   7
ATOM      7  C   UNL     1      30.240  55.874  12.073  1.00  0.00    -0.028 C 
ATOM      8  C   UNL     1      30.142  54.554  12.364  1.00  0.00    -0.070 CG0
ATOM      9  C   UNL     1      30.453  54.115  13.772  1.00  0.00     0.039 C 
ATOM     10  G   UNL     1      29.746  53.504  11.337  1.00  0.00     0.000 G0
ENDBRANCH   6   7
ENDBRANCH   5   6
ENDBRANCH   3   5
ENDBRANCH   1   3
BRANCH   1  11
ATOM     11  C   UNL     1      26.282  54.713  10.941  1.00  0.00     0.087 C 
BRANCH  11  12
ATOM     12  C   UNL     1      27.381  53.867  10.247  1.00  0.00     0.066 C 
BRANCH  12  13
ATOM     13  C   UNL     1      28.253  53.205  11.302  1.00  0.00     0.140 C 
ATOM     14  O   UNL     1      27.758  52.388  12.065  1.00  0.00    -0.299 OA
BRANCH  13  15
ATOM     15  C   UNL     1      29.739  53.467  11.347  1.00  0.00     0.106 CG0
ATOM     16  G   UNL     1      30.112  54.546  12.352  1.00  0.00     0.000 G0
ENDBRANCH  13  15
ENDBRANCH  12  13
BRANCH  12  17
ATOM     17  C   UNL     1      26.792  52.795   9.273  1.00  0.00    -0.006 C 
ATOM     18  C   UNL     1      25.649  53.355   8.405  1.00  0.00     0.008 C 
ATOM     19  C   UNL     1      27.883  52.227   8.343  1.00  0.00     0.008 C 
ENDBRANCH  12  17
ENDBRANCH  11  12
ENDBRANCH   1  11
TORSDOF 1
ENDMDL
MODEL 2
REMARK VINA RESULT:    -4.206      5.076      7.567
REMARK INTER + INTRA:          -6.772
REMARK INTER:                  -6.537
REMARK INTRA:                  -0.235
REMARK UNBOUND:                -0.353
REMARK SMILES CC1=CCC[C@@H](C)C(=O)C[C@H](C(C)C)C(=O)C1
REMARK SMILES IDX 8 1 9 2 6 3 7 4 5 5 4 6 3 7 2 8 1 9 10 11 11 12 15 13 16 14
REMARK SMILES IDX 17 15 12 17 13 18 14 19
REMARK H PARENT
REMARK Flexibility Score: 70.00
ROOT
ATOM      1  C   UNL     1      26.085  50.992  17.083  1.00  0.00     0.136 C 
ATOM      2  O   UNL     1      25.436  50.333  17.885  1.00  0.00    -0.299 OA
ENDROOT
BRANCH   1   3
ATOM      3  C   UNL     1      27.092  50.310  16.174  1.00  0.00     0.053 C 
ATOM      4  C   UNL     1      26.460  49.177  15.351  1.00  0.00     0.016 C 
BRANCH   3   5
ATOM      5  C   UNL     1      28.324  49.823  16.962  1.00  0.00     0.015 C 
BRANCH   5   6
ATOM      6  C   UNL     1      29.580  50.698  16.769  1.00  0.00     0.028 C 
BRANCH   6   7
ATOM      7  C   UNL     1      29.614  51.305  15.388  1.00  0.00    -0.028 C 
ATOM      8  C   UNL     1      29.450  52.622  15.120  1.00  0.00    -0.070 CG0
ATOM      9  C   UNL     1      29.471  53.059  13.676  1.00  0.00     0.039 C 
ATOM     10  G   UNL     1      29.257  53.674  16.201  1.00  0.00     0.000 G0
ENDBRANCH   6   7
ENDBRANCH   5   6
ENDBRANCH   3   5
ENDBRANCH   1   3
BRANCH   1  11
ATOM     11  C   UNL     1      25.865  52.484  17.016  1.00  0.00     0.087 C 
BRANCH  11  12
ATOM     12  C   UNL     1      27.066  53.278  17.594  1.00  0.00     0.066 C 
BRANCH  12  13
ATOM     13  C   UNL     1      27.800  53.980  16.462  1.00  0.00     0.140 C 
ATOM     14  O   UNL     1      27.225  54.847  15.818  1.00  0.00    -0.299 OA
BRANCH  13  15
ATOM     15  C   UNL     1      29.258  53.695  16.198  1.00  0.00     0.106 CG0
ATOM     16  G   UNL     1      29.461  52.626  15.135  1.00  0.00     0.000 G0
ENDBRANCH  13  15
ENDBRANCH  12  13
BRANCH  12  17
ATOM     17  C   UNL     1      26.637  54.307  18.690  1.00  0.00    -0.006 C 
ATOM     18  C   UNL     1      25.888  53.641  19.859  1.00  0.00     0.008 C 
ATOM     19  C   UNL     1      27.857  55.062  19.253  1.00  0.00     0.008 C 
ENDBRANCH  12  17
ENDBRANCH  11  12
ENDBRANCH   1  11
TORSDOF 1
ENDMDL
MODEL 3
REMARK VINA RESULT:    -4.202      2.318      5.470
REMARK INTER + INTRA:          -6.765
REMARK INTER:                  -6.539
REMARK INTRA:                  -0.226
REMARK UNBOUND:                -0.353
REMARK SMILES CC1=CCC[C@@H](C)C(=O)C[C@H](C(C)C)C(=O)C1
REMARK SMILES IDX 8 1 9 2 6 3 7 4 5 5 4 6 3 7 2 8 1 9 10 11 11 12 15 13 16 14
REMARK SMILES IDX 17 15 12 17 13 18 14 19
REMARK H PARENT
REMARK Flexibility Score: 70.00
ROOT
ATOM      1  C   UNL     1      28.764  54.047  11.083  1.00  0.00     0.136 C 
ATOM      2  O   UNL     1      29.878  54.549  11.010  1.00  0.00    -0.299 OA
ENDROOT
BRANCH   1   3
ATOM      3  C   UNL     1      28.517  52.655  10.529  1.00  0.00     0.053 C 
ATOM      4  C   UNL     1      29.791  51.796  10.522  1.00  0.00     0.016 C 
BRANCH   3   5
ATOM      5  C   UNL     1      27.860  52.711   9.136  1.00  0.00     0.015 C 
BRANCH   5   6
ATOM      6  C   UNL     1      26.317  52.693   9.169  1.00  0.00     0.028 C 
BRANCH   6   7
ATOM      7  C   UNL     1      25.740  53.816   8.344  1.00  0.00    -0.028 C 
ATOM      8  C   UNL     1      25.162  54.930   8.854  1.00  0.00    -0.070 CG0
ATOM      9  C   UNL     1      24.597  55.940   7.887  1.00  0.00     0.039 C 
ATOM     10  G   UNL     1      25.066  55.208  10.346  1.00  0.00     0.000 G0
ENDBRANCH   6   7
ENDBRANCH   5   6
ENDBRANCH   3   5
ENDBRANCH   1   3
BRANCH   1  11
ATOM     11  C   UNL     1      27.650  54.833  11.731  1.00  0.00     0.087 C 
BRANCH  11  12
ATOM     12  C   UNL     1      27.403  56.189  11.020  1.00  0.00     0.066 C 
BRANCH  12  13
ATOM     13  C   UNL     1      25.911  56.382  10.800  1.00  0.00     0.140 C 
ATOM     14  O   UNL     1      25.427  57.500  10.900  1.00  0.00    -0.299 OA
BRANCH  13  15
ATOM     15  C   UNL     1      25.044  55.229  10.356  1.00  0.00     0.106 CG0
ATOM     16  G   UNL     1      25.165  54.947   8.866  1.00  0.00     0.000 G0
ENDBRANCH  13  15
ENDBRANCH  12  13
BRANCH  12  17
ATOM     17  C   UNL     1      28.000  57.400  11.808  1.00  0.00    -0.006 C 
ATOM     18  C   UNL     1      28.325  57.046  13.271  1.00  0.00     0.008 C 
ATOM     19  C   UNL     1      29.283  57.927  11.134  1.00  0.00     0.008 C 
ENDBRANCH  12  17
ENDBRANCH  11  12
ENDBRANCH   1  11
TORSDOF 1
ENDMDL
MODEL 4
REMARK VINA RESULT:    -4.169      2.969      5.787
REMARK INTER + INTRA:          -6.716
REMARK INTER:                  -6.808
REMARK INTRA:                   0.092
REMARK UNBOUND:                -0.353
REMARK SMILES CC1=CCC[C@@H](C)C(=O)C[C@H](C(C)C)C(=O)C1
REMARK SMILES IDX 8 1 9 2 6 3 7 4 5 5 4 6 3 7 2 8 1 9 10 11 11 12 15 13 16 14
REMARK SMILES IDX 17 15 12 17 13 18 14 19
REMARK H PARENT
REMARK Flexibility Score: 70.00
ROOT
ATOM      1  C   UNL     1      25.536  54.976   8.066  1.00  0.00     0.136 C 
ATOM      2  O   UNL     1      25.033  56.092   8.074  1.00  0.00    -0.299 OA
ENDROOT
BRANCH   1   3
ATOM      3  C   UNL     1      25.453  54.112   6.820  1.00  0.00     0.053 C 
ATOM      4  C   UNL     1      25.569  54.938   5.530  1.00  0.00     0.016 C 
BRANCH   3   5
ATOM      5  C   UNL     1      24.184  53.236   6.825  1.00  0.00     0.015 C 
BRANCH   5   6
ATOM      6  C   UNL     1      24.135  52.209   7.975  1.00  0.00     0.028 C 
BRANCH   6   7
ATOM      7  C   UNL     1      23.059  52.559   8.973  1.00  0.00    -0.028 C 
ATOM      8  C   UNL     1      23.274  52.789  10.290  1.00  0.00    -0.070 CG0
ATOM      9  C   UNL     1      22.080  53.088  11.161  1.00  0.00     0.039 C 
ATOM     10  G   UNL     1      24.657  52.771  10.923  1.00  0.00     0.000 G0
ENDBRANCH   6   7
ENDBRANCH   5   6
ENDBRANCH   3   5
ENDBRANCH   1   3
BRANCH   1  11
ATOM     11  C   UNL     1      26.234  54.481   9.310  1.00  0.00     0.087 C 
BRANCH  11  12
ATOM     12  C   UNL     1      25.703  55.173  10.592  1.00  0.00     0.066 C 
BRANCH  12  13
ATOM     13  C   UNL     1      25.044  54.138  11.490  1.00  0.00     0.140 C 
ATOM     14  O   UNL     1      24.749  54.438  12.639  1.00  0.00    -0.299 OA
BRANCH  13  15
ATOM     15  C   UNL     1      24.654  52.785  10.947  1.00  0.00     0.106 CG0
ATOM     16  G   UNL     1      23.283  52.793  10.288  1.00  0.00     0.000 G0
ENDBRANCH  13  15
ENDBRANCH  12  13
BRANCH  12  17
ATOM     17  C   UNL     1      26.822  55.939  11.370  1.00  0.00    -0.006 C 
ATOM     18  C   UNL     1      28.234  55.439  11.013  1.00  0.00     0.008 C 
ATOM     19  C   UNL     1      26.753  57.455  11.097  1.00  0.00     0.008 C 
ENDBRANCH  12  17
ENDBRANCH  11  12
ENDBRANCH   1  11
TORSDOF 1
ENDMDL
MODEL 5
REMARK VINA RESULT:    -4.116      2.241      4.678
REMARK INTER + INTRA:          -6.635
REMARK INTER:                  -6.539
REMARK INTRA:                  -0.096
REMARK UNBOUND:                -0.353
REMARK SMILES CC1=CCC[C@@H](C)C(=O)C[C@H](C(C)C)C(=O)C1
REMARK SMILES IDX 8 1 9 2 6 3 7 4 5 5 4 6 3 7 2 8 1 9 10 11 11 12 15 13 16 14
REMARK SMILES IDX 17 15 12 17 13 18 14 19
REMARK H PARENT
REMARK Flexibility Score: 70.00
ROOT
ATOM      1  C   UNL     1      26.641  52.724   8.628  1.00  0.00     0.136 C 
ATOM      2  O   UNL     1      27.538  52.158   8.016  1.00  0.00    -0.299 OA
ENDROOT
BRANCH   1   3
ATOM      3  C   UNL     1      25.402  53.204   7.893  1.00  0.00     0.053 C 
ATOM      4  C   UNL     1      25.734  53.788   6.511  1.00  0.00     0.016 C 
BRANCH   3   5
ATOM      5  C   UNL     1      24.586  54.193   8.749  1.00  0.00     0.015 C 
BRANCH   5   6
ATOM      6  C   UNL     1      24.870  55.677   8.436  1.00  0.00     0.028 C 
BRANCH   6   7
ATOM      7  C   UNL     1      24.794  56.522   9.683  1.00  0.00    -0.028 C 
ATOM      8  C   UNL     1      25.835  56.763  10.516  1.00  0.00    -0.070 CG0
ATOM      9  C   UNL     1      25.579  57.598  11.745  1.00  0.00     0.039 C 
ATOM     10  G   UNL     1      27.242  56.243  10.262  1.00  0.00     0.000 G0
ENDBRANCH   6   7
ENDBRANCH   5   6
ENDBRANCH   3   5
ENDBRANCH   1   3
BRANCH   1  11
ATOM     11  C   UNL     1      26.791  52.933  10.116  1.00  0.00     0.087 C 
BRANCH  11  12
ATOM     12  C   UNL     1      28.054  53.763  10.465  1.00  0.00     0.066 C 
BRANCH  12  13
ATOM     13  C   UNL     1      27.636  55.073  11.113  1.00  0.00     0.140 C 
ATOM     14  O   UNL     1      27.692  55.188  12.329  1.00  0.00    -0.299 OA
BRANCH  13  15
ATOM     15  C   UNL     1      27.256  56.263  10.266  1.00  0.00     0.106 CG0
ATOM     16  G   UNL     1      25.840  56.747  10.541  1.00  0.00     0.000 G0
ENDBRANCH  13  15
ENDBRANCH  12  13
BRANCH  12  17
ATOM     17  C   UNL     1      29.048  52.987  11.389  1.00  0.00    -0.006 C 
ATOM     18  C   UNL     1      28.394  51.764  12.059  1.00  0.00     0.008 C 
ATOM     19  C   UNL     1      30.286  52.513  10.603  1.00  0.00     0.008 C 
ENDBRANCH  12  17
ENDBRANCH  11  12
ENDBRANCH   1  11
TORSDOF 1
ENDMDL
MODEL 6
REMARK VINA RESULT:    -4.108      2.882      5.655
REMARK INTER + INTRA:          -6.623
REMARK INTER:                  -6.514
REMARK INTRA:                  -0.110
REMARK UNBOUND:                -0.353
REMARK SMILES CC1=CCC[C@@H](C)C(=O)C[C@H](C(C)C)C(=O)C1
REMARK SMILES IDX 8 1 9 2 6 3 7 4 5 5 4 6 3 7 2 8 1 9 10 11 11 12 15 13 16 14
REMARK SMILES IDX 17 15 12 17 13 18 14 19
REMARK H PARENT
REMARK Flexibility Score: 70.00
ROOT
ATOM      1  C   UNL     1      26.706  52.593   8.362  1.00  0.00     0.136 C 
ATOM      2  O   UNL     1      27.853  52.315   8.038  1.00  0.00    -0.299 OA
ENDROOT
BRANCH   1   3
ATOM      3  C   UNL     1      25.667  52.902   7.299  1.00  0.00     0.053 C 
ATOM      4  C   UNL     1      25.557  54.407   7.012  1.00  0.00     0.016 C 
BRANCH   3   5
ATOM      5  C   UNL     1      24.298  52.287   7.652  1.00  0.00     0.015 C 
BRANCH   5   6
ATOM      6  C   UNL     1      23.236  53.323   8.077  1.00  0.00     0.028 C 
BRANCH   6   7
ATOM      7  C   UNL     1      22.819  53.119   9.512  1.00  0.00    -0.028 C 
ATOM      8  C   UNL     1      23.336  53.789  10.569  1.00  0.00    -0.070 CG0
ATOM      9  C   UNL     1      22.835  53.435  11.946  1.00  0.00     0.039 C 
ATOM     10  G   UNL     1      24.384  54.883  10.428  1.00  0.00     0.000 G0
ENDBRANCH   6   7
ENDBRANCH   5   6
ENDBRANCH   3   5
ENDBRANCH   1   3
BRANCH   1  11
ATOM     11  C   UNL     1      26.348  52.622   9.829  1.00  0.00     0.087 C 
BRANCH  11  12
ATOM     12  C   UNL     1      26.837  53.920  10.523  1.00  0.00     0.066 C 
BRANCH  12  13
ATOM     13  C   UNL     1      25.658  54.615  11.186  1.00  0.00     0.140 C 
ATOM     14  O   UNL     1      25.770  55.031  12.331  1.00  0.00    -0.299 OA
BRANCH  13  15
ATOM     15  C   UNL     1      24.394  54.891  10.410  1.00  0.00     0.106 CG0
ATOM     16  G   UNL     1      23.350  53.799  10.588  1.00  0.00     0.000 G0
ENDBRANCH  13  15
ENDBRANCH  12  13
BRANCH  12  17
ATOM     17  C   UNL     1      27.972  53.654  11.566  1.00  0.00    -0.006 C 
ATOM     18  C   UNL     1      27.957  52.208  12.094  1.00  0.00     0.008 C 
ATOM     19  C   UNL     1      29.361  53.944  10.963  1.00  0.00     0.008 C 
ENDBRANCH  12  17
ENDBRANCH  11  12
ENDBRANCH   1  11
TORSDOF 1
ENDMDL
MODEL 7
REMARK VINA RESULT:    -4.098      2.017      4.596
REMARK INTER + INTRA:          -6.607
REMARK INTER:                  -6.681
REMARK INTRA:                   0.074
REMARK UNBOUND:                -0.353
REMARK SMILES CC1=CCC[C@@H](C)C(=O)C[C@H](C(C)C)C(=O)C1
REMARK SMILES IDX 8 1 9 2 6 3 7 4 5 5 4 6 3 7 2 8 1 9 10 11 11 12 15 13 16 14
REMARK SMILES IDX 17 15 12 17 13 18 14 19
REMARK H PARENT
REMARK Flexibility Score: 70.00
ROOT
ATOM      1  C   UNL     1      25.374  56.597  10.093  1.00  0.00     0.136 C 
ATOM      2  O   UNL     1      25.076  57.365  10.998  1.00  0.00    -0.299 OA
ENDROOT
BRANCH   1   3
ATOM      3  C   UNL     1      24.325  56.160   9.086  1.00  0.00     0.053 C 
ATOM      4  C   UNL     1      23.281  55.218   9.705  1.00  0.00     0.016 C 
BRANCH   3   5
ATOM      5  C   UNL     1      24.972  55.546   7.828  1.00  0.00     0.015 C 
BRANCH   5   6
ATOM      6  C   UNL     1      24.595  54.070   7.585  1.00  0.00     0.028 C 
BRANCH   6   7
ATOM      7  C   UNL     1      25.825  53.204   7.468  1.00  0.00    -0.028 C 
ATOM      8  C   UNL     1      26.574  52.783   8.514  1.00  0.00    -0.070 CG0
ATOM      9  C   UNL     1      27.800  51.955   8.220  1.00  0.00     0.039 C 
ATOM     10  G   UNL     1      26.231  53.096   9.963  1.00  0.00     0.000 G0
ENDBRANCH   6   7
ENDBRANCH   5   6
ENDBRANCH   3   5
ENDBRANCH   1   3
BRANCH   1  11
ATOM     11  C   UNL     1      26.796  56.096  10.000  1.00  0.00     0.087 C 
BRANCH  11  12
ATOM     12  C   UNL     1      27.175  55.188  11.199  1.00  0.00     0.066 C 
BRANCH  12  13
ATOM     13  C   UNL     1      27.336  53.754  10.718  1.00  0.00     0.140 C 
ATOM     14  O   UNL     1      28.344  53.129  11.017  1.00  0.00    -0.299 OA
BRANCH  13  15
ATOM     15  C   UNL     1      26.223  53.064   9.969  1.00  0.00     0.106 CG0
ATOM     16  G   UNL     1      26.582  52.781   8.519  1.00  0.00     0.000 G0
ENDBRANCH  13  15
ENDBRANCH  12  13
BRANCH  12  17
ATOM     17  C   UNL     1      28.469  55.668  11.933  1.00  0.00    -0.006 C 
ATOM     18  C   UNL     1      29.378  56.517  11.026  1.00  0.00     0.008 C 
ATOM     19  C   UNL     1      28.124  56.489  13.191  1.00  0.00     0.008 C 
ENDBRANCH  12  17
ENDBRANCH  11  12
ENDBRANCH   1  11
TORSDOF 1
ENDMDL
MODEL 8
REMARK VINA RESULT:    -3.992      6.315      8.119
REMARK INTER + INTRA:          -6.446
REMARK INTER:                  -6.457
REMARK INTRA:                   0.010
REMARK UNBOUND:                -0.353
REMARK SMILES CC1=CCC[C@@H](C)C(=O)C[C@H](C(C)C)C(=O)C1
REMARK SMILES IDX 8 1 9 2 6 3 7 4 5 5 4 6 3 7 2 8 1 9 10 11 11 12 15 13 16 14
REMARK SMILES IDX 17 15 12 17 13 18 14 19
REMARK H PARENT
REMARK Flexibility Score: 70.00
ROOT
ATOM      1  C   UNL     1      26.761  54.526  19.021  1.00  0.00     0.136 C 
ATOM      2  O   UNL     1      27.544  54.888  19.889  1.00  0.00    -0.299 OA
ENDROOT
BRANCH   1   3
ATOM      3  C   UNL     1      25.412  53.945  19.404  1.00  0.00     0.053 C 
ATOM      4  C   UNL     1      24.641  54.852  20.376  1.00  0.00     0.016 C 
BRANCH   3   5
ATOM      5  C   UNL     1      25.551  52.510  19.952  1.00  0.00     0.015 C 
BRANCH   5   6
ATOM      6  C   UNL     1      24.641  51.480  19.252  1.00  0.00     0.028 C 
BRANCH   6   7
ATOM      7  C   UNL     1      25.449  50.509  18.427  1.00  0.00    -0.028 C 
ATOM      8  C   UNL     1      25.881  50.742  17.165  1.00  0.00    -0.070 CG0
ATOM      9  C   UNL     1      26.645  49.647  16.465  1.00  0.00     0.039 C 
ATOM     10  G   UNL     1      25.642  52.054  16.433  1.00  0.00     0.000 G0
ENDBRANCH   6   7
ENDBRANCH   5   6
ENDBRANCH   3   5
ENDBRANCH   1   3
BRANCH   1  11
ATOM     11  C   UNL     1      27.161  54.670  17.572  1.00  0.00     0.087 C 
BRANCH  11  12
ATOM     12  C   UNL     1      27.840  53.387  17.024  1.00  0.00     0.066 C 
BRANCH  12  13
ATOM     13  C   UNL     1      26.929  52.729  16.000  1.00  0.00     0.140 C 
ATOM     14  O   UNL     1      27.279  52.674  14.830  1.00  0.00    -0.299 OA
BRANCH  13  15
ATOM     15  C   UNL     1      25.652  52.051  16.431  1.00  0.00     0.106 CG0
ATOM     16  G   UNL     1      25.904  50.747  17.173  1.00  0.00     0.000 G0
ENDBRANCH  13  15
ENDBRANCH  12  13
BRANCH  12  17
ATOM     17  C   UNL     1      29.248  53.669  16.404  1.00  0.00    -0.006 C 
ATOM     18  C   UNL     1      29.935  54.892  17.039  1.00  0.00     0.008 C 
ATOM     19  C   UNL     1      30.178  52.449  16.555  1.00  0.00     0.008 C 
ENDBRANCH  12  17
ENDBRANCH  11  12
ENDBRANCH   1  11
TORSDOF 1
ENDMDL
MODEL 9
REMARK VINA RESULT:    -3.926      1.684      4.171
REMARK INTER + INTRA:          -6.345
REMARK INTER:                  -6.948
REMARK INTRA:                   0.603
REMARK UNBOUND:                -0.353
REMARK SMILES CC1=CCC[C@@H](C)C(=O)C[C@H](C(C)C)C(=O)C1
REMARK SMILES IDX 8 1 9 2 6 3 7 4 5 5 4 6 3 7 2 8 1 9 10 11 11 12 15 13 16 14
REMARK SMILES IDX 17 15 12 17 13 18 14 19
REMARK H PARENT
REMARK Flexibility Score: 70.00
ROOT
ATOM      1  C   UNL     1      26.465  56.721  10.515  1.00  0.00     0.136 C 
ATOM      2  O   UNL     1      25.489  57.395  10.815  1.00  0.00    -0.299 OA
ENDROOT
BRANCH   1   3
ATOM      3  C   UNL     1      26.282  55.352   9.884  1.00  0.00     0.053 C 
ATOM      4  C   UNL     1      24.843  55.122   9.398  1.00  0.00     0.016 C 
BRANCH   3   5
ATOM      5  C   UNL     1      26.751  54.228  10.830  1.00  0.00     0.015 C 
BRANCH   5   6
ATOM      6  C   UNL     1      28.111  53.610  10.444  1.00  0.00     0.028 C 
BRANCH   6   7
ATOM      7  C   UNL     1      28.906  53.231  11.668  1.00  0.00    -0.028 C 
ATOM      8  C   UNL     1      29.666  54.088  12.391  1.00  0.00    -0.070 CG0
ATOM      9  C   UNL     1      30.432  53.536  13.567  1.00  0.00     0.039 C 
ATOM     10  G   UNL     1      29.772  55.572  12.077  1.00  0.00     0.000 G0
ENDBRANCH   6   7
ENDBRANCH   5   6
ENDBRANCH   3   5
ENDBRANCH   1   3
BRANCH   1  11
ATOM     11  C   UNL     1      27.845  57.275  10.781  1.00  0.00     0.087 C 
BRANCH  11  12
ATOM     12  C   UNL     1      28.074  57.572  12.286  1.00  0.00     0.066 C 
BRANCH  12  13
ATOM     13  C   UNL     1      28.866  56.435  12.911  1.00  0.00     0.140 C 
ATOM     14  O   UNL     1      28.690  56.154  14.088  1.00  0.00    -0.299 OA
BRANCH  13  15
ATOM     15  C   UNL     1      29.785  55.584  12.069  1.00  0.00     0.106 CG0
ATOM     16  G   UNL     1      29.670  54.103  12.394  1.00  0.00     0.000 G0
ENDBRANCH  13  15
ENDBRANCH  12  13
BRANCH  12  17
ATOM     17  C   UNL     1      28.794  58.939  12.527  1.00  0.00    -0.006 C 
ATOM     18  C   UNL     1      28.681  59.412  13.988  1.00  0.00     0.008 C 
ATOM     19  C   UNL     1      30.287  58.856  12.151  1.00  0.00     0.008 C 
ENDBRANCH  12  17
ENDBRANCH  11  12
ENDBRANCH   1  11
TORSDOF 1
ENDMDL
