MODEL 1
REMARK VINA RESULT:    -5.156      0.000      0.000
REMARK INTER + INTRA:          -5.622
REMARK INTER:                  -5.608
REMARK INTRA:                  -0.014
REMARK UNBOUND:                -0.014
REMARK SMILES OCc1ccccc1
REMARK SMILES IDX 2 1 3 2 6 3 5 4 7 5 4 6 8 7 1 8
REMARK H PARENT 1 9
REMARK Flexibility Score: inf
ROOT
ATOM      1  C   UNL     1      20.803  26.365  25.360  1.00  0.00     0.191 C 
ENDROOT
BRANCH   1   2
ATOM      2  C   UNL     1      20.620  25.000  25.963  1.00  0.00    -0.023 A 
ATOM      3  C   UNL     1      20.216  22.481  27.132  1.00  0.00     0.000 A 
ATOM      4  C   UNL     1      21.086  23.397  27.730  1.00  0.00     0.000 A 
ATOM      5  C   UNL     1      19.540  22.823  25.957  1.00  0.00     0.000 A 
ATOM      6  C   UNL     1      21.284  24.656  27.153  1.00  0.00     0.006 A 
ATOM      7  C   UNL     1      19.735  24.080  25.376  1.00  0.00     0.006 A 
ENDBRANCH   1   2
BRANCH   1   8
ATOM      8  O   UNL     1      22.155  26.730  25.395  1.00  0.00    -0.392 OA
ATOM      9  H   UNL     1      22.666  25.904  25.603  1.00  0.00     0.211 HD
ENDBRANCH   1   8
TORSDOF 2
ENDMDL
MODEL 2
REMARK VINA RESULT:    -5.148      0.041      1.714
REMARK INTER + INTRA:          -5.614
REMARK INTER:                  -5.598
REMARK INTRA:                  -0.016
REMARK UNBOUND:                -0.014
REMARK SMILES OCc1ccccc1
REMARK SMILES IDX 2 1 3 2 6 3 5 4 7 5 4 6 8 7 1 8
REMARK H PARENT 1 9
REMARK Flexibility Score: inf
ROOT
ATOM      1  C   UNL     1      20.795  26.353  25.343  1.00  0.00     0.191 C 
ENDROOT
BRANCH   1   2
ATOM      2  C   UNL     1      20.585  25.003  25.971  1.00  0.00    -0.023 A 
ATOM      3  C   UNL     1      20.257  22.455  27.098  1.00  0.00     0.000 A 
ATOM      4  C   UNL     1      19.551  22.805  25.944  1.00  0.00     0.000 A 
ATOM      5  C   UNL     1      21.134  23.371  27.685  1.00  0.00     0.000 A 
ATOM      6  C   UNL     1      19.717  24.072  25.376  1.00  0.00     0.006 A 
ATOM      7  C   UNL     1      21.304  24.639  27.122  1.00  0.00     0.006 A 
ENDBRANCH   1   2
BRANCH   1   8
ATOM      8  O   UNL     1      22.146  26.716  25.419  1.00  0.00    -0.392 OA
ATOM      9  H   UNL     1      22.660  25.985  24.986  1.00  0.00     0.211 HD
ENDBRANCH   1   8
TORSDOF 2
ENDMDL
MODEL 3
REMARK VINA RESULT:    -5.125      1.811      2.704
REMARK INTER + INTRA:          -5.589
REMARK INTER:                  -5.579
REMARK INTRA:                  -0.010
REMARK UNBOUND:                -0.014
REMARK SMILES OCc1ccccc1
REMARK SMILES IDX 2 1 3 2 6 3 5 4 7 5 4 6 8 7 1 8
REMARK H PARENT 1 9
REMARK Flexibility Score: inf
ROOT
ATOM      1  C   UNL     1      21.829  24.649  28.705  1.00  0.00     0.191 C 
ENDROOT
BRANCH   1   2
ATOM      2  C   UNL     1      21.031  24.145  27.535  1.00  0.00    -0.023 A 
ATOM      3  C   UNL     1      19.474  23.235  25.385  1.00  0.00     0.000 A 
ATOM      4  C   UNL     1      19.678  22.414  26.497  1.00  0.00     0.000 A 
ATOM      5  C   UNL     1      20.036  24.514  25.349  1.00  0.00     0.000 A 
ATOM      6  C   UNL     1      20.449  22.867  27.573  1.00  0.00     0.006 A 
ATOM      7  C   UNL     1      20.808  24.972  26.422  1.00  0.00     0.006 A 
ENDBRANCH   1   2
BRANCH   1   8
ATOM      8  O   UNL     1      21.002  25.368  29.579  1.00  0.00    -0.392 OA
ATOM      9  H   UNL     1      21.463  25.380  30.459  1.00  0.00     0.211 HD
ENDBRANCH   1   8
TORSDOF 2
ENDMDL
MODEL 4
REMARK VINA RESULT:    -5.026      1.827      2.740
REMARK INTER + INTRA:          -5.481
REMARK INTER:                  -5.472
REMARK INTRA:                  -0.009
REMARK UNBOUND:                -0.014
REMARK SMILES OCc1ccccc1
REMARK SMILES IDX 2 1 3 2 6 3 5 4 7 5 4 6 8 7 1 8
REMARK H PARENT 1 9
REMARK Flexibility Score: inf
ROOT
ATOM      1  C   UNL     1      21.771  24.665  28.675  1.00  0.00     0.191 C 
ENDROOT
BRANCH   1   2
ATOM      2  C   UNL     1      20.969  24.027  27.575  1.00  0.00    -0.023 A 
ATOM      3  C   UNL     1      19.543  22.811  25.487  1.00  0.00     0.000 A 
ATOM      4  C   UNL     1      19.932  24.149  25.381  1.00  0.00     0.000 A 
ATOM      5  C   UNL     1      19.873  22.075  26.628  1.00  0.00     0.000 A 
ATOM      6  C   UNL     1      20.649  24.756  26.418  1.00  0.00     0.006 A 
ATOM      7  C   UNL     1      20.589  22.678  27.668  1.00  0.00     0.006 A 
ENDBRANCH   1   2
BRANCH   1   8
ATOM      8  O   UNL     1      20.920  25.333  29.566  1.00  0.00    -0.392 OA
ATOM      9  H   UNL     1      20.966  26.297  29.332  1.00  0.00     0.211 HD
ENDBRANCH   1   8
TORSDOF 2
ENDMDL
MODEL 5
REMARK VINA RESULT:    -4.831      2.399      3.200
REMARK INTER + INTRA:          -5.269
REMARK INTER:                  -5.255
REMARK INTRA:                  -0.014
REMARK UNBOUND:                -0.014
REMARK SMILES OCc1ccccc1
REMARK SMILES IDX 2 1 3 2 6 3 5 4 7 5 4 6 8 7 1 8
REMARK H PARENT 1 9
REMARK Flexibility Score: inf
ROOT
ATOM      1  C   UNL     1      19.493  23.242  25.780  1.00  0.00     0.191 C 
ENDROOT
BRANCH   1   2
ATOM      2  C   UNL     1      20.395  23.245  26.982  1.00  0.00    -0.023 A 
ATOM      3  C   UNL     1      22.014  23.264  29.274  1.00  0.00     0.000 A 
ATOM      4  C   UNL     1      21.780  24.451  28.574  1.00  0.00     0.000 A 
ATOM      5  C   UNL     1      21.433  22.070  28.839  1.00  0.00     0.000 A 
ATOM      6  C   UNL     1      20.968  24.445  27.435  1.00  0.00     0.006 A 
ATOM      7  C   UNL     1      20.621  22.059  27.700  1.00  0.00     0.006 A 
ENDBRANCH   1   2
BRANCH   1   8
ATOM      8  O   UNL     1      18.274  22.626  26.093  1.00  0.00    -0.392 OA
ATOM      9  H   UNL     1      18.182  22.667  27.081  1.00  0.00     0.211 HD
ENDBRANCH   1   8
TORSDOF 2
ENDMDL
MODEL 6
REMARK VINA RESULT:    -4.543     10.731     11.629
REMARK INTER + INTRA:          -4.956
REMARK INTER:                  -4.937
REMARK INTRA:                  -0.019
REMARK UNBOUND:                -0.014
REMARK SMILES OCc1ccccc1
REMARK SMILES IDX 2 1 3 2 6 3 5 4 7 5 4 6 8 7 1 8
REMARK H PARENT 1 9
REMARK Flexibility Score: inf
ROOT
ATOM      1  C   UNL     1      18.446  29.046  35.828  1.00  0.00     0.191 C 
ENDROOT
BRANCH   1   2
ATOM      2  C   UNL     1      19.659  28.677  36.634  1.00  0.00    -0.023 A 
ATOM      3  C   UNL     1      21.972  28.009  38.077  1.00  0.00     0.000 A 
ATOM      4  C   UNL     1      21.327  27.040  37.304  1.00  0.00     0.000 A 
ATOM      5  C   UNL     1      21.471  29.313  38.124  1.00  0.00     0.000 A 
ATOM      6  C   UNL     1      20.177  27.371  36.579  1.00  0.00     0.006 A 
ATOM      7  C   UNL     1      20.322  29.649  37.401  1.00  0.00     0.006 A 
ENDBRANCH   1   2
BRANCH   1   8
ATOM      8  O   UNL     1      18.251  28.116  34.797  1.00  0.00    -0.392 OA
ATOM      9  H   UNL     1      18.932  28.317  34.103  1.00  0.00     0.211 HD
ENDBRANCH   1   8
TORSDOF 2
ENDMDL
MODEL 7
REMARK VINA RESULT:    -4.539     10.745     11.575
REMARK INTER + INTRA:          -4.951
REMARK INTER:                  -4.933
REMARK INTRA:                  -0.018
REMARK UNBOUND:                -0.014
REMARK SMILES OCc1ccccc1
REMARK SMILES IDX 2 1 3 2 6 3 5 4 7 5 4 6 8 7 1 8
REMARK H PARENT 1 9
REMARK Flexibility Score: inf
ROOT
ATOM      1  C   UNL     1      18.444  29.043  35.861  1.00  0.00     0.191 C 
ENDROOT
BRANCH   1   2
ATOM      2  C   UNL     1      19.694  28.688  36.617  1.00  0.00    -0.023 A 
ATOM      3  C   UNL     1      21.982  28.005  38.091  1.00  0.00     0.000 A 
ATOM      4  C   UNL     1      21.483  29.309  38.140  1.00  0.00     0.000 A 
ATOM      5  C   UNL     1      21.336  27.038  37.316  1.00  0.00     0.000 A 
ATOM      6  C   UNL     1      20.339  29.651  37.411  1.00  0.00     0.006 A 
ATOM      7  C   UNL     1      20.192  27.375  36.585  1.00  0.00     0.006 A 
ENDBRANCH   1   2
BRANCH   1   8
ATOM      8  O   UNL     1      18.250  28.145  34.803  1.00  0.00    -0.392 OA
ATOM      9  H   UNL     1      18.809  27.349  35.001  1.00  0.00     0.211 HD
ENDBRANCH   1   8
TORSDOF 2
ENDMDL
MODEL 8
REMARK VINA RESULT:    -4.142     11.699     12.445
REMARK INTER + INTRA:          -4.520
REMARK INTER:                  -4.510
REMARK INTRA:                  -0.010
REMARK UNBOUND:                -0.014
REMARK SMILES OCc1ccccc1
REMARK SMILES IDX 2 1 3 2 6 3 5 4 7 5 4 6 8 7 1 8
REMARK H PARENT 1 9
REMARK Flexibility Score: inf
ROOT
ATOM      1  C   UNL     1      20.267  31.204  37.977  1.00  0.00     0.191 C 
ENDROOT
BRANCH   1   2
ATOM      2  C   UNL     1      20.605  29.771  37.674  1.00  0.00    -0.023 A 
ATOM      3  C   UNL     1      21.185  27.073  37.165  1.00  0.00     0.000 A 
ATOM      4  C   UNL     1      21.950  27.790  38.090  1.00  0.00     0.000 A 
ATOM      5  C   UNL     1      20.125  27.697  36.502  1.00  0.00     0.000 A 
ATOM      6  C   UNL     1      21.659  29.134  38.350  1.00  0.00     0.006 A 
ATOM      7  C   UNL     1      19.831  29.040  36.758  1.00  0.00     0.006 A 
ENDBRANCH   1   2
BRANCH   1   8
ATOM      8  O   UNL     1      19.192  31.266  38.874  1.00  0.00    -0.392 OA
ATOM      9  H   UNL     1      18.919  30.329  39.054  1.00  0.00     0.211 HD
ENDBRANCH   1   8
TORSDOF 2
ENDMDL
