MODEL 1
REMARK VINA RESULT:    -2.433      0.000      0.000
REMARK INTER + INTRA:          -2.755
REMARK INTER:                  -2.718
REMARK INTRA:                  -0.037
REMARK UNBOUND:                -0.037
REMARK SMILES CCCC(=O)[O-]
REMARK SMILES IDX 3 1 4 2 5 3 6 4 2 5 1 6
REMARK H PARENT
REMARK Flexibility Score: inf
ROOT
ATOM      1  C   UNL     1      -7.110  29.778 107.247  1.00  0.00     0.052 C 
ENDROOT
BRANCH   1   2
ATOM      2  C   UNL     1      -7.553  29.356 105.880  1.00  0.00     0.041 C 
ATOM      3  O   UNL     1      -8.276  28.335 105.735  1.00  0.00    -0.550 OA
ATOM      4  O   UNL     1      -7.196  30.109 104.768  1.00  0.00    -0.550 OA
ENDBRANCH   1   2
BRANCH   1   5
ATOM      5  C   UNL     1      -5.811  29.076 107.665  1.00  0.00     0.003 C 
ATOM      6  C   UNL     1      -4.573  29.735 107.060  1.00  0.00     0.004 C 
ENDBRANCH   1   5
TORSDOF 2
ENDMDL
MODEL 2
REMARK VINA RESULT:    -2.425     19.973     20.985
REMARK INTER + INTRA:          -2.745
REMARK INTER:                  -2.732
REMARK INTRA:                  -0.014
REMARK UNBOUND:                -0.037
REMARK SMILES CCCC(=O)[O-]
REMARK SMILES IDX 3 1 4 2 5 3 6 4 2 5 1 6
REMARK H PARENT
REMARK Flexibility Score: inf
ROOT
ATOM      1  C   UNL     1     -18.931  41.526  93.694  1.00  0.00     0.052 C 
ENDROOT
BRANCH   1   2
ATOM      2  C   UNL     1     -18.108  41.451  94.943  1.00  0.00     0.041 C 
ATOM      3  O   UNL     1     -18.667  41.453  96.071  1.00  0.00    -0.550 OA
ATOM      4  O   UNL     1     -16.725  41.345  94.859  1.00  0.00    -0.550 OA
ENDBRANCH   1   2
BRANCH   1   5
ATOM      5  C   UNL     1     -19.783  40.265  93.498  1.00  0.00     0.003 C 
ATOM      6  C   UNL     1     -21.122  40.567  92.828  1.00  0.00     0.004 C 
ENDBRANCH   1   5
TORSDOF 2
ENDMDL
MODEL 3
REMARK VINA RESULT:    -2.400      2.232      2.869
REMARK INTER + INTRA:          -2.718
REMARK INTER:                  -2.678
REMARK INTRA:                  -0.040
REMARK UNBOUND:                -0.037
REMARK SMILES CCCC(=O)[O-]
REMARK SMILES IDX 3 1 4 2 5 3 6 4 2 5 1 6
REMARK H PARENT
REMARK Flexibility Score: inf
ROOT
ATOM      1  C   UNL     1      -6.781  30.321 106.818  1.00  0.00     0.052 C 
ENDROOT
BRANCH   1   2
ATOM      2  C   UNL     1      -5.769  29.356 107.353  1.00  0.00     0.041 C 
ATOM      3  O   UNL     1      -6.129  28.409 108.101  1.00  0.00    -0.550 OA
ATOM      4  O   UNL     1      -4.431  29.484 107.000  1.00  0.00    -0.550 OA
ENDBRANCH   1   2
BRANCH   1   5
ATOM      5  C   UNL     1      -7.261  29.923 105.416  1.00  0.00     0.003 C 
ATOM      6  C   UNL     1      -6.541  30.698 104.313  1.00  0.00     0.004 C 
ENDBRANCH   1   5
TORSDOF 2
ENDMDL
MODEL 4
REMARK VINA RESULT:    -2.394     20.020     21.011
REMARK INTER + INTRA:          -2.712
REMARK INTER:                  -2.681
REMARK INTRA:                  -0.030
REMARK UNBOUND:                -0.037
REMARK SMILES CCCC(=O)[O-]
REMARK SMILES IDX 3 1 4 2 5 3 6 4 2 5 1 6
REMARK H PARENT
REMARK Flexibility Score: inf
ROOT
ATOM      1  C   UNL     1     -19.058  41.525  93.723  1.00  0.00     0.052 C 
ENDROOT
BRANCH   1   2
ATOM      2  C   UNL     1     -19.981  40.452  93.234  1.00  0.00     0.041 C 
ATOM      3  O   UNL     1     -21.125  40.749  92.800  1.00  0.00    -0.550 OA
ATOM      4  O   UNL     1     -19.565  39.126  93.227  1.00  0.00    -0.550 OA
ENDBRANCH   1   2
BRANCH   1   5
ATOM      5  C   UNL     1     -18.498  41.204  95.114  1.00  0.00     0.003 C 
ATOM      6  C   UNL     1     -16.971  41.244  95.151  1.00  0.00     0.004 C 
ENDBRANCH   1   5
TORSDOF 2
ENDMDL
MODEL 5
REMARK VINA RESULT:    -2.355     18.743     19.399
REMARK INTER + INTRA:          -2.668
REMARK INTER:                  -2.661
REMARK INTRA:                  -0.007
REMARK UNBOUND:                -0.037
REMARK SMILES CCCC(=O)[O-]
REMARK SMILES IDX 3 1 4 2 5 3 6 4 2 5 1 6
REMARK H PARENT
REMARK Flexibility Score: inf
ROOT
ATOM      1  C   UNL     1     -17.731  40.712  96.372  1.00  0.00     0.052 C 
ENDROOT
BRANCH   1   2
ATOM      2  C   UNL     1     -17.069  41.133  95.096  1.00  0.00     0.041 C 
ATOM      3  O   UNL     1     -17.761  41.560  94.134  1.00  0.00    -0.550 OA
ATOM      4  O   UNL     1     -15.685  41.085  94.981  1.00  0.00    -0.550 OA
ENDBRANCH   1   2
BRANCH   1   5
ATOM      5  C   UNL     1     -18.671  41.798  96.910  1.00  0.00     0.003 C 
ATOM      6  C   UNL     1     -19.309  41.408  98.242  1.00  0.00     0.004 C 
ENDBRANCH   1   5
TORSDOF 2
ENDMDL
MODEL 6
REMARK VINA RESULT:    -2.318      2.013      2.585
REMARK INTER + INTRA:          -2.627
REMARK INTER:                  -2.613
REMARK INTRA:                  -0.013
REMARK UNBOUND:                -0.037
REMARK SMILES CCCC(=O)[O-]
REMARK SMILES IDX 3 1 4 2 5 3 6 4 2 5 1 6
REMARK H PARENT
REMARK Flexibility Score: inf
ROOT
ATOM      1  C   UNL     1      -6.550  30.412 106.274  1.00  0.00     0.052 C 
ENDROOT
BRANCH   1   2
ATOM      2  C   UNL     1      -7.017  29.126 106.884  1.00  0.00     0.041 C 
ATOM      3  O   UNL     1      -8.037  28.543 106.429  1.00  0.00    -0.550 OA
ATOM      4  O   UNL     1      -6.307  28.554 107.932  1.00  0.00    -0.550 OA
ENDBRANCH   1   2
BRANCH   1   5
ATOM      5  C   UNL     1      -6.830  30.462 104.767  1.00  0.00     0.003 C 
ATOM      6  C   UNL     1      -5.596  30.856 103.958  1.00  0.00     0.004 C 
ENDBRANCH   1   5
TORSDOF 2
ENDMDL
MODEL 7
REMARK VINA RESULT:    -2.259      2.224      3.295
REMARK INTER + INTRA:          -2.560
REMARK INTER:                  -2.532
REMARK INTRA:                  -0.029
REMARK UNBOUND:                -0.037
REMARK SMILES CCCC(=O)[O-]
REMARK SMILES IDX 3 1 4 2 5 3 6 4 2 5 1 6
REMARK H PARENT
REMARK Flexibility Score: inf
ROOT
ATOM      1  C   UNL     1      -6.584  30.173 106.457  1.00  0.00     0.052 C 
ENDROOT
BRANCH   1   2
ATOM      2  C   UNL     1      -5.590  29.425 107.291  1.00  0.00     0.041 C 
ATOM      3  O   UNL     1      -4.367  29.448 106.991  1.00  0.00    -0.550 OA
ATOM      4  O   UNL     1      -6.010  28.732 108.420  1.00  0.00    -0.550 OA
ENDBRANCH   1   2
BRANCH   1   5
ATOM      5  C   UNL     1      -8.015  29.669 106.690  1.00  0.00     0.003 C 
ATOM      6  C   UNL     1      -8.339  28.432 105.855  1.00  0.00     0.004 C 
ENDBRANCH   1   5
TORSDOF 2
ENDMDL
MODEL 8
REMARK VINA RESULT:    -2.234     15.989     16.650
REMARK INTER + INTRA:          -2.533
REMARK INTER:                  -2.521
REMARK INTRA:                  -0.012
REMARK UNBOUND:                -0.037
REMARK SMILES CCCC(=O)[O-]
REMARK SMILES IDX 3 1 4 2 5 3 6 4 2 5 1 6
REMARK H PARENT
REMARK Flexibility Score: inf
ROOT
ATOM      1  C   UNL     1      -2.966  41.616  95.716  1.00  0.00     0.052 C 
ENDROOT
BRANCH   1   2
ATOM      2  C   UNL     1      -2.099  40.618  96.420  1.00  0.00     0.041 C 
ATOM      3  O   UNL     1      -2.107  40.547  97.677  1.00  0.00    -0.550 OA
ATOM      4  O   UNL     1      -1.308  39.742  95.686  1.00  0.00    -0.550 OA
ENDBRANCH   1   2
BRANCH   1   5
ATOM      5  C   UNL     1      -3.087  42.923  96.509  1.00  0.00     0.003 C 
ATOM      6  C   UNL     1      -2.789  44.153  95.653  1.00  0.00     0.004 C 
ENDBRANCH   1   5
TORSDOF 2
ENDMDL
MODEL 9
REMARK VINA RESULT:    -2.165     21.149     21.794
REMARK INTER + INTRA:          -2.456
REMARK INTER:                  -2.413
REMARK INTRA:                  -0.043
REMARK UNBOUND:                -0.037
REMARK SMILES CCCC(=O)[O-]
REMARK SMILES IDX 3 1 4 2 5 3 6 4 2 5 1 6
REMARK H PARENT
REMARK Flexibility Score: inf
ROOT
ATOM      1  C   UNL     1     -19.489  39.068  92.990  1.00  0.00     0.052 C 
ENDROOT
BRANCH   1   2
ATOM      2  C   UNL     1     -19.968  40.480  93.126  1.00  0.00     0.041 C 
ATOM      3  O   UNL     1     -21.125  40.796  92.741  1.00  0.00    -0.550 OA
ATOM      4  O   UNL     1     -19.150  41.440  93.709  1.00  0.00    -0.550 OA
ENDBRANCH   1   2
BRANCH   1   5
ATOM      5  C   UNL     1     -18.525  38.906  91.808  1.00  0.00     0.003 C 
ATOM      6  C   UNL     1     -19.253  38.856  90.466  1.00  0.00     0.004 C 
ENDBRANCH   1   5
TORSDOF 2
ENDMDL
