MODEL 1
REMARK VINA RESULT:    -3.265      0.000      0.000
REMARK INTER + INTRA:          -3.265
REMARK INTER:                  -3.265
REMARK INTRA:                   0.000
REMARK UNBOUND:                 0.000
REMARK SMILES c1cc[nH]c1
REMARK SMILES IDX 1 1 5 2 4 3 3 4 2 5
REMARK H PARENT 4 6
REMARK Flexibility Score: inf
ROOT
ATOM      1  C   UNL     1       6.926   7.562  14.261  1.00  0.00     0.019 A 
ATOM      2  C   UNL     1       8.118   8.197  13.975  1.00  0.00     0.082 A 
ATOM      3  N   UNL     1       8.748   7.557  12.973  1.00  0.00    -0.368 N 
ATOM      4  C   UNL     1       7.972   6.519  12.616  1.00  0.00     0.082 A 
ATOM      5  C   UNL     1       6.834   6.491  13.395  1.00  0.00     0.019 A 
ATOM      6  H   UNL     1       9.668   7.817  12.553  1.00  0.00     0.165 HD
ENDROOT
TORSDOF 0
ENDMDL
MODEL 2
REMARK VINA RESULT:    -2.952      1.508      2.466
REMARK INTER + INTRA:          -2.952
REMARK INTER:                  -2.952
REMARK INTRA:                   0.000
REMARK UNBOUND:                 0.000
REMARK SMILES c1cc[nH]c1
REMARK SMILES IDX 1 1 5 2 4 3 3 4 2 5
REMARK H PARENT 4 6
REMARK Flexibility Score: inf
ROOT
ATOM      1  C   UNL     1       7.921   6.379  12.062  1.00  0.00     0.019 A 
ATOM      2  C   UNL     1       7.444   5.277  12.742  1.00  0.00     0.082 A 
ATOM      3  N   UNL     1       6.972   5.650  13.946  1.00  0.00    -0.368 N 
ATOM      4  C   UNL     1       7.142   6.980  14.043  1.00  0.00     0.082 A 
ATOM      5  C   UNL     1       7.729   7.466  12.893  1.00  0.00     0.019 A 
ATOM      6  H   UNL     1       6.553   5.023  14.668  1.00  0.00     0.165 HD
ENDROOT
TORSDOF 0
ENDMDL
MODEL 3
REMARK VINA RESULT:    -2.863     21.281     22.067
REMARK INTER + INTRA:          -2.863
REMARK INTER:                  -2.863
REMARK INTRA:                   0.000
REMARK UNBOUND:                 0.000
REMARK SMILES c1cc[nH]c1
REMARK SMILES IDX 1 1 5 2 4 3 3 4 2 5
REMARK H PARENT 4 6
REMARK Flexibility Score: inf
ROOT
ATOM      1  C   UNL     1      -0.020  18.305  30.178  1.00  0.00     0.019 A 
ATOM      2  C   UNL     1       0.034  16.928  30.251  1.00  0.00     0.082 A 
ATOM      3  N   UNL     1      -0.640  16.500  31.334  1.00  0.00    -0.368 N 
ATOM      4  C   UNL     1      -1.125  17.589  31.955  1.00  0.00     0.082 A 
ATOM      5  C   UNL     1      -0.759  18.727  31.266  1.00  0.00     0.019 A 
ATOM      6  H   UNL     1      -0.763  15.508  31.635  1.00  0.00     0.165 HD
ENDROOT
TORSDOF 0
ENDMDL
MODEL 4
REMARK VINA RESULT:    -2.853      1.351      1.845
REMARK INTER + INTRA:          -2.853
REMARK INTER:                  -2.853
REMARK INTRA:                   0.000
REMARK UNBOUND:                 0.000
REMARK SMILES c1cc[nH]c1
REMARK SMILES IDX 1 1 5 2 4 3 3 4 2 5
REMARK H PARENT 4 6
REMARK Flexibility Score: inf
ROOT
ATOM      1  C   UNL     1       7.088   7.153  14.120  1.00  0.00     0.019 A 
ATOM      2  C   UNL     1       6.717   5.844  13.890  1.00  0.00     0.082 A 
ATOM      3  N   UNL     1       7.305   5.392  12.767  1.00  0.00    -0.368 N 
ATOM      4  C   UNL     1       8.050   6.398  12.278  1.00  0.00     0.082 A 
ATOM      5  C   UNL     1       7.938   7.507  13.091  1.00  0.00     0.019 A 
ATOM      6  H   UNL     1       7.203   4.438  12.355  1.00  0.00     0.165 HD
ENDROOT
TORSDOF 0
ENDMDL
MODEL 5
REMARK VINA RESULT:    -2.753      1.776      2.101
REMARK INTER + INTRA:          -2.753
REMARK INTER:                  -2.753
REMARK INTRA:                   0.000
REMARK UNBOUND:                 0.000
REMARK SMILES c1cc[nH]c1
REMARK SMILES IDX 1 1 5 2 4 3 3 4 2 5
REMARK H PARENT 4 6
REMARK Flexibility Score: inf
ROOT
ATOM      1  C   UNL     1       5.958   7.447  13.495  1.00  0.00     0.019 A 
ATOM      2  C   UNL     1       7.048   6.810  14.053  1.00  0.00     0.082 A 
ATOM      3  N   UNL     1       6.972   5.486  13.825  1.00  0.00    -0.368 N 
ATOM      4  C   UNL     1       5.844   5.269  13.126  1.00  0.00     0.082 A 
ATOM      5  C   UNL     1       5.189   6.463  12.904  1.00  0.00     0.019 A 
ATOM      6  H   UNL     1       7.659   4.764  14.133  1.00  0.00     0.165 HD
ENDROOT
TORSDOF 0
ENDMDL
MODEL 6
REMARK VINA RESULT:    -2.700     21.739     22.355
REMARK INTER + INTRA:          -2.700
REMARK INTER:                  -2.700
REMARK INTRA:                   0.000
REMARK UNBOUND:                 0.000
REMARK SMILES c1cc[nH]c1
REMARK SMILES IDX 1 1 5 2 4 3 3 4 2 5
REMARK H PARENT 4 6
REMARK Flexibility Score: inf
ROOT
ATOM      1  C   UNL     1       0.266  19.118  29.799  1.00  0.00     0.019 A 
ATOM      2  C   UNL     1      -0.442  19.936  30.655  1.00  0.00     0.082 A 
ATOM      3  N   UNL     1      -1.124  19.190  31.543  1.00  0.00    -0.368 N 
ATOM      4  C   UNL     1      -0.858  17.902  31.265  1.00  0.00     0.082 A 
ATOM      5  C   UNL     1       0.001  17.820  30.188  1.00  0.00     0.019 A 
ATOM      6  H   UNL     1      -1.743  19.545  32.306  1.00  0.00     0.165 HD
ENDROOT
TORSDOF 0
ENDMDL
MODEL 7
REMARK VINA RESULT:    -2.660     12.214     12.682
REMARK INTER + INTRA:          -2.660
REMARK INTER:                  -2.660
REMARK INTRA:                   0.000
REMARK UNBOUND:                 0.000
REMARK SMILES c1cc[nH]c1
REMARK SMILES IDX 1 1 5 2 4 3 3 4 2 5
REMARK H PARENT 4 6
REMARK Flexibility Score: inf
ROOT
ATOM      1  C   UNL     1       1.458  18.333  16.095  1.00  0.00     0.019 A 
ATOM      2  C   UNL     1       2.292  18.978  16.985  1.00  0.00     0.082 A 
ATOM      3  N   UNL     1       2.654  18.134  17.968  1.00  0.00    -0.368 N 
ATOM      4  C   UNL     1       2.060  16.954  17.716  1.00  0.00     0.082 A 
ATOM      5  C   UNL     1       1.310  17.041  16.561  1.00  0.00     0.019 A 
ATOM      6  H   UNL     1       3.278  18.353  18.776  1.00  0.00     0.165 HD
ENDROOT
TORSDOF 0
ENDMDL
MODEL 8
REMARK VINA RESULT:    -2.660      1.336      1.799
REMARK INTER + INTRA:          -2.660
REMARK INTER:                  -2.660
REMARK INTRA:                   0.000
REMARK UNBOUND:                 0.000
REMARK SMILES c1cc[nH]c1
REMARK SMILES IDX 1 1 5 2 4 3 3 4 2 5
REMARK H PARENT 4 6
REMARK Flexibility Score: inf
ROOT
ATOM      1  C   UNL     1       6.529   8.242  12.785  1.00  0.00     0.019 A 
ATOM      2  C   UNL     1       7.152   7.372  11.912  1.00  0.00     0.082 A 
ATOM      3  N   UNL     1       7.488   6.239  12.557  1.00  0.00    -0.368 N 
ATOM      4  C   UNL     1       7.086   6.375  13.833  1.00  0.00     0.082 A 
ATOM      5  C   UNL     1       6.488   7.606  14.010  1.00  0.00     0.019 A 
ATOM      6  H   UNL     1       7.970   5.411  12.143  1.00  0.00     0.165 HD
ENDROOT
TORSDOF 0
ENDMDL
MODEL 9
REMARK VINA RESULT:    -2.634     12.172     12.681
REMARK INTER + INTRA:          -2.634
REMARK INTER:                  -2.634
REMARK INTRA:                   0.000
REMARK UNBOUND:                 0.000
REMARK SMILES c1cc[nH]c1
REMARK SMILES IDX 1 1 5 2 4 3 3 4 2 5
REMARK H PARENT 4 6
REMARK Flexibility Score: inf
ROOT
ATOM      1  C   UNL     1       1.265  16.885  16.661  1.00  0.00     0.019 A 
ATOM      2  C   UNL     1       2.063  16.866  17.787  1.00  0.00     0.082 A 
ATOM      3  N   UNL     1       2.613  18.079  17.979  1.00  0.00    -0.368 N 
ATOM      4  C   UNL     1       2.175  18.874  16.988  1.00  0.00     0.082 A 
ATOM      5  C   UNL     1       1.337  18.166  16.151  1.00  0.00     0.019 A 
ATOM      6  H   UNL     1       3.259  18.351  18.753  1.00  0.00     0.165 HD
ENDROOT
TORSDOF 0
ENDMDL
