MODEL 1
REMARK VINA RESULT:    -3.433      0.000      0.000
REMARK INTER + INTRA:          -4.351
REMARK INTER:                  -4.135
REMARK INTRA:                  -0.215
REMARK UNBOUND:                -0.215
REMARK SMILES OCC(O)CO
REMARK SMILES IDX 3 1 5 2 6 3 2 5 1 6 4 8
REMARK H PARENT 6 4 1 7 4 9
REMARK Flexibility Score: inf
ROOT
ATOM      1  C   UNL     1       6.252  -3.378  -7.738  1.00  0.00     0.165 C 
ENDROOT
BRANCH   1   2
ATOM      2  C   UNL     1       6.812  -2.955  -9.109  1.00  0.00     0.190 C 
BRANCH   2   3
ATOM      3  O   UNL     1       6.794  -1.559  -9.235  1.00  0.00    -0.394 OA
ATOM      4  H   UNL     1       6.322  -1.358 -10.084  1.00  0.00     0.210 HD
ENDBRANCH   2   3
ENDBRANCH   1   2
BRANCH   1   5
ATOM      5  C   UNL     1       7.148  -2.906  -6.579  1.00  0.00     0.190 C 
BRANCH   5   6
ATOM      6  O   UNL     1       7.082  -1.513  -6.417  1.00  0.00    -0.394 OA
ATOM      7  H   UNL     1       6.848  -1.343  -5.468  1.00  0.00     0.210 HD
ENDBRANCH   5   6
ENDBRANCH   1   5
BRANCH   1   8
ATOM      8  O   UNL     1       4.931  -2.926  -7.565  1.00  0.00    -0.388 OA
ATOM      9  H   UNL     1       4.320  -3.661  -7.833  1.00  0.00     0.211 HD
ENDBRANCH   1   8
TORSDOF 5
ENDMDL
MODEL 2
REMARK VINA RESULT:    -3.424      0.877      2.695
REMARK INTER + INTRA:          -4.341
REMARK INTER:                  -4.118
REMARK INTRA:                  -0.222
REMARK UNBOUND:                -0.215
REMARK SMILES OCC(O)CO
REMARK SMILES IDX 3 1 5 2 6 3 2 5 1 6 4 8
REMARK H PARENT 6 4 1 7 4 9
REMARK Flexibility Score: inf
ROOT
ATOM      1  C   UNL     1       6.823  -3.086  -7.874  1.00  0.00     0.165 C 
ENDROOT
BRANCH   1   2
ATOM      2  C   UNL     1       7.276  -3.075  -6.402  1.00  0.00     0.190 C 
BRANCH   2   3
ATOM      3  O   UNL     1       6.444  -2.240  -5.642  1.00  0.00    -0.394 OA
ATOM      4  H   UNL     1       5.779  -2.830  -5.200  1.00  0.00     0.210 HD
ENDBRANCH   2   3
ENDBRANCH   1   2
BRANCH   1   5
ATOM      5  C   UNL     1       5.469  -3.794  -8.055  1.00  0.00     0.190 C 
BRANCH   5   6
ATOM      6  O   UNL     1       4.403  -2.960  -7.682  1.00  0.00    -0.394 OA
ATOM      7  H   UNL     1       4.800  -2.161  -7.247  1.00  0.00     0.210 HD
ENDBRANCH   5   6
ENDBRANCH   1   5
BRANCH   1   8
ATOM      8  O   UNL     1       6.783  -1.785  -8.406  1.00  0.00    -0.388 OA
ATOM      9  H   UNL     1       6.989  -1.846  -9.375  1.00  0.00     0.211 HD
ENDBRANCH   1   8
TORSDOF 5
ENDMDL
MODEL 3
REMARK VINA RESULT:    -3.284      0.845      2.220
REMARK INTER + INTRA:          -4.171
REMARK INTER:                  -3.988
REMARK INTRA:                  -0.184
REMARK UNBOUND:                -0.215
REMARK SMILES OCC(O)CO
REMARK SMILES IDX 3 1 5 2 6 3 2 5 1 6 4 8
REMARK H PARENT 6 4 1 7 4 9
REMARK Flexibility Score: inf
ROOT
ATOM      1  C   UNL     1       6.629  -3.179  -7.246  1.00  0.00     0.165 C 
ENDROOT
BRANCH   1   2
ATOM      2  C   UNL     1       5.377  -3.867  -7.822  1.00  0.00     0.190 C 
BRANCH   2   3
ATOM      3  O   UNL     1       4.294  -2.977  -7.840  1.00  0.00    -0.394 OA
ATOM      4  H   UNL     1       4.325  -2.476  -6.984  1.00  0.00     0.210 HD
ENDBRANCH   2   3
ENDBRANCH   1   2
BRANCH   1   5
ATOM      5  C   UNL     1       7.518  -2.583  -8.352  1.00  0.00     0.190 C 
BRANCH   5   6
ATOM      6  O   UNL     1       6.843  -1.578  -9.063  1.00  0.00    -0.394 OA
ATOM      7  H   UNL     1       5.890  -1.621  -8.789  1.00  0.00     0.210 HD
ENDBRANCH   5   6
ENDBRANCH   1   5
BRANCH   1   8
ATOM      8  O   UNL     1       6.282  -2.199  -6.300  1.00  0.00    -0.388 OA
ATOM      9  H   UNL     1       6.698  -2.451  -5.434  1.00  0.00     0.211 HD
ENDBRANCH   1   8
TORSDOF 5
ENDMDL
MODEL 4
REMARK VINA RESULT:    -3.225     16.790     17.190
REMARK INTER + INTRA:          -4.100
REMARK INTER:                  -3.877
REMARK INTRA:                  -0.222
REMARK UNBOUND:                -0.215
REMARK SMILES OCC(O)CO
REMARK SMILES IDX 3 1 5 2 6 3 2 5 1 6 4 8
REMARK H PARENT 6 4 1 7 4 9
REMARK Flexibility Score: inf
ROOT
ATOM      1  C   UNL     1      -4.426  -5.692   4.511  1.00  0.00     0.165 C 
ENDROOT
BRANCH   1   2
ATOM      2  C   UNL     1      -3.259  -5.843   5.506  1.00  0.00     0.190 C 
BRANCH   2   3
ATOM      3  O   UNL     1      -2.654  -7.100   5.362  1.00  0.00    -0.394 OA
ATOM      4  H   UNL     1      -2.368  -7.382   6.269  1.00  0.00     0.210 HD
ENDBRANCH   2   3
ENDBRANCH   1   2
BRANCH   1   5
ATOM      5  C   UNL     1      -5.449  -6.834   4.646  1.00  0.00     0.190 C 
BRANCH   5   6
ATOM      6  O   UNL     1      -5.026  -7.982   3.959  1.00  0.00    -0.394 OA
ATOM      7  H   UNL     1      -4.049  -8.068   4.113  1.00  0.00     0.210 HD
ENDBRANCH   5   6
ENDBRANCH   1   5
BRANCH   1   8
ATOM      8  O   UNL     1      -5.052  -4.440   4.646  1.00  0.00    -0.388 OA
ATOM      9  H   UNL     1      -5.986  -4.531   4.321  1.00  0.00     0.211 HD
ENDBRANCH   1   8
TORSDOF 5
ENDMDL
MODEL 5
REMARK VINA RESULT:    -3.160     16.869     17.277
REMARK INTER + INTRA:          -4.022
REMARK INTER:                  -3.800
REMARK INTRA:                  -0.222
REMARK UNBOUND:                -0.215
REMARK SMILES OCC(O)CO
REMARK SMILES IDX 3 1 5 2 6 3 2 5 1 6 4 8
REMARK H PARENT 6 4 1 7 4 9
REMARK Flexibility Score: inf
ROOT
ATOM      1  C   UNL     1      -3.885  -6.333   5.709  1.00  0.00     0.165 C 
ENDROOT
BRANCH   1   2
ATOM      2  C   UNL     1      -5.134  -5.442   5.570  1.00  0.00     0.190 C 
BRANCH   2   3
ATOM      3  O   UNL     1      -5.044  -4.652   4.415  1.00  0.00    -0.394 OA
ATOM      4  H   UNL     1      -5.971  -4.383   4.183  1.00  0.00     0.210 HD
ENDBRANCH   2   3
ENDBRANCH   1   2
BRANCH   1   5
ATOM      5  C   UNL     1      -4.065  -7.691   5.007  1.00  0.00     0.190 C 
BRANCH   5   6
ATOM      6  O   UNL     1      -4.869  -7.572   3.863  1.00  0.00    -0.394 OA
ATOM      7  H   UNL     1      -5.059  -8.493   3.546  1.00  0.00     0.210 HD
ENDBRANCH   5   6
ENDBRANCH   1   5
BRANCH   1   8
ATOM      8  O   UNL     1      -2.734  -5.676   5.239  1.00  0.00    -0.388 OA
ATOM      9  H   UNL     1      -2.825  -4.711   5.455  1.00  0.00     0.211 HD
ENDBRANCH   1   8
TORSDOF 5
ENDMDL
MODEL 6
REMARK VINA RESULT:    -3.153     16.692     17.022
REMARK INTER + INTRA:          -4.014
REMARK INTER:                  -3.800
REMARK INTRA:                  -0.214
REMARK UNBOUND:                -0.215
REMARK SMILES OCC(O)CO
REMARK SMILES IDX 3 1 5 2 6 3 2 5 1 6 4 8
REMARK H PARENT 6 4 1 7 4 9
REMARK Flexibility Score: inf
ROOT
ATOM      1  C   UNL     1      -3.268  -7.162   5.674  1.00  0.00     0.165 C 
ENDROOT
BRANCH   1   2
ATOM      2  C   UNL     1      -4.195  -6.562   4.599  1.00  0.00     0.190 C 
BRANCH   2   3
ATOM      3  O   UNL     1      -4.826  -7.583   3.873  1.00  0.00    -0.394 OA
ATOM      4  H   UNL     1      -4.207  -8.358   3.878  1.00  0.00     0.210 HD
ENDBRANCH   2   3
ENDBRANCH   1   2
BRANCH   1   5
ATOM      5  C   UNL     1      -3.180  -8.695   5.568  1.00  0.00     0.190 C 
BRANCH   5   6
ATOM      6  O   UNL     1      -2.272  -9.086   4.572  1.00  0.00    -0.394 OA
ATOM      7  H   UNL     1      -1.758  -8.277   4.316  1.00  0.00     0.210 HD
ENDBRANCH   5   6
ENDBRANCH   1   5
BRANCH   1   8
ATOM      8  O   UNL     1      -1.987  -6.582   5.624  1.00  0.00    -0.388 OA
ATOM      9  H   UNL     1      -1.444  -6.981   6.353  1.00  0.00     0.211 HD
ENDBRANCH   1   8
TORSDOF 5
ENDMDL
MODEL 7
REMARK VINA RESULT:    -3.132     14.385     14.773
REMARK INTER + INTRA:          -3.988
REMARK INTER:                  -3.766
REMARK INTRA:                  -0.222
REMARK UNBOUND:                -0.215
REMARK SMILES OCC(O)CO
REMARK SMILES IDX 3 1 5 2 6 3 2 5 1 6 4 8
REMARK H PARENT 6 4 1 7 4 9
REMARK Flexibility Score: inf
ROOT
ATOM      1  C   UNL     1      -0.996  -0.252   5.589  1.00  0.00     0.165 C 
ENDROOT
BRANCH   1   2
ATOM      2  C   UNL     1      -0.213  -1.578   5.561  1.00  0.00     0.190 C 
BRANCH   2   3
ATOM      3  O   UNL     1       0.215  -1.865   4.257  1.00  0.00    -0.394 OA
ATOM      4  H   UNL     1       0.160  -2.850   4.152  1.00  0.00     0.210 HD
ENDBRANCH   2   3
ENDBRANCH   1   2
BRANCH   1   5
ATOM      5  C   UNL     1      -0.071   0.967   5.422  1.00  0.00     0.190 C 
BRANCH   5   6
ATOM      6  O   UNL     1       0.358   1.103   4.093  1.00  0.00    -0.394 OA
ATOM      7  H   UNL     1      -0.234   0.531   3.538  1.00  0.00     0.210 HD
ENDBRANCH   5   6
ENDBRANCH   1   5
BRANCH   1   8
ATOM      8  O   UNL     1      -2.018  -0.241   4.623  1.00  0.00    -0.388 OA
ATOM      9  H   UNL     1      -1.842   0.513   4.003  1.00  0.00     0.211 HD
ENDBRANCH   1   8
TORSDOF 5
ENDMDL
MODEL 8
REMARK VINA RESULT:    -3.080     16.893     17.138
REMARK INTER + INTRA:          -3.925
REMARK INTER:                  -3.923
REMARK INTRA:                  -0.002
REMARK UNBOUND:                -0.215
REMARK SMILES OCC(O)CO
REMARK SMILES IDX 3 1 5 2 6 3 2 5 1 6 4 8
REMARK H PARENT 6 4 1 7 4 9
REMARK Flexibility Score: inf
ROOT
ATOM      1  C   UNL     1      -4.498  -7.121   5.016  1.00  0.00     0.165 C 
ENDROOT
BRANCH   1   2
ATOM      2  C   UNL     1      -3.404  -8.089   5.505  1.00  0.00     0.190 C 
BRANCH   2   3
ATOM      3  O   UNL     1      -3.021  -8.956   4.472  1.00  0.00    -0.394 OA
ATOM      4  H   UNL     1      -3.840  -9.438   4.188  1.00  0.00     0.210 HD
ENDBRANCH   2   3
ENDBRANCH   1   2
BRANCH   1   5
ATOM      5  C   UNL     1      -4.000  -5.666   4.967  1.00  0.00     0.190 C 
BRANCH   5   6
ATOM      6  O   UNL     1      -4.967  -4.813   4.413  1.00  0.00    -0.394 OA
ATOM      7  H   UNL     1      -4.488  -4.186   3.811  1.00  0.00     0.210 HD
ENDBRANCH   5   6
ENDBRANCH   1   5
BRANCH   1   8
ATOM      8  O   UNL     1      -5.010  -7.517   3.767  1.00  0.00    -0.388 OA
ATOM      9  H   UNL     1      -5.331  -6.704   3.298  1.00  0.00     0.211 HD
ENDBRANCH   1   8
TORSDOF 5
ENDMDL
MODEL 9
REMARK VINA RESULT:    -3.055     16.801     17.769
REMARK INTER + INTRA:          -3.896
REMARK INTER:                  -3.673
REMARK INTRA:                  -0.223
REMARK UNBOUND:                -0.215
REMARK SMILES OCC(O)CO
REMARK SMILES IDX 3 1 5 2 6 3 2 5 1 6 4 8
REMARK H PARENT 6 4 1 7 4 9
REMARK Flexibility Score: inf
ROOT
ATOM      1  C   UNL     1      -4.810  -5.358   5.597  1.00  0.00     0.165 C 
ENDROOT
BRANCH   1   2
ATOM      2  C   UNL     1      -6.118  -6.075   5.981  1.00  0.00     0.190 C 
BRANCH   2   3
ATOM      3  O   UNL     1      -6.660  -6.732   4.867  1.00  0.00    -0.394 OA
ATOM      4  H   UNL     1      -7.586  -6.393   4.760  1.00  0.00     0.210 HD
ENDBRANCH   2   3
ENDBRANCH   1   2
BRANCH   1   5
ATOM      5  C   UNL     1      -3.668  -6.353   5.323  1.00  0.00     0.190 C 
BRANCH   5   6
ATOM      6  O   UNL     1      -3.876  -7.052   4.124  1.00  0.00    -0.394 OA
ATOM      7  H   UNL     1      -3.329  -7.879   4.173  1.00  0.00     0.210 HD
ENDBRANCH   5   6
ENDBRANCH   1   5
BRANCH   1   8
ATOM      8  O   UNL     1      -5.000  -4.500   4.500  1.00  0.00    -0.388 OA
ATOM      9  H   UNL     1      -5.927  -4.628   4.170  1.00  0.00     0.211 HD
ENDBRANCH   1   8
TORSDOF 5
ENDMDL
