MODEL 1
REMARK VINA RESULT:    -7.084      0.000      0.000
REMARK INTER + INTRA:          -8.402
REMARK INTER:                  -8.327
REMARK INTRA:                  -0.075
REMARK UNBOUND:                -0.075
REMARK SMILES O=c1c(O)c(-c2ccc(O)cc2)oc2cc(O)cc(O)c12
REMARK SMILES IDX 5 1 3 2 2 3 1 4 21 5 19 6 18 7 16 8 15 9 14 10 13 11 6 12
REMARK SMILES IDX 7 13 8 14 9 15 12 16 11 17 10 18 4 20 20 22 17 24
REMARK H PARENT 10 19 4 21 20 23 17 25
REMARK Flexibility Score: inf
ROOT
ATOM      1  C   UNL     1     183.711 -19.416  24.426  1.00  0.00     0.180 A 
ATOM      2  C   UNL     1     183.287 -19.620  25.751  1.00  0.00     0.208 A 
ATOM      3  C   UNL     1     182.460 -20.718  26.040  1.00  0.00     0.238 A 
ATOM      4  O   UNL     1     182.039 -20.864  27.216  1.00  0.00    -0.285 OA
ATOM      5  C   UNL     1     182.081 -21.606  25.004  1.00  0.00     0.111 A 
ATOM      6  C   UNL     1     181.280 -22.772  25.190  1.00  0.00     0.134 A 
ATOM      7  C   UNL     1     180.858 -23.505  24.073  1.00  0.00     0.093 A 
ATOM      8  C   UNL     1     181.264 -23.151  22.784  1.00  0.00     0.123 A 
ATOM      9  C   UNL     1     182.094 -22.050  22.599  1.00  0.00     0.094 A 
ATOM     10  C   UNL     1     182.502 -21.277  23.689  1.00  0.00     0.146 A 
ATOM     11  O   UNL     1     183.285 -20.229  23.466  1.00  0.00    -0.452 OA
ENDROOT
BRANCH   1  12
ATOM     12  C   UNL     1     184.604 -18.297  24.048  1.00  0.00     0.021 A 
ATOM     13  C   UNL     1     184.168 -16.973  24.229  1.00  0.00     0.016 A 
ATOM     14  C   UNL     1     184.985 -15.901  23.857  1.00  0.00     0.047 A 
ATOM     15  C   UNL     1     186.240 -16.137  23.288  1.00  0.00     0.115 A 
ATOM     16  C   UNL     1     185.859 -18.528  23.457  1.00  0.00     0.016 A 
ATOM     17  C   UNL     1     186.674 -17.454  23.085  1.00  0.00     0.047 A 
BRANCH  15  18
ATOM     18  O   UNL     1     187.044 -15.060  22.925  1.00  0.00    -0.508 OA
ATOM     19  H   UNL     1     186.871 -14.532  22.077  1.00  0.00     0.293 HD
ENDBRANCH  15  18
ENDBRANCH   1  12
BRANCH   2  20
ATOM     20  O   UNL     1     183.655 -18.719  26.753  1.00  0.00    -0.502 OA
ATOM     21  H   UNL     1     184.619 -18.457  26.922  1.00  0.00     0.293 HD
ENDBRANCH   2  20
BRANCH   6  22
ATOM     22  O   UNL     1     180.897 -23.265  26.441  1.00  0.00    -0.507 OA
ATOM     23  H   UNL     1     180.112 -23.878  26.601  1.00  0.00     0.293 HD
ENDBRANCH   6  22
BRANCH   8  24
ATOM     24  O   UNL     1     180.852 -23.896  21.681  1.00  0.00    -0.508 OA
ATOM     25  H   UNL     1     180.535 -23.450  20.828  1.00  0.00     0.293 HD
ENDBRANCH   8  24
TORSDOF 5
ENDMDL
MODEL 2
REMARK VINA RESULT:    -6.800      5.972      8.647
REMARK INTER + INTRA:          -8.067
REMARK INTER:                  -7.778
REMARK INTRA:                  -0.289
REMARK UNBOUND:                -0.075
REMARK SMILES O=c1c(O)c(-c2ccc(O)cc2)oc2cc(O)cc(O)c12
REMARK SMILES IDX 5 1 3 2 2 3 1 4 21 5 19 6 18 7 16 8 15 9 14 10 13 11 6 12
REMARK SMILES IDX 7 13 8 14 9 15 12 16 11 17 10 18 4 20 20 22 17 24
REMARK H PARENT 10 19 4 21 20 23 17 25
REMARK Flexibility Score: inf
ROOT
ATOM      1  C   UNL     1     179.984 -14.609  26.792  1.00  0.00     0.180 A 
ATOM      2  C   UNL     1     179.971 -15.903  26.243  1.00  0.00     0.208 A 
ATOM      3  C   UNL     1     181.181 -16.471  25.810  1.00  0.00     0.238 A 
ATOM      4  O   UNL     1     181.155 -17.607  25.270  1.00  0.00    -0.285 OA
ATOM      5  C   UNL     1     182.389 -15.745  25.945  1.00  0.00     0.111 A 
ATOM      6  C   UNL     1     183.676 -16.238  25.577  1.00  0.00     0.134 A 
ATOM      7  C   UNL     1     184.784 -15.384  25.634  1.00  0.00     0.093 A 
ATOM      8  C   UNL     1     184.663 -14.075  26.108  1.00  0.00     0.123 A 
ATOM      9  C   UNL     1     183.421 -13.604  26.525  1.00  0.00     0.094 A 
ATOM     10  C   UNL     1     182.289 -14.420  26.446  1.00  0.00     0.146 A 
ATOM     11  O   UNL     1     181.123 -13.928  26.845  1.00  0.00    -0.452 OA
ENDROOT
BRANCH   1  12
ATOM     12  C   UNL     1     178.755 -13.953  27.293  1.00  0.00     0.021 A 
ATOM     13  C   UNL     1     178.091 -13.016  26.484  1.00  0.00     0.016 A 
ATOM     14  C   UNL     1     176.941 -12.369  26.947  1.00  0.00     0.047 A 
ATOM     15  C   UNL     1     176.449 -12.637  28.227  1.00  0.00     0.115 A 
ATOM     16  C   UNL     1     178.266 -14.205  28.589  1.00  0.00     0.016 A 
ATOM     17  C   UNL     1     177.117 -13.555  29.049  1.00  0.00     0.047 A 
BRANCH  15  18
ATOM     18  O   UNL     1     175.302 -11.986  28.674  1.00  0.00    -0.508 OA
ATOM     19  H   UNL     1     174.377 -12.361  28.496  1.00  0.00     0.293 HD
ENDBRANCH  15  18
ENDBRANCH   1  12
BRANCH   2  20
ATOM     20  O   UNL     1     178.765 -16.593  26.099  1.00  0.00    -0.502 OA
ATOM     21  H   UNL     1     178.558 -17.440  26.615  1.00  0.00     0.293 HD
ENDBRANCH   2  20
BRANCH   6  22
ATOM     22  O   UNL     1     183.922 -17.555  25.179  1.00  0.00    -0.507 OA
ATOM     23  H   UNL     1     183.563 -17.978  24.337  1.00  0.00     0.293 HD
ENDBRANCH   6  22
BRANCH   8  24
ATOM     24  O   UNL     1     185.774 -13.238  26.175  1.00  0.00    -0.508 OA
ATOM     25  H   UNL     1     185.943 -12.644  26.978  1.00  0.00     0.293 HD
ENDBRANCH   8  24
TORSDOF 5
ENDMDL
MODEL 3
REMARK VINA RESULT:    -6.773     11.252     13.779
REMARK INTER + INTRA:          -8.036
REMARK INTER:                  -7.749
REMARK INTRA:                  -0.287
REMARK UNBOUND:                -0.075
REMARK SMILES O=c1c(O)c(-c2ccc(O)cc2)oc2cc(O)cc(O)c12
REMARK SMILES IDX 5 1 3 2 2 3 1 4 21 5 19 6 18 7 16 8 15 9 14 10 13 11 6 12
REMARK SMILES IDX 7 13 8 14 9 15 12 16 11 17 10 18 4 20 20 22 17 24
REMARK H PARENT 10 19 4 21 20 23 17 25
REMARK Flexibility Score: inf
ROOT
ATOM      1  C   UNL     1     182.929 -25.126  35.435  1.00  0.00     0.180 A 
ATOM      2  C   UNL     1     183.117 -23.847  35.986  1.00  0.00     0.208 A 
ATOM      3  C   UNL     1     183.050 -23.689  37.380  1.00  0.00     0.238 A 
ATOM      4  O   UNL     1     183.165 -22.533  37.864  1.00  0.00    -0.285 OA
ATOM      5  C   UNL     1     182.812 -24.814  38.206  1.00  0.00     0.111 A 
ATOM      6  C   UNL     1     182.763 -24.777  39.632  1.00  0.00     0.134 A 
ATOM      7  C   UNL     1     182.390 -25.927  40.340  1.00  0.00     0.093 A 
ATOM      8  C   UNL     1     182.128 -27.128  39.677  1.00  0.00     0.123 A 
ATOM      9  C   UNL     1     182.231 -27.189  38.290  1.00  0.00     0.094 A 
ATOM     10  C   UNL     1     182.565 -26.050  37.552  1.00  0.00     0.146 A 
ATOM     11  O   UNL     1     182.641 -26.149  36.231  1.00  0.00    -0.452 OA
ENDROOT
BRANCH   1  12
ATOM     12  C   UNL     1     183.009 -25.375  33.978  1.00  0.00     0.021 A 
ATOM     13  C   UNL     1     181.857 -25.233  33.187  1.00  0.00     0.016 A 
ATOM     14  C   UNL     1     181.906 -25.486  31.812  1.00  0.00     0.047 A 
ATOM     15  C   UNL     1     183.101 -25.898  31.214  1.00  0.00     0.115 A 
ATOM     16  C   UNL     1     184.204 -25.809  33.374  1.00  0.00     0.016 A 
ATOM     17  C   UNL     1     184.249 -26.063  31.999  1.00  0.00     0.047 A 
BRANCH  15  18
ATOM     18  O   UNL     1     183.135 -26.145  29.844  1.00  0.00    -0.508 OA
ATOM     19  H   UNL     1     182.287 -26.168  29.289  1.00  0.00     0.293 HD
ENDBRANCH  15  18
ENDBRANCH   1  12
BRANCH   2  20
ATOM     20  O   UNL     1     183.330 -22.746  35.152  1.00  0.00    -0.502 OA
ATOM     21  H   UNL     1     182.714 -21.941  35.146  1.00  0.00     0.293 HD
ENDBRANCH   2  20
BRANCH   6  22
ATOM     22  O   UNL     1     183.096 -23.655  40.395  1.00  0.00    -0.507 OA
ATOM     23  H   UNL     1     182.445 -22.938  40.677  1.00  0.00     0.293 HD
ENDBRANCH   6  22
BRANCH   8  24
ATOM     24  O   UNL     1     181.773 -28.271  40.391  1.00  0.00    -0.508 OA
ATOM     25  H   UNL     1     181.050 -28.250  41.100  1.00  0.00     0.293 HD
ENDBRANCH   8  24
TORSDOF 5
ENDMDL
MODEL 4
REMARK VINA RESULT:    -6.756      2.034      6.662
REMARK INTER + INTRA:          -8.015
REMARK INTER:                  -7.754
REMARK INTRA:                  -0.261
REMARK UNBOUND:                -0.075
REMARK SMILES O=c1c(O)c(-c2ccc(O)cc2)oc2cc(O)cc(O)c12
REMARK SMILES IDX 5 1 3 2 2 3 1 4 21 5 19 6 18 7 16 8 15 9 14 10 13 11 6 12
REMARK SMILES IDX 7 13 8 14 9 15 12 16 11 17 10 18 4 20 20 22 17 24
REMARK H PARENT 10 19 4 21 20 23 17 25
REMARK Flexibility Score: inf
ROOT
ATOM      1  C   UNL     1     182.791 -19.135  24.716  1.00  0.00     0.180 A 
ATOM      2  C   UNL     1     182.558 -17.763  24.911  1.00  0.00     0.208 A 
ATOM      3  C   UNL     1     183.556 -16.844  24.545  1.00  0.00     0.238 A 
ATOM      4  O   UNL     1     183.364 -15.622  24.773  1.00  0.00    -0.285 OA
ATOM      5  C   UNL     1     184.766 -17.308  23.975  1.00  0.00     0.111 A 
ATOM      6  C   UNL     1     185.828 -16.464  23.531  1.00  0.00     0.134 A 
ATOM      7  C   UNL     1     187.032 -17.037  23.103  1.00  0.00     0.093 A 
ATOM      8  C   UNL     1     187.188 -18.424  23.042  1.00  0.00     0.123 A 
ATOM      9  C   UNL     1     186.136 -19.255  23.417  1.00  0.00     0.094 A 
ATOM     10  C   UNL     1     184.935 -18.714  23.883  1.00  0.00     0.146 A 
ATOM     11  O   UNL     1     183.962 -19.543  24.240  1.00  0.00    -0.452 OA
ENDROOT
BRANCH   1  12
ATOM     12  C   UNL     1     181.779 -20.162  25.053  1.00  0.00     0.021 A 
ATOM     13  C   UNL     1     181.950 -20.951  26.203  1.00  0.00     0.016 A 
ATOM     14  C   UNL     1     181.017 -21.941  26.527  1.00  0.00     0.047 A 
ATOM     15  C   UNL     1     179.913 -22.167  25.701  1.00  0.00     0.115 A 
ATOM     16  C   UNL     1     180.676 -20.406  24.214  1.00  0.00     0.016 A 
ATOM     17  C   UNL     1     179.746 -21.399  24.540  1.00  0.00     0.047 A 
BRANCH  15  18
ATOM     18  O   UNL     1     178.992 -23.156  26.037  1.00  0.00    -0.508 OA
ATOM     19  H   UNL     1     178.507 -23.147  26.927  1.00  0.00     0.293 HD
ENDBRANCH  15  18
ENDBRANCH   1  12
BRANCH   2  20
ATOM     20  O   UNL     1     181.366 -17.329  25.496  1.00  0.00    -0.502 OA
ATOM     21  H   UNL     1     181.325 -16.966  26.441  1.00  0.00     0.293 HD
ENDBRANCH   2  20
BRANCH   6  22
ATOM     22  O   UNL     1     185.742 -15.071  23.465  1.00  0.00    -0.507 OA
ATOM     23  H   UNL     1     186.491 -14.462  23.172  1.00  0.00     0.293 HD
ENDBRANCH   6  22
BRANCH   8  24
ATOM     24  O   UNL     1     188.384 -18.985  22.600  1.00  0.00    -0.508 OA
ATOM     25  H   UNL     1     188.832 -18.676  21.746  1.00  0.00     0.293 HD
ENDBRANCH   8  24
TORSDOF 5
ENDMDL
MODEL 5
REMARK VINA RESULT:    -6.741      4.155      5.734
REMARK INTER + INTRA:          -7.998
REMARK INTER:                  -7.709
REMARK INTRA:                  -0.289
REMARK UNBOUND:                -0.075
REMARK SMILES O=c1c(O)c(-c2ccc(O)cc2)oc2cc(O)cc(O)c12
REMARK SMILES IDX 5 1 3 2 2 3 1 4 21 5 19 6 18 7 16 8 15 9 14 10 13 11 6 12
REMARK SMILES IDX 7 13 8 14 9 15 12 16 11 17 10 18 4 20 20 22 17 24
REMARK H PARENT 10 19 4 21 20 23 17 25
REMARK Flexibility Score: inf
ROOT
ATOM      1  C   UNL     1     180.295 -18.069  26.515  1.00  0.00     0.180 A 
ATOM      2  C   UNL     1     179.516 -18.960  25.757  1.00  0.00     0.208 A 
ATOM      3  C   UNL     1     180.053 -20.212  25.415  1.00  0.00     0.238 A 
ATOM      4  O   UNL     1     179.372 -20.983  24.690  1.00  0.00    -0.285 OA
ATOM      5  C   UNL     1     181.354 -20.564  25.849  1.00  0.00     0.111 A 
ATOM      6  C   UNL     1     181.981 -21.820  25.594  1.00  0.00     0.134 A 
ATOM      7  C   UNL     1     183.320 -22.009  25.959  1.00  0.00     0.093 A 
ATOM      8  C   UNL     1     184.033 -21.011  26.627  1.00  0.00     0.123 A 
ATOM      9  C   UNL     1     183.411 -19.804  26.932  1.00  0.00     0.094 A 
ATOM     10  C   UNL     1     182.088 -19.571  26.549  1.00  0.00     0.146 A 
ATOM     11  O   UNL     1     181.537 -18.402  26.851  1.00  0.00    -0.452 OA
ENDROOT
BRANCH   1  12
ATOM     12  C   UNL     1     179.790 -16.742  26.936  1.00  0.00     0.021 A 
ATOM     13  C   UNL     1     179.069 -16.625  28.136  1.00  0.00     0.016 A 
ATOM     14  C   UNL     1     178.563 -15.385  28.539  1.00  0.00     0.047 A 
ATOM     15  C   UNL     1     178.758 -14.252  27.744  1.00  0.00     0.115 A 
ATOM     16  C   UNL     1     179.966 -15.602  26.129  1.00  0.00     0.016 A 
ATOM     17  C   UNL     1     179.457 -14.364  26.535  1.00  0.00     0.047 A 
BRANCH  15  18
ATOM     18  O   UNL     1     178.249 -13.024  28.160  1.00  0.00    -0.508 OA
ATOM     19  H   UNL     1     177.285 -12.763  27.985  1.00  0.00     0.293 HD
ENDBRANCH  15  18
ENDBRANCH   1  12
BRANCH   2  20
ATOM     20  O   UNL     1     178.243 -18.584  25.321  1.00  0.00    -0.502 OA
ATOM     21  H   UNL     1     178.081 -17.749  24.771  1.00  0.00     0.293 HD
ENDBRANCH   2  20
BRANCH   6  22
ATOM     22  O   UNL     1     181.330 -22.914  25.017  1.00  0.00    -0.507 OA
ATOM     23  H   UNL     1     181.443 -23.872  25.315  1.00  0.00     0.293 HD
ENDBRANCH   6  22
BRANCH   8  24
ATOM     24  O   UNL     1     185.360 -21.215  26.999  1.00  0.00    -0.508 OA
ATOM     25  H   UNL     1     185.637 -21.263  27.973  1.00  0.00     0.293 HD
ENDBRANCH   8  24
TORSDOF 5
ENDMDL
MODEL 6
REMARK VINA RESULT:    -6.640      3.503      7.203
REMARK INTER + INTRA:          -7.880
REMARK INTER:                  -7.690
REMARK INTRA:                  -0.190
REMARK UNBOUND:                -0.075
REMARK SMILES O=c1c(O)c(-c2ccc(O)cc2)oc2cc(O)cc(O)c12
REMARK SMILES IDX 5 1 3 2 2 3 1 4 21 5 19 6 18 7 16 8 15 9 14 10 13 11 6 12
REMARK SMILES IDX 7 13 8 14 9 15 12 16 11 17 10 18 4 20 20 22 17 24
REMARK H PARENT 10 19 4 21 20 23 17 25
REMARK Flexibility Score: inf
ROOT
ATOM      1  C   UNL     1     181.114 -18.206  25.390  1.00  0.00     0.180 A 
ATOM      2  C   UNL     1     179.941 -17.552  25.805  1.00  0.00     0.208 A 
ATOM      3  C   UNL     1     180.040 -16.266  26.361  1.00  0.00     0.238 A 
ATOM      4  O   UNL     1     178.993 -15.707  26.781  1.00  0.00    -0.285 OA
ATOM      5  C   UNL     1     181.306 -15.645  26.481  1.00  0.00     0.111 A 
ATOM      6  C   UNL     1     181.519 -14.330  26.993  1.00  0.00     0.134 A 
ATOM      7  C   UNL     1     182.827 -13.868  27.187  1.00  0.00     0.093 A 
ATOM      8  C   UNL     1     183.928 -14.648  26.827  1.00  0.00     0.123 A 
ATOM      9  C   UNL     1     183.729 -15.909  26.273  1.00  0.00     0.094 A 
ATOM     10  C   UNL     1     182.438 -16.413  26.100  1.00  0.00     0.146 A 
ATOM     11  O   UNL     1     182.294 -17.624  25.577  1.00  0.00    -0.452 OA
ENDROOT
BRANCH   1  12
ATOM     12  C   UNL     1     181.089 -19.551  24.772  1.00  0.00     0.021 A 
ATOM     13  C   UNL     1     180.814 -20.674  25.570  1.00  0.00     0.016 A 
ATOM     14  C   UNL     1     180.807 -21.956  25.011  1.00  0.00     0.047 A 
ATOM     15  C   UNL     1     181.091 -22.134  23.654  1.00  0.00     0.115 A 
ATOM     16  C   UNL     1     181.393 -19.738  23.411  1.00  0.00     0.016 A 
ATOM     17  C   UNL     1     181.387 -21.022  22.855  1.00  0.00     0.047 A 
BRANCH  15  18
ATOM     18  O   UNL     1     181.079 -23.416  23.111  1.00  0.00    -0.508 OA
ATOM     19  H   UNL     1     180.507 -24.153  23.506  1.00  0.00     0.293 HD
ENDBRANCH  15  18
ENDBRANCH   1  12
BRANCH   2  20
ATOM     20  O   UNL     1     178.704 -18.192  25.697  1.00  0.00    -0.502 OA
ATOM     21  H   UNL     1     178.562 -19.006  25.112  1.00  0.00     0.293 HD
ENDBRANCH   2  20
BRANCH   6  22
ATOM     22  O   UNL     1     180.489 -13.435  27.296  1.00  0.00    -0.507 OA
ATOM     23  H   UNL     1     180.390 -12.515  26.893  1.00  0.00     0.293 HD
ENDBRANCH   6  22
BRANCH   8  24
ATOM     24  O   UNL     1     185.225 -14.174  27.010  1.00  0.00    -0.508 OA
ATOM     25  H   UNL     1     185.978 -14.433  26.384  1.00  0.00     0.293 HD
ENDBRANCH   8  24
TORSDOF 5
ENDMDL
MODEL 7
REMARK VINA RESULT:    -6.589      3.521      4.678
REMARK INTER + INTRA:          -7.819
REMARK INTER:                  -7.588
REMARK INTRA:                  -0.231
REMARK UNBOUND:                -0.075
REMARK SMILES O=c1c(O)c(-c2ccc(O)cc2)oc2cc(O)cc(O)c12
REMARK SMILES IDX 5 1 3 2 2 3 1 4 21 5 19 6 18 7 16 8 15 9 14 10 13 11 6 12
REMARK SMILES IDX 7 13 8 14 9 15 12 16 11 17 10 18 4 20 20 22 17 24
REMARK H PARENT 10 19 4 21 20 23 17 25
REMARK Flexibility Score: inf
ROOT
ATOM      1  C   UNL     1     181.456 -17.912  25.947  1.00  0.00     0.180 A 
ATOM      2  C   UNL     1     182.536 -18.380  26.715  1.00  0.00     0.208 A 
ATOM      3  C   UNL     1     183.254 -19.502  26.268  1.00  0.00     0.238 A 
ATOM      4  O   UNL     1     184.184 -19.950  26.987  1.00  0.00    -0.285 OA
ATOM      5  C   UNL     1     182.893 -20.131  25.051  1.00  0.00     0.111 A 
ATOM      6  C   UNL     1     183.575 -21.248  24.483  1.00  0.00     0.134 A 
ATOM      7  C   UNL     1     183.051 -21.869  23.343  1.00  0.00     0.093 A 
ATOM      8  C   UNL     1     181.907 -21.373  22.713  1.00  0.00     0.123 A 
ATOM      9  C   UNL     1     181.269 -20.247  23.226  1.00  0.00     0.094 A 
ATOM     10  C   UNL     1     181.746 -19.627  24.383  1.00  0.00     0.146 A 
ATOM     11  O   UNL     1     181.102 -18.563  24.844  1.00  0.00    -0.452 OA
ENDROOT
BRANCH   1  12
ATOM     12  C   UNL     1     180.668 -16.722  26.339  1.00  0.00     0.021 A 
ATOM     13  C   UNL     1     181.223 -15.441  26.180  1.00  0.00     0.016 A 
ATOM     14  C   UNL     1     180.505 -14.305  26.566  1.00  0.00     0.047 A 
ATOM     15  C   UNL     1     179.232 -14.434  27.129  1.00  0.00     0.115 A 
ATOM     16  C   UNL     1     179.395 -16.847  26.925  1.00  0.00     0.016 A 
ATOM     17  C   UNL     1     178.680 -15.708  27.311  1.00  0.00     0.047 A 
BRANCH  15  18
ATOM     18  O   UNL     1     178.528 -13.293  27.507  1.00  0.00    -0.508 OA
ATOM     19  H   UNL     1     178.282 -13.120  28.475  1.00  0.00     0.293 HD
ENDBRANCH  15  18
ENDBRANCH   1  12
BRANCH   2  20
ATOM     20  O   UNL     1     182.861 -17.759  27.923  1.00  0.00    -0.502 OA
ATOM     21  H   UNL     1     182.349 -17.935  28.780  1.00  0.00     0.293 HD
ENDBRANCH   2  20
BRANCH   6  22
ATOM     22  O   UNL     1     184.775 -21.764  24.980  1.00  0.00    -0.507 OA
ATOM     23  H   UNL     1     185.653 -21.268  24.991  1.00  0.00     0.293 HD
ENDBRANCH   6  22
BRANCH   8  24
ATOM     24  O   UNL     1     181.402 -21.989  21.569  1.00  0.00    -0.508 OA
ATOM     25  H   UNL     1     180.621 -22.632  21.615  1.00  0.00     0.293 HD
ENDBRANCH   8  24
TORSDOF 5
ENDMDL
MODEL 8
REMARK VINA RESULT:    -6.580      3.385      4.128
REMARK INTER + INTRA:          -7.809
REMARK INTER:                  -7.534
REMARK INTRA:                  -0.275
REMARK UNBOUND:                -0.075
REMARK SMILES O=c1c(O)c(-c2ccc(O)cc2)oc2cc(O)cc(O)c12
REMARK SMILES IDX 5 1 3 2 2 3 1 4 21 5 19 6 18 7 16 8 15 9 14 10 13 11 6 12
REMARK SMILES IDX 7 13 8 14 9 15 12 16 11 17 10 18 4 20 20 22 17 24
REMARK H PARENT 10 19 4 21 20 23 17 25
REMARK Flexibility Score: inf
ROOT
ATOM      1  C   UNL     1     180.847 -18.056  26.333  1.00  0.00     0.180 A 
ATOM      2  C   UNL     1     180.198 -18.909  27.242  1.00  0.00     0.208 A 
ATOM      3  C   UNL     1     179.998 -20.254  26.891  1.00  0.00     0.238 A 
ATOM      4  O   UNL     1     179.368 -20.999  27.684  1.00  0.00    -0.285 OA
ATOM      5  C   UNL     1     180.464 -20.733  25.642  1.00  0.00     0.111 A 
ATOM      6  C   UNL     1     180.352 -22.084  25.200  1.00  0.00     0.134 A 
ATOM      7  C   UNL     1     180.731 -22.416  23.892  1.00  0.00     0.093 A 
ATOM      8  C   UNL     1     181.279 -21.459  23.035  1.00  0.00     0.123 A 
ATOM      9  C   UNL     1     181.447 -20.150  23.479  1.00  0.00     0.094 A 
ATOM     10  C   UNL     1     181.045 -19.779  24.765  1.00  0.00     0.146 A 
ATOM     11  O   UNL     1     181.214 -18.519  25.144  1.00  0.00    -0.452 OA
ENDROOT
BRANCH   1  12
ATOM     12  C   UNL     1     181.116 -16.633  26.643  1.00  0.00     0.021 A 
ATOM     13  C   UNL     1     182.356 -16.267  27.193  1.00  0.00     0.016 A 
ATOM     14  C   UNL     1     182.622 -14.932  27.514  1.00  0.00     0.047 A 
ATOM     15  C   UNL     1     181.649 -13.950  27.304  1.00  0.00     0.115 A 
ATOM     16  C   UNL     1     180.134 -15.644  26.452  1.00  0.00     0.016 A 
ATOM     17  C   UNL     1     180.402 -14.310  26.776  1.00  0.00     0.047 A 
BRANCH  15  18
ATOM     18  O   UNL     1     181.929 -12.625  27.627  1.00  0.00    -0.508 OA
ATOM     19  H   UNL     1     181.395 -11.859  27.231  1.00  0.00     0.293 HD
ENDBRANCH  15  18
ENDBRANCH   1  12
BRANCH   2  20
ATOM     20  O   UNL     1     179.726 -18.411  28.460  1.00  0.00    -0.502 OA
ATOM     21  H   UNL     1     179.855 -17.446  28.739  1.00  0.00     0.293 HD
ENDBRANCH   2  20
BRANCH   6  22
ATOM     22  O   UNL     1     179.905 -23.135  26.005  1.00  0.00    -0.507 OA
ATOM     23  H   UNL     1     180.325 -23.406  26.881  1.00  0.00     0.293 HD
ENDBRANCH   6  22
BRANCH   8  24
ATOM     24  O   UNL     1     181.667 -21.802  21.742  1.00  0.00    -0.508 OA
ATOM     25  H   UNL     1     181.573 -21.153  20.970  1.00  0.00     0.293 HD
ENDBRANCH   8  24
TORSDOF 5
ENDMDL
MODEL 9
REMARK VINA RESULT:    -6.554      3.667      7.391
REMARK INTER + INTRA:          -7.778
REMARK INTER:                  -7.491
REMARK INTRA:                  -0.287
REMARK UNBOUND:                -0.075
REMARK SMILES O=c1c(O)c(-c2ccc(O)cc2)oc2cc(O)cc(O)c12
REMARK SMILES IDX 5 1 3 2 2 3 1 4 21 5 19 6 18 7 16 8 15 9 14 10 13 11 6 12
REMARK SMILES IDX 7 13 8 14 9 15 12 16 11 17 10 18 4 20 20 22 17 24
REMARK H PARENT 10 19 4 21 20 23 17 25
REMARK Flexibility Score: inf
ROOT
ATOM      1  C   UNL     1     181.644 -22.809  27.940  1.00  0.00     0.180 A 
ATOM      2  C   UNL     1     180.561 -23.017  27.068  1.00  0.00     0.208 A 
ATOM      3  C   UNL     1     180.700 -22.669  25.715  1.00  0.00     0.238 A 
ATOM      4  O   UNL     1     179.710 -22.805  24.951  1.00  0.00    -0.285 OA
ATOM      5  C   UNL     1     181.924 -22.132  25.247  1.00  0.00     0.111 A 
ATOM      6  C   UNL     1     182.189 -21.781  23.889  1.00  0.00     0.134 A 
ATOM      7  C   UNL     1     183.389 -21.137  23.565  1.00  0.00     0.093 A 
ATOM      8  C   UNL     1     184.361 -20.891  24.537  1.00  0.00     0.123 A 
ATOM      9  C   UNL     1     184.136 -21.283  25.854  1.00  0.00     0.094 A 
ATOM     10  C   UNL     1     182.934 -21.894  26.217  1.00  0.00     0.146 A 
ATOM     11  O   UNL     1     182.756 -22.243  27.485  1.00  0.00    -0.452 OA
ENDROOT
BRANCH   1  12
ATOM     12  C   UNL     1     181.583 -23.174  29.374  1.00  0.00     0.021 A 
ATOM     13  C   UNL     1     181.984 -24.458  29.779  1.00  0.00     0.016 A 
ATOM     14  C   UNL     1     181.913 -24.830  31.124  1.00  0.00     0.047 A 
ATOM     15  C   UNL     1     181.425 -23.933  32.079  1.00  0.00     0.115 A 
ATOM     16  C   UNL     1     181.074 -22.281  30.336  1.00  0.00     0.016 A 
ATOM     17  C   UNL     1     181.002 -22.658  31.681  1.00  0.00     0.047 A 
BRANCH  15  18
ATOM     18  O   UNL     1     181.361 -24.318  33.416  1.00  0.00    -0.508 OA
ATOM     19  H   UNL     1     181.828 -23.788  34.142  1.00  0.00     0.293 HD
ENDBRANCH  15  18
ENDBRANCH   1  12
BRANCH   2  20
ATOM     20  O   UNL     1     179.355 -23.527  27.555  1.00  0.00    -0.502 OA
ATOM     21  H   UNL     1     179.312 -24.342  28.156  1.00  0.00     0.293 HD
ENDBRANCH   2  20
BRANCH   6  22
ATOM     22  O   UNL     1     181.326 -22.066  22.827  1.00  0.00    -0.507 OA
ATOM     23  H   UNL     1     181.192 -21.473  22.022  1.00  0.00     0.293 HD
ENDBRANCH   6  22
BRANCH   8  24
ATOM     24  O   UNL     1     185.559 -20.263  24.202  1.00  0.00    -0.508 OA
ATOM     25  H   UNL     1     186.377 -20.328  24.796  1.00  0.00     0.293 HD
ENDBRANCH   8  24
TORSDOF 5
ENDMDL
