MODEL 1
REMARK VINA RESULT:    -4.241      0.000      0.000
REMARK INTER + INTRA:          -4.958
REMARK INTER:                  -5.729
REMARK INTRA:                   0.771
REMARK UNBOUND:                 0.771
REMARK SMILES O=c1c(-c2ccc(O)cc2)coc2c([C@@H]3O[C@H](CO)[C@H](O)[C@@H](O)[C@@H]3O)c(O)ccc12
REMARK SMILES IDX 3 1 11 2 12 3 13 4 30 5 2 6 1 7 29 8 28 9 26 10 14 11 4 12
REMARK SMILES IDX 5 13 6 14 7 15 10 16 9 17 8 18 15 20 24 21 16 22 22 23 17 24
REMARK SMILES IDX 20 25 25 26 23 28 18 30 19 31 21 33 27 35
REMARK H PARENT 8 19 25 27 23 29 19 32 21 34 27 36
REMARK Flexibility Score: inf
ROOT
ATOM      1  C   UNL     1       9.116  16.893  72.594  1.00  0.00     0.065 A 
ATOM      2  C   UNL     1      10.080  15.924  72.284  1.00  0.00     0.208 A 
ATOM      3  O   UNL     1      10.807  16.015  71.178  1.00  0.00    -0.463 OA
ATOM      4  C   UNL     1      10.684  17.014  70.307  1.00  0.00     0.147 A 
ATOM      5  C   UNL     1       9.734  18.035  70.540  1.00  0.00     0.066 A 
ATOM      6  C   UNL     1       8.943  17.967  71.702  1.00  0.00     0.200 A 
ATOM      7  O   UNL     1       8.098  18.871  71.954  1.00  0.00    -0.288 OA
ATOM      8  C   UNL     1       9.604  19.087  69.621  1.00  0.00     0.020 A 
ATOM      9  C   UNL     1      10.402  19.124  68.482  1.00  0.00     0.047 A 
ATOM     10  C   UNL     1      11.348  18.122  68.238  1.00  0.00     0.125 A 
ATOM     11  C   UNL     1      11.509  17.056  69.157  1.00  0.00     0.069 A 
ENDROOT
BRANCH   1  12
ATOM     12  C   UNL     1       8.332  16.783  73.848  1.00  0.00    -0.011 A 
ATOM     13  C   UNL     1       8.581  15.746  74.764  1.00  0.00     0.013 A 
ATOM     14  C   UNL     1       7.827  15.642  75.938  1.00  0.00     0.047 A 
ATOM     15  C   UNL     1       6.817  16.573  76.211  1.00  0.00     0.115 A 
ATOM     16  C   UNL     1       7.319  17.717  74.131  1.00  0.00     0.013 A 
ATOM     17  C   UNL     1       6.559  17.607  75.300  1.00  0.00     0.047 A 
BRANCH  15  18
ATOM     18  O   UNL     1       6.084  16.471  77.391  1.00  0.00    -0.508 OA
ATOM     19  H   UNL     1       6.037  17.237  78.055  1.00  0.00     0.293 HD
ENDBRANCH  15  18
ENDBRANCH   1  12
BRANCH  11  20
ATOM     20  C   UNL     1      12.510  15.934  68.898  1.00  0.00     0.188 C 
ATOM     21  C   UNL     1      13.753  16.093  69.810  1.00  0.00     0.179 C 
ATOM     22  O   UNL     1      11.891  14.672  69.093  1.00  0.00    -0.362 OA
ATOM     23  C   UNL     1      14.734  14.917  69.610  1.00  0.00     0.177 C 
ATOM     24  C   UNL     1      12.751  13.623  68.680  1.00  0.00     0.176 C 
ATOM     25  C   UNL     1      13.999  13.556  69.591  1.00  0.00     0.177 C 
BRANCH  21  26
ATOM     26  O   UNL     1      13.360  16.128  71.161  1.00  0.00    -0.387 OA
ATOM     27  H   UNL     1      12.412  16.422  71.187  1.00  0.00     0.211 HD
ENDBRANCH  21  26
BRANCH  23  28
ATOM     28  O   UNL     1      15.525  15.092  68.459  1.00  0.00    -0.387 OA
ATOM     29  H   UNL     1      15.250  15.933  68.008  1.00  0.00     0.211 HD
ENDBRANCH  23  28
BRANCH  24  30
ATOM     30  C   UNL     1      11.972  12.300  68.714  1.00  0.00     0.191 C 
BRANCH  30  31
ATOM     31  O   UNL     1      11.083  12.230  67.629  1.00  0.00    -0.394 OA
ATOM     32  H   UNL     1      10.806  11.281  67.549  1.00  0.00     0.210 HD
ENDBRANCH  30  31
ENDBRANCH  24  30
BRANCH  25  33
ATOM     33  O   UNL     1      13.610  13.212  70.899  1.00  0.00    -0.388 OA
ATOM     34  H   UNL     1      13.127  13.996  71.274  1.00  0.00     0.211 HD
ENDBRANCH  25  33
ENDBRANCH  11  20
BRANCH  10  35
ATOM     35  O   UNL     1      12.122  18.187  67.079  1.00  0.00    -0.507 OA
ATOM     36  H   UNL     1      12.510  19.061  66.744  1.00  0.00     0.293 HD
ENDBRANCH  10  35
TORSDOF 9
ENDMDL
MODEL 2
REMARK VINA RESULT:    -3.400      1.244      2.034
REMARK INTER + INTRA:          -3.821
REMARK INTER:                  -4.960
REMARK INTRA:                   1.139
REMARK UNBOUND:                 0.771
REMARK SMILES O=c1c(-c2ccc(O)cc2)coc2c([C@@H]3O[C@H](CO)[C@H](O)[C@@H](O)[C@@H]3O)c(O)ccc12
REMARK SMILES IDX 3 1 11 2 12 3 13 4 30 5 2 6 1 7 29 8 28 9 26 10 14 11 4 12
REMARK SMILES IDX 5 13 6 14 7 15 10 16 9 17 8 18 15 20 24 21 16 22 22 23 17 24
REMARK SMILES IDX 20 25 25 26 23 28 18 30 19 31 21 33 27 35
REMARK H PARENT 8 19 25 27 23 29 19 32 21 34 27 36
REMARK Flexibility Score: inf
ROOT
ATOM      1  C   UNL     1       8.767  16.823  73.382  1.00  0.00     0.065 A 
ATOM      2  C   UNL     1       9.857  15.979  73.128  1.00  0.00     0.208 A 
ATOM      3  O   UNL     1      10.607  16.142  72.046  1.00  0.00    -0.463 OA
ATOM      4  C   UNL     1      10.392  17.101  71.148  1.00  0.00     0.147 A 
ATOM      5  C   UNL     1       9.312  17.996  71.325  1.00  0.00     0.066 A 
ATOM      6  C   UNL     1       8.493  17.849  72.459  1.00  0.00     0.200 A 
ATOM      7  O   UNL     1       7.531  18.643  72.661  1.00  0.00    -0.288 OA
ATOM      8  C   UNL     1       9.084  19.005  70.376  1.00  0.00     0.020 A 
ATOM      9  C   UNL     1       9.913  19.123  69.265  1.00  0.00     0.047 A 
ATOM     10  C   UNL     1      10.987  18.245  69.079  1.00  0.00     0.125 A 
ATOM     11  C   UNL     1      11.248  17.226  70.027  1.00  0.00     0.069 A 
ENDROOT
BRANCH   1  12
ATOM     12  C   UNL     1       7.956  16.638  74.610  1.00  0.00    -0.011 A 
ATOM     13  C   UNL     1       6.963  17.567  74.963  1.00  0.00     0.013 A 
ATOM     14  C   UNL     1       6.212  17.391  76.131  1.00  0.00     0.047 A 
ATOM     15  C   UNL     1       6.443  16.285  76.956  1.00  0.00     0.115 A 
ATOM     16  C   UNL     1       8.181  15.526  75.442  1.00  0.00     0.013 A 
ATOM     17  C   UNL     1       7.436  15.356  76.613  1.00  0.00     0.047 A 
BRANCH  15  18
ATOM     18  O   UNL     1       5.678  16.109  78.107  1.00  0.00    -0.508 OA
ATOM     19  H   UNL     1       5.361  16.898  78.660  1.00  0.00     0.293 HD
ENDBRANCH  15  18
ENDBRANCH   1  12
BRANCH  11  20
ATOM     20  C   UNL     1      12.392  16.236  69.829  1.00  0.00     0.188 C 
ATOM     21  C   UNL     1      12.075  14.893  70.534  1.00  0.00     0.179 C 
ATOM     22  O   UNL     1      12.636  16.042  68.445  1.00  0.00    -0.362 OA
ATOM     23  C   UNL     1      13.192  13.859  70.272  1.00  0.00     0.177 C 
ATOM     24  C   UNL     1      13.810  15.271  68.247  1.00  0.00     0.176 C 
ATOM     25  C   UNL     1      13.610  13.833  68.782  1.00  0.00     0.177 C 
BRANCH  21  26
ATOM     26  O   UNL     1      10.858  14.371  70.057  1.00  0.00    -0.387 OA
ATOM     27  H   UNL     1      11.077  13.628  69.436  1.00  0.00     0.211 HD
ENDBRANCH  21  26
BRANCH  23  28
ATOM     28  O   UNL     1      14.300  14.069  71.114  1.00  0.00    -0.387 OA
ATOM     29  H   UNL     1      14.479  13.234  71.620  1.00  0.00     0.211 HD
ENDBRANCH  23  28
BRANCH  24  30
ATOM     30  C   UNL     1      14.151  15.259  66.750  1.00  0.00     0.191 C 
BRANCH  30  31
ATOM     31  O   UNL     1      13.193  15.989  66.027  1.00  0.00    -0.394 OA
ATOM     32  H   UNL     1      13.184  16.905  66.410  1.00  0.00     0.210 HD
ENDBRANCH  30  31
ENDBRANCH  24  30
BRANCH  25  33
ATOM     33  O   UNL     1      12.617  13.183  68.026  1.00  0.00    -0.388 OA
ATOM     34  H   UNL     1      11.778  13.217  68.558  1.00  0.00     0.211 HD
ENDBRANCH  25  33
ENDBRANCH  11  20
BRANCH  10  35
ATOM     35  O   UNL     1      11.790  18.387  67.946  1.00  0.00    -0.507 OA
ATOM     36  H   UNL     1      11.657  17.813  67.122  1.00  0.00     0.293 HD
ENDBRANCH  10  35
TORSDOF 9
ENDMDL
MODEL 3
REMARK VINA RESULT:    -2.834      1.930      3.460
REMARK INTER + INTRA:          -3.058
REMARK INTER:                  -2.553
REMARK INTRA:                  -0.505
REMARK UNBOUND:                 0.771
REMARK SMILES O=c1c(-c2ccc(O)cc2)coc2c([C@@H]3O[C@H](CO)[C@H](O)[C@@H](O)[C@@H]3O)c(O)ccc12
REMARK SMILES IDX 3 1 11 2 12 3 13 4 30 5 2 6 1 7 29 8 28 9 26 10 14 11 4 12
REMARK SMILES IDX 5 13 6 14 7 15 10 16 9 17 8 18 15 20 24 21 16 22 22 23 17 24
REMARK SMILES IDX 20 25 25 26 23 28 18 30 19 31 21 33 27 35
REMARK H PARENT 8 19 25 27 23 29 19 32 21 34 27 36
REMARK Flexibility Score: inf
ROOT
ATOM      1  C   UNL     1       9.916  17.001  71.613  1.00  0.00     0.065 A 
ATOM      2  C   UNL     1      11.151  16.610  72.147  1.00  0.00     0.208 A 
ATOM      3  O   UNL     1      12.125  16.169  71.360  1.00  0.00    -0.463 OA
ATOM      4  C   UNL     1      12.007  16.078  70.038  1.00  0.00     0.147 A 
ATOM      5  C   UNL     1      10.793  16.450  69.415  1.00  0.00     0.066 A 
ATOM      6  C   UNL     1       9.738  16.917  70.219  1.00  0.00     0.200 A 
ATOM      7  O   UNL     1       8.646  17.278  69.697  1.00  0.00    -0.288 OA
ATOM      8  C   UNL     1      10.669  16.350  68.021  1.00  0.00     0.020 A 
ATOM      9  C   UNL     1      11.732  15.885  67.254  1.00  0.00     0.047 A 
ATOM     10  C   UNL     1      12.939  15.515  67.856  1.00  0.00     0.125 A 
ATOM     11  C   UNL     1      13.097  15.618  69.260  1.00  0.00     0.069 A 
ENDROOT
BRANCH   1  12
ATOM     12  C   UNL     1       8.850  17.512  72.509  1.00  0.00    -0.011 A 
ATOM     13  C   UNL     1       8.092  18.642  72.154  1.00  0.00     0.013 A 
ATOM     14  C   UNL     1       7.098  19.125  73.011  1.00  0.00     0.047 A 
ATOM     15  C   UNL     1       6.848  18.485  74.231  1.00  0.00     0.115 A 
ATOM     16  C   UNL     1       8.591  16.871  73.734  1.00  0.00     0.013 A 
ATOM     17  C   UNL     1       7.603  17.361  74.594  1.00  0.00     0.047 A 
BRANCH  15  18
ATOM     18  O   UNL     1       5.843  18.963  75.070  1.00  0.00    -0.508 OA
ATOM     19  H   UNL     1       4.904  18.580  75.045  1.00  0.00     0.293 HD
ENDBRANCH  15  18
ENDBRANCH   1  12
BRANCH  11  20
ATOM     20  C   UNL     1      14.392  15.189  69.944  1.00  0.00     0.188 C 
ATOM     21  C   UNL     1      14.264  13.746  70.493  1.00  0.00     0.179 C 
ATOM     22  O   UNL     1      15.481  15.297  69.040  1.00  0.00    -0.362 OA
ATOM     23  C   UNL     1      15.596  13.275  71.116  1.00  0.00     0.177 C 
ATOM     24  C   UNL     1      16.711  15.080  69.711  1.00  0.00     0.176 C 
ATOM     25  C   UNL     1      16.804  13.619  70.212  1.00  0.00     0.177 C 
BRANCH  21  26
ATOM     26  O   UNL     1      13.916  12.862  69.454  1.00  0.00    -0.387 OA
ATOM     27  H   UNL     1      13.649  13.413  68.673  1.00  0.00     0.211 HD
ENDBRANCH  21  26
BRANCH  23  28
ATOM     28  O   UNL     1      15.767  13.783  72.418  1.00  0.00    -0.387 OA
ATOM     29  H   UNL     1      16.127  13.062  72.997  1.00  0.00     0.211 HD
ENDBRANCH  23  28
BRANCH  24  30
ATOM     30  C   UNL     1      17.865  15.407  68.751  1.00  0.00     0.191 C 
BRANCH  30  31
ATOM     31  O   UNL     1      19.052  14.801  69.194  1.00  0.00    -0.394 OA
ATOM     32  H   UNL     1      19.074  13.892  68.795  1.00  0.00     0.210 HD
ENDBRANCH  30  31
ENDBRANCH  24  30
BRANCH  25  33
ATOM     33  O   UNL     1      16.831  12.744  69.111  1.00  0.00    -0.388 OA
ATOM     34  H   UNL     1      16.866  13.307  68.292  1.00  0.00     0.211 HD
ENDBRANCH  25  33
ENDBRANCH  11  20
BRANCH  10  35
ATOM     35  O   UNL     1      13.980  15.041  67.055  1.00  0.00    -0.507 OA
ATOM     36  H   UNL     1      13.831  14.327  66.352  1.00  0.00     0.293 HD
ENDBRANCH  10  35
TORSDOF 9
ENDMDL
MODEL 4
REMARK VINA RESULT:    -2.098      2.089      7.549
REMARK INTER + INTRA:          -2.063
REMARK INTER:                  -1.622
REMARK INTRA:                  -0.440
REMARK UNBOUND:                 0.771
REMARK SMILES O=c1c(-c2ccc(O)cc2)coc2c([C@@H]3O[C@H](CO)[C@H](O)[C@@H](O)[C@@H]3O)c(O)ccc12
REMARK SMILES IDX 3 1 11 2 12 3 13 4 30 5 2 6 1 7 29 8 28 9 26 10 14 11 4 12
REMARK SMILES IDX 5 13 6 14 7 15 10 16 9 17 8 18 15 20 24 21 16 22 22 23 17 24
REMARK SMILES IDX 20 25 25 26 23 28 18 30 19 31 21 33 27 35
REMARK H PARENT 8 19 25 27 23 29 19 32 21 34 27 36
REMARK Flexibility Score: inf
ROOT
ATOM      1  C   UNL     1      12.991  15.776  70.723  1.00  0.00     0.065 A 
ATOM      2  C   UNL     1      12.149  15.259  71.717  1.00  0.00     0.208 A 
ATOM      3  O   UNL     1      10.973  15.820  71.973  1.00  0.00    -0.463 OA
ATOM      4  C   UNL     1      10.514  16.882  71.315  1.00  0.00     0.147 A 
ATOM      5  C   UNL     1      11.301  17.469  70.297  1.00  0.00     0.066 A 
ATOM      6  C   UNL     1      12.554  16.903  70.002  1.00  0.00     0.200 A 
ATOM      7  O   UNL     1      13.276  17.388  69.086  1.00  0.00    -0.288 OA
ATOM      8  C   UNL     1      10.818  18.590  69.605  1.00  0.00     0.020 A 
ATOM      9  C   UNL     1       9.573  19.125  69.921  1.00  0.00     0.047 A 
ATOM     10  C   UNL     1       8.783  18.553  70.924  1.00  0.00     0.125 A 
ATOM     11  C   UNL     1       9.240  17.413  71.629  1.00  0.00     0.069 A 
ENDROOT
BRANCH   1  12
ATOM     12  C   UNL     1      14.290  15.120  70.438  1.00  0.00    -0.011 A 
ATOM     13  C   UNL     1      15.445  15.884  70.197  1.00  0.00     0.013 A 
ATOM     14  C   UNL     1      16.663  15.257  69.916  1.00  0.00     0.047 A 
ATOM     15  C   UNL     1      16.742  13.859  69.874  1.00  0.00     0.115 A 
ATOM     16  C   UNL     1      14.378  13.716  70.398  1.00  0.00     0.013 A 
ATOM     17  C   UNL     1      15.594  13.090  70.108  1.00  0.00     0.047 A 
BRANCH  15  18
ATOM     18  O   UNL     1      17.964  13.244  69.610  1.00  0.00    -0.508 OA
ATOM     19  H   UNL     1      18.076  12.237  69.672  1.00  0.00     0.293 HD
ENDBRANCH  15  18
ENDBRANCH   1  12
BRANCH  11  20
ATOM     20  C   UNL     1       8.413  16.792  72.750  1.00  0.00     0.188 C 
ATOM     21  C   UNL     1       8.596  17.588  74.066  1.00  0.00     0.179 C 
ATOM     22  O   UNL     1       7.045  16.734  72.374  1.00  0.00    -0.362 OA
ATOM     23  C   UNL     1       7.701  17.014  75.185  1.00  0.00     0.177 C 
ATOM     24  C   UNL     1       6.296  15.996  73.324  1.00  0.00     0.176 C 
ATOM     25  C   UNL     1       6.264  16.736  74.682  1.00  0.00     0.177 C 
BRANCH  21  26
ATOM     26  O   UNL     1       8.255  18.939  73.866  1.00  0.00    -0.387 OA
ATOM     27  H   UNL     1       7.872  19.277  74.717  1.00  0.00     0.211 HD
ENDBRANCH  21  26
BRANCH  23  28
ATOM     28  O   UNL     1       8.272  15.868  75.769  1.00  0.00    -0.387 OA
ATOM     29  H   UNL     1       8.202  15.114  75.127  1.00  0.00     0.211 HD
ENDBRANCH  23  28
BRANCH  24  30
ATOM     30  C   UNL     1       4.875  15.783  72.780  1.00  0.00     0.191 C 
BRANCH  30  31
ATOM     31  O   UNL     1       4.916  15.523  71.400  1.00  0.00    -0.394 OA
ATOM     32  H   UNL     1       4.594  16.345  70.946  1.00  0.00     0.210 HD
ENDBRANCH  30  31
ENDBRANCH  24  30
BRANCH  25  33
ATOM     33  O   UNL     1       5.572  17.953  74.540  1.00  0.00    -0.388 OA
ATOM     34  H   UNL     1       4.678  17.737  74.161  1.00  0.00     0.211 HD
ENDBRANCH  25  33
ENDBRANCH  11  20
BRANCH  10  35
ATOM     35  O   UNL     1       7.544  19.125  71.221  1.00  0.00    -0.507 OA
ATOM     36  H   UNL     1       6.919  19.452  70.495  1.00  0.00     0.293 HD
ENDBRANCH  10  35
TORSDOF 9
ENDMDL
