MODEL 1
REMARK VINA RESULT:    -5.457      0.000      0.000
REMARK INTER + INTRA:          -5.457
REMARK INTER:                  -5.457
REMARK INTRA:                   0.000
REMARK UNBOUND:                 0.000
REMARK SMILES CC(C)=C1CC[C@H](C)CC1=O
REMARK SMILES IDX 8 1 7 2 6 3 5 4 4 5 2 6 1 7 3 8 10 9 11 10 9 11
REMARK H PARENT
REMARK Flexibility Score: inf
ROOT
ATOM      1  C   UNL     1      14.999 -33.006  20.940  1.00  0.00     0.008 C 
ATOM      2  C   UNL     1      14.072 -32.234  21.887  1.00  0.00    -0.006 C 
ATOM      3  C   UNL     1      14.874 -31.223  22.723  1.00  0.00     0.008 C 
ATOM      4  C   UNL     1      13.980 -30.513  23.748  1.00  0.00     0.039 C 
ATOM      5  C   UNL     1      12.741 -29.896  23.114  1.00  0.00    -0.006 C 
ATOM      6  C   UNL     1      12.181 -28.755  23.614  1.00  0.00    -0.070 C 
ATOM      7  C   UNL     1      10.985 -28.103  22.959  1.00  0.00     0.039 C 
ATOM      8  C   UNL     1      12.757 -28.067  24.830  1.00  0.00     0.039 C 
ATOM      9  C   UNL     1      12.119 -30.672  22.000  1.00  0.00     0.159 C 
ATOM     10  O   UNL     1      10.875 -30.648  21.799  1.00  0.00    -0.295 OA
ATOM     11  C   UNL     1      12.977 -31.507  21.094  1.00  0.00     0.084 C 
ENDROOT
TORSDOF 0
ENDMDL
MODEL 2
REMARK VINA RESULT:    -5.350      2.231      5.329
REMARK INTER + INTRA:          -5.350
REMARK INTER:                  -5.350
REMARK INTRA:                   0.000
REMARK UNBOUND:                 0.000
REMARK SMILES CC(C)=C1CC[C@H](C)CC1=O
REMARK SMILES IDX 8 1 7 2 6 3 5 4 4 5 2 6 1 7 3 8 10 9 11 10 9 11
REMARK H PARENT
REMARK Flexibility Score: inf
ROOT
ATOM      1  C   UNL     1      12.749 -29.694  23.533  1.00  0.00     0.008 C 
ATOM      2  C   UNL     1      13.121 -31.086  23.009  1.00  0.00    -0.006 C 
ATOM      3  C   UNL     1      13.569 -31.009  21.540  1.00  0.00     0.008 C 
ATOM      4  C   UNL     1      13.848 -32.405  20.968  1.00  0.00     0.039 C 
ATOM      5  C   UNL     1      14.810 -33.208  21.832  1.00  0.00    -0.006 C 
ATOM      6  C   UNL     1      15.668 -34.118  21.282  1.00  0.00    -0.070 C 
ATOM      7  C   UNL     1      16.667 -34.879  22.123  1.00  0.00     0.039 C 
ATOM      8  C   UNL     1      15.685 -34.378  19.793  1.00  0.00     0.039 C 
ATOM      9  C   UNL     1      14.675 -33.026  23.308  1.00  0.00     0.159 C 
ATOM     10  O   UNL     1      14.919 -33.968  24.110  1.00  0.00    -0.295 OA
ATOM     11  C   UNL     1      14.236 -31.703  23.866  1.00  0.00     0.084 C 
ENDROOT
TORSDOF 0
ENDMDL
MODEL 3
REMARK VINA RESULT:    -5.313      1.339      4.146
REMARK INTER + INTRA:          -5.313
REMARK INTER:                  -5.313
REMARK INTRA:                   0.000
REMARK UNBOUND:                 0.000
REMARK SMILES CC(C)=C1CC[C@H](C)CC1=O
REMARK SMILES IDX 8 1 7 2 6 3 5 4 4 5 2 6 1 7 3 8 10 9 11 10 9 11
REMARK H PARENT
REMARK Flexibility Score: inf
ROOT
ATOM      1  C   UNL     1      10.966 -28.746  23.268  1.00  0.00     0.008 C 
ATOM      2  C   UNL     1      12.251 -29.439  22.801  1.00  0.00    -0.006 C 
ATOM      3  C   UNL     1      13.112 -29.853  24.006  1.00  0.00     0.008 C 
ATOM      4  C   UNL     1      14.449 -30.456  23.555  1.00  0.00     0.039 C 
ATOM      5  C   UNL     1      14.270 -31.586  22.550  1.00  0.00    -0.006 C 
ATOM      6  C   UNL     1      15.143 -32.635  22.499  1.00  0.00    -0.070 C 
ATOM      7  C   UNL     1      14.943 -33.789  21.543  1.00  0.00     0.039 C 
ATOM      8  C   UNL     1      16.333 -32.710  23.426  1.00  0.00     0.039 C 
ATOM      9  C   UNL     1      13.164 -31.414  21.561  1.00  0.00     0.159 C 
ATOM     10  O   UNL     1      13.252 -31.878  20.393  1.00  0.00    -0.295 OA
ATOM     11  C   UNL     1      11.917 -30.672  21.948  1.00  0.00     0.084 C 
ENDROOT
TORSDOF 0
ENDMDL
MODEL 4
REMARK VINA RESULT:    -5.194      2.165      4.682
REMARK INTER + INTRA:          -5.194
REMARK INTER:                  -5.194
REMARK INTRA:                   0.000
REMARK UNBOUND:                 0.000
REMARK SMILES CC(C)=C1CC[C@H](C)CC1=O
REMARK SMILES IDX 8 1 7 2 6 3 5 4 4 5 2 6 1 7 3 8 10 9 11 10 9 11
REMARK H PARENT
REMARK Flexibility Score: inf
ROOT
ATOM      1  C   UNL     1      12.373 -29.109  23.988  1.00  0.00     0.008 C 
ATOM      2  C   UNL     1      13.307 -29.690  22.920  1.00  0.00    -0.006 C 
ATOM      3  C   UNL     1      14.671 -28.980  22.951  1.00  0.00     0.008 C 
ATOM      4  C   UNL     1      15.584 -29.479  21.822  1.00  0.00     0.039 C 
ATOM      5  C   UNL     1      15.714 -30.996  21.804  1.00  0.00    -0.006 C 
ATOM      6  C   UNL     1      16.864 -31.604  21.386  1.00  0.00    -0.070 C 
ATOM      7  C   UNL     1      17.024 -33.107  21.417  1.00  0.00     0.039 C 
ATOM      8  C   UNL     1      18.048 -30.797  20.908  1.00  0.00     0.039 C 
ATOM      9  C   UNL     1      14.482 -31.764  22.154  1.00  0.00     0.159 C 
ATOM     10  O   UNL     1      14.242 -32.888  21.637  1.00  0.00    -0.295 OA
ATOM     11  C   UNL     1      13.496 -31.199  23.135  1.00  0.00     0.084 C 
ENDROOT
TORSDOF 0
ENDMDL
MODEL 5
REMARK VINA RESULT:    -5.194      1.729      2.886
REMARK INTER + INTRA:          -5.194
REMARK INTER:                  -5.194
REMARK INTRA:                   0.000
REMARK UNBOUND:                 0.000
REMARK SMILES CC(C)=C1CC[C@H](C)CC1=O
REMARK SMILES IDX 8 1 7 2 6 3 5 4 4 5 2 6 1 7 3 8 10 9 11 10 9 11
REMARK H PARENT
REMARK Flexibility Score: inf
ROOT
ATOM      1  C   UNL     1      16.916 -33.616  21.643  1.00  0.00     0.008 C 
ATOM      2  C   UNL     1      15.889 -32.487  21.502  1.00  0.00    -0.006 C 
ATOM      3  C   UNL     1      14.493 -33.059  21.207  1.00  0.00     0.008 C 
ATOM      4  C   UNL     1      13.472 -31.940  20.961  1.00  0.00     0.039 C 
ATOM      5  C   UNL     1      13.456 -30.908  22.080  1.00  0.00    -0.006 C 
ATOM      6  C   UNL     1      12.310 -30.250  22.422  1.00  0.00    -0.070 C 
ATOM      7  C   UNL     1      12.270 -29.265  23.568  1.00  0.00     0.039 C 
ATOM      8  C   UNL     1      11.012 -30.505  21.691  1.00  0.00     0.039 C 
ATOM      9  C   UNL     1      14.780 -30.582  22.690  1.00  0.00     0.159 C 
ATOM     10  O   UNL     1      15.031 -29.430  23.135  1.00  0.00    -0.295 OA
ATOM     11  C   UNL     1      15.847 -31.634  22.779  1.00  0.00     0.084 C 
ENDROOT
TORSDOF 0
ENDMDL
MODEL 6
REMARK VINA RESULT:    -5.133      2.150      4.842
REMARK INTER + INTRA:          -5.133
REMARK INTER:                  -5.133
REMARK INTRA:                   0.000
REMARK UNBOUND:                 0.000
REMARK SMILES CC(C)=C1CC[C@H](C)CC1=O
REMARK SMILES IDX 8 1 7 2 6 3 5 4 4 5 2 6 1 7 3 8 10 9 11 10 9 11
REMARK H PARENT
REMARK Flexibility Score: inf
ROOT
ATOM      1  C   UNL     1      11.966 -28.380  23.809  1.00  0.00     0.008 C 
ATOM      2  C   UNL     1      13.002 -29.498  23.645  1.00  0.00    -0.006 C 
ATOM      3  C   UNL     1      12.499 -30.559  22.652  1.00  0.00     0.008 C 
ATOM      4  C   UNL     1      13.478 -31.737  22.553  1.00  0.00     0.039 C 
ATOM      5  C   UNL     1      14.903 -31.289  22.257  1.00  0.00    -0.006 C 
ATOM      6  C   UNL     1      15.754 -32.068  21.527  1.00  0.00    -0.070 C 
ATOM      7  C   UNL     1      17.152 -31.608  21.180  1.00  0.00     0.039 C 
ATOM      8  C   UNL     1      15.324 -33.415  20.996  1.00  0.00     0.039 C 
ATOM      9  C   UNL     1      15.338 -30.018  22.908  1.00  0.00     0.159 C 
ATOM     10  O   UNL     1      16.535 -29.837  23.258  1.00  0.00    -0.295 OA
ATOM     11  C   UNL     1      14.343 -28.923  23.163  1.00  0.00     0.084 C 
ENDROOT
TORSDOF 0
ENDMDL
MODEL 7
REMARK VINA RESULT:    -5.116      8.806     10.170
REMARK INTER + INTRA:          -5.116
REMARK INTER:                  -5.116
REMARK INTRA:                   0.000
REMARK UNBOUND:                 0.000
REMARK SMILES CC(C)=C1CC[C@H](C)CC1=O
REMARK SMILES IDX 8 1 7 2 6 3 5 4 4 5 2 6 1 7 3 8 10 9 11 10 9 11
REMARK H PARENT
REMARK Flexibility Score: inf
ROOT
ATOM      1  C   UNL     1      23.656 -24.323  19.877  1.00  0.00     0.008 C 
ATOM      2  C   UNL     1      22.728 -25.287  20.624  1.00  0.00    -0.006 C 
ATOM      3  C   UNL     1      21.415 -25.485  19.848  1.00  0.00     0.008 C 
ATOM      4  C   UNL     1      20.433 -26.367  20.631  1.00  0.00     0.039 C 
ATOM      5  C   UNL     1      21.055 -27.684  21.072  1.00  0.00    -0.006 C 
ATOM      6  C   UNL     1      20.307 -28.822  21.182  1.00  0.00    -0.070 C 
ATOM      7  C   UNL     1      20.925 -30.147  21.565  1.00  0.00     0.039 C 
ATOM      8  C   UNL     1      18.825 -28.816  20.885  1.00  0.00     0.039 C 
ATOM      9  C   UNL     1      22.489 -27.626  21.487  1.00  0.00     0.159 C 
ATOM     10  O   UNL     1      22.944 -28.388  22.381  1.00  0.00    -0.295 OA
ATOM     11  C   UNL     1      23.420 -26.642  20.839  1.00  0.00     0.084 C 
ENDROOT
TORSDOF 0
ENDMDL
MODEL 8
REMARK VINA RESULT:    -4.881      3.252      4.786
REMARK INTER + INTRA:          -4.881
REMARK INTER:                  -4.881
REMARK INTRA:                   0.000
REMARK UNBOUND:                 0.000
REMARK SMILES CC(C)=C1CC[C@H](C)CC1=O
REMARK SMILES IDX 8 1 7 2 6 3 5 4 4 5 2 6 1 7 3 8 10 9 11 10 9 11
REMARK H PARENT
REMARK Flexibility Score: inf
ROOT
ATOM      1  C   UNL     1      16.919 -35.883  19.501  1.00  0.00     0.008 C 
ATOM      2  C   UNL     1      16.446 -34.496  19.949  1.00  0.00    -0.006 C 
ATOM      3  C   UNL     1      15.363 -34.618  21.034  1.00  0.00     0.008 C 
ATOM      4  C   UNL     1      14.804 -33.242  21.421  1.00  0.00     0.039 C 
ATOM      5  C   UNL     1      15.898 -32.253  21.797  1.00  0.00    -0.006 C 
ATOM      6  C   UNL     1      15.684 -31.277  22.728  1.00  0.00    -0.070 C 
ATOM      7  C   UNL     1      16.780 -30.324  23.149  1.00  0.00     0.039 C 
ATOM      8  C   UNL     1      14.345 -31.127  23.412  1.00  0.00     0.039 C 
ATOM      9  C   UNL     1      17.163 -32.343  21.007  1.00  0.00     0.159 C 
ATOM     10  O   UNL     1      17.859 -31.320  20.766  1.00  0.00    -0.295 OA
ATOM     11  C   UNL     1      17.627 -33.669  20.479  1.00  0.00     0.084 C 
ENDROOT
TORSDOF 0
ENDMDL
MODEL 9
REMARK VINA RESULT:    -4.872      2.738      5.244
REMARK INTER + INTRA:          -4.872
REMARK INTER:                  -4.872
REMARK INTRA:                   0.000
REMARK UNBOUND:                 0.000
REMARK SMILES CC(C)=C1CC[C@H](C)CC1=O
REMARK SMILES IDX 8 1 7 2 6 3 5 4 4 5 2 6 1 7 3 8 10 9 11 10 9 11
REMARK H PARENT
REMARK Flexibility Score: inf
ROOT
ATOM      1  C   UNL     1      12.124 -30.629  22.144  1.00  0.00     0.008 C 
ATOM      2  C   UNL     1      13.561 -31.153  22.255  1.00  0.00    -0.006 C 
ATOM      3  C   UNL     1      13.871 -32.126  21.106  1.00  0.00     0.008 C 
ATOM      4  C   UNL     1      15.270 -32.739  21.257  1.00  0.00     0.039 C 
ATOM      5  C   UNL     1      16.353 -31.684  21.439  1.00  0.00    -0.006 C 
ATOM      6  C   UNL     1      17.621 -31.882  20.972  1.00  0.00    -0.070 C 
ATOM      7  C   UNL     1      18.689 -30.819  21.097  1.00  0.00     0.039 C 
ATOM      8  C   UNL     1      18.007 -33.162  20.270  1.00  0.00     0.039 C 
ATOM      9  C   UNL     1      15.975 -30.491  22.254  1.00  0.00     0.159 C 
ATOM     10  O   UNL     1      16.823 -29.888  22.965  1.00  0.00    -0.295 OA
ATOM     11  C   UNL     1      14.561 -29.987  22.240  1.00  0.00     0.084 C 
ENDROOT
TORSDOF 0
ENDMDL
