MODEL 1
REMARK VINA RESULT:    -5.639      0.000      0.000
REMARK INTER + INTRA:          -6.560
REMARK INTER:                  -6.463
REMARK INTRA:                  -0.096
REMARK UNBOUND:                -0.096
REMARK SMILES COc1cc(C(=O)[O-])ccc1O
REMARK SMILES IDX 5 1 9 2 4 3 10 4 3 5 11 6 6 7 7 8 8 9 2 10 1 11 12 12
REMARK H PARENT 12 13
REMARK Flexibility Score: inf
ROOT
ATOM      1  C   UNL     1      39.482  26.388  41.167  1.00  0.00     0.001 A 
ATOM      2  C   UNL     1      40.651  26.494  40.397  1.00  0.00     0.014 A 
ATOM      3  C   UNL     1      38.237  26.310  40.514  1.00  0.00     0.060 A 
ATOM      4  C   UNL     1      40.579  26.520  39.004  1.00  0.00     0.051 A 
ATOM      5  C   UNL     1      38.161  26.336  39.107  1.00  0.00     0.161 A 
ATOM      6  C   UNL     1      39.340  26.441  38.357  1.00  0.00     0.157 A 
ENDROOT
BRANCH   1   7
ATOM      7  C   UNL     1      39.562  26.361  42.645  1.00  0.00     0.072 C 
ATOM      8  O   UNL     1      39.930  25.319  43.249  1.00  0.00    -0.545 OA
ATOM      9  O   UNL     1      39.231  27.489  43.388  1.00  0.00    -0.545 OA
ENDBRANCH   1   7
BRANCH   5  10
ATOM     10  O   UNL     1      36.939  26.260  38.421  1.00  0.00    -0.493 OA
ATOM     11  C   UNL     1      36.214  25.055  38.196  1.00  0.00     0.278 C 
ENDBRANCH   5  10
BRANCH   6  12
ATOM     12  O   UNL     1      39.272  26.468  36.965  1.00  0.00    -0.504 OA
ATOM     13  H   UNL     1      40.076  26.247  36.390  1.00  0.00     0.293 HD
ENDBRANCH   6  12
TORSDOF 3
ENDMDL
MODEL 2
REMARK VINA RESULT:    -5.549      2.180      3.688
REMARK INTER + INTRA:          -6.456
REMARK INTER:                  -6.354
REMARK INTRA:                  -0.102
REMARK UNBOUND:                -0.096
REMARK SMILES COc1cc(C(=O)[O-])ccc1O
REMARK SMILES IDX 5 1 9 2 4 3 10 4 3 5 11 6 6 7 7 8 8 9 2 10 1 11 12 12
REMARK H PARENT 12 13
REMARK Flexibility Score: inf
ROOT
ATOM      1  C   UNL     1      37.997  27.212  42.498  1.00  0.00     0.001 A 
ATOM      2  C   UNL     1      38.734  26.666  43.560  1.00  0.00     0.014 A 
ATOM      3  C   UNL     1      38.318  26.839  41.179  1.00  0.00     0.060 A 
ATOM      4  C   UNL     1      39.771  25.765  43.312  1.00  0.00     0.051 A 
ATOM      5  C   UNL     1      39.364  25.929  40.924  1.00  0.00     0.161 A 
ATOM      6  C   UNL     1      40.087  25.395  42.000  1.00  0.00     0.157 A 
ENDROOT
BRANCH   1   7
ATOM      7  C   UNL     1      36.898  28.168  42.765  1.00  0.00     0.072 C 
ATOM      8  O   UNL     1      36.198  28.621  41.822  1.00  0.00    -0.545 OA
ATOM      9  O   UNL     1      36.625  28.578  44.065  1.00  0.00    -0.545 OA
ENDBRANCH   1   7
BRANCH   5  10
ATOM     10  O   UNL     1      39.713  25.533  39.623  1.00  0.00    -0.493 OA
ATOM     11  C   UNL     1      40.332  26.381  38.662  1.00  0.00     0.278 C 
ENDBRANCH   5  10
BRANCH   6  12
ATOM     12  O   UNL     1      41.123  24.495  41.754  1.00  0.00    -0.504 OA
ATOM     13  H   UNL     1      41.100  23.548  42.114  1.00  0.00     0.293 HD
ENDBRANCH   6  12
TORSDOF 3
ENDMDL
MODEL 3
REMARK VINA RESULT:    -5.248      2.029      4.373
REMARK INTER + INTRA:          -6.111
REMARK INTER:                  -6.065
REMARK INTRA:                  -0.046
REMARK UNBOUND:                -0.096
REMARK SMILES COc1cc(C(=O)[O-])ccc1O
REMARK SMILES IDX 5 1 9 2 4 3 10 4 3 5 11 6 6 7 7 8 8 9 2 10 1 11 12 12
REMARK H PARENT 12 13
REMARK Flexibility Score: inf
ROOT
ATOM      1  C   UNL     1      39.066  26.150  40.632  1.00  0.00     0.001 A 
ATOM      2  C   UNL     1      39.931  25.912  41.711  1.00  0.00     0.014 A 
ATOM      3  C   UNL     1      37.862  26.843  40.860  1.00  0.00     0.060 A 
ATOM      4  C   UNL     1      39.603  26.359  42.992  1.00  0.00     0.051 A 
ATOM      5  C   UNL     1      37.527  27.296  42.152  1.00  0.00     0.161 A 
ATOM      6  C   UNL     1      38.405  27.049  43.216  1.00  0.00     0.157 A 
ENDROOT
BRANCH   1   7
ATOM      7  C   UNL     1      39.418  25.675  39.274  1.00  0.00     0.072 C 
ATOM      8  O   UNL     1      39.486  24.442  39.023  1.00  0.00    -0.545 OA
ATOM      9  O   UNL     1      39.680  26.586  38.257  1.00  0.00    -0.545 OA
ENDBRANCH   1   7
BRANCH   5  10
ATOM     10  O   UNL     1      36.336  27.990  42.417  1.00  0.00    -0.493 OA
ATOM     11  C   UNL     1      36.218  29.409  42.441  1.00  0.00     0.278 C 
ENDBRANCH   5  10
BRANCH   6  12
ATOM     12  O   UNL     1      38.079  27.493  44.496  1.00  0.00    -0.504 OA
ATOM     13  H   UNL     1      37.122  27.493  44.829  1.00  0.00     0.293 HD
ENDBRANCH   6  12
TORSDOF 3
ENDMDL
MODEL 4
REMARK VINA RESULT:    -5.172      1.184      2.570
REMARK INTER + INTRA:          -6.024
REMARK INTER:                  -5.927
REMARK INTRA:                  -0.097
REMARK UNBOUND:                -0.096
REMARK SMILES COc1cc(C(=O)[O-])ccc1O
REMARK SMILES IDX 5 1 9 2 4 3 10 4 3 5 11 6 6 7 7 8 8 9 2 10 1 11 12 12
REMARK H PARENT 12 13
REMARK Flexibility Score: inf
ROOT
ATOM      1  C   UNL     1      39.077  26.489  41.627  1.00  0.00     0.001 A 
ATOM      2  C   UNL     1      37.748  26.681  41.215  1.00  0.00     0.014 A 
ATOM      3  C   UNL     1      40.050  26.160  40.664  1.00  0.00     0.060 A 
ATOM      4  C   UNL     1      37.399  26.550  39.870  1.00  0.00     0.051 A 
ATOM      5  C   UNL     1      39.701  26.026  39.305  1.00  0.00     0.161 A 
ATOM      6  C   UNL     1      38.369  26.224  38.915  1.00  0.00     0.157 A 
ENDROOT
BRANCH   1   7
ATOM      7  C   UNL     1      39.444  26.630  43.054  1.00  0.00     0.072 C 
ATOM      8  O   UNL     1      39.263  27.720  43.658  1.00  0.00    -0.545 OA
ATOM      9  O   UNL     1      39.995  25.558  43.747  1.00  0.00    -0.545 OA
ENDBRANCH   1   7
BRANCH   5  10
ATOM     10  O   UNL     1      40.643  25.700  38.317  1.00  0.00    -0.493 OA
ATOM     11  C   UNL     1      41.121  24.383  38.063  1.00  0.00     0.278 C 
ENDBRANCH   5  10
BRANCH   6  12
ATOM     12  O   UNL     1      38.017  26.092  37.573  1.00  0.00    -0.504 OA
ATOM     13  H   UNL     1      37.823  25.186  37.162  1.00  0.00     0.293 HD
ENDBRANCH   6  12
TORSDOF 3
ENDMDL
MODEL 5
REMARK VINA RESULT:    -5.127      2.856      4.044
REMARK INTER + INTRA:          -5.973
REMARK INTER:                  -5.893
REMARK INTRA:                  -0.080
REMARK UNBOUND:                -0.096
REMARK SMILES COc1cc(C(=O)[O-])ccc1O
REMARK SMILES IDX 5 1 9 2 4 3 10 4 3 5 11 6 6 7 7 8 8 9 2 10 1 11 12 12
REMARK H PARENT 12 13
REMARK Flexibility Score: inf
ROOT
ATOM      1  C   UNL     1      36.911  28.341  42.909  1.00  0.00     0.001 A 
ATOM      2  C   UNL     1      37.958  27.978  43.771  1.00  0.00     0.014 A 
ATOM      3  C   UNL     1      36.842  27.755  41.631  1.00  0.00     0.060 A 
ATOM      4  C   UNL     1      38.916  27.047  43.366  1.00  0.00     0.051 A 
ATOM      5  C   UNL     1      37.807  26.815  41.219  1.00  0.00     0.161 A 
ATOM      6  C   UNL     1      38.844  26.465  42.095  1.00  0.00     0.157 A 
ENDROOT
BRANCH   1   7
ATOM      7  C   UNL     1      35.896  29.329  43.343  1.00  0.00     0.072 C 
ATOM      8  O   UNL     1      35.665  30.357  42.652  1.00  0.00    -0.545 OA
ATOM      9  O   UNL     1      35.183  29.133  44.520  1.00  0.00    -0.545 OA
ENDBRANCH   1   7
BRANCH   5  10
ATOM     10  O   UNL     1      37.771  26.209  39.953  1.00  0.00    -0.493 OA
ATOM     11  C   UNL     1      36.579  25.943  39.221  1.00  0.00     0.278 C 
ENDBRANCH   5  10
BRANCH   6  12
ATOM     12  O   UNL     1      39.802  25.536  41.692  1.00  0.00    -0.504 OA
ATOM     13  H   UNL     1      40.664  25.824  41.243  1.00  0.00     0.293 HD
ENDBRANCH   6  12
TORSDOF 3
ENDMDL
MODEL 6
REMARK VINA RESULT:    -5.116      1.541      4.590
REMARK INTER + INTRA:          -5.960
REMARK INTER:                  -5.860
REMARK INTRA:                  -0.100
REMARK UNBOUND:                -0.096
REMARK SMILES COc1cc(C(=O)[O-])ccc1O
REMARK SMILES IDX 5 1 9 2 4 3 10 4 3 5 11 6 6 7 7 8 8 9 2 10 1 11 12 12
REMARK H PARENT 12 13
REMARK Flexibility Score: inf
ROOT
ATOM      1  C   UNL     1      39.084  25.754  38.711  1.00  0.00     0.001 A 
ATOM      2  C   UNL     1      37.713  25.994  38.524  1.00  0.00     0.014 A 
ATOM      3  C   UNL     1      39.659  26.017  39.969  1.00  0.00     0.060 A 
ATOM      4  C   UNL     1      36.932  26.485  39.572  1.00  0.00     0.051 A 
ATOM      5  C   UNL     1      38.874  26.513  41.029  1.00  0.00     0.161 A 
ATOM      6  C   UNL     1      37.507  26.745  40.822  1.00  0.00     0.157 A 
ENDROOT
BRANCH   1   7
ATOM      7  C   UNL     1      39.909  25.233  37.598  1.00  0.00     0.072 C 
ATOM      8  O   UNL     1      41.038  24.722  37.821  1.00  0.00    -0.545 OA
ATOM      9  O   UNL     1      39.446  25.300  36.289  1.00  0.00    -0.545 OA
ENDBRANCH   1   7
BRANCH   5  10
ATOM     10  O   UNL     1      39.412  26.786  42.296  1.00  0.00    -0.493 OA
ATOM     11  C   UNL     1      39.640  25.807  43.304  1.00  0.00     0.278 C 
ENDBRANCH   5  10
BRANCH   6  12
ATOM     12  O   UNL     1      36.725  27.236  41.866  1.00  0.00    -0.504 OA
ATOM     13  H   UNL     1      36.645  28.230  42.046  1.00  0.00     0.293 HD
ENDBRANCH   6  12
TORSDOF 3
ENDMDL
MODEL 7
REMARK VINA RESULT:    -4.977      7.174      9.108
REMARK INTER + INTRA:          -5.801
REMARK INTER:                  -5.705
REMARK INTRA:                  -0.096
REMARK UNBOUND:                -0.096
REMARK SMILES COc1cc(C(=O)[O-])ccc1O
REMARK SMILES IDX 5 1 9 2 4 3 10 4 3 5 11 6 6 7 7 8 8 9 2 10 1 11 12 12
REMARK H PARENT 12 13
REMARK Flexibility Score: inf
ROOT
ATOM      1  C   UNL     1      32.025  22.024  39.985  1.00  0.00     0.001 A 
ATOM      2  C   UNL     1      33.365  22.284  39.658  1.00  0.00     0.014 A 
ATOM      3  C   UNL     1      31.737  21.209  41.096  1.00  0.00     0.060 A 
ATOM      4  C   UNL     1      34.398  21.741  40.425  1.00  0.00     0.051 A 
ATOM      5  C   UNL     1      32.777  20.659  41.873  1.00  0.00     0.161 A 
ATOM      6  C   UNL     1      34.108  20.931  41.529  1.00  0.00     0.157 A 
ENDROOT
BRANCH   1   7
ATOM      7  C   UNL     1      30.933  22.602  39.169  1.00  0.00     0.072 C 
ATOM      8  O   UNL     1      30.566  22.045  38.101  1.00  0.00    -0.545 OA
ATOM      9  O   UNL     1      30.296  23.770  39.573  1.00  0.00    -0.545 OA
ENDBRANCH   1   7
BRANCH   5  10
ATOM     10  O   UNL     1      32.528  19.843  42.987  1.00  0.00    -0.493 OA
ATOM     11  C   UNL     1      32.177  18.465  42.914  1.00  0.00     0.278 C 
ENDBRANCH   5  10
BRANCH   6  12
ATOM     12  O   UNL     1      35.141  20.390  42.294  1.00  0.00    -0.504 OA
ATOM     13  H   UNL     1      36.043  20.846  42.366  1.00  0.00     0.293 HD
ENDBRANCH   6  12
TORSDOF 3
ENDMDL
MODEL 8
REMARK VINA RESULT:    -4.967      1.845      4.954
REMARK INTER + INTRA:          -5.789
REMARK INTER:                  -5.691
REMARK INTRA:                  -0.098
REMARK UNBOUND:                -0.096
REMARK SMILES COc1cc(C(=O)[O-])ccc1O
REMARK SMILES IDX 5 1 9 2 4 3 10 4 3 5 11 6 6 7 7 8 8 9 2 10 1 11 12 12
REMARK H PARENT 12 13
REMARK Flexibility Score: inf
ROOT
ATOM      1  C   UNL     1      38.450  25.372  37.760  1.00  0.00     0.001 A 
ATOM      2  C   UNL     1      37.059  25.556  37.822  1.00  0.00     0.014 A 
ATOM      3  C   UNL     1      39.240  25.751  38.861  1.00  0.00     0.060 A 
ATOM      4  C   UNL     1      36.470  26.107  38.962  1.00  0.00     0.051 A 
ATOM      5  C   UNL     1      38.649  26.308  40.013  1.00  0.00     0.161 A 
ATOM      6  C   UNL     1      37.259  26.483  40.055  1.00  0.00     0.157 A 
ENDROOT
BRANCH   1   7
ATOM      7  C   UNL     1      39.071  24.787  36.550  1.00  0.00     0.072 C 
ATOM      8  O   UNL     1      39.939  25.428  35.900  1.00  0.00    -0.545 OA
ATOM      9  O   UNL     1      38.704  23.519  36.115  1.00  0.00    -0.545 OA
ENDBRANCH   1   7
BRANCH   5  10
ATOM     10  O   UNL     1      39.405  26.698  41.129  1.00  0.00    -0.493 OA
ATOM     11  C   UNL     1      39.943  25.799  42.092  1.00  0.00     0.278 C 
ENDBRANCH   5  10
BRANCH   6  12
ATOM     12  O   UNL     1      36.668  27.034  41.191  1.00  0.00    -0.504 OA
ATOM     13  H   UNL     1      37.225  27.425  41.942  1.00  0.00     0.293 HD
ENDBRANCH   6  12
TORSDOF 3
ENDMDL
MODEL 9
REMARK VINA RESULT:    -4.886      1.837      2.375
REMARK INTER + INTRA:          -5.696
REMARK INTER:                  -5.610
REMARK INTRA:                  -0.086
REMARK UNBOUND:                -0.096
REMARK SMILES COc1cc(C(=O)[O-])ccc1O
REMARK SMILES IDX 5 1 9 2 4 3 10 4 3 5 11 6 6 7 7 8 8 9 2 10 1 11 12 12
REMARK H PARENT 12 13
REMARK Flexibility Score: inf
ROOT
ATOM      1  C   UNL     1      38.090  26.393  39.800  1.00  0.00     0.001 A 
ATOM      2  C   UNL     1      39.312  26.884  39.314  1.00  0.00     0.014 A 
ATOM      3  C   UNL     1      37.396  25.424  39.052  1.00  0.00     0.060 A 
ATOM      4  C   UNL     1      39.831  26.415  38.106  1.00  0.00     0.051 A 
ATOM      5  C   UNL     1      37.916  24.949  37.832  1.00  0.00     0.161 A 
ATOM      6  C   UNL     1      39.139  25.451  37.365  1.00  0.00     0.157 A 
ENDROOT
BRANCH   1   7
ATOM      7  C   UNL     1      37.543  26.892  41.082  1.00  0.00     0.072 C 
ATOM      8  O   UNL     1      36.516  27.622  41.101  1.00  0.00    -0.545 OA
ATOM      9  O   UNL     1      38.156  26.561  42.285  1.00  0.00    -0.545 OA
ENDBRANCH   1   7
BRANCH   5  10
ATOM     10  O   UNL     1      37.253  23.983  37.059  1.00  0.00    -0.493 OA
ATOM     11  C   UNL     1      37.374  22.577  37.247  1.00  0.00     0.278 C 
ENDBRANCH   5  10
BRANCH   6  12
ATOM     12  O   UNL     1      39.659  24.985  36.158  1.00  0.00    -0.504 OA
ATOM     13  H   UNL     1      40.389  25.487  35.666  1.00  0.00     0.293 HD
ENDBRANCH   6  12
TORSDOF 3
ENDMDL
