MODEL 1
REMARK VINA RESULT:    -6.438      0.000      0.000
REMARK INTER + INTRA:         -12.185
REMARK INTER:                 -10.201
REMARK INTRA:                  -1.984
REMARK UNBOUND:                -1.984
REMARK SMILES C[C@@H]1O[C@H](O[C@H]2[C@H](Oc3cc(O)c4c(c3)O[C@@H](c3ccc(O)cc3)CC4=O)O[C@H](CO)[C@@H](O)[C@@H]2O)[C@@H](O)[C@H](O)[C@H]1O
REMARK SMILES IDX 6 1 34 2 32 3 29 4 28 5 7 6 5 7 4 8 1 9 2 10 40 11 3 12
REMARK SMILES IDX 38 13 36 14 41 15 39 17 37 19 35 21 8 23 9 24 10 25 15 26
REMARK SMILES IDX 11 27 14 28 13 29 16 30 26 31 17 32 27 33 25 34 12 35 18 37
REMARK SMILES IDX 19 38 24 39 20 40 23 41 21 42 22 43 33 45 30 47 31 48
REMARK H PARENT 41 16 39 18 37 20 35 22 12 36 22 44 33 46 31 49
REMARK Flexibility Score: inf
ROOT
ATOM      1  C   UNL     1      -0.331  30.454  43.161  1.00  0.00     0.221 C 
ATOM      2  C   UNL     1       1.140  29.982  43.107  1.00  0.00     0.181 C 
ATOM      3  C   UNL     1       1.434  29.172  41.819  1.00  0.00     0.177 C 
ATOM      4  C   UNL     1       0.172  28.407  41.328  1.00  0.00     0.179 C 
ATOM      5  O   UNL     1      -0.667  28.099  42.421  1.00  0.00    -0.332 OA
ATOM      6  C   UNL     1      -1.309  29.264  42.918  1.00  0.00     0.339 C 
ENDROOT
BRANCH   1   7
ATOM      7  O   UNL     1      -0.554  31.417  42.137  1.00  0.00    -0.337 OA
BRANCH   7   8
ATOM      8  C   UNL     1      -1.052  32.651  42.632  1.00  0.00     0.282 C 
ATOM      9  C   UNL     1       0.690  35.843  43.096  1.00  0.00     0.041 C 
ATOM     10  C   UNL     1      -0.493  34.916  42.814  1.00  0.00     0.150 C 
ATOM     11  C   UNL     1      -1.313  35.409  41.588  1.00  0.00     0.174 C 
ATOM     12  O   UNL     1       0.002  33.609  42.588  1.00  0.00    -0.344 OA
ATOM     13  C   UNL     1      -1.887  34.213  40.793  1.00  0.00     0.179 C 
ATOM     14  C   UNL     1      -2.266  33.064  41.747  1.00  0.00     0.202 C 
BRANCH  11  15
ATOM     15  O   UNL     1      -2.371  36.230  42.020  1.00  0.00    -0.388 OA
ATOM     16  H   UNL     1      -3.034  36.256  41.280  1.00  0.00     0.211 HD
ENDBRANCH  11  15
BRANCH  13  17
ATOM     17  O   UNL     1      -0.933  33.741  39.875  1.00  0.00    -0.387 OA
ATOM     18  H   UNL     1      -0.941  32.752  39.930  1.00  0.00     0.211 HD
ENDBRANCH  13  17
BRANCH  14  19
ATOM     19  O   UNL     1      -3.338  33.464  42.573  1.00  0.00    -0.385 OA
ATOM     20  H   UNL     1      -2.992  34.178  43.174  1.00  0.00     0.211 HD
ENDBRANCH  14  19
ENDBRANCH   7   8
ENDBRANCH   1   7
BRANCH   2  21
ATOM     21  O   UNL     1       1.479  29.244  44.261  1.00  0.00    -0.387 OA
ATOM     22  H   UNL     1       2.044  28.474  43.990  1.00  0.00     0.211 HD
ENDBRANCH   2  21
BRANCH   6  23
ATOM     23  O   UNL     1      -1.950  28.918  44.146  1.00  0.00    -0.462 OA
BRANCH  23  24
ATOM     24  C   UNL     1      -3.264  29.303  44.450  1.00  0.00     0.130 A 
ATOM     25  C   UNL     1      -4.238  28.367  44.841  1.00  0.00     0.093 A 
ATOM     26  C   UNL     1      -3.609  30.655  44.362  1.00  0.00     0.094 A 
ATOM     27  C   UNL     1      -5.539  28.780  45.161  1.00  0.00     0.133 A 
ATOM     28  C   UNL     1      -4.889  31.083  44.720  1.00  0.00     0.138 A 
ATOM     29  C   UNL     1      -5.871  30.150  45.110  1.00  0.00     0.102 A 
ATOM     30  O   UNL     1      -5.191  32.451  44.694  1.00  0.00    -0.484 OA
ATOM     31  C   UNL     1      -7.228  30.656  45.421  1.00  0.00     0.174 C 
ATOM     32  C   UNL     1      -6.320  32.981  45.387  1.00  0.00     0.211 C 
ATOM     33  O   UNL     1      -8.131  29.884  45.853  1.00  0.00    -0.294 OA
ATOM     34  C   UNL     1      -7.558  32.101  45.158  1.00  0.00     0.131 C 
BRANCH  27  35
ATOM     35  O   UNL     1      -6.497  27.827  45.517  1.00  0.00    -0.507 OA
ATOM     36  H   UNL     1      -7.382  27.756  45.028  1.00  0.00     0.293 HD
ENDBRANCH  27  35
BRANCH  32  37
ATOM     37  C   UNL     1      -6.580  34.402  44.950  1.00  0.00    -0.007 A 
ATOM     38  C   UNL     1      -7.660  35.121  45.492  1.00  0.00     0.011 A 
ATOM     39  C   UNL     1      -5.770  35.010  43.972  1.00  0.00     0.011 A 
ATOM     40  C   UNL     1      -7.916  36.432  45.074  1.00  0.00     0.046 A 
ATOM     41  C   UNL     1      -6.031  36.319  43.556  1.00  0.00     0.046 A 
ATOM     42  C   UNL     1      -7.100  37.033  44.108  1.00  0.00     0.115 A 
BRANCH  42  43
ATOM     43  O   UNL     1      -7.370  38.341  43.704  1.00  0.00    -0.508 OA
ATOM     44  H   UNL     1      -6.882  39.131  44.114  1.00  0.00     0.293 HD
ENDBRANCH  42  43
ENDBRANCH  32  37
ENDBRANCH  23  24
ENDBRANCH   6  23
BRANCH   3  45
ATOM     45  O   UNL     1       1.870  30.049  40.811  1.00  0.00    -0.387 OA
ATOM     46  H   UNL     1       1.110  30.167  40.181  1.00  0.00     0.211 HD
ENDBRANCH   3  45
BRANCH   4  47
ATOM     47  C   UNL     1       0.562  27.100  40.633  1.00  0.00     0.191 C 
BRANCH  47  48
ATOM     48  O   UNL     1       0.065  26.015  41.361  1.00  0.00    -0.394 OA
ATOM     49  H   UNL     1       0.392  26.135  42.291  1.00  0.00     0.210 HD
ENDBRANCH  47  48
ENDBRANCH   4  47
TORSDOF 14
ENDMDL
MODEL 2
REMARK VINA RESULT:    -6.415      1.888      6.267
REMARK INTER + INTRA:         -12.149
REMARK INTER:                 -10.322
REMARK INTRA:                  -1.827
REMARK UNBOUND:                -1.984
REMARK SMILES C[C@@H]1O[C@H](O[C@H]2[C@H](Oc3cc(O)c4c(c3)O[C@@H](c3ccc(O)cc3)CC4=O)O[C@H](CO)[C@@H](O)[C@@H]2O)[C@@H](O)[C@H](O)[C@H]1O
REMARK SMILES IDX 6 1 34 2 32 3 29 4 28 5 7 6 5 7 4 8 1 9 2 10 40 11 3 12
REMARK SMILES IDX 38 13 36 14 41 15 39 17 37 19 35 21 8 23 9 24 10 25 15 26
REMARK SMILES IDX 11 27 14 28 13 29 16 30 26 31 17 32 27 33 25 34 12 35 18 37
REMARK SMILES IDX 19 38 24 39 20 40 23 41 21 42 22 43 33 45 30 47 31 48
REMARK H PARENT 41 16 39 18 37 20 35 22 12 36 22 44 33 46 31 49
REMARK Flexibility Score: inf
ROOT
ATOM      1  C   UNL     1      -1.858  30.731  42.715  1.00  0.00     0.221 C 
ATOM      2  C   UNL     1      -1.212  29.366  42.388  1.00  0.00     0.181 C 
ATOM      3  C   UNL     1       0.075  29.129  43.219  1.00  0.00     0.177 C 
ATOM      4  C   UNL     1       0.796  30.468  43.545  1.00  0.00     0.179 C 
ATOM      5  O   UNL     1       0.530  31.422  42.539  1.00  0.00    -0.332 OA
ATOM      6  C   UNL     1      -0.812  31.883  42.614  1.00  0.00     0.339 C 
ENDROOT
BRANCH   1   7
ATOM      7  O   UNL     1      -2.355  30.710  44.049  1.00  0.00    -0.337 OA
BRANCH   7   8
ATOM      8  C   UNL     1      -3.464  29.841  44.215  1.00  0.00     0.282 C 
ATOM      9  C   UNL     1      -3.618  26.550  45.826  1.00  0.00     0.041 C 
ATOM     10  C   UNL     1      -4.131  27.916  45.367  1.00  0.00     0.150 C 
ATOM     11  C   UNL     1      -4.897  28.641  46.512  1.00  0.00     0.174 C 
ATOM     12  O   UNL     1      -3.028  28.693  44.938  1.00  0.00    -0.344 OA
ATOM     13  C   UNL     1      -4.680  30.170  46.437  1.00  0.00     0.179 C 
ATOM     14  C   UNL     1      -4.578  30.627  44.969  1.00  0.00     0.202 C 
BRANCH  11  15
ATOM     15  O   UNL     1      -6.272  28.361  46.417  1.00  0.00    -0.388 OA
ATOM     16  H   UNL     1      -6.649  28.467  47.332  1.00  0.00     0.211 HD
ENDBRANCH  11  15
BRANCH  13  17
ATOM     17  O   UNL     1      -3.493  30.523  47.103  1.00  0.00    -0.387 OA
ATOM     18  H   UNL     1      -2.838  30.788  46.409  1.00  0.00     0.211 HD
ENDBRANCH  13  17
BRANCH  14  19
ATOM     19  O   UNL     1      -5.815  30.432  44.321  1.00  0.00    -0.385 OA
ATOM     20  H   UNL     1      -5.888  29.460  44.120  1.00  0.00     0.211 HD
ENDBRANCH  14  19
ENDBRANCH   7   8
ENDBRANCH   1   7
BRANCH   2  21
ATOM     21  O   UNL     1      -0.955  29.242  41.006  1.00  0.00    -0.387 OA
ATOM     22  H   UNL     1      -0.352  29.981  40.730  1.00  0.00     0.211 HD
ENDBRANCH   2  21
BRANCH   6  23
ATOM     23  O   UNL     1      -1.072  32.659  41.444  1.00  0.00    -0.462 OA
BRANCH  23  24
ATOM     24  C   UNL     1      -1.441  34.011  41.497  1.00  0.00     0.130 A 
ATOM     25  C   UNL     1      -0.649  35.018  40.921  1.00  0.00     0.093 A 
ATOM     26  C   UNL     1      -2.633  34.359  42.141  1.00  0.00     0.094 A 
ATOM     27  C   UNL     1      -1.052  36.361  40.968  1.00  0.00     0.133 A 
ATOM     28  C   UNL     1      -3.066  35.688  42.156  1.00  0.00     0.138 A 
ATOM     29  C   UNL     1      -2.275  36.703  41.583  1.00  0.00     0.102 A 
ATOM     30  O   UNL     1      -4.299  36.004  42.743  1.00  0.00    -0.484 OA
ATOM     31  C   UNL     1      -2.756  38.100  41.681  1.00  0.00     0.174 C 
ATOM     32  C   UNL     1      -4.962  37.237  42.470  1.00  0.00     0.211 C 
ATOM     33  O   UNL     1      -2.136  39.048  41.119  1.00  0.00    -0.294 OA
ATOM     34  C   UNL     1      -3.969  38.408  42.518  1.00  0.00     0.131 C 
BRANCH  27  35
ATOM     35  O   UNL     1      -0.232  37.347  40.415  1.00  0.00    -0.507 OA
ATOM     36  H   UNL     1      -0.044  38.217  40.901  1.00  0.00     0.293 HD
ENDBRANCH  27  35
BRANCH  32  37
ATOM     37  C   UNL     1      -6.093  37.447  43.447  1.00  0.00    -0.007 A 
ATOM     38  C   UNL     1      -6.548  38.747  43.729  1.00  0.00     0.011 A 
ATOM     39  C   UNL     1      -6.678  36.353  44.111  1.00  0.00     0.011 A 
ATOM     40  C   UNL     1      -7.584  38.947  44.650  1.00  0.00     0.046 A 
ATOM     41  C   UNL     1      -7.711  36.558  45.031  1.00  0.00     0.046 A 
ATOM     42  C   UNL     1      -8.168  37.853  45.299  1.00  0.00     0.115 A 
BRANCH  42  43
ATOM     43  O   UNL     1      -9.199  38.072  46.213  1.00  0.00    -0.508 OA
ATOM     44  H   UNL     1      -9.423  39.005  46.543  1.00  0.00     0.293 HD
ENDBRANCH  42  43
ENDBRANCH  32  37
ENDBRANCH  23  24
ENDBRANCH   6  23
BRANCH   3  45
ATOM     45  O   UNL     1      -0.262  28.477  44.418  1.00  0.00    -0.387 OA
ATOM     46  H   UNL     1      -0.751  29.136  44.979  1.00  0.00     0.211 HD
ENDBRANCH   3  45
BRANCH   4  47
ATOM     47  C   UNL     1       2.311  30.265  43.632  1.00  0.00     0.191 C 
BRANCH  47  48
ATOM     48  O   UNL     1       2.611  29.409  44.696  1.00  0.00    -0.394 OA
ATOM     49  H   UNL     1       2.831  29.996  45.466  1.00  0.00     0.210 HD
ENDBRANCH  47  48
ENDBRANCH   4  47
TORSDOF 14
ENDMDL
MODEL 3
REMARK VINA RESULT:    -6.388      1.291      1.826
REMARK INTER + INTRA:         -12.107
REMARK INTER:                  -9.852
REMARK INTRA:                  -2.255
REMARK UNBOUND:                -1.984
REMARK SMILES C[C@@H]1O[C@H](O[C@H]2[C@H](Oc3cc(O)c4c(c3)O[C@@H](c3ccc(O)cc3)CC4=O)O[C@H](CO)[C@@H](O)[C@@H]2O)[C@@H](O)[C@H](O)[C@H]1O
REMARK SMILES IDX 6 1 34 2 32 3 29 4 28 5 7 6 5 7 4 8 1 9 2 10 40 11 3 12
REMARK SMILES IDX 38 13 36 14 41 15 39 17 37 19 35 21 8 23 9 24 10 25 15 26
REMARK SMILES IDX 11 27 14 28 13 29 16 30 26 31 17 32 27 33 25 34 12 35 18 37
REMARK SMILES IDX 19 38 24 39 20 40 23 41 21 42 22 43 33 45 30 47 31 48
REMARK H PARENT 41 16 39 18 37 20 35 22 12 36 22 44 33 46 31 49
REMARK Flexibility Score: inf
ROOT
ATOM      1  C   UNL     1      -0.221  31.152  43.778  1.00  0.00     0.221 C 
ATOM      2  C   UNL     1       0.992  30.193  43.770  1.00  0.00     0.181 C 
ATOM      3  C   UNL     1       1.123  29.448  42.417  1.00  0.00     0.177 C 
ATOM      4  C   UNL     1      -0.266  29.231  41.751  1.00  0.00     0.179 C 
ATOM      5  O   UNL     1      -1.272  29.147  42.737  1.00  0.00    -0.332 OA
ATOM      6  C   UNL     1      -1.519  30.416  43.326  1.00  0.00     0.339 C 
ENDROOT
BRANCH   1   7
ATOM      7  O   UNL     1       0.016  32.218  42.865  1.00  0.00    -0.337 OA
BRANCH   7   8
ATOM      8  C   UNL     1      -1.105  33.073  42.705  1.00  0.00     0.282 C 
ATOM      9  C   UNL     1      -2.225  35.856  44.812  1.00  0.00     0.041 C 
ATOM     10  C   UNL     1      -2.026  35.064  43.519  1.00  0.00     0.150 C 
ATOM     11  C   UNL     1      -1.525  35.985  42.369  1.00  0.00     0.174 C 
ATOM     12  O   UNL     1      -1.096  34.026  43.765  1.00  0.00    -0.344 OA
ATOM     13  C   UNL     1      -0.564  35.219  41.431  1.00  0.00     0.179 C 
ATOM     14  C   UNL     1      -0.996  33.745  41.304  1.00  0.00     0.202 C 
BRANCH  11  15
ATOM     15  O   UNL     1      -2.621  36.458  41.626  1.00  0.00    -0.388 OA
ATOM     16  H   UNL     1      -3.406  35.907  41.891  1.00  0.00     0.211 HD
ENDBRANCH  11  15
BRANCH  13  17
ATOM     17  O   UNL     1       0.745  35.263  41.941  1.00  0.00    -0.387 OA
ATOM     18  H   UNL     1       0.922  34.386  42.365  1.00  0.00     0.211 HD
ENDBRANCH  13  17
BRANCH  14  19
ATOM     19  O   UNL     1      -2.240  33.669  40.644  1.00  0.00    -0.385 OA
ATOM     20  H   UNL     1      -2.056  33.713  39.667  1.00  0.00     0.211 HD
ENDBRANCH  14  19
ENDBRANCH   7   8
ENDBRANCH   1   7
BRANCH   2  21
ATOM     21  O   UNL     1       0.927  29.283  44.847  1.00  0.00    -0.387 OA
ATOM     22  H   UNL     1       0.623  29.772  45.656  1.00  0.00     0.211 HD
ENDBRANCH   2  21
BRANCH   6  23
ATOM     23  O   UNL     1      -2.368  30.214  44.456  1.00  0.00    -0.462 OA
BRANCH  23  24
ATOM     24  C   UNL     1      -3.674  30.722  44.523  1.00  0.00     0.130 A 
ATOM     25  C   UNL     1      -4.781  29.888  44.756  1.00  0.00     0.093 A 
ATOM     26  C   UNL     1      -3.873  32.096  44.354  1.00  0.00     0.094 A 
ATOM     27  C   UNL     1      -6.075  30.423  44.841  1.00  0.00     0.133 A 
ATOM     28  C   UNL     1      -5.151  32.645  44.480  1.00  0.00     0.138 A 
ATOM     29  C   UNL     1      -6.266  31.815  44.710  1.00  0.00     0.102 A 
ATOM     30  O   UNL     1      -5.318  34.033  44.379  1.00  0.00    -0.484 OA
ATOM     31  C   UNL     1      -7.604  32.447  44.775  1.00  0.00     0.174 C 
ATOM     32  C   UNL     1      -6.494  34.681  44.859  1.00  0.00     0.211 C 
ATOM     33  O   UNL     1      -8.634  31.771  45.059  1.00  0.00    -0.294 OA
ATOM     34  C   UNL     1      -7.751  33.906  44.435  1.00  0.00     0.131 C 
BRANCH  27  35
ATOM     35  O   UNL     1      -7.163  29.570  45.043  1.00  0.00    -0.507 OA
ATOM     36  H   UNL     1      -7.035  28.597  45.299  1.00  0.00     0.293 HD
ENDBRANCH  27  35
BRANCH  32  37
ATOM     37  C   UNL     1      -6.544  36.105  44.360  1.00  0.00    -0.007 A 
ATOM     38  C   UNL     1      -5.496  36.615  43.574  1.00  0.00     0.011 A 
ATOM     39  C   UNL     1      -7.619  36.947  44.704  1.00  0.00     0.011 A 
ATOM     40  C   UNL     1      -5.530  37.941  43.126  1.00  0.00     0.046 A 
ATOM     41  C   UNL     1      -7.647  38.271  44.256  1.00  0.00     0.046 A 
ATOM     42  C   UNL     1      -6.607  38.769  43.464  1.00  0.00     0.115 A 
BRANCH  42  43
ATOM     43  O   UNL     1      -6.624  40.087  43.008  1.00  0.00    -0.508 OA
ATOM     44  H   UNL     1      -7.243  40.780  43.417  1.00  0.00     0.293 HD
ENDBRANCH  42  43
ENDBRANCH  32  37
ENDBRANCH  23  24
ENDBRANCH   6  23
BRANCH   3  45
ATOM     45  O   UNL     1       1.942  30.197  41.554  1.00  0.00    -0.387 OA
ATOM     46  H   UNL     1       1.454  30.283  40.693  1.00  0.00     0.211 HD
ENDBRANCH   3  45
BRANCH   4  47
ATOM     47  C   UNL     1      -0.282  27.938  40.931  1.00  0.00     0.191 C 
BRANCH  47  48
ATOM     48  O   UNL     1       0.098  26.864  41.741  1.00  0.00    -0.394 OA
ATOM     49  H   UNL     1       1.092  26.853  41.736  1.00  0.00     0.210 HD
ENDBRANCH  47  48
ENDBRANCH   4  47
TORSDOF 14
ENDMDL
MODEL 4
REMARK VINA RESULT:    -6.329      2.341      3.578
REMARK INTER + INTRA:         -12.013
REMARK INTER:                 -10.291
REMARK INTRA:                  -1.722
REMARK UNBOUND:                -1.984
REMARK SMILES C[C@@H]1O[C@H](O[C@H]2[C@H](Oc3cc(O)c4c(c3)O[C@@H](c3ccc(O)cc3)CC4=O)O[C@H](CO)[C@@H](O)[C@@H]2O)[C@@H](O)[C@H](O)[C@H]1O
REMARK SMILES IDX 6 1 34 2 32 3 29 4 28 5 7 6 5 7 4 8 1 9 2 10 40 11 3 12
REMARK SMILES IDX 38 13 36 14 41 15 39 17 37 19 35 21 8 23 9 24 10 25 15 26
REMARK SMILES IDX 11 27 14 28 13 29 16 30 26 31 17 32 27 33 25 34 12 35 18 37
REMARK SMILES IDX 19 38 24 39 20 40 23 41 21 42 22 43 33 45 30 47 31 48
REMARK H PARENT 41 16 39 18 37 20 35 22 12 36 22 44 33 46 31 49
REMARK Flexibility Score: inf
ROOT
ATOM      1  C   UNL     1      -0.083  30.430  42.973  1.00  0.00     0.221 C 
ATOM      2  C   UNL     1       1.379  30.124  42.575  1.00  0.00     0.181 C 
ATOM      3  C   UNL     1       1.452  29.219  41.319  1.00  0.00     0.177 C 
ATOM      4  C   UNL     1       0.225  28.268  41.231  1.00  0.00     0.179 C 
ATOM      5  O   UNL     1      -0.267  27.985  42.525  1.00  0.00    -0.332 OA
ATOM      6  C   UNL     1      -0.918  29.117  43.082  1.00  0.00     0.339 C 
ENDROOT
BRANCH   1   7
ATOM      7  O   UNL     1      -0.683  31.245  41.973  1.00  0.00    -0.337 OA
BRANCH   7   8
ATOM      8  C   UNL     1      -0.829  32.599  42.373  1.00  0.00     0.282 C 
ATOM      9  C   UNL     1      -2.647  35.327  40.731  1.00  0.00     0.041 C 
ATOM     10  C   UNL     1      -2.060  34.532  41.899  1.00  0.00     0.150 C 
ATOM     11  C   UNL     1      -3.095  34.381  43.051  1.00  0.00     0.174 C 
ATOM     12  O   UNL     1      -1.659  33.260  41.422  1.00  0.00    -0.344 OA
ATOM     13  C   UNL     1      -2.930  33.019  43.764  1.00  0.00     0.179 C 
ATOM     14  C   UNL     1      -1.445  32.609  43.805  1.00  0.00     0.202 C 
BRANCH  11  15
ATOM     15  O   UNL     1      -2.921  35.418  43.986  1.00  0.00    -0.388 OA
ATOM     16  H   UNL     1      -1.940  35.550  44.088  1.00  0.00     0.211 HD
ENDBRANCH  11  15
BRANCH  13  17
ATOM     17  O   UNL     1      -3.653  32.026  43.080  1.00  0.00    -0.387 OA
ATOM     18  H   UNL     1      -4.330  32.489  42.525  1.00  0.00     0.211 HD
ENDBRANCH  13  17
BRANCH  14  19
ATOM     19  O   UNL     1      -0.726  33.504  44.623  1.00  0.00    -0.385 OA
ATOM     20  H   UNL     1      -0.041  33.939  44.046  1.00  0.00     0.211 HD
ENDBRANCH  14  19
ENDBRANCH   7   8
ENDBRANCH   1   7
BRANCH   2  21
ATOM     21  O   UNL     1       2.092  29.557  43.653  1.00  0.00    -0.387 OA
ATOM     22  H   UNL     1       2.727  28.885  43.293  1.00  0.00     0.211 HD
ENDBRANCH   2  21
BRANCH   6  23
ATOM     23  O   UNL     1      -1.181  28.835  44.458  1.00  0.00    -0.462 OA
BRANCH  23  24
ATOM     24  C   UNL     1      -2.377  28.247  44.896  1.00  0.00     0.130 A 
ATOM     25  C   UNL     1      -2.405  26.958  45.455  1.00  0.00     0.093 A 
ATOM     26  C   UNL     1      -3.568  28.969  44.773  1.00  0.00     0.094 A 
ATOM     27  C   UNL     1      -3.611  26.400  45.906  1.00  0.00     0.133 A 
ATOM     28  C   UNL     1      -4.767  28.442  45.259  1.00  0.00     0.138 A 
ATOM     29  C   UNL     1      -4.803  27.149  45.817  1.00  0.00     0.102 A 
ATOM     30  O   UNL     1      -5.936  29.212  45.192  1.00  0.00    -0.484 OA
ATOM     31  C   UNL     1      -6.114  26.619  46.261  1.00  0.00     0.174 C 
ATOM     32  C   UNL     1      -7.080  28.904  45.985  1.00  0.00     0.211 C 
ATOM     33  O   UNL     1      -6.204  25.500  46.844  1.00  0.00    -0.294 OA
ATOM     34  C   UNL     1      -7.368  27.395  45.958  1.00  0.00     0.131 C 
BRANCH  27  35
ATOM     35  O   UNL     1      -3.619  25.105  46.430  1.00  0.00    -0.507 OA
ATOM     36  H   UNL     1      -3.067  24.362  46.017  1.00  0.00     0.293 HD
ENDBRANCH  27  35
BRANCH  32  37
ATOM     37  C   UNL     1      -8.275  29.689  45.502  1.00  0.00    -0.007 A 
ATOM     38  C   UNL     1      -8.760  29.505  44.195  1.00  0.00     0.011 A 
ATOM     39  C   UNL     1      -8.894  30.639  46.337  1.00  0.00     0.011 A 
ATOM     40  C   UNL     1      -9.855  30.246  43.737  1.00  0.00     0.046 A 
ATOM     41  C   UNL     1      -9.987  31.377  45.875  1.00  0.00     0.046 A 
ATOM     42  C   UNL     1     -10.472  31.181  44.578  1.00  0.00     0.115 A 
BRANCH  42  43
ATOM     43  O   UNL     1     -11.562  31.910  44.104  1.00  0.00    -0.508 OA
ATOM     44  H   UNL     1     -11.902  31.797  43.154  1.00  0.00     0.293 HD
ENDBRANCH  42  43
ENDBRANCH  32  37
ENDBRANCH  23  24
ENDBRANCH   6  23
BRANCH   3  45
ATOM     45  O   UNL     1       1.500  30.026  40.169  1.00  0.00    -0.387 OA
ATOM     46  H   UNL     1       1.051  29.520  39.441  1.00  0.00     0.211 HD
ENDBRANCH   3  45
BRANCH   4  47
ATOM     47  C   UNL     1       0.605  26.946  40.558  1.00  0.00     0.191 C 
BRANCH  47  48
ATOM     48  O   UNL     1      -0.010  25.884  41.229  1.00  0.00    -0.394 OA
ATOM     49  H   UNL     1       0.721  25.264  41.490  1.00  0.00     0.210 HD
ENDBRANCH  47  48
ENDBRANCH   4  47
TORSDOF 14
ENDMDL
MODEL 5
REMARK VINA RESULT:    -6.284      2.110      5.803
REMARK INTER + INTRA:         -11.941
REMARK INTER:                  -9.610
REMARK INTRA:                  -2.331
REMARK UNBOUND:                -1.984
REMARK SMILES C[C@@H]1O[C@H](O[C@H]2[C@H](Oc3cc(O)c4c(c3)O[C@@H](c3ccc(O)cc3)CC4=O)O[C@H](CO)[C@@H](O)[C@@H]2O)[C@@H](O)[C@H](O)[C@H]1O
REMARK SMILES IDX 6 1 34 2 32 3 29 4 28 5 7 6 5 7 4 8 1 9 2 10 40 11 3 12
REMARK SMILES IDX 38 13 36 14 41 15 39 17 37 19 35 21 8 23 9 24 10 25 15 26
REMARK SMILES IDX 11 27 14 28 13 29 16 30 26 31 17 32 27 33 25 34 12 35 18 37
REMARK SMILES IDX 19 38 24 39 20 40 23 41 21 42 22 43 33 45 30 47 31 48
REMARK H PARENT 41 16 39 18 37 20 35 22 12 36 22 44 33 46 31 49
REMARK Flexibility Score: inf
ROOT
ATOM      1  C   UNL     1      -2.013  30.599  42.601  1.00  0.00     0.221 C 
ATOM      2  C   UNL     1      -1.363  29.228  42.302  1.00  0.00     0.181 C 
ATOM      3  C   UNL     1      -0.160  28.950  43.239  1.00  0.00     0.177 C 
ATOM      4  C   UNL     1       0.551  30.268  43.658  1.00  0.00     0.179 C 
ATOM      5  O   UNL     1       0.392  31.248  42.655  1.00  0.00    -0.332 OA
ATOM      6  C   UNL     1      -0.942  31.733  42.620  1.00  0.00     0.339 C 
ENDROOT
BRANCH   1   7
ATOM      7  O   UNL     1      -2.628  30.559  43.883  1.00  0.00    -0.337 OA
BRANCH   7   8
ATOM      8  C   UNL     1      -3.255  31.782  44.238  1.00  0.00     0.282 C 
ATOM      9  C   UNL     1      -6.787  32.736  44.013  1.00  0.00     0.041 C 
ATOM     10  C   UNL     1      -5.366  32.733  44.577  1.00  0.00     0.150 C 
ATOM     11  C   UNL     1      -5.378  32.611  46.128  1.00  0.00     0.174 C 
ATOM     12  O   UNL     1      -4.654  31.654  44.000  1.00  0.00    -0.344 OA
ATOM     13  C   UNL     1      -4.162  31.796  46.625  1.00  0.00     0.179 C 
ATOM     14  C   UNL     1      -2.932  32.066  45.736  1.00  0.00     0.202 C 
BRANCH  11  15
ATOM     15  O   UNL     1      -5.345  33.893  46.707  1.00  0.00    -0.388 OA
ATOM     16  H   UNL     1      -4.665  33.863  47.431  1.00  0.00     0.211 HD
ENDBRANCH  11  15
BRANCH  13  17
ATOM     17  O   UNL     1      -4.454  30.421  46.586  1.00  0.00    -0.387 OA
ATOM     18  H   UNL     1      -5.440  30.334  46.566  1.00  0.00     0.211 HD
ENDBRANCH  13  17
BRANCH  14  19
ATOM     19  O   UNL     1      -2.521  33.406  45.885  1.00  0.00    -0.385 OA
ATOM     20  H   UNL     1      -1.919  33.440  46.677  1.00  0.00     0.211 HD
ENDBRANCH  14  19
ENDBRANCH   7   8
ENDBRANCH   1   7
BRANCH   2  21
ATOM     21  O   UNL     1      -0.985  29.130  40.946  1.00  0.00    -0.387 OA
ATOM     22  H   UNL     1      -1.449  29.843  40.436  1.00  0.00     0.211 HD
ENDBRANCH   2  21
BRANCH   6  23
ATOM     23  O   UNL     1      -1.083  32.538  41.449  1.00  0.00    -0.462 OA
BRANCH  23  24
ATOM     24  C   UNL     1      -1.415  33.900  41.501  1.00  0.00     0.130 A 
ATOM     25  C   UNL     1      -0.592  34.885  40.927  1.00  0.00     0.093 A 
ATOM     26  C   UNL     1      -2.599  34.281  42.140  1.00  0.00     0.094 A 
ATOM     27  C   UNL     1      -0.958  36.238  40.972  1.00  0.00     0.133 A 
ATOM     28  C   UNL     1      -2.995  35.621  42.153  1.00  0.00     0.138 A 
ATOM     29  C   UNL     1      -2.173  36.613  41.583  1.00  0.00     0.102 A 
ATOM     30  O   UNL     1      -4.220  35.971  42.735  1.00  0.00    -0.484 OA
ATOM     31  C   UNL     1      -2.616  38.024  41.679  1.00  0.00     0.174 C 
ATOM     32  C   UNL     1      -4.848  37.222  42.459  1.00  0.00     0.211 C 
ATOM     33  O   UNL     1      -1.967  38.954  41.120  1.00  0.00    -0.294 OA
ATOM     34  C   UNL     1      -3.823  38.366  42.511  1.00  0.00     0.131 C 
BRANCH  27  35
ATOM     35  O   UNL     1      -0.109  37.201  40.422  1.00  0.00    -0.507 OA
ATOM     36  H   UNL     1       0.895  37.064  40.383  1.00  0.00     0.293 HD
ENDBRANCH  27  35
BRANCH  32  37
ATOM     37  C   UNL     1      -5.977  37.464  43.432  1.00  0.00    -0.007 A 
ATOM     38  C   UNL     1      -6.608  36.379  44.064  1.00  0.00     0.011 A 
ATOM     39  C   UNL     1      -6.433  38.771  43.688  1.00  0.00     0.011 A 
ATOM     40  C   UNL     1      -7.669  36.599  44.951  1.00  0.00     0.046 A 
ATOM     41  C   UNL     1      -7.493  38.985  44.574  1.00  0.00     0.046 A 
ATOM     42  C   UNL     1      -8.110  37.902  45.209  1.00  0.00     0.115 A 
BRANCH  42  43
ATOM     43  O   UNL     1      -9.167  38.102  46.097  1.00  0.00    -0.508 OA
ATOM     44  H   UNL     1     -10.101  38.323  45.766  1.00  0.00     0.293 HD
ENDBRANCH  42  43
ENDBRANCH  32  37
ENDBRANCH  23  24
ENDBRANCH   6  23
BRANCH   3  45
ATOM     45  O   UNL     1      -0.615  28.279  44.388  1.00  0.00    -0.387 OA
ATOM     46  H   UNL     1       0.134  27.708  44.705  1.00  0.00     0.211 HD
ENDBRANCH   3  45
BRANCH   4  47
ATOM     47  C   UNL     1       2.049  30.035  43.875  1.00  0.00     0.191 C 
BRANCH  47  48
ATOM     48  O   UNL     1       2.244  29.283  45.038  1.00  0.00    -0.394 OA
ATOM     49  H   UNL     1       2.081  29.904  45.797  1.00  0.00     0.210 HD
ENDBRANCH  47  48
ENDBRANCH   4  47
TORSDOF 14
ENDMDL
MODEL 6
REMARK VINA RESULT:    -6.272      2.796      8.854
REMARK INTER + INTRA:         -11.922
REMARK INTER:                  -9.620
REMARK INTRA:                  -2.302
REMARK UNBOUND:                -1.984
REMARK SMILES C[C@@H]1O[C@H](O[C@H]2[C@H](Oc3cc(O)c4c(c3)O[C@@H](c3ccc(O)cc3)CC4=O)O[C@H](CO)[C@@H](O)[C@@H]2O)[C@@H](O)[C@H](O)[C@H]1O
REMARK SMILES IDX 6 1 34 2 32 3 29 4 28 5 7 6 5 7 4 8 1 9 2 10 40 11 3 12
REMARK SMILES IDX 38 13 36 14 41 15 39 17 37 19 35 21 8 23 9 24 10 25 15 26
REMARK SMILES IDX 11 27 14 28 13 29 16 30 26 31 17 32 27 33 25 34 12 35 18 37
REMARK SMILES IDX 19 38 24 39 20 40 23 41 21 42 22 43 33 45 30 47 31 48
REMARK H PARENT 41 16 39 18 37 20 35 22 12 36 22 44 33 46 31 49
REMARK Flexibility Score: inf
ROOT
ATOM      1  C   UNL     1      -7.374  34.454  46.194  1.00  0.00     0.221 C 
ATOM      2  C   UNL     1      -7.573  35.932  46.599  1.00  0.00     0.181 C 
ATOM      3  C   UNL     1      -7.302  36.891  45.412  1.00  0.00     0.177 C 
ATOM      4  C   UNL     1      -6.238  36.307  44.440  1.00  0.00     0.179 C 
ATOM      5  O   UNL     1      -5.352  35.459  45.140  1.00  0.00    -0.332 OA
ATOM      6  C   UNL     1      -5.990  34.244  45.507  1.00  0.00     0.339 C 
ENDROOT
BRANCH   1   7
ATOM      7  O   UNL     1      -8.383  34.080  45.263  1.00  0.00    -0.337 OA
BRANCH   7   8
ATOM      8  C   UNL     1      -8.059  32.908  44.532  1.00  0.00     0.282 C 
ATOM      9  C   UNL     1      -8.633  29.392  45.399  1.00  0.00     0.041 C 
ATOM     10  C   UNL     1      -8.466  30.604  44.481  1.00  0.00     0.150 C 
ATOM     11  C   UNL     1      -9.570  30.633  43.385  1.00  0.00     0.174 C 
ATOM     12  O   UNL     1      -8.517  31.778  45.270  1.00  0.00    -0.344 OA
ATOM     13  C   UNL     1      -9.965  32.088  43.042  1.00  0.00     0.179 C 
ATOM     14  C   UNL     1      -8.738  33.016  43.133  1.00  0.00     0.202 C 
BRANCH  11  15
ATOM     15  O   UNL     1      -9.104  29.992  42.223  1.00  0.00    -0.388 OA
ATOM     16  H   UNL     1      -9.459  30.509  41.450  1.00  0.00     0.211 HD
ENDBRANCH  11  15
BRANCH  13  17
ATOM     17  O   UNL     1     -10.944  32.547  43.941  1.00  0.00    -0.387 OA
ATOM     18  H   UNL     1     -11.699  31.906  43.902  1.00  0.00     0.211 HD
ENDBRANCH  13  17
BRANCH  14  19
ATOM     19  O   UNL     1      -7.808  32.676  42.129  1.00  0.00    -0.385 OA
ATOM     20  H   UNL     1      -7.183  33.445  42.038  1.00  0.00     0.211 HD
ENDBRANCH  14  19
ENDBRANCH   7   8
ENDBRANCH   1   7
BRANCH   2  21
ATOM     21  O   UNL     1      -6.775  36.266  47.715  1.00  0.00    -0.387 OA
ATOM     22  H   UNL     1      -6.605  35.441  48.239  1.00  0.00     0.211 HD
ENDBRANCH   2  21
BRANCH   6  23
ATOM     23  O   UNL     1      -5.118  33.546  46.397  1.00  0.00    -0.462 OA
BRANCH  23  24
ATOM     24  C   UNL     1      -4.724  32.217  46.185  1.00  0.00     0.130 A 
ATOM     25  C   UNL     1      -5.399  31.140  46.785  1.00  0.00     0.093 A 
ATOM     26  C   UNL     1      -3.631  31.963  45.350  1.00  0.00     0.094 A 
ATOM     27  C   UNL     1      -4.999  29.818  46.539  1.00  0.00     0.133 A 
ATOM     28  C   UNL     1      -3.252  30.649  45.063  1.00  0.00     0.138 A 
ATOM     29  C   UNL     1      -3.922  29.565  45.664  1.00  0.00     0.102 A 
ATOM     30  O   UNL     1      -2.200  30.416  44.167  1.00  0.00    -0.484 OA
ATOM     31  C   UNL     1      -3.437  28.197  45.369  1.00  0.00     0.174 C 
ATOM     32  C   UNL     1      -2.011  29.143  43.552  1.00  0.00     0.211 C 
ATOM     33  O   UNL     1      -4.042  27.178  45.811  1.00  0.00    -0.294 OA
ATOM     34  C   UNL     1      -2.166  28.014  44.583  1.00  0.00     0.131 C 
BRANCH  27  35
ATOM     35  O   UNL     1      -5.666  28.767  47.172  1.00  0.00    -0.507 OA
ATOM     36  H   UNL     1      -5.529  27.803  46.888  1.00  0.00     0.293 HD
ENDBRANCH  27  35
BRANCH  32  37
ATOM     37  C   UNL     1      -0.657  29.082  42.886  1.00  0.00    -0.007 A 
ATOM     38  C   UNL     1      -0.434  28.191  41.822  1.00  0.00     0.011 A 
ATOM     39  C   UNL     1       0.403  29.887  43.344  1.00  0.00     0.011 A 
ATOM     40  C   UNL     1       0.826  28.117  41.215  1.00  0.00     0.046 A 
ATOM     41  C   UNL     1       1.659  29.809  42.736  1.00  0.00     0.046 A 
ATOM     42  C   UNL     1       1.872  28.929  41.670  1.00  0.00     0.115 A 
BRANCH  42  43
ATOM     43  O   UNL     1       3.120  28.843  41.052  1.00  0.00    -0.508 OA
ATOM     44  H   UNL     1       3.731  29.650  40.980  1.00  0.00     0.293 HD
ENDBRANCH  42  43
ENDBRANCH  32  37
ENDBRANCH  23  24
ENDBRANCH   6  23
BRANCH   3  45
ATOM     45  O   UNL     1      -8.502  37.112  44.713  1.00  0.00    -0.387 OA
ATOM     46  H   UNL     1      -8.946  36.228  44.615  1.00  0.00     0.211 HD
ENDBRANCH   3  45
BRANCH   4  47
ATOM     47  C   UNL     1      -5.422  37.427  43.787  1.00  0.00     0.191 C 
BRANCH  47  48
ATOM     48  O   UNL     1      -5.959  38.668  44.141  1.00  0.00    -0.394 OA
ATOM     49  H   UNL     1      -6.505  38.508  44.956  1.00  0.00     0.210 HD
ENDBRANCH  47  48
ENDBRANCH   4  47
TORSDOF 14
ENDMDL
MODEL 7
REMARK VINA RESULT:    -6.231      2.758      8.351
REMARK INTER + INTRA:         -11.858
REMARK INTER:                  -9.500
REMARK INTRA:                  -2.359
REMARK UNBOUND:                -1.984
REMARK SMILES C[C@@H]1O[C@H](O[C@H]2[C@H](Oc3cc(O)c4c(c3)O[C@@H](c3ccc(O)cc3)CC4=O)O[C@H](CO)[C@@H](O)[C@@H]2O)[C@@H](O)[C@H](O)[C@H]1O
REMARK SMILES IDX 6 1 34 2 32 3 29 4 28 5 7 6 5 7 4 8 1 9 2 10 40 11 3 12
REMARK SMILES IDX 38 13 36 14 41 15 39 17 37 19 35 21 8 23 9 24 10 25 15 26
REMARK SMILES IDX 11 27 14 28 13 29 16 30 26 31 17 32 27 33 25 34 12 35 18 37
REMARK SMILES IDX 19 38 24 39 20 40 23 41 21 42 22 43 33 45 30 47 31 48
REMARK H PARENT 41 16 39 18 37 20 35 22 12 36 22 44 33 46 31 49
REMARK Flexibility Score: inf
ROOT
ATOM      1  C   UNL     1      -8.502  31.000  44.293  1.00  0.00     0.221 C 
ATOM      2  C   UNL     1      -9.507  31.208  43.136  1.00  0.00     0.181 C 
ATOM      3  C   UNL     1     -10.967  30.969  43.598  1.00  0.00     0.177 C 
ATOM      4  C   UNL     1     -11.037  29.915  44.739  1.00  0.00     0.179 C 
ATOM      5  O   UNL     1      -9.961  29.008  44.632  1.00  0.00    -0.332 OA
ATOM      6  C   UNL     1      -8.733  29.626  44.993  1.00  0.00     0.339 C 
ENDROOT
BRANCH   1   7
ATOM      7  O   UNL     1      -8.686  32.021  45.267  1.00  0.00    -0.337 OA
BRANCH   7   8
ATOM      8  C   UNL     1      -7.484  32.700  45.594  1.00  0.00     0.282 C 
ATOM      9  C   UNL     1      -4.206  32.548  43.958  1.00  0.00     0.041 C 
ATOM     10  C   UNL     1      -5.355  33.177  44.748  1.00  0.00     0.150 C 
ATOM     11  C   UNL     1      -5.679  34.606  44.225  1.00  0.00     0.174 C 
ATOM     12  O   UNL     1      -6.490  32.339  44.638  1.00  0.00    -0.344 OA
ATOM     13  C   UNL     1      -7.192  34.902  44.335  1.00  0.00     0.179 C 
ATOM     14  C   UNL     1      -7.783  34.229  45.589  1.00  0.00     0.202 C 
BRANCH  11  15
ATOM     15  O   UNL     1      -4.963  35.560  44.971  1.00  0.00    -0.388 OA
ATOM     16  H   UNL     1      -4.091  35.689  44.510  1.00  0.00     0.211 HD
ENDBRANCH  11  15
BRANCH  13  17
ATOM     17  O   UNL     1      -7.864  34.412  43.202  1.00  0.00    -0.387 OA
ATOM     18  H   UNL     1      -7.260  33.759  42.765  1.00  0.00     0.211 HD
ENDBRANCH  13  17
BRANCH  14  19
ATOM     19  O   UNL     1      -7.240  34.821  46.748  1.00  0.00    -0.385 OA
ATOM     20  H   UNL     1      -6.393  34.340  46.952  1.00  0.00     0.211 HD
ENDBRANCH  14  19
ENDBRANCH   7   8
ENDBRANCH   1   7
BRANCH   2  21
ATOM     21  O   UNL     1      -9.183  30.396  42.029  1.00  0.00    -0.387 OA
ATOM     22  H   UNL     1      -8.498  30.862  41.484  1.00  0.00     0.211 HD
ENDBRANCH   2  21
BRANCH   6  23
ATOM     23  O   UNL     1      -7.676  28.731  44.644  1.00  0.00    -0.462 OA
BRANCH  23  24
ATOM     24  C   UNL     1      -6.415  28.772  45.257  1.00  0.00     0.130 A 
ATOM     25  C   UNL     1      -6.270  28.728  46.654  1.00  0.00     0.093 A 
ATOM     26  C   UNL     1      -5.276  28.856  44.450  1.00  0.00     0.094 A 
ATOM     27  C   UNL     1      -4.997  28.747  47.242  1.00  0.00     0.133 A 
ATOM     28  C   UNL     1      -4.002  28.832  45.023  1.00  0.00     0.138 A 
ATOM     29  C   UNL     1      -3.849  28.791  46.423  1.00  0.00     0.102 A 
ATOM     30  O   UNL     1      -2.873  28.844  44.193  1.00  0.00    -0.484 OA
ATOM     31  C   UNL     1      -2.475  28.828  46.975  1.00  0.00     0.174 C 
ATOM     32  C   UNL     1      -1.589  28.450  44.672  1.00  0.00     0.211 C 
ATOM     33  O   UNL     1      -2.265  28.714  48.217  1.00  0.00    -0.294 OA
ATOM     34  C   UNL     1      -1.312  29.070  46.051  1.00  0.00     0.131 C 
BRANCH  27  35
ATOM     35  O   UNL     1      -4.880  28.734  48.634  1.00  0.00    -0.507 OA
ATOM     36  H   UNL     1      -3.982  28.840  49.093  1.00  0.00     0.293 HD
ENDBRANCH  27  35
BRANCH  32  37
ATOM     37  C   UNL     1      -0.520  28.842  43.680  1.00  0.00    -0.007 A 
ATOM     38  C   UNL     1      -0.558  28.340  42.368  1.00  0.00     0.011 A 
ATOM     39  C   UNL     1       0.543  29.680  44.067  1.00  0.00     0.011 A 
ATOM     40  C   UNL     1       0.442  28.685  41.451  1.00  0.00     0.046 A 
ATOM     41  C   UNL     1       1.540  30.020  43.148  1.00  0.00     0.046 A 
ATOM     42  C   UNL     1       1.490  29.527  41.840  1.00  0.00     0.115 A 
BRANCH  42  43
ATOM     43  O   UNL     1       2.478  29.861  40.913  1.00  0.00    -0.508 OA
ATOM     44  H   UNL     1       3.456  29.653  41.085  1.00  0.00     0.293 HD
ENDBRANCH  42  43
ENDBRANCH  32  37
ENDBRANCH  23  24
ENDBRANCH   6  23
BRANCH   3  45
ATOM     45  O   UNL     1     -11.514  32.183  44.049  1.00  0.00    -0.387 OA
ATOM     46  H   UNL     1     -12.313  31.955  44.595  1.00  0.00     0.211 HD
ENDBRANCH   3  45
BRANCH   4  47
ATOM     47  C   UNL     1     -12.346  29.123  44.672  1.00  0.00     0.191 C 
BRANCH  47  48
ATOM     48  O   UNL     1     -13.168  29.658  43.675  1.00  0.00    -0.394 OA
ATOM     49  H   UNL     1     -14.018  29.907  44.124  1.00  0.00     0.210 HD
ENDBRANCH  47  48
ENDBRANCH   4  47
TORSDOF 14
ENDMDL
MODEL 8
REMARK VINA RESULT:    -6.211      2.038      5.664
REMARK INTER + INTRA:         -11.826
REMARK INTER:                  -9.311
REMARK INTRA:                  -2.515
REMARK UNBOUND:                -1.984
REMARK SMILES C[C@@H]1O[C@H](O[C@H]2[C@H](Oc3cc(O)c4c(c3)O[C@@H](c3ccc(O)cc3)CC4=O)O[C@H](CO)[C@@H](O)[C@@H]2O)[C@@H](O)[C@H](O)[C@H]1O
REMARK SMILES IDX 6 1 34 2 32 3 29 4 28 5 7 6 5 7 4 8 1 9 2 10 40 11 3 12
REMARK SMILES IDX 38 13 36 14 41 15 39 17 37 19 35 21 8 23 9 24 10 25 15 26
REMARK SMILES IDX 11 27 14 28 13 29 16 30 26 31 17 32 27 33 25 34 12 35 18 37
REMARK SMILES IDX 19 38 24 39 20 40 23 41 21 42 22 43 33 45 30 47 31 48
REMARK H PARENT 41 16 39 18 37 20 35 22 12 36 22 44 33 46 31 49
REMARK Flexibility Score: inf
ROOT
ATOM      1  C   UNL     1      -1.108  30.394  42.132  1.00  0.00     0.221 C 
ATOM      2  C   UNL     1       0.288  30.084  41.545  1.00  0.00     0.181 C 
ATOM      3  C   UNL     1       1.417  30.400  42.558  1.00  0.00     0.177 C 
ATOM      4  C   UNL     1       1.022  31.570  43.503  1.00  0.00     0.179 C 
ATOM      5  O   UNL     1       0.120  32.439  42.852  1.00  0.00    -0.332 OA
ATOM      6  C   UNL     1      -1.160  31.839  42.716  1.00  0.00     0.339 C 
ENDROOT
BRANCH   1   7
ATOM      7  O   UNL     1      -1.386  29.486  43.192  1.00  0.00    -0.337 OA
BRANCH   7   8
ATOM      8  C   UNL     1      -2.165  30.061  44.229  1.00  0.00     0.282 C 
ATOM      9  C   UNL     1      -5.776  29.839  44.822  1.00  0.00     0.041 C 
ATOM     10  C   UNL     1      -4.297  29.973  45.189  1.00  0.00     0.150 C 
ATOM     11  C   UNL     1      -3.927  29.042  46.379  1.00  0.00     0.174 C 
ATOM     12  O   UNL     1      -3.519  29.656  44.049  1.00  0.00    -0.344 OA
ATOM     13  C   UNL     1      -2.482  28.511  46.233  1.00  0.00     0.179 C 
ATOM     14  C   UNL     1      -1.578  29.580  45.590  1.00  0.00     0.202 C 
BRANCH  11  15
ATOM     15  O   UNL     1      -4.043  29.748  47.590  1.00  0.00    -0.388 OA
ATOM     16  H   UNL     1      -4.444  29.121  48.250  1.00  0.00     0.211 HD
ENDBRANCH  11  15
BRANCH  13  17
ATOM     17  O   UNL     1      -2.470  27.362  45.422  1.00  0.00    -0.387 OA
ATOM     18  H   UNL     1      -2.121  26.619  45.976  1.00  0.00     0.211 HD
ENDBRANCH  13  17
BRANCH  14  19
ATOM     19  O   UNL     1      -1.444  30.679  46.462  1.00  0.00    -0.385 OA
ATOM     20  H   UNL     1      -1.631  31.499  45.929  1.00  0.00     0.211 HD
ENDBRANCH  14  19
ENDBRANCH   7   8
ENDBRANCH   1   7
BRANCH   2  21
ATOM     21  O   UNL     1       0.491  30.768  40.327  1.00  0.00    -0.387 OA
ATOM     22  H   UNL     1       0.586  31.737  40.521  1.00  0.00     0.211 HD
ENDBRANCH   2  21
BRANCH   6  23
ATOM     23  O   UNL     1      -1.942  32.670  41.858  1.00  0.00    -0.462 OA
BRANCH  23  24
ATOM     24  C   UNL     1      -2.991  33.473  42.330  1.00  0.00     0.130 A 
ATOM     25  C   UNL     1      -2.873  34.871  42.413  1.00  0.00     0.093 A 
ATOM     26  C   UNL     1      -4.185  32.860  42.724  1.00  0.00     0.094 A 
ATOM     27  C   UNL     1      -3.944  35.654  42.867  1.00  0.00     0.133 A 
ATOM     28  C   UNL     1      -5.273  33.633  43.136  1.00  0.00     0.138 A 
ATOM     29  C   UNL     1      -5.160  35.035  43.225  1.00  0.00     0.102 A 
ATOM     30  O   UNL     1      -6.483  33.003  43.457  1.00  0.00    -0.484 OA
ATOM     31  C   UNL     1      -6.328  35.797  43.726  1.00  0.00     0.174 C 
ATOM     32  C   UNL     1      -7.709  33.729  43.518  1.00  0.00     0.211 C 
ATOM     33  O   UNL     1      -6.321  37.061  43.755  1.00  0.00    -0.294 OA
ATOM     34  C   UNL     1      -7.519  35.054  44.270  1.00  0.00     0.131 C 
BRANCH  27  35
ATOM     35  O   UNL     1      -3.791  37.039  42.971  1.00  0.00    -0.507 OA
ATOM     36  H   UNL     1      -3.165  37.551  42.361  1.00  0.00     0.293 HD
ENDBRANCH  27  35
BRANCH  32  37
ATOM     37  C   UNL     1      -8.780  32.887  44.170  1.00  0.00    -0.007 A 
ATOM     38  C   UNL     1      -8.723  32.616  45.548  1.00  0.00     0.011 A 
ATOM     39  C   UNL     1      -9.824  32.337  43.403  1.00  0.00     0.011 A 
ATOM     40  C   UNL     1      -9.703  31.820  46.152  1.00  0.00     0.046 A 
ATOM     41  C   UNL     1     -10.800  31.541  44.011  1.00  0.00     0.046 A 
ATOM     42  C   UNL     1     -10.744  31.284  45.385  1.00  0.00     0.115 A 
BRANCH  42  43
ATOM     43  O   UNL     1     -11.712  30.494  46.004  1.00  0.00    -0.508 OA
ATOM     44  H   UNL     1     -11.955  29.576  45.644  1.00  0.00     0.293 HD
ENDBRANCH  42  43
ENDBRANCH  32  37
ENDBRANCH  23  24
ENDBRANCH   6  23
BRANCH   3  45
ATOM     45  O   UNL     1       1.686  29.252  43.324  1.00  0.00    -0.387 OA
ATOM     46  H   UNL     1       2.228  28.644  42.754  1.00  0.00     0.211 HD
ENDBRANCH   3  45
BRANCH   4  47
ATOM     47  C   UNL     1       2.256  32.376  43.919  1.00  0.00     0.191 C 
BRANCH  47  48
ATOM     48  O   UNL     1       3.390  31.862  43.283  1.00  0.00    -0.394 OA
ATOM     49  H   UNL     1       3.210  30.895  43.141  1.00  0.00     0.210 HD
ENDBRANCH  47  48
ENDBRANCH   4  47
TORSDOF 14
ENDMDL
MODEL 9
REMARK VINA RESULT:    -6.119      2.201      3.399
REMARK INTER + INTRA:         -11.681
REMARK INTER:                  -9.252
REMARK INTRA:                  -2.429
REMARK UNBOUND:                -1.984
REMARK SMILES C[C@@H]1O[C@H](O[C@H]2[C@H](Oc3cc(O)c4c(c3)O[C@@H](c3ccc(O)cc3)CC4=O)O[C@H](CO)[C@@H](O)[C@@H]2O)[C@@H](O)[C@H](O)[C@H]1O
REMARK SMILES IDX 6 1 34 2 32 3 29 4 28 5 7 6 5 7 4 8 1 9 2 10 40 11 3 12
REMARK SMILES IDX 38 13 36 14 41 15 39 17 37 19 35 21 8 23 9 24 10 25 15 26
REMARK SMILES IDX 11 27 14 28 13 29 16 30 26 31 17 32 27 33 25 34 12 35 18 37
REMARK SMILES IDX 19 38 24 39 20 40 23 41 21 42 22 43 33 45 30 47 31 48
REMARK H PARENT 41 16 39 18 37 20 35 22 12 36 22 44 33 46 31 49
REMARK Flexibility Score: inf
ROOT
ATOM      1  C   UNL     1      -0.573  30.213  43.046  1.00  0.00     0.221 C 
ATOM      2  C   UNL     1       0.819  30.165  42.375  1.00  0.00     0.181 C 
ATOM      3  C   UNL     1       0.788  29.356  41.054  1.00  0.00     0.177 C 
ATOM      4  C   UNL     1      -0.283  28.230  41.101  1.00  0.00     0.179 C 
ATOM      5  O   UNL     1      -0.480  27.800  42.432  1.00  0.00    -0.332 OA
ATOM      6  C   UNL     1      -1.174  28.781  43.188  1.00  0.00     0.339 C 
ENDROOT
BRANCH   1   7
ATOM      7  O   UNL     1      -1.459  30.980  42.239  1.00  0.00    -0.337 OA
BRANCH   7   8
ATOM      8  C   UNL     1      -1.503  32.349  42.608  1.00  0.00     0.282 C 
ATOM      9  C   UNL     1      -3.057  35.178  40.869  1.00  0.00     0.041 C 
ATOM     10  C   UNL     1      -2.561  34.364  42.065  1.00  0.00     0.150 C 
ATOM     11  C   UNL     1      -3.629  34.325  43.197  1.00  0.00     0.174 C 
ATOM     12  O   UNL     1      -2.256  33.054  41.625  1.00  0.00    -0.344 OA
ATOM     13  C   UNL     1      -3.590  32.970  43.942  1.00  0.00     0.179 C 
ATOM     14  C   UNL     1      -2.145  32.442  44.025  1.00  0.00     0.202 C 
BRANCH  11  15
ATOM     15  O   UNL     1      -3.390  35.365  44.113  1.00  0.00    -0.388 OA
ATOM     16  H   UNL     1      -3.433  34.962  45.022  1.00  0.00     0.211 HD
ENDBRANCH  11  15
BRANCH  13  17
ATOM     17  O   UNL     1      -4.378  32.024  43.263  1.00  0.00    -0.387 OA
ATOM     18  H   UNL     1      -5.133  32.515  42.851  1.00  0.00     0.211 HD
ENDBRANCH  13  17
BRANCH  14  19
ATOM     19  O   UNL     1      -1.372  33.294  44.840  1.00  0.00    -0.385 OA
ATOM     20  H   UNL     1      -0.710  33.742  44.247  1.00  0.00     0.211 HD
ENDBRANCH  14  19
ENDBRANCH   7   8
ENDBRANCH   1   7
BRANCH   2  21
ATOM     21  O   UNL     1       1.793  29.657  43.260  1.00  0.00    -0.387 OA
ATOM     22  H   UNL     1       1.346  29.059  43.914  1.00  0.00     0.211 HD
ENDBRANCH   2  21
BRANCH   6  23
ATOM     23  O   UNL     1      -1.134  28.383  44.559  1.00  0.00    -0.462 OA
BRANCH  23  24
ATOM     24  C   UNL     1      -2.053  28.848  45.511  1.00  0.00     0.130 A 
ATOM     25  C   UNL     1      -1.740  28.895  46.881  1.00  0.00     0.093 A 
ATOM     26  C   UNL     1      -3.312  29.277  45.079  1.00  0.00     0.094 A 
ATOM     27  C   UNL     1      -2.669  29.386  47.810  1.00  0.00     0.133 A 
ATOM     28  C   UNL     1      -4.229  29.808  45.990  1.00  0.00     0.138 A 
ATOM     29  C   UNL     1      -3.923  29.855  47.365  1.00  0.00     0.102 A 
ATOM     30  O   UNL     1      -5.456  30.298  45.526  1.00  0.00    -0.484 OA
ATOM     31  C   UNL     1      -4.956  30.373  48.291  1.00  0.00     0.174 C 
ATOM     32  C   UNL     1      -6.259  31.173  46.317  1.00  0.00     0.211 C 
ATOM     33  O   UNL     1      -4.718  30.518  49.524  1.00  0.00    -0.294 OA
ATOM     34  C   UNL     1      -6.336  30.674  47.768  1.00  0.00     0.131 C 
BRANCH  27  35
ATOM     35  O   UNL     1      -2.346  29.394  49.169  1.00  0.00    -0.507 OA
ATOM     36  H   UNL     1      -2.807  28.777  49.828  1.00  0.00     0.293 HD
ENDBRANCH  27  35
BRANCH  32  37
ATOM     37  C   UNL     1      -7.638  31.300  45.716  1.00  0.00    -0.007 A 
ATOM     38  C   UNL     1      -7.823  32.012  44.518  1.00  0.00     0.011 A 
ATOM     39  C   UNL     1      -8.756  30.742  46.365  1.00  0.00     0.011 A 
ATOM     40  C   UNL     1      -9.103  32.149  43.969  1.00  0.00     0.046 A 
ATOM     41  C   UNL     1     -10.032  30.883  45.813  1.00  0.00     0.046 A 
ATOM     42  C   UNL     1     -10.209  31.582  44.614  1.00  0.00     0.115 A 
BRANCH  42  43
ATOM     43  O   UNL     1     -11.476  31.729  44.052  1.00  0.00    -0.508 OA
ATOM     44  H   UNL     1     -12.314  31.714  44.625  1.00  0.00     0.293 HD
ENDBRANCH  42  43
ENDBRANCH  32  37
ENDBRANCH  23  24
ENDBRANCH   6  23
BRANCH   3  45
ATOM     45  O   UNL     1       0.505  30.225  39.986  1.00  0.00    -0.387 OA
ATOM     46  H   UNL     1       0.657  31.149  40.317  1.00  0.00     0.211 HD
ENDBRANCH   3  45
BRANCH   4  47
ATOM     47  C   UNL     1       0.153  27.025  40.263  1.00  0.00     0.191 C 
BRANCH  47  48
ATOM     48  O   UNL     1       0.096  25.865  41.042  1.00  0.00    -0.394 OA
ATOM     49  H   UNL     1      -0.820  25.499  40.924  1.00  0.00     0.210 HD
ENDBRANCH  47  48
ENDBRANCH   4  47
TORSDOF 14
ENDMDL
