MODEL 1
REMARK VINA RESULT:    -4.823      0.000      0.000
REMARK INTER + INTRA:          -5.458
REMARK INTER:                  -5.386
REMARK INTRA:                  -0.072
REMARK UNBOUND:                -0.072
REMARK SMILES CCc1ccc(O)cc1O
REMARK SMILES IDX 3 1 9 2 8 3 6 4 5 5 4 6 2 7 1 8 10 9 7 11
REMARK H PARENT 10 10 7 12
REMARK Flexibility Score: inf
ROOT
ATOM      1  C   UNL     1      47.022  -2.349  15.841  1.00  0.00    -0.006 A 
ATOM      2  C   UNL     1      46.340  -1.441  16.690  1.00  0.00     0.122 A 
ATOM      3  C   UNL     1      45.156  -0.836  16.249  1.00  0.00     0.092 A 
ATOM      4  C   UNL     1      44.648  -1.104  14.977  1.00  0.00     0.119 A 
ATOM      5  C   UNL     1      45.329  -1.985  14.129  1.00  0.00     0.047 A 
ATOM      6  C   UNL     1      46.508  -2.598  14.556  1.00  0.00     0.011 A 
ENDROOT
BRANCH   1   7
ATOM      7  C   UNL     1      48.308  -3.025  16.253  1.00  0.00     0.036 C 
ATOM      8  C   UNL     1      48.032  -4.208  17.176  1.00  0.00     0.009 C 
ENDBRANCH   1   7
BRANCH   2   9
ATOM      9  O   UNL     1      46.806  -1.115  17.966  1.00  0.00    -0.508 OA
ATOM     10  H   UNL     1      46.843  -0.170  18.323  1.00  0.00     0.293 HD
ENDBRANCH   2   9
BRANCH   4  11
ATOM     11  O   UNL     1      43.470  -0.487  14.563  1.00  0.00    -0.508 OA
ATOM     12  H   UNL     1      42.949  -0.825  13.762  1.00  0.00     0.293 HD
ENDBRANCH   4  11
TORSDOF 3
ENDMDL
MODEL 2
REMARK VINA RESULT:    -4.516      7.797      9.089
REMARK INTER + INTRA:          -5.116
REMARK INTER:                  -5.030
REMARK INTRA:                  -0.086
REMARK UNBOUND:                -0.072
REMARK SMILES CCc1ccc(O)cc1O
REMARK SMILES IDX 3 1 9 2 8 3 6 4 5 5 4 6 2 7 1 8 10 9 7 11
REMARK H PARENT 10 10 7 12
REMARK Flexibility Score: inf
ROOT
ATOM      1  C   UNL     1      45.627   6.884  16.457  1.00  0.00    -0.006 A 
ATOM      2  C   UNL     1      46.704   6.269  17.144  1.00  0.00     0.122 A 
ATOM      3  C   UNL     1      47.667   5.552  16.423  1.00  0.00     0.092 A 
ATOM      4  C   UNL     1      47.570   5.422  15.036  1.00  0.00     0.119 A 
ATOM      5  C   UNL     1      46.498   6.012  14.357  1.00  0.00     0.047 A 
ATOM      6  C   UNL     1      45.533   6.733  15.063  1.00  0.00     0.011 A 
ENDROOT
BRANCH   1   7
ATOM      7  C   UNL     1      44.552   7.661  17.178  1.00  0.00     0.036 C 
ATOM      8  C   UNL     1      44.313   9.012  16.512  1.00  0.00     0.009 C 
ENDBRANCH   1   7
BRANCH   2   9
ATOM      9  O   UNL     1      46.848   6.343  18.532  1.00  0.00    -0.508 OA
ATOM     10  H   UNL     1      46.176   6.790  19.140  1.00  0.00     0.293 HD
ENDBRANCH   2   9
BRANCH   4  11
ATOM     11  O   UNL     1      48.540   4.702  14.343  1.00  0.00    -0.508 OA
ATOM     12  H   UNL     1      49.525   4.934  14.415  1.00  0.00     0.293 HD
ENDBRANCH   4  11
TORSDOF 3
ENDMDL
MODEL 3
REMARK VINA RESULT:    -4.477      8.705      9.901
REMARK INTER + INTRA:          -5.072
REMARK INTER:                  -4.982
REMARK INTRA:                  -0.090
REMARK UNBOUND:                -0.072
REMARK SMILES CCc1ccc(O)cc1O
REMARK SMILES IDX 3 1 9 2 8 3 6 4 5 5 4 6 2 7 1 8 10 9 7 11
REMARK H PARENT 10 10 7 12
REMARK Flexibility Score: inf
ROOT
ATOM      1  C   UNL     1      45.225   7.338  15.598  1.00  0.00    -0.006 A 
ATOM      2  C   UNL     1      44.708   7.985  16.748  1.00  0.00     0.122 A 
ATOM      3  C   UNL     1      45.310   7.769  17.995  1.00  0.00     0.092 A 
ATOM      4  C   UNL     1      46.403   6.909  18.120  1.00  0.00     0.119 A 
ATOM      5  C   UNL     1      46.904   6.254  16.990  1.00  0.00     0.047 A 
ATOM      6  C   UNL     1      46.317   6.463  15.741  1.00  0.00     0.011 A 
ENDROOT
BRANCH   1   7
ATOM      7  C   UNL     1      44.614   7.521  14.229  1.00  0.00     0.036 C 
ATOM      8  C   UNL     1      43.410   6.603  14.040  1.00  0.00     0.009 C 
ENDBRANCH   1   7
BRANCH   2   9
ATOM      9  O   UNL     1      43.605   8.840  16.695  1.00  0.00    -0.508 OA
ATOM     10  H   UNL     1      42.937   8.939  17.447  1.00  0.00     0.293 HD
ENDBRANCH   2   9
BRANCH   4  11
ATOM     11  O   UNL     1      46.982   6.710  19.372  1.00  0.00    -0.508 OA
ATOM     12  H   UNL     1      47.818   7.210  19.654  1.00  0.00     0.293 HD
ENDBRANCH   4  11
TORSDOF 3
ENDMDL
MODEL 4
REMARK VINA RESULT:    -4.466      2.000      2.412
REMARK INTER + INTRA:          -5.060
REMARK INTER:                  -4.974
REMARK INTRA:                  -0.085
REMARK UNBOUND:                -0.072
REMARK SMILES CCc1ccc(O)cc1O
REMARK SMILES IDX 3 1 9 2 8 3 6 4 5 5 4 6 2 7 1 8 10 9 7 11
REMARK H PARENT 10 10 7 12
REMARK Flexibility Score: inf
ROOT
ATOM      1  C   UNL     1      45.882  -2.368  15.239  1.00  0.00    -0.006 A 
ATOM      2  C   UNL     1      44.566  -2.571  14.752  1.00  0.00     0.122 A 
ATOM      3  C   UNL     1      43.805  -1.473  14.331  1.00  0.00     0.092 A 
ATOM      4  C   UNL     1      44.322  -0.178  14.400  1.00  0.00     0.119 A 
ATOM      5  C   UNL     1      45.614   0.028  14.898  1.00  0.00     0.047 A 
ATOM      6  C   UNL     1      46.384  -1.058  15.318  1.00  0.00     0.011 A 
ENDROOT
BRANCH   1   7
ATOM      7  C   UNL     1      46.747  -3.509  15.719  1.00  0.00     0.036 C 
ATOM      8  C   UNL     1      47.966  -2.990  16.476  1.00  0.00     0.009 C 
ENDBRANCH   1   7
BRANCH   2   9
ATOM      9  O   UNL     1      43.982  -3.839  14.676  1.00  0.00    -0.508 OA
ATOM     10  H   UNL     1      43.514  -4.286  15.452  1.00  0.00     0.293 HD
ENDBRANCH   2   9
BRANCH   4  11
ATOM     11  O   UNL     1      43.545   0.897  13.976  1.00  0.00    -0.508 OA
ATOM     12  H   UNL     1      42.601   0.763  13.629  1.00  0.00     0.293 HD
ENDBRANCH   4  11
TORSDOF 3
ENDMDL
MODEL 5
REMARK VINA RESULT:    -4.447      8.478      9.601
REMARK INTER + INTRA:          -5.039
REMARK INTER:                  -4.947
REMARK INTRA:                  -0.092
REMARK UNBOUND:                -0.072
REMARK SMILES CCc1ccc(O)cc1O
REMARK SMILES IDX 3 1 9 2 8 3 6 4 5 5 4 6 2 7 1 8 10 9 7 11
REMARK H PARENT 10 10 7 12
REMARK Flexibility Score: inf
ROOT
ATOM      1  C   UNL     1      45.350   7.124  15.308  1.00  0.00    -0.006 A 
ATOM      2  C   UNL     1      46.566   6.411  15.459  1.00  0.00     0.122 A 
ATOM      3  C   UNL     1      47.122   6.249  16.734  1.00  0.00     0.092 A 
ATOM      4  C   UNL     1      46.501   6.796  17.858  1.00  0.00     0.119 A 
ATOM      5  C   UNL     1      45.310   7.517  17.711  1.00  0.00     0.047 A 
ATOM      6  C   UNL     1      44.743   7.683  16.447  1.00  0.00     0.011 A 
ENDROOT
BRANCH   1   7
ATOM      7  C   UNL     1      44.707   7.342  13.960  1.00  0.00     0.036 C 
ATOM      8  C   UNL     1      43.360   6.631  13.875  1.00  0.00     0.009 C 
ENDBRANCH   1   7
BRANCH   2   9
ATOM      9  O   UNL     1      47.248   5.856  14.373  1.00  0.00    -0.508 OA
ATOM     10  H   UNL     1      48.251   5.906  14.259  1.00  0.00     0.293 HD
ENDBRANCH   2   9
BRANCH   4  11
ATOM     11  O   UNL     1      47.076   6.622  19.115  1.00  0.00    -0.508 OA
ATOM     12  H   UNL     1      46.627   6.059  19.829  1.00  0.00     0.293 HD
ENDBRANCH   4  11
TORSDOF 3
ENDMDL
MODEL 6
REMARK VINA RESULT:    -4.367      8.576      9.998
REMARK INTER + INTRA:          -4.949
REMARK INTER:                  -4.863
REMARK INTRA:                  -0.086
REMARK UNBOUND:                -0.072
REMARK SMILES CCc1ccc(O)cc1O
REMARK SMILES IDX 3 1 9 2 8 3 6 4 5 5 4 6 2 7 1 8 10 9 7 11
REMARK H PARENT 10 10 7 12
REMARK Flexibility Score: inf
ROOT
ATOM      1  C   UNL     1      45.453   7.058  16.846  1.00  0.00    -0.006 A 
ATOM      2  C   UNL     1      46.527   6.620  17.661  1.00  0.00     0.122 A 
ATOM      3  C   UNL     1      46.681   7.148  18.949  1.00  0.00     0.092 A 
ATOM      4  C   UNL     1      45.798   8.115  19.434  1.00  0.00     0.119 A 
ATOM      5  C   UNL     1      44.748   8.564  18.625  1.00  0.00     0.047 A 
ATOM      6  C   UNL     1      44.580   8.043  17.341  1.00  0.00     0.011 A 
ENDROOT
BRANCH   1   7
ATOM      7  C   UNL     1      45.240   6.535  15.446  1.00  0.00     0.036 C 
ATOM      8  C   UNL     1      43.774   6.183  15.210  1.00  0.00     0.009 C 
ENDBRANCH   1   7
BRANCH   2   9
ATOM      9  O   UNL     1      47.457   5.671  17.228  1.00  0.00    -0.508 OA
ATOM     10  H   UNL     1      47.217   4.716  16.999  1.00  0.00     0.293 HD
ENDBRANCH   2   9
BRANCH   4  11
ATOM     11  O   UNL     1      45.975   8.625  20.718  1.00  0.00    -0.508 OA
ATOM     12  H   UNL     1      45.536   8.194  21.524  1.00  0.00     0.293 HD
ENDBRANCH   4  11
TORSDOF 3
ENDMDL
MODEL 7
REMARK VINA RESULT:    -4.338      8.364      9.319
REMARK INTER + INTRA:          -4.917
REMARK INTER:                  -4.832
REMARK INTRA:                  -0.085
REMARK UNBOUND:                -0.072
REMARK SMILES CCc1ccc(O)cc1O
REMARK SMILES IDX 3 1 9 2 8 3 6 4 5 5 4 6 2 7 1 8 10 9 7 11
REMARK H PARENT 10 10 7 12
REMARK Flexibility Score: inf
ROOT
ATOM      1  C   UNL     1      46.191   7.015  17.735  1.00  0.00    -0.006 A 
ATOM      2  C   UNL     1      46.764   6.253  16.686  1.00  0.00     0.122 A 
ATOM      3  C   UNL     1      46.196   6.298  15.406  1.00  0.00     0.092 A 
ATOM      4  C   UNL     1      45.061   7.072  15.156  1.00  0.00     0.119 A 
ATOM      5  C   UNL     1      44.482   7.811  16.194  1.00  0.00     0.047 A 
ATOM      6  C   UNL     1      45.040   7.778  17.473  1.00  0.00     0.011 A 
ENDROOT
BRANCH   1   7
ATOM      7  C   UNL     1      46.750   7.000  19.138  1.00  0.00     0.036 C 
ATOM      8  C   UNL     1      46.088   8.069  20.002  1.00  0.00     0.009 C 
ENDBRANCH   1   7
BRANCH   2   9
ATOM      9  O   UNL     1      47.886   5.442  16.875  1.00  0.00    -0.508 OA
ATOM     10  H   UNL     1      48.449   5.453  17.714  1.00  0.00     0.293 HD
ENDBRANCH   2   9
BRANCH   4  11
ATOM     11  O   UNL     1      44.515   7.098  13.875  1.00  0.00    -0.508 OA
ATOM     12  H   UNL     1      43.727   6.512  13.624  1.00  0.00     0.293 HD
ENDBRANCH   4  11
TORSDOF 3
ENDMDL
MODEL 8
REMARK VINA RESULT:    -4.319      9.858     11.195
REMARK INTER + INTRA:          -4.896
REMARK INTER:                  -4.810
REMARK INTRA:                  -0.085
REMARK UNBOUND:                -0.072
REMARK SMILES CCc1ccc(O)cc1O
REMARK SMILES IDX 3 1 9 2 8 3 6 4 5 5 4 6 2 7 1 8 10 9 7 11
REMARK H PARENT 10 10 7 12
REMARK Flexibility Score: inf
ROOT
ATOM      1  C   UNL     1      46.408   7.523  19.260  1.00  0.00    -0.006 A 
ATOM      2  C   UNL     1      46.633   7.180  20.617  1.00  0.00     0.122 A 
ATOM      3  C   UNL     1      46.327   8.103  21.626  1.00  0.00     0.092 A 
ATOM      4  C   UNL     1      45.818   9.364  21.309  1.00  0.00     0.119 A 
ATOM      5  C   UNL     1      45.613   9.713  19.969  1.00  0.00     0.047 A 
ATOM      6  C   UNL     1      45.910   8.802  18.954  1.00  0.00     0.011 A 
ENDROOT
BRANCH   1   7
ATOM      7  C   UNL     1      46.727   6.577  18.128  1.00  0.00     0.036 C 
ATOM      8  C   UNL     1      46.745   7.311  16.790  1.00  0.00     0.009 C 
ENDBRANCH   1   7
BRANCH   2   9
ATOM      9  O   UNL     1      47.158   5.944  21.000  1.00  0.00    -0.508 OA
ATOM     10  H   UNL     1      47.724   5.808  21.827  1.00  0.00     0.293 HD
ENDBRANCH   2   9
BRANCH   4  11
ATOM     11  O   UNL     1      45.524  10.264  22.331  1.00  0.00    -0.508 OA
ATOM     12  H   UNL     1      45.100  11.164  22.138  1.00  0.00     0.293 HD
ENDBRANCH   4  11
TORSDOF 3
ENDMDL
MODEL 9
REMARK VINA RESULT:    -4.287     10.030     11.247
REMARK INTER + INTRA:          -4.861
REMARK INTER:                  -4.759
REMARK INTRA:                  -0.102
REMARK UNBOUND:                -0.072
REMARK SMILES CCc1ccc(O)cc1O
REMARK SMILES IDX 3 1 9 2 8 3 6 4 5 5 4 6 2 7 1 8 10 9 7 11
REMARK H PARENT 10 10 7 12
REMARK Flexibility Score: inf
ROOT
ATOM      1  C   UNL     1      46.254   8.238  21.223  1.00  0.00    -0.006 A 
ATOM      2  C   UNL     1      46.764   7.088  20.571  1.00  0.00     0.122 A 
ATOM      3  C   UNL     1      46.735   7.013  19.172  1.00  0.00     0.092 A 
ATOM      4  C   UNL     1      46.194   8.053  18.413  1.00  0.00     0.119 A 
ATOM      5  C   UNL     1      45.672   9.182  19.055  1.00  0.00     0.047 A 
ATOM      6  C   UNL     1      45.698   9.271  20.448  1.00  0.00     0.011 A 
ENDROOT
BRANCH   1   7
ATOM      7  C   UNL     1      46.247   8.373  22.727  1.00  0.00     0.036 C 
ATOM      8  C   UNL     1      47.432   9.206  23.207  1.00  0.00     0.009 C 
ENDBRANCH   1   7
BRANCH   2   9
ATOM      9  O   UNL     1      47.300   6.004  21.272  1.00  0.00    -0.508 OA
ATOM     10  H   UNL     1      46.752   5.395  21.864  1.00  0.00     0.293 HD
ENDBRANCH   2   9
BRANCH   4  11
ATOM     11  O   UNL     1      46.175   7.953  17.024  1.00  0.00    -0.508 OA
ATOM     12  H   UNL     1      47.029   7.997  16.479  1.00  0.00     0.293 HD
ENDBRANCH   4  11
TORSDOF 3
ENDMDL
