MODEL 1
REMARK VINA RESULT:     2.788      0.000      0.000
REMARK INTER + INTRA:           4.026
REMARK INTER:                   4.907
REMARK INTRA:                  -0.880
REMARK UNBOUND:                -0.880
REMARK SMILES CCCCCCCCCCCCCCC(=O)[O-]
REMARK SMILES IDX 9 1 10 2 11 3 12 4 13 5 14 6 15 7 16 8 17 9 8 10 7 11 6 12
REMARK SMILES IDX 5 13 4 14 3 15 2 16 1 17
REMARK H PARENT
REMARK Flexibility Score: inf
ROOT
ATOM      1  C   UNL     1     -20.118   4.661 -20.003  1.00  0.00     0.000 C 
ENDROOT
BRANCH   1   2
ATOM      2  C   UNL     1     -20.598   3.763 -18.849  1.00  0.00     0.000 C 
BRANCH   2   3
ATOM      3  C   UNL     1     -19.447   2.984 -18.192  1.00  0.00     0.000 C 
BRANCH   3   4
ATOM      4  C   UNL     1     -18.182   2.953 -19.068  1.00  0.00     0.000 C 
BRANCH   4   5
ATOM      5  C   UNL     1     -17.030   3.775 -18.468  1.00  0.00     0.006 C 
BRANCH   5   6
ATOM      6  C   UNL     1     -15.780   3.775 -19.357  1.00  0.00     0.053 C 
BRANCH   6   7
ATOM      7  C   UNL     1     -14.598   4.289 -18.596  1.00  0.00     0.041 C 
ATOM      8  O   UNL     1     -13.972   3.528 -17.812  1.00  0.00    -0.550 OA
ATOM      9  O   UNL     1     -14.220   5.620 -18.714  1.00  0.00    -0.550 OA
ENDBRANCH   6   7
ENDBRANCH   5   6
ENDBRANCH   4   5
ENDBRANCH   3   4
ENDBRANCH   2   3
ENDBRANCH   1   2
BRANCH   1  10
ATOM     10  C   UNL     1     -20.117   6.153 -19.633  1.00  0.00     0.000 C 
BRANCH  10  11
ATOM     11  C   UNL     1     -21.311   6.542 -18.744  1.00  0.00    -0.000 C 
BRANCH  11  12
ATOM     12  C   UNL     1     -21.887   7.922 -19.099  1.00  0.00    -0.000 C 
BRANCH  12  13
ATOM     13  C   UNL     1     -23.239   8.194 -18.424  1.00  0.00    -0.000 C 
BRANCH  13  14
ATOM     14  C   UNL     1     -23.371   9.673 -18.033  1.00  0.00    -0.000 C 
BRANCH  14  15
ATOM     15  C   UNL     1     -23.559   9.874 -16.521  1.00  0.00    -0.000 C 
BRANCH  15  16
ATOM     16  C   UNL     1     -22.466   9.183 -15.691  1.00  0.00    -0.003 C 
ATOM     17  C   UNL     1     -21.145   9.940 -15.785  1.00  0.00     0.004 C 
ENDBRANCH  15  16
ENDBRANCH  14  15
ENDBRANCH  13  14
ENDBRANCH  12  13
ENDBRANCH  11  12
ENDBRANCH  10  11
ENDBRANCH   1  10
TORSDOF 13
ENDMDL
MODEL 2
REMARK VINA RESULT:     3.316      3.284      7.799
REMARK INTER + INTRA:           4.956
REMARK INTER:                   5.410
REMARK INTRA:                  -0.454
REMARK UNBOUND:                -0.880
REMARK SMILES CCCCCCCCCCCCCCC(=O)[O-]
REMARK SMILES IDX 9 1 10 2 11 3 12 4 13 5 14 6 15 7 16 8 17 9 8 10 7 11 6 12
REMARK SMILES IDX 5 13 4 14 3 15 2 16 1 17
REMARK H PARENT
REMARK Flexibility Score: inf
ROOT
ATOM      1  C   UNL     1     -20.215   5.781 -19.379  1.00  0.00     0.000 C 
ENDROOT
BRANCH   1   2
ATOM      2  C   UNL     1     -21.179   6.934 -19.712  1.00  0.00     0.000 C 
BRANCH   2   3
ATOM      3  C   UNL     1     -21.675   7.668 -18.456  1.00  0.00     0.000 C 
BRANCH   3   4
ATOM      4  C   UNL     1     -23.088   8.249 -18.633  1.00  0.00     0.000 C 
BRANCH   4   5
ATOM      5  C   UNL     1     -23.247   9.628 -17.971  1.00  0.00     0.006 C 
BRANCH   5   6
ATOM      6  C   UNL     1     -23.460   9.533 -16.455  1.00  0.00     0.053 C 
BRANCH   6   7
ATOM      7  C   UNL     1     -22.146   9.554 -15.740  1.00  0.00     0.041 C 
ATOM      8  O   UNL     1     -21.181  10.212 -16.210  1.00  0.00    -0.550 OA
ATOM      9  O   UNL     1     -21.971   8.805 -14.584  1.00  0.00    -0.550 OA
ENDBRANCH   6   7
ENDBRANCH   5   6
ENDBRANCH   4   5
ENDBRANCH   3   4
ENDBRANCH   2   3
ENDBRANCH   1   2
BRANCH   1  10
ATOM     10  C   UNL     1     -20.892   4.403 -19.447  1.00  0.00     0.000 C 
BRANCH  10  11
ATOM     11  C   UNL     1     -20.310   3.409 -18.428  1.00  0.00    -0.000 C 
BRANCH  11  12
ATOM     12  C   UNL     1     -18.896   2.937 -18.804  1.00  0.00    -0.000 C 
BRANCH  12  13
ATOM     13  C   UNL     1     -17.804   3.590 -17.945  1.00  0.00    -0.000 C 
BRANCH  13  14
ATOM     14  C   UNL     1     -16.605   4.011 -18.808  1.00  0.00    -0.000 C 
BRANCH  14  15
ATOM     15  C   UNL     1     -15.466   2.978 -18.785  1.00  0.00    -0.000 C 
BRANCH  15  16
ATOM     16  C   UNL     1     -14.079   3.622 -18.937  1.00  0.00    -0.003 C 
ATOM     17  C   UNL     1     -14.163   5.141 -18.821  1.00  0.00     0.004 C 
ENDBRANCH  15  16
ENDBRANCH  14  15
ENDBRANCH  13  14
ENDBRANCH  12  13
ENDBRANCH  11  12
ENDBRANCH  10  11
ENDBRANCH   1  10
TORSDOF 13
ENDMDL
MODEL 3
REMARK VINA RESULT:     5.662      1.210      2.115
REMARK INTER + INTRA:           9.085
REMARK INTER:                   9.633
REMARK INTRA:                  -0.547
REMARK UNBOUND:                -0.880
REMARK SMILES CCCCCCCCCCCCCCC(=O)[O-]
REMARK SMILES IDX 9 1 10 2 11 3 12 4 13 5 14 6 15 7 16 8 17 9 8 10 7 11 6 12
REMARK SMILES IDX 5 13 4 14 3 15 2 16 1 17
REMARK H PARENT
REMARK Flexibility Score: inf
ROOT
ATOM      1  C   UNL     1     -20.578   4.407 -20.093  1.00  0.00     0.000 C 
ENDROOT
BRANCH   1   2
ATOM      2  C   UNL     1     -19.192   3.742 -20.023  1.00  0.00     0.000 C 
BRANCH   2   3
ATOM      3  C   UNL     1     -18.138   4.645 -19.363  1.00  0.00     0.000 C 
BRANCH   3   4
ATOM      4  C   UNL     1     -17.272   3.889 -18.341  1.00  0.00     0.000 C 
BRANCH   4   5
ATOM      5  C   UNL     1     -16.273   2.930 -19.009  1.00  0.00     0.006 C 
BRANCH   5   6
ATOM      6  C   UNL     1     -15.115   3.667 -19.692  1.00  0.00     0.053 C 
BRANCH   6   7
ATOM      7  C   UNL     1     -14.274   4.374 -18.677  1.00  0.00     0.041 C 
ATOM      8  O   UNL     1     -13.879   5.550 -18.891  1.00  0.00    -0.550 OA
ATOM      9  O   UNL     1     -13.883   3.716 -17.518  1.00  0.00    -0.550 OA
ENDBRANCH   6   7
ENDBRANCH   5   6
ENDBRANCH   4   5
ENDBRANCH   3   4
ENDBRANCH   2   3
ENDBRANCH   1   2
BRANCH   1  10
ATOM     10  C   UNL     1     -20.507   5.939 -19.982  1.00  0.00     0.000 C 
BRANCH  10  11
ATOM     11  C   UNL     1     -20.939   6.451 -18.598  1.00  0.00    -0.000 C 
BRANCH  11  12
ATOM     12  C   UNL     1     -21.854   7.684 -18.683  1.00  0.00    -0.000 C 
BRANCH  12  13
ATOM     13  C   UNL     1     -21.836   8.527 -17.400  1.00  0.00    -0.000 C 
BRANCH  13  14
ATOM     14  C   UNL     1     -23.161   9.284 -17.222  1.00  0.00    -0.000 C 
BRANCH  14  15
ATOM     15  C   UNL     1     -23.642   9.951 -18.521  1.00  0.00    -0.000 C 
BRANCH  15  16
ATOM     16  C   UNL     1     -23.512  11.482 -18.484  1.00  0.00    -0.003 C 
ATOM     17  C   UNL     1     -23.955  12.102 -19.806  1.00  0.00     0.004 C 
ENDBRANCH  15  16
ENDBRANCH  14  15
ENDBRANCH  13  14
ENDBRANCH  12  13
ENDBRANCH  11  12
ENDBRANCH  10  11
ENDBRANCH   1  10
TORSDOF 13
ENDMDL
