MODEL 1
REMARK VINA RESULT:    -6.370      0.000      0.000
REMARK INTER + INTRA:          -9.742
REMARK INTER:                  -8.976
REMARK INTRA:                  -0.766
REMARK UNBOUND:                -0.766
REMARK SMILES COc1ccc(-c2cc(=O)c3c(OC)c(OC)c(OC)c(OC)c3o2)cc1OC
REMARK SMILES IDX 7 1 8 2 9 3 10 4 11 5 24 6 25 7 21 8 18 9 15 10 12 11 6 12
REMARK SMILES IDX 3 13 27 14 4 15 26 16 5 17 2 18 1 19 28 20 29 21 22 22 23 23
REMARK SMILES IDX 13 24 14 25 19 26 20 27 16 28 17 29
REMARK H PARENT
REMARK Flexibility Score: inf
ROOT
ATOM      1  C   UNL     1     129.926 129.272 130.567  1.00  0.00     0.138 A 
ATOM      2  C   UNL     1     129.603 129.756 131.838  1.00  0.00     0.100 A 
ATOM      3  C   UNL     1     128.590 130.700 131.970  1.00  0.00     0.197 A 
ATOM      4  O   UNL     1     128.317 131.125 133.125  1.00  0.00    -0.289 OA
ATOM      5  C   UNL     1     127.899 131.160 130.822  1.00  0.00     0.115 A 
ATOM      6  C   UNL     1     128.288 130.633 129.567  1.00  0.00     0.188 A 
ATOM      7  O   UNL     1     129.268 129.734 129.507  1.00  0.00    -0.452 OA
ATOM      8  C   UNL     1     127.633 131.045 128.382  1.00  0.00     0.209 A 
ATOM      9  C   UNL     1     126.581 131.992 128.458  1.00  0.00     0.211 A 
ATOM     10  C   UNL     1     126.211 132.545 129.711  1.00  0.00     0.208 A 
ATOM     11  C   UNL     1     126.858 132.116 130.897  1.00  0.00     0.179 A 
ENDROOT
BRANCH   1  12
ATOM     12  C   UNL     1     130.994 128.260 130.373  1.00  0.00     0.021 A 
ATOM     13  C   UNL     1     133.067 126.381 129.998  1.00  0.00     0.160 A 
ATOM     14  C   UNL     1     133.271 127.491 130.831  1.00  0.00     0.161 A 
ATOM     15  C   UNL     1     131.828 126.217 129.353  1.00  0.00     0.051 A 
ATOM     16  C   UNL     1     132.232 128.423 131.013  1.00  0.00     0.062 A 
ATOM     17  C   UNL     1     130.805 127.150 129.534  1.00  0.00     0.016 A 
BRANCH  13  18
ATOM     18  O   UNL     1     134.119 125.465 129.838  1.00  0.00    -0.493 OA
ATOM     19  C   UNL     1     134.533 124.924 128.588  1.00  0.00     0.278 C 
ENDBRANCH  13  18
BRANCH  14  20
ATOM     20  O   UNL     1     134.519 127.632 131.460  1.00  0.00    -0.493 OA
ATOM     21  C   UNL     1     134.758 128.442 132.607  1.00  0.00     0.278 C 
ENDBRANCH  14  20
ENDBRANCH   1  12
BRANCH   8  22
ATOM     22  O   UNL     1     127.979 130.536 127.116  1.00  0.00    -0.490 OA
ATOM     23  C   UNL     1     129.037 130.971 126.265  1.00  0.00     0.278 C 
ENDBRANCH   8  22
BRANCH  11  24
ATOM     24  O   UNL     1     126.510 132.607 132.174  1.00  0.00    -0.492 OA
ATOM     25  C   UNL     1     125.305 132.386 132.899  1.00  0.00     0.278 C 
ENDBRANCH  11  24
BRANCH   9  26
ATOM     26  O   UNL     1     125.852 132.406 127.324  1.00  0.00    -0.490 OA
ATOM     27  C   UNL     1     126.168 133.452 126.412  1.00  0.00     0.279 C 
ENDBRANCH   9  26
BRANCH  10  28
ATOM     28  O   UNL     1     125.193 133.508 129.822  1.00  0.00    -0.490 OA
ATOM     29  C   UNL     1     125.351 134.920 129.892  1.00  0.00     0.278 C 
ENDBRANCH  10  28
TORSDOF 7
ENDMDL
MODEL 2
REMARK VINA RESULT:    -6.342      2.512      8.205
REMARK INTER + INTRA:          -9.704
REMARK INTER:                  -8.968
REMARK INTRA:                  -0.736
REMARK UNBOUND:                -0.766
REMARK SMILES COc1ccc(-c2cc(=O)c3c(OC)c(OC)c(OC)c(OC)c3o2)cc1OC
REMARK SMILES IDX 7 1 8 2 9 3 10 4 11 5 24 6 25 7 21 8 18 9 15 10 12 11 6 12
REMARK SMILES IDX 3 13 27 14 4 15 26 16 5 17 2 18 1 19 28 20 29 21 22 22 23 23
REMARK SMILES IDX 13 24 14 25 19 26 20 27 16 28 17 29
REMARK H PARENT
REMARK Flexibility Score: inf
ROOT
ATOM      1  C   UNL     1     129.259 132.837 129.418  1.00  0.00     0.138 A 
ATOM      2  C   UNL     1     129.514 132.968 130.785  1.00  0.00     0.100 A 
ATOM      3  C   UNL     1     130.493 132.175 131.376  1.00  0.00     0.197 A 
ATOM      4  O   UNL     1     130.703 132.308 132.611  1.00  0.00    -0.289 OA
ATOM      5  C   UNL     1     131.218 131.246 130.590  1.00  0.00     0.115 A 
ATOM      6  C   UNL     1     130.898 131.160 129.213  1.00  0.00     0.188 A 
ATOM      7  O   UNL     1     129.948 131.946 128.709  1.00  0.00    -0.452 OA
ATOM      8  C   UNL     1     131.590 130.258 128.371  1.00  0.00     0.209 A 
ATOM      9  C   UNL     1     132.610 129.437 128.915  1.00  0.00     0.211 A 
ATOM     10  C   UNL     1     132.910 129.499 130.300  1.00  0.00     0.208 A 
ATOM     11  C   UNL     1     132.226 130.416 131.136  1.00  0.00     0.179 A 
ENDROOT
BRANCH   1  12
ATOM     12  C   UNL     1     128.231 133.664 128.739  1.00  0.00     0.021 A 
ATOM     13  C   UNL     1     126.232 135.194 127.462  1.00  0.00     0.160 A 
ATOM     14  C   UNL     1     125.968 134.594 128.702  1.00  0.00     0.161 A 
ATOM     15  C   UNL     1     127.493 135.024 126.864  1.00  0.00     0.051 A 
ATOM     16  C   UNL     1     126.971 133.832 129.333  1.00  0.00     0.062 A 
ATOM     17  C   UNL     1     128.479 134.262 127.492  1.00  0.00     0.016 A 
BRANCH  13  18
ATOM     18  O   UNL     1     125.215 135.951 126.858  1.00  0.00    -0.493 OA
ATOM     19  C   UNL     1     124.740 135.749 125.532  1.00  0.00     0.278 C 
ENDBRANCH  13  18
BRANCH  14  20
ATOM     20  O   UNL     1     124.699 134.777 129.275  1.00  0.00    -0.493 OA
ATOM     21  C   UNL     1     124.159 133.969 130.316  1.00  0.00     0.278 C 
ENDBRANCH  14  20
ENDBRANCH   1  12
BRANCH   8  22
ATOM     22  O   UNL     1     131.313 130.152 126.995  1.00  0.00    -0.490 OA
ATOM     23  C   UNL     1     130.375 129.285 126.363  1.00  0.00     0.278 C 
ENDBRANCH   8  22
BRANCH  11  24
ATOM     24  O   UNL     1     132.505 130.544 132.514  1.00  0.00    -0.492 OA
ATOM     25  C   UNL     1     133.664 131.100 133.125  1.00  0.00     0.278 C 
ENDBRANCH  11  24
BRANCH   9  26
ATOM     26  O   UNL     1     133.374 128.555 128.122  1.00  0.00    -0.490 OA
ATOM     27  C   UNL     1     134.523 128.853 127.338  1.00  0.00     0.279 C 
ENDBRANCH   9  26
BRANCH  10  28
ATOM     28  O   UNL     1     133.893 128.679 130.880  1.00  0.00    -0.490 OA
ATOM     29  C   UNL     1     133.711 127.383 131.437  1.00  0.00     0.278 C 
ENDBRANCH  10  28
TORSDOF 7
ENDMDL
MODEL 3
REMARK VINA RESULT:    -6.273      2.173      3.487
REMARK INTER + INTRA:          -9.606
REMARK INTER:                  -8.881
REMARK INTRA:                  -0.725
REMARK UNBOUND:                -0.766
REMARK SMILES COc1ccc(-c2cc(=O)c3c(OC)c(OC)c(OC)c(OC)c3o2)cc1OC
REMARK SMILES IDX 7 1 8 2 9 3 10 4 11 5 24 6 25 7 21 8 18 9 15 10 12 11 6 12
REMARK SMILES IDX 3 13 27 14 4 15 26 16 5 17 2 18 1 19 28 20 29 21 22 22 23 23
REMARK SMILES IDX 13 24 14 25 19 26 20 27 16 28 17 29
REMARK H PARENT
REMARK Flexibility Score: inf
ROOT
ATOM      1  C   UNL     1     127.940 131.402 129.644  1.00  0.00     0.138 A 
ATOM      2  C   UNL     1     127.031 131.553 130.694  1.00  0.00     0.100 A 
ATOM      3  C   UNL     1     126.103 132.588 130.648  1.00  0.00     0.197 A 
ATOM      4  O   UNL     1     125.294 132.707 131.608  1.00  0.00    -0.289 OA
ATOM      5  C   UNL     1     126.088 133.475 129.544  1.00  0.00     0.115 A 
ATOM      6  C   UNL     1     127.046 133.268 128.523  1.00  0.00     0.188 A 
ATOM      7  O   UNL     1     127.910 132.260 128.628  1.00  0.00    -0.452 OA
ATOM      8  C   UNL     1     127.080 134.114 127.389  1.00  0.00     0.209 A 
ATOM      9  C   UNL     1     126.146 135.175 127.280  1.00  0.00     0.211 A 
ATOM     10  C   UNL     1     125.206 135.404 128.318  1.00  0.00     0.208 A 
ATOM     11  C   UNL     1     125.164 134.543 129.443  1.00  0.00     0.179 A 
ENDROOT
BRANCH   1  12
ATOM     12  C   UNL     1     128.946 130.311 129.641  1.00  0.00     0.021 A 
ATOM     13  C   UNL     1     130.853 128.231 129.574  1.00  0.00     0.160 A 
ATOM     14  C   UNL     1     130.876 129.233 128.593  1.00  0.00     0.161 A 
ATOM     15  C   UNL     1     129.874 128.271 130.584  1.00  0.00     0.051 A 
ATOM     16  C   UNL     1     129.922 130.267 128.633  1.00  0.00     0.062 A 
ATOM     17  C   UNL     1     128.927 129.297 130.612  1.00  0.00     0.016 A 
BRANCH  13  18
ATOM     18  O   UNL     1     131.818 127.213 129.512  1.00  0.00    -0.493 OA
ATOM     19  C   UNL     1     133.059 127.235 130.209  1.00  0.00     0.278 C 
ENDBRANCH  13  18
BRANCH  14  20
ATOM     20  O   UNL     1     131.862 129.165 127.595  1.00  0.00    -0.493 OA
ATOM     21  C   UNL     1     132.975 130.049 127.500  1.00  0.00     0.278 C 
ENDBRANCH  14  20
ENDBRANCH   1  12
BRANCH   8  22
ATOM     22  O   UNL     1     128.007 133.934 126.345  1.00  0.00    -0.490 OA
ATOM     23  C   UNL     1     127.897 133.055 125.228  1.00  0.00     0.278 C 
ENDBRANCH   8  22
BRANCH  11  24
ATOM     24  O   UNL     1     124.230 134.703 130.490  1.00  0.00    -0.492 OA
ATOM     25  C   UNL     1     122.873 134.274 130.526  1.00  0.00     0.278 C 
ENDBRANCH  11  24
BRANCH   9  26
ATOM     26  O   UNL     1     126.091 136.022 126.154  1.00  0.00    -0.490 OA
ATOM     27  C   UNL     1     125.421 135.796 124.919  1.00  0.00     0.279 C 
ENDBRANCH   9  26
BRANCH  10  28
ATOM     28  O   UNL     1     124.285 136.464 128.260  1.00  0.00    -0.490 OA
ATOM     29  C   UNL     1     123.013 136.463 127.622  1.00  0.00     0.278 C 
ENDBRANCH  10  28
TORSDOF 7
ENDMDL
MODEL 4
REMARK VINA RESULT:    -6.195      1.466      3.621
REMARK INTER + INTRA:          -9.496
REMARK INTER:                  -8.694
REMARK INTRA:                  -0.802
REMARK UNBOUND:                -0.766
REMARK SMILES COc1ccc(-c2cc(=O)c3c(OC)c(OC)c(OC)c(OC)c3o2)cc1OC
REMARK SMILES IDX 7 1 8 2 9 3 10 4 11 5 24 6 25 7 21 8 18 9 15 10 12 11 6 12
REMARK SMILES IDX 3 13 27 14 4 15 26 16 5 17 2 18 1 19 28 20 29 21 22 22 23 23
REMARK SMILES IDX 13 24 14 25 19 26 20 27 16 28 17 29
REMARK H PARENT
REMARK Flexibility Score: inf
ROOT
ATOM      1  C   UNL     1     129.519 130.354 129.103  1.00  0.00     0.138 A 
ATOM      2  C   UNL     1     129.162 130.693 127.796  1.00  0.00     0.100 A 
ATOM      3  C   UNL     1     128.261 131.733 127.584  1.00  0.00     0.197 A 
ATOM      4  O   UNL     1     127.950 132.020 126.396  1.00  0.00    -0.289 OA
ATOM      5  C   UNL     1     127.717 132.432 128.689  1.00  0.00     0.115 A 
ATOM      6  C   UNL     1     128.117 132.025 129.985  1.00  0.00     0.188 A 
ATOM      7  O   UNL     1     128.980 131.020 130.120  1.00  0.00    -0.452 OA
ATOM      8  C   UNL     1     127.616 132.687 131.131  1.00  0.00     0.209 A 
ATOM      9  C   UNL     1     126.708 133.765 130.975  1.00  0.00     0.211 A 
ATOM     10  C   UNL     1     126.282 134.153 129.679  1.00  0.00     0.208 A 
ATOM     11  C   UNL     1     126.800 133.499 128.533  1.00  0.00     0.179 A 
ENDROOT
BRANCH   1  12
ATOM     12  C   UNL     1     130.480 129.258 129.383  1.00  0.00     0.021 A 
ATOM     13  C   UNL     1     132.347 127.216 129.941  1.00  0.00     0.160 A 
ATOM     14  C   UNL     1     132.082 128.202 130.902  1.00  0.00     0.161 A 
ATOM     15  C   UNL     1     131.680 127.256 128.703  1.00  0.00     0.051 A 
ATOM     16  C   UNL     1     131.149 129.217 130.616  1.00  0.00     0.062 A 
ATOM     17  C   UNL     1     130.762 128.270 128.425  1.00  0.00     0.016 A 
BRANCH  13  18
ATOM     18  O   UNL     1     133.279 126.214 130.254  1.00  0.00    -0.493 OA
ATOM     19  C   UNL     1     133.726 125.215 129.343  1.00  0.00     0.278 C 
ENDBRANCH  13  18
BRANCH  14  20
ATOM     20  O   UNL     1     132.765 128.140 132.128  1.00  0.00    -0.493 OA
ATOM     21  C   UNL     1     133.801 129.035 132.521  1.00  0.00     0.278 C 
ENDBRANCH  14  20
ENDBRANCH   1  12
BRANCH   8  22
ATOM     22  O   UNL     1     127.999 132.323 132.436  1.00  0.00    -0.490 OA
ATOM     23  C   UNL     1     129.192 132.689 133.125  1.00  0.00     0.278 C 
ENDBRANCH   8  22
BRANCH  11  24
ATOM     24  O   UNL     1     126.436 133.863 127.218  1.00  0.00    -0.492 OA
ATOM     25  C   UNL     1     126.705 135.088 126.543  1.00  0.00     0.278 C 
ENDBRANCH  11  24
BRANCH   9  26
ATOM     26  O   UNL     1     126.212 134.501 132.070  1.00  0.00    -0.490 OA
ATOM     27  C   UNL     1     125.084 134.206 132.887  1.00  0.00     0.279 C 
ENDBRANCH   9  26
BRANCH  10  28
ATOM     28  O   UNL     1     125.360 135.197 129.486  1.00  0.00    -0.490 OA
ATOM     29  C   UNL     1     123.946 135.086 129.387  1.00  0.00     0.278 C 
ENDBRANCH  10  28
TORSDOF 7
ENDMDL
MODEL 5
REMARK VINA RESULT:    -6.181      1.819      3.060
REMARK INTER + INTRA:          -9.476
REMARK INTER:                  -8.773
REMARK INTRA:                  -0.703
REMARK UNBOUND:                -0.766
REMARK SMILES COc1ccc(-c2cc(=O)c3c(OC)c(OC)c(OC)c(OC)c3o2)cc1OC
REMARK SMILES IDX 7 1 8 2 9 3 10 4 11 5 24 6 25 7 21 8 18 9 15 10 12 11 6 12
REMARK SMILES IDX 3 13 27 14 4 15 26 16 5 17 2 18 1 19 28 20 29 21 22 22 23 23
REMARK SMILES IDX 13 24 14 25 19 26 20 27 16 28 17 29
REMARK H PARENT
REMARK Flexibility Score: inf
ROOT
ATOM      1  C   UNL     1     128.252 131.245 131.189  1.00  0.00     0.138 A 
ATOM      2  C   UNL     1     127.364 131.460 132.246  1.00  0.00     0.100 A 
ATOM      3  C   UNL     1     126.241 132.256 132.041  1.00  0.00     0.197 A 
ATOM      4  O   UNL     1     125.455 132.439 133.009  1.00  0.00    -0.289 OA
ATOM      5  C   UNL     1     126.010 132.838 130.770  1.00  0.00     0.115 A 
ATOM      6  C   UNL     1     126.959 132.585 129.751  1.00  0.00     0.188 A 
ATOM      7  O   UNL     1     128.015 131.817 130.012  1.00  0.00    -0.452 OA
ATOM      8  C   UNL     1     126.784 133.131 128.457  1.00  0.00     0.209 A 
ATOM      9  C   UNL     1     125.649 133.936 128.186  1.00  0.00     0.211 A 
ATOM     10  C   UNL     1     124.714 134.216 129.215  1.00  0.00     0.208 A 
ATOM     11  C   UNL     1     124.884 133.653 130.504  1.00  0.00     0.179 A 
ENDROOT
BRANCH   1  12
ATOM     12  C   UNL     1     129.460 130.399 131.354  1.00  0.00     0.021 A 
ATOM     13  C   UNL     1     131.723 128.739 131.664  1.00  0.00     0.160 A 
ATOM     14  C   UNL     1     130.729 128.400 130.733  1.00  0.00     0.161 A 
ATOM     15  C   UNL     1     131.579 129.905 132.438  1.00  0.00     0.051 A 
ATOM     16  C   UNL     1     129.604 129.234 130.584  1.00  0.00     0.062 A 
ATOM     17  C   UNL     1     130.457 130.722 132.288  1.00  0.00     0.016 A 
BRANCH  13  18
ATOM     18  O   UNL     1     132.835 127.892 131.789  1.00  0.00    -0.493 OA
ATOM     19  C   UNL     1     134.123 128.169 131.251  1.00  0.00     0.278 C 
ENDBRANCH  13  18
BRANCH  14  20
ATOM     20  O   UNL     1     130.895 127.229 129.976  1.00  0.00    -0.493 OA
ATOM     21  C   UNL     1     131.379 127.196 128.637  1.00  0.00     0.278 C 
ENDBRANCH  14  20
ENDBRANCH   1  12
BRANCH   8  22
ATOM     22  O   UNL     1     127.696 132.892 127.411  1.00  0.00    -0.490 OA
ATOM     23  C   UNL     1     127.682 131.818 126.475  1.00  0.00     0.278 C 
ENDBRANCH   8  22
BRANCH  11  24
ATOM     24  O   UNL     1     123.970 133.872 131.557  1.00  0.00    -0.492 OA
ATOM     25  C   UNL     1     122.591 133.520 131.607  1.00  0.00     0.278 C 
ENDBRANCH  11  24
BRANCH   9  26
ATOM     26  O   UNL     1     125.387 134.467 126.906  1.00  0.00    -0.490 OA
ATOM     27  C   UNL     1     125.935 135.638 126.313  1.00  0.00     0.279 C 
ENDBRANCH   9  26
BRANCH  10  28
ATOM     28  O   UNL     1     123.593 135.035 128.992  1.00  0.00    -0.490 OA
ATOM     29  C   UNL     1     123.574 136.452 128.874  1.00  0.00     0.278 C 
ENDBRANCH  10  28
TORSDOF 7
ENDMDL
MODEL 6
REMARK VINA RESULT:    -6.178      3.913      9.791
REMARK INTER + INTRA:          -9.472
REMARK INTER:                  -8.914
REMARK INTRA:                  -0.558
REMARK UNBOUND:                -0.766
REMARK SMILES COc1ccc(-c2cc(=O)c3c(OC)c(OC)c(OC)c(OC)c3o2)cc1OC
REMARK SMILES IDX 7 1 8 2 9 3 10 4 11 5 24 6 25 7 21 8 18 9 15 10 12 11 6 12
REMARK SMILES IDX 3 13 27 14 4 15 26 16 5 17 2 18 1 19 28 20 29 21 22 22 23 23
REMARK SMILES IDX 13 24 14 25 19 26 20 27 16 28 17 29
REMARK H PARENT
REMARK Flexibility Score: inf
ROOT
ATOM      1  C   UNL     1     125.355 134.746 125.348  1.00  0.00     0.138 A 
ATOM      2  C   UNL     1     124.908 135.691 126.274  1.00  0.00     0.100 A 
ATOM      3  C   UNL     1     125.006 135.412 127.634  1.00  0.00     0.197 A 
ATOM      4  O   UNL     1     124.594 136.278 128.452  1.00  0.00    -0.289 OA
ATOM      5  C   UNL     1     125.554 134.179 128.064  1.00  0.00     0.115 A 
ATOM      6  C   UNL     1     125.975 133.265 127.068  1.00  0.00     0.188 A 
ATOM      7  O   UNL     1     125.852 133.591 125.782  1.00  0.00    -0.452 OA
ATOM      8  C   UNL     1     126.539 132.019 127.430  1.00  0.00     0.209 A 
ATOM      9  C   UNL     1     126.679 131.687 128.802  1.00  0.00     0.211 A 
ATOM     10  C   UNL     1     126.229 132.588 129.800  1.00  0.00     0.208 A 
ATOM     11  C   UNL     1     125.682 133.843 129.433  1.00  0.00     0.179 A 
ENDROOT
BRANCH   1  12
ATOM     12  C   UNL     1     125.278 134.997 123.887  1.00  0.00     0.021 A 
ATOM     13  C   UNL     1     125.076 135.453 121.109  1.00  0.00     0.160 A 
ATOM     14  C   UNL     1     123.993 135.756 121.948  1.00  0.00     0.161 A 
ATOM     15  C   UNL     1     126.254 134.921 121.662  1.00  0.00     0.051 A 
ATOM     16  C   UNL     1     124.102 135.526 123.333  1.00  0.00     0.062 A 
ATOM     17  C   UNL     1     126.352 134.690 123.035  1.00  0.00     0.016 A 
BRANCH  13  18
ATOM     18  O   UNL     1     124.940 135.696 119.733  1.00  0.00    -0.493 OA
ATOM     19  C   UNL     1     125.490 136.819 119.054  1.00  0.00     0.278 C 
ENDBRANCH  13  18
BRANCH  14  20
ATOM     20  O   UNL     1     122.827 136.283 121.369  1.00  0.00    -0.493 OA
ATOM     21  C   UNL     1     122.533 137.673 121.270  1.00  0.00     0.278 C 
ENDBRANCH  14  20
ENDBRANCH   1  12
BRANCH   8  22
ATOM     22  O   UNL     1     126.983 131.088 126.472  1.00  0.00    -0.490 OA
ATOM     23  C   UNL     1     126.242 130.016 125.894  1.00  0.00     0.278 C 
ENDBRANCH   8  22
BRANCH  11  24
ATOM     24  O   UNL     1     125.246 134.792 130.383  1.00  0.00    -0.492 OA
ATOM     25  C   UNL     1     125.878 135.162 131.604  1.00  0.00     0.278 C 
ENDBRANCH  11  24
BRANCH   9  26
ATOM     26  O   UNL     1     127.279 130.486 129.232  1.00  0.00    -0.490 OA
ATOM     27  C   UNL     1     128.638 130.263 129.590  1.00  0.00     0.279 C 
ENDBRANCH   9  26
BRANCH  10  28
ATOM     28  O   UNL     1     126.324 132.282 131.169  1.00  0.00    -0.490 OA
ATOM     29  C   UNL     1     125.404 131.523 131.945  1.00  0.00     0.278 C 
ENDBRANCH  10  28
TORSDOF 7
ENDMDL
MODEL 7
REMARK VINA RESULT:    -6.062      1.055      1.849
REMARK INTER + INTRA:          -9.308
REMARK INTER:                  -8.519
REMARK INTRA:                  -0.789
REMARK UNBOUND:                -0.766
REMARK SMILES COc1ccc(-c2cc(=O)c3c(OC)c(OC)c(OC)c(OC)c3o2)cc1OC
REMARK SMILES IDX 7 1 8 2 9 3 10 4 11 5 24 6 25 7 21 8 18 9 15 10 12 11 6 12
REMARK SMILES IDX 3 13 27 14 4 15 26 16 5 17 2 18 1 19 28 20 29 21 22 22 23 23
REMARK SMILES IDX 13 24 14 25 19 26 20 27 16 28 17 29
REMARK H PARENT
REMARK Flexibility Score: inf
ROOT
ATOM      1  C   UNL     1     130.207 129.536 130.884  1.00  0.00     0.138 A 
ATOM      2  C   UNL     1     129.612 130.018 132.053  1.00  0.00     0.100 A 
ATOM      3  C   UNL     1     128.494 130.841 131.959  1.00  0.00     0.197 A 
ATOM      4  O   UNL     1     127.975 131.267 133.026  1.00  0.00    -0.289 OA
ATOM      5  C   UNL     1     127.972 131.181 130.686  1.00  0.00     0.115 A 
ATOM      6  C   UNL     1     128.635 130.665 129.546  1.00  0.00     0.188 A 
ATOM      7  O   UNL     1     129.702 129.885 129.704  1.00  0.00    -0.452 OA
ATOM      8  C   UNL     1     128.160 130.961 128.246  1.00  0.00     0.209 A 
ATOM      9  C   UNL     1     127.014 131.781 128.090  1.00  0.00     0.211 A 
ATOM     10  C   UNL     1     126.369 132.325 129.230  1.00  0.00     0.208 A 
ATOM     11  C   UNL     1     126.836 132.011 130.531  1.00  0.00     0.179 A 
ENDROOT
BRANCH   1  12
ATOM     12  C   UNL     1     131.396 128.651 130.930  1.00  0.00     0.021 A 
ATOM     13  C   UNL     1     133.625 126.918 130.996  1.00  0.00     0.160 A 
ATOM     14  C   UNL     1     132.748 126.888 129.901  1.00  0.00     0.161 A 
ATOM     15  C   UNL     1     133.383 127.812 132.055  1.00  0.00     0.051 A 
ATOM     16  C   UNL     1     131.639 127.756 129.876  1.00  0.00     0.062 A 
ATOM     17  C   UNL     1     132.277 128.664 132.024  1.00  0.00     0.016 A 
BRANCH  13  18
ATOM     18  O   UNL     1     134.724 126.045 130.993  1.00  0.00    -0.493 OA
ATOM     19  C   UNL     1     135.722 126.002 132.007  1.00  0.00     0.278 C 
ENDBRANCH  13  18
BRANCH  14  20
ATOM     20  O   UNL     1     133.011 125.984 128.860  1.00  0.00    -0.493 OA
ATOM     21  C   UNL     1     133.611 126.337 127.617  1.00  0.00     0.278 C 
ENDBRANCH  14  20
ENDBRANCH   1  12
BRANCH   8  22
ATOM     22  O   UNL     1     128.780 130.457 127.087  1.00  0.00    -0.490 OA
ATOM     23  C   UNL     1     129.826 131.060 126.330  1.00  0.00     0.278 C 
ENDBRANCH   8  22
BRANCH  11  24
ATOM     24  O   UNL     1     126.215 132.498 131.701  1.00  0.00    -0.492 OA
ATOM     25  C   UNL     1     124.944 132.138 132.232  1.00  0.00     0.278 C 
ENDBRANCH  11  24
BRANCH   9  26
ATOM     26  O   UNL     1     126.458 132.072 126.827  1.00  0.00    -0.490 OA
ATOM     27  C   UNL     1     125.509 131.309 126.090  1.00  0.00     0.279 C 
ENDBRANCH   9  26
BRANCH  10  28
ATOM     28  O   UNL     1     125.248 133.166 129.114  1.00  0.00    -0.490 OA
ATOM     29  C   UNL     1     125.247 134.584 129.001  1.00  0.00     0.278 C 
ENDBRANCH  10  28
TORSDOF 7
ENDMDL
MODEL 8
REMARK VINA RESULT:    -6.055      2.376      8.739
REMARK INTER + INTRA:          -9.298
REMARK INTER:                  -8.623
REMARK INTRA:                  -0.674
REMARK UNBOUND:                -0.766
REMARK SMILES COc1ccc(-c2cc(=O)c3c(OC)c(OC)c(OC)c(OC)c3o2)cc1OC
REMARK SMILES IDX 7 1 8 2 9 3 10 4 11 5 24 6 25 7 21 8 18 9 15 10 12 11 6 12
REMARK SMILES IDX 3 13 27 14 4 15 26 16 5 17 2 18 1 19 28 20 29 21 22 22 23 23
REMARK SMILES IDX 13 24 14 25 19 26 20 27 16 28 17 29
REMARK H PARENT
REMARK Flexibility Score: inf
ROOT
ATOM      1  C   UNL     1     128.892 132.561 128.233  1.00  0.00     0.138 A 
ATOM      2  C   UNL     1     129.294 131.735 127.180  1.00  0.00     0.100 A 
ATOM      3  C   UNL     1     130.318 130.816 127.388  1.00  0.00     0.197 A 
ATOM      4  O   UNL     1     130.668 130.083 126.423  1.00  0.00    -0.289 OA
ATOM      5  C   UNL     1     130.941 130.727 128.657  1.00  0.00     0.115 A 
ATOM      6  C   UNL     1     130.488 131.604 129.672  1.00  0.00     0.188 A 
ATOM      7  O   UNL     1     129.505 132.463 129.409  1.00  0.00    -0.452 OA
ATOM      8  C   UNL     1     131.063 131.561 130.965  1.00  0.00     0.209 A 
ATOM      9  C   UNL     1     132.099 130.633 131.239  1.00  0.00     0.211 A 
ATOM     10  C   UNL     1     132.575 129.776 130.214  1.00  0.00     0.208 A 
ATOM     11  C   UNL     1     131.985 129.810 128.926  1.00  0.00     0.179 A 
ENDROOT
BRANCH   1  12
ATOM     12  C   UNL     1     127.801 133.552 128.065  1.00  0.00     0.021 A 
ATOM     13  C   UNL     1     125.684 135.397 127.771  1.00  0.00     0.160 A 
ATOM     14  C   UNL     1     125.799 134.646 128.951  1.00  0.00     0.161 A 
ATOM     15  C   UNL     1     126.626 135.220 126.742  1.00  0.00     0.051 A 
ATOM     16  C   UNL     1     126.857 133.728 129.090  1.00  0.00     0.062 A 
ATOM     17  C   UNL     1     127.669 134.303 126.885  1.00  0.00     0.016 A 
BRANCH  13  18
ATOM     18  O   UNL     1     124.621 136.307 127.661  1.00  0.00    -0.493 OA
ATOM     19  C   UNL     1     123.489 136.126 126.819  1.00  0.00     0.278 C 
ENDBRANCH  13  18
BRANCH  14  20
ATOM     20  O   UNL     1     124.842 134.841 129.961  1.00  0.00    -0.493 OA
ATOM     21  C   UNL     1     124.697 134.006 131.106  1.00  0.00     0.278 C 
ENDBRANCH  14  20
ENDBRANCH   1  12
BRANCH   8  22
ATOM     22  O   UNL     1     130.632 132.405 132.007  1.00  0.00    -0.490 OA
ATOM     23  C   UNL     1     129.601 132.154 132.958  1.00  0.00     0.278 C 
ENDBRANCH   8  22
BRANCH  11  24
ATOM     24  O   UNL     1     132.396 128.960 127.877  1.00  0.00    -0.492 OA
ATOM     25  C   UNL     1     132.186 127.557 127.754  1.00  0.00     0.278 C 
ENDBRANCH  11  24
BRANCH   9  26
ATOM     26  O   UNL     1     132.678 130.502 132.518  1.00  0.00    -0.490 OA
ATOM     27  C   UNL     1     133.662 131.332 133.125  1.00  0.00     0.279 C 
ENDBRANCH   9  26
BRANCH  10  28
ATOM     28  O   UNL     1     133.621 128.864 130.440  1.00  0.00    -0.490 OA
ATOM     29  C   UNL     1     133.549 127.634 131.149  1.00  0.00     0.278 C 
ENDBRANCH  10  28
TORSDOF 7
ENDMDL
MODEL 9
REMARK VINA RESULT:    -6.040      3.695      7.141
REMARK INTER + INTRA:          -9.277
REMARK INTER:                  -8.494
REMARK INTRA:                  -0.783
REMARK UNBOUND:                -0.766
REMARK SMILES COc1ccc(-c2cc(=O)c3c(OC)c(OC)c(OC)c(OC)c3o2)cc1OC
REMARK SMILES IDX 7 1 8 2 9 3 10 4 11 5 24 6 25 7 21 8 18 9 15 10 12 11 6 12
REMARK SMILES IDX 3 13 27 14 4 15 26 16 5 17 2 18 1 19 28 20 29 21 22 22 23 23
REMARK SMILES IDX 13 24 14 25 19 26 20 27 16 28 17 29
REMARK H PARENT
REMARK Flexibility Score: inf
ROOT
ATOM      1  C   UNL     1     134.473 125.674 127.666  1.00  0.00     0.138 A 
ATOM      2  C   UNL     1     134.677 125.236 128.977  1.00  0.00     0.100 A 
ATOM      3  C   UNL     1     134.261 126.038 130.036  1.00  0.00     0.197 A 
ATOM      4  O   UNL     1     134.457 125.625 131.210  1.00  0.00    -0.289 OA
ATOM      5  C   UNL     1     133.640 127.285 129.776  1.00  0.00     0.115 A 
ATOM      6  C   UNL     1     133.478 127.668 128.423  1.00  0.00     0.188 A 
ATOM      7  O   UNL     1     133.900 126.856 127.455  1.00  0.00    -0.452 OA
ATOM      8  C   UNL     1     132.858 128.897 128.095  1.00  0.00     0.209 A 
ATOM      9  C   UNL     1     132.399 129.747 129.132  1.00  0.00     0.211 A 
ATOM     10  C   UNL     1     132.590 129.380 130.489  1.00  0.00     0.208 A 
ATOM     11  C   UNL     1     133.195 128.140 130.813  1.00  0.00     0.179 A 
ENDROOT
BRANCH   1  12
ATOM     12  C   UNL     1     134.892 124.854 126.503  1.00  0.00     0.021 A 
ATOM     13  C   UNL     1     135.746 123.314 124.296  1.00  0.00     0.160 A 
ATOM     14  C   UNL     1     136.531 123.367 125.458  1.00  0.00     0.161 A 
ATOM     15  C   UNL     1     134.539 124.033 124.241  1.00  0.00     0.051 A 
ATOM     16  C   UNL     1     136.097 124.137 126.554  1.00  0.00     0.062 A 
ATOM     17  C   UNL     1     134.120 124.800 125.330  1.00  0.00     0.016 A 
BRANCH  13  18
ATOM     18  O   UNL     1     136.200 122.535 123.220  1.00  0.00    -0.493 OA
ATOM     19  C   UNL     1     135.630 121.292 122.827  1.00  0.00     0.278 C 
ENDBRANCH  13  18
BRANCH  14  20
ATOM     20  O   UNL     1     137.733 122.642 125.484  1.00  0.00    -0.493 OA
ATOM     21  C   UNL     1     137.866 121.319 125.994  1.00  0.00     0.278 C 
ENDBRANCH  14  20
ENDBRANCH   1  12
BRANCH   8  22
ATOM     22  O   UNL     1     132.664 129.308 126.762  1.00  0.00    -0.490 OA
ATOM     23  C   UNL     1     133.550 130.079 125.954  1.00  0.00     0.278 C 
ENDBRANCH   8  22
BRANCH  11  24
ATOM     24  O   UNL     1     133.381 127.708 132.144  1.00  0.00    -0.492 OA
ATOM     25  C   UNL     1     134.267 128.242 133.122  1.00  0.00     0.278 C 
ENDBRANCH  11  24
BRANCH   9  26
ATOM     26  O   UNL     1     131.727 130.960 128.875  1.00  0.00    -0.490 OA
ATOM     27  C   UNL     1     130.335 131.162 128.659  1.00  0.00     0.279 C 
ENDBRANCH   9  26
BRANCH  10  28
ATOM     28  O   UNL     1     132.175 130.211 131.544  1.00  0.00    -0.490 OA
ATOM     29  C   UNL     1     130.934 130.165 132.237  1.00  0.00     0.278 C 
ENDBRANCH  10  28
TORSDOF 7
ENDMDL
