MODEL 1
REMARK VINA RESULT:    -4.217      0.000      0.000
REMARK INTER + INTRA:          -6.259
REMARK INTER:                  -6.436
REMARK INTRA:                   0.176
REMARK UNBOUND:                 0.176
REMARK SMILES CC1=CCC[C@@H](C)C(=O)C[C@@H](C(C)C)C(=O)C1
REMARK SMILES IDX 8 1 9 2 6 3 7 4 5 5 4 6 3 7 2 8 1 9 10 11 11 12 15 13 16 14
REMARK SMILES IDX 17 15 12 17 13 18 14 19
REMARK H PARENT
REMARK Flexibility Score: 70.00
ROOT
ATOM      1  C   UNL     1     100.405 134.980 125.613  1.00  0.00     0.136 C 
ATOM      2  O   UNL     1      99.374 135.379 125.091  1.00  0.00    -0.299 OA
ENDROOT
BRANCH   1   3
ATOM      3  C   UNL     1     101.650 135.843 125.498  1.00  0.00     0.053 C 
ATOM      4  C   UNL     1     101.383 137.037 124.572  1.00  0.00     0.016 C 
BRANCH   3   5
ATOM      5  C   UNL     1     102.843 135.014 124.979  1.00  0.00     0.015 C 
BRANCH   5   6
ATOM      6  C   UNL     1     102.947 135.002 123.444  1.00  0.00     0.028 C 
BRANCH   6   7
ATOM      7  C   UNL     1     103.321 133.635 122.920  1.00  0.00    -0.028 C 
ATOM      8  C   UNL     1     102.467 132.628 122.618  1.00  0.00    -0.070 CG0
ATOM      9  C   UNL     1     103.062 131.334 122.116  1.00  0.00     0.039 C 
ATOM     10  G   UNL     1     100.960 132.705 122.795  1.00  0.00     0.000 G0
ENDBRANCH   6   7
ENDBRANCH   5   6
ENDBRANCH   3   5
ENDBRANCH   1   3
BRANCH   1  11
ATOM     11  C   UNL     1     100.381 133.596 126.239  1.00  0.00     0.087 C 
BRANCH  11  12
ATOM     12  C   UNL     1     101.149 132.482 125.475  1.00  0.00     0.066 C 
BRANCH  12  13
ATOM     13  C   UNL     1     100.543 132.088 124.129  1.00  0.00     0.140 C 
ATOM     14  O   UNL     1      99.626 131.278 124.133  1.00  0.00    -0.299 OA
BRANCH  13  15
ATOM     15  C   UNL     1     100.953 132.686 122.801  1.00  0.00     0.106 CG0
ATOM     16  G   UNL     1     102.460 132.622 122.616  1.00  0.00     0.000 G0
ENDBRANCH  13  15
ENDBRANCH  12  13
BRANCH  12  17
ATOM     17  C   UNL     1     101.399 131.236 126.380  1.00  0.00    -0.006 C 
ATOM     18  C   UNL     1     102.889 130.911 126.576  1.00  0.00     0.008 C 
ATOM     19  C   UNL     1     100.703 131.366 127.744  1.00  0.00     0.008 C 
ENDBRANCH  12  17
ENDBRANCH  11  12
ENDBRANCH   1  11
TORSDOF 1
ENDMDL
MODEL 2
REMARK VINA RESULT:    -3.437     13.726     15.913
REMARK INTER + INTRA:          -5.069
REMARK INTER:                  -4.819
REMARK INTRA:                  -0.251
REMARK UNBOUND:                 0.176
REMARK SMILES CC1=CCC[C@@H](C)C(=O)C[C@@H](C(C)C)C(=O)C1
REMARK SMILES IDX 8 1 9 2 6 3 7 4 5 5 4 6 3 7 2 8 1 9 10 11 11 12 15 13 16 14
REMARK SMILES IDX 17 15 12 17 13 18 14 19
REMARK H PARENT
REMARK Flexibility Score: 70.00
ROOT
ATOM      1  C   UNL     1      96.637 138.225 136.341  1.00  0.00     0.136 C 
ATOM      2  O   UNL     1      95.505 137.786 136.189  1.00  0.00    -0.299 OA
ENDROOT
BRANCH   1   3
ATOM      3  C   UNL     1      97.423 137.777 137.562  1.00  0.00     0.053 C 
ATOM      4  C   UNL     1      97.832 136.305 137.416  1.00  0.00     0.016 C 
BRANCH   3   5
ATOM      5  C   UNL     1      96.598 137.984 138.849  1.00  0.00     0.015 C 
BRANCH   5   6
ATOM      6  C   UNL     1      96.699 139.414 139.406  1.00  0.00     0.028 C 
BRANCH   6   7
ATOM      7  C   UNL     1      95.379 140.144 139.313  1.00  0.00    -0.028 C 
ATOM      8  C   UNL     1      95.136 141.279 138.616  1.00  0.00    -0.070 CG0
ATOM      9  C   UNL     1      93.739 141.848 138.672  1.00  0.00     0.039 C 
ATOM     10  G   UNL     1      96.188 142.035 137.822  1.00  0.00     0.000 G0
ENDBRANCH   6   7
ENDBRANCH   5   6
ENDBRANCH   3   5
ENDBRANCH   1   3
BRANCH   1  11
ATOM     11  C   UNL     1      97.119 139.273 135.353  1.00  0.00     0.087 C 
BRANCH  11  12
ATOM     12  C   UNL     1      97.525 140.648 135.952  1.00  0.00     0.066 C 
BRANCH  12  13
ATOM     13  C   UNL     1      96.359 141.518 136.420  1.00  0.00     0.140 C 
ATOM     14  O   UNL     1      95.461 141.743 135.620  1.00  0.00    -0.299 OA
BRANCH  13  15
ATOM     15  C   UNL     1      96.208 142.057 137.826  1.00  0.00     0.106 CG0
ATOM     16  G   UNL     1      95.159 141.277 138.600  1.00  0.00     0.000 G0
ENDBRANCH  13  15
ENDBRANCH  12  13
BRANCH  12  17
ATOM     17  C   UNL     1      98.477 141.430 134.994  1.00  0.00    -0.006 C 
ATOM     18  C   UNL     1      99.966 141.121 135.225  1.00  0.00     0.008 C 
ATOM     19  C   UNL     1      98.115 141.210 133.517  1.00  0.00     0.008 C 
ENDBRANCH  12  17
ENDBRANCH  11  12
ENDBRANCH   1  11
TORSDOF 1
ENDMDL
MODEL 3
REMARK VINA RESULT:    -3.375     14.432     16.313
REMARK INTER + INTRA:          -4.975
REMARK INTER:                  -4.560
REMARK INTRA:                  -0.415
REMARK UNBOUND:                 0.176
REMARK SMILES CC1=CCC[C@@H](C)C(=O)C[C@@H](C(C)C)C(=O)C1
REMARK SMILES IDX 8 1 9 2 6 3 7 4 5 5 4 6 3 7 2 8 1 9 10 11 11 12 15 13 16 14
REMARK SMILES IDX 17 15 12 17 13 18 14 19
REMARK H PARENT
REMARK Flexibility Score: 70.00
ROOT
ATOM      1  C   UNL     1      97.832 141.660 136.035  1.00  0.00     0.136 C 
ATOM      2  O   UNL     1      99.025 141.848 136.230  1.00  0.00    -0.299 OA
ENDROOT
BRANCH   1   3
ATOM      3  C   UNL     1      97.287 141.892 134.636  1.00  0.00     0.053 C 
ATOM      4  C   UNL     1      98.328 141.478 133.587  1.00  0.00     0.016 C 
BRANCH   3   5
ATOM      5  C   UNL     1      96.886 143.370 134.445  1.00  0.00     0.015 C 
BRANCH   5   6
ATOM      6  C   UNL     1      95.383 143.619 134.660  1.00  0.00     0.028 C 
BRANCH   6   7
ATOM      7  C   UNL     1      95.115 144.324 135.969  1.00  0.00    -0.028 C 
ATOM      8  C   UNL     1      94.359 143.860 136.992  1.00  0.00    -0.070 CG0
ATOM      9  C   UNL     1      94.215 144.741 138.210  1.00  0.00     0.039 C 
ATOM     10  G   UNL     1      93.615 142.536 136.971  1.00  0.00     0.000 G0
ENDBRANCH   6   7
ENDBRANCH   5   6
ENDBRANCH   3   5
ENDBRANCH   1   3
BRANCH   1  11
ATOM     11  C   UNL     1      96.972 141.317 137.239  1.00  0.00     0.087 C 
BRANCH  11  12
ATOM     12  C   UNL     1      95.572 140.714 136.936  1.00  0.00     0.066 C 
BRANCH  12  13
ATOM     13  C   UNL     1      94.402 141.422 137.618  1.00  0.00     0.140 C 
ATOM     14  O   UNL     1      94.145 141.112 138.773  1.00  0.00    -0.299 OA
BRANCH  13  15
ATOM     15  C   UNL     1      93.589 142.530 136.984  1.00  0.00     0.106 CG0
ATOM     16  G   UNL     1      94.357 143.841 136.989  1.00  0.00     0.000 G0
ENDBRANCH  13  15
ENDBRANCH  12  13
BRANCH  12  17
ATOM     17  C   UNL     1      95.544 139.175 137.197  1.00  0.00    -0.006 C 
ATOM     18  C   UNL     1      95.585 138.336 135.909  1.00  0.00     0.008 C 
ATOM     19  C   UNL     1      96.665 138.733 138.151  1.00  0.00     0.008 C 
ENDBRANCH  12  17
ENDBRANCH  11  12
ENDBRANCH   1  11
TORSDOF 1
ENDMDL
MODEL 4
REMARK VINA RESULT:    -3.358     12.991     14.557
REMARK INTER + INTRA:          -4.948
REMARK INTER:                  -4.988
REMARK INTRA:                   0.040
REMARK UNBOUND:                 0.176
REMARK SMILES CC1=CCC[C@@H](C)C(=O)C[C@@H](C(C)C)C(=O)C1
REMARK SMILES IDX 8 1 9 2 6 3 7 4 5 5 4 6 3 7 2 8 1 9 10 11 11 12 15 13 16 14
REMARK SMILES IDX 17 15 12 17 13 18 14 19
REMARK H PARENT
REMARK Flexibility Score: 70.00
ROOT
ATOM      1  C   UNL     1      99.671 141.083 135.189  1.00  0.00     0.136 C 
ATOM      2  O   UNL     1     100.786 141.203 134.698  1.00  0.00    -0.299 OA
ENDROOT
BRANCH   1   3
ATOM      3  C   UNL     1      98.469 141.130 134.260  1.00  0.00     0.053 C 
ATOM      4  C   UNL     1      97.549 142.297 134.643  1.00  0.00     0.016 C 
BRANCH   3   5
ATOM      5  C   UNL     1      97.694 139.796 134.303  1.00  0.00     0.015 C 
BRANCH   5   6
ATOM      6  C   UNL     1      96.826 139.643 135.564  1.00  0.00     0.028 C 
BRANCH   6   7
ATOM      7  C   UNL     1      96.874 138.235 136.109  1.00  0.00    -0.028 C 
ATOM      8  C   UNL     1      97.432 137.845 137.280  1.00  0.00    -0.070 CG0
ATOM      9  C   UNL     1      97.378 136.377 137.625  1.00  0.00     0.039 C 
ATOM     10  G   UNL     1      98.145 138.783 138.240  1.00  0.00     0.000 G0
ENDBRANCH   6   7
ENDBRANCH   5   6
ENDBRANCH   3   5
ENDBRANCH   1   3
BRANCH   1  11
ATOM     11  C   UNL     1      99.577 141.009 136.702  1.00  0.00     0.087 C 
BRANCH  11  12
ATOM     12  C   UNL     1     100.443 139.919 137.393  1.00  0.00     0.066 C 
BRANCH  12  13
ATOM     13  C   UNL     1      99.654 138.782 138.040  1.00  0.00     0.140 C 
ATOM     14  O   UNL     1     100.285 137.826 138.472  1.00  0.00    -0.299 OA
BRANCH  13  15
ATOM     15  C   UNL     1      98.155 138.794 138.247  1.00  0.00     0.106 CG0
ATOM     16  G   UNL     1      97.463 137.856 137.272  1.00  0.00     0.000 G0
ENDBRANCH  13  15
ENDBRANCH  12  13
BRANCH  12  17
ATOM     17  C   UNL     1     101.467 140.548 138.389  1.00  0.00    -0.006 C 
ATOM     18  C   UNL     1     102.930 140.210 138.057  1.00  0.00     0.008 C 
ATOM     19  C   UNL     1     101.291 142.070 138.510  1.00  0.00     0.008 C 
ENDBRANCH  12  17
ENDBRANCH  11  12
ENDBRANCH   1  11
TORSDOF 1
ENDMDL
MODEL 5
REMARK VINA RESULT:    -3.350     13.723     15.625
REMARK INTER + INTRA:          -4.937
REMARK INTER:                  -4.549
REMARK INTRA:                  -0.388
REMARK UNBOUND:                 0.176
REMARK SMILES CC1=CCC[C@@H](C)C(=O)C[C@@H](C(C)C)C(=O)C1
REMARK SMILES IDX 8 1 9 2 6 3 7 4 5 5 4 6 3 7 2 8 1 9 10 11 11 12 15 13 16 14
REMARK SMILES IDX 17 15 12 17 13 18 14 19
REMARK H PARENT
REMARK Flexibility Score: 70.00
ROOT
ATOM      1  C   UNL     1      97.277 142.801 137.242  1.00  0.00     0.136 C 
ATOM      2  O   UNL     1      97.678 143.314 138.279  1.00  0.00    -0.299 OA
ENDROOT
BRANCH   1   3
ATOM      3  C   UNL     1      96.031 143.378 136.590  1.00  0.00     0.053 C 
ATOM      4  C   UNL     1      96.168 144.899 136.441  1.00  0.00     0.016 C 
BRANCH   3   5
ATOM      5  C   UNL     1      94.774 143.026 137.412  1.00  0.00     0.015 C 
BRANCH   5   6
ATOM      6  C   UNL     1      94.090 141.730 136.944  1.00  0.00     0.028 C 
BRANCH   6   7
ATOM      7  C   UNL     1      94.345 140.588 137.899  1.00  0.00    -0.028 C 
ATOM      8  C   UNL     1      94.925 139.402 137.598  1.00  0.00    -0.070 CG0
ATOM      9  C   UNL     1      95.072 138.392 138.710  1.00  0.00     0.039 C 
ATOM     10  G   UNL     1      95.394 139.011 136.206  1.00  0.00     0.000 G0
ENDBRANCH   6   7
ENDBRANCH   5   6
ENDBRANCH   3   5
ENDBRANCH   1   3
BRANCH   1  11
ATOM     11  C   UNL     1      97.998 141.557 136.754  1.00  0.00     0.087 C 
BRANCH  11  12
ATOM     12  C   UNL     1      97.314 140.777 135.596  1.00  0.00     0.066 C 
BRANCH  12  13
ATOM     13  C   UNL     1      96.842 139.369 135.956  1.00  0.00     0.140 C 
ATOM     14  O   UNL     1      97.696 138.508 136.123  1.00  0.00    -0.299 OA
BRANCH  13  15
ATOM     15  C   UNL     1      95.397 138.989 136.191  1.00  0.00     0.106 CG0
ATOM     16  G   UNL     1      94.947 139.388 137.587  1.00  0.00     0.000 G0
ENDBRANCH  13  15
ENDBRANCH  12  13
BRANCH  12  17
ATOM     17  C   UNL     1      98.198 140.775 134.309  1.00  0.00    -0.006 C 
ATOM     18  C   UNL     1      97.888 141.940 133.354  1.00  0.00     0.008 C 
ATOM     19  C   UNL     1      99.698 140.748 134.640  1.00  0.00     0.008 C 
ENDBRANCH  12  17
ENDBRANCH  11  12
ENDBRANCH   1  11
TORSDOF 1
ENDMDL
MODEL 6
REMARK VINA RESULT:    -3.323     13.401     15.035
REMARK INTER + INTRA:          -4.894
REMARK INTER:                  -4.769
REMARK INTRA:                  -0.126
REMARK UNBOUND:                 0.176
REMARK SMILES CC1=CCC[C@@H](C)C(=O)C[C@@H](C(C)C)C(=O)C1
REMARK SMILES IDX 8 1 9 2 6 3 7 4 5 5 4 6 3 7 2 8 1 9 10 11 11 12 15 13 16 14
REMARK SMILES IDX 17 15 12 17 13 18 14 19
REMARK H PARENT
REMARK Flexibility Score: 70.00
ROOT
ATOM      1  C   UNL     1      95.429 142.609 135.569  1.00  0.00     0.136 C 
ATOM      2  O   UNL     1      94.826 143.544 135.059  1.00  0.00    -0.299 OA
ENDROOT
BRANCH   1   3
ATOM      3  C   UNL     1      96.949 142.642 135.557  1.00  0.00     0.053 C 
ATOM      4  C   UNL     1      97.452 144.010 136.038  1.00  0.00     0.016 C 
BRANCH   3   5
ATOM      5  C   UNL     1      97.489 142.334 134.145  1.00  0.00     0.015 C 
BRANCH   5   6
ATOM      6  C   UNL     1      97.964 140.879 133.985  1.00  0.00     0.028 C 
BRANCH   6   7
ATOM      7  C   UNL     1      98.491 140.317 135.284  1.00  0.00    -0.028 C 
ATOM      8  C   UNL     1      97.930 139.326 136.017  1.00  0.00    -0.070 CG0
ATOM      9  C   UNL     1      98.623 138.926 137.298  1.00  0.00     0.039 C 
ATOM     10  G   UNL     1      96.631 138.627 135.656  1.00  0.00     0.000 G0
ENDBRANCH   6   7
ENDBRANCH   5   6
ENDBRANCH   3   5
ENDBRANCH   1   3
BRANCH   1  11
ATOM     11  C   UNL     1      94.606 141.437 136.073  1.00  0.00     0.087 C 
BRANCH  11  12
ATOM     12  C   UNL     1      95.305 140.491 137.088  1.00  0.00     0.066 C 
BRANCH  12  13
ATOM     13  C   UNL     1      95.509 139.057 136.601  1.00  0.00     0.140 C 
ATOM     14  O   UNL     1      94.677 138.222 136.928  1.00  0.00    -0.299 OA
BRANCH  13  15
ATOM     15  C   UNL     1      96.630 138.620 135.683  1.00  0.00     0.106 CG0
ATOM     16  G   UNL     1      97.926 139.334 136.027  1.00  0.00     0.000 G0
ENDBRANCH  13  15
ENDBRANCH  12  13
BRANCH  12  17
ATOM     17  C   UNL     1      94.604 140.530 138.482  1.00  0.00    -0.006 C 
ATOM     18  C   UNL     1      95.368 141.358 139.528  1.00  0.00     0.008 C 
ATOM     19  C   UNL     1      93.150 141.018 138.382  1.00  0.00     0.008 C 
ENDBRANCH  12  17
ENDBRANCH  11  12
ENDBRANCH   1  11
TORSDOF 1
ENDMDL
MODEL 7
REMARK VINA RESULT:    -3.296     14.047     16.250
REMARK INTER + INTRA:          -4.854
REMARK INTER:                  -4.467
REMARK INTRA:                  -0.388
REMARK UNBOUND:                 0.176
REMARK SMILES CC1=CCC[C@@H](C)C(=O)C[C@@H](C(C)C)C(=O)C1
REMARK SMILES IDX 8 1 9 2 6 3 7 4 5 5 4 6 3 7 2 8 1 9 10 11 11 12 15 13 16 14
REMARK SMILES IDX 17 15 12 17 13 18 14 19
REMARK H PARENT
REMARK Flexibility Score: 70.00
ROOT
ATOM      1  C   UNL     1      97.653 141.771 134.498  1.00  0.00     0.136 C 
ATOM      2  O   UNL     1      98.132 141.475 133.411  1.00  0.00    -0.299 OA
ENDROOT
BRANCH   1   3
ATOM      3  C   UNL     1      98.029 140.925 135.703  1.00  0.00     0.053 C 
ATOM      4  C   UNL     1      99.556 140.858 135.848  1.00  0.00     0.016 C 
BRANCH   3   5
ATOM      5  C   UNL     1      97.437 139.505 135.579  1.00  0.00     0.015 C 
BRANCH   5   6
ATOM      6  C   UNL     1      95.959 139.430 135.999  1.00  0.00     0.028 C 
BRANCH   6   7
ATOM      7  C   UNL     1      95.731 140.050 137.357  1.00  0.00    -0.028 C 
ATOM      8  C   UNL     1      94.944 141.117 137.633  1.00  0.00    -0.070 CG0
ATOM      9  C   UNL     1      94.870 141.580 139.068  1.00  0.00     0.039 C 
ATOM     10  G   UNL     1      94.170 141.900 136.585  1.00  0.00     0.000 G0
ENDBRANCH   6   7
ENDBRANCH   5   6
ENDBRANCH   3   5
ENDBRANCH   1   3
BRANCH   1  11
ATOM     11  C   UNL     1      96.632 142.894 134.529  1.00  0.00     0.087 C 
BRANCH  11  12
ATOM     12  C   UNL     1      96.269 143.454 135.933  1.00  0.00     0.066 C 
BRANCH  12  13
ATOM     13  C   UNL     1      94.810 143.267 136.346  1.00  0.00     0.140 C 
ATOM     14  O   UNL     1      94.109 144.266 136.428  1.00  0.00    -0.299 OA
BRANCH  13  15
ATOM     15  C   UNL     1      94.159 141.923 136.590  1.00  0.00     0.106 CG0
ATOM     16  G   UNL     1      94.930 141.123 137.627  1.00  0.00     0.000 G0
ENDBRANCH  13  15
ENDBRANCH  12  13
BRANCH  12  17
ATOM     17  C   UNL     1      96.725 144.939 136.090  1.00  0.00    -0.006 C 
ATOM     18  C   UNL     1      97.999 145.101 136.936  1.00  0.00     0.008 C 
ATOM     19  C   UNL     1      96.902 145.634 134.731  1.00  0.00     0.008 C 
ENDBRANCH  12  17
ENDBRANCH  11  12
ENDBRANCH   1  11
TORSDOF 1
ENDMDL
MODEL 8
REMARK VINA RESULT:    -3.253     14.672     16.586
REMARK INTER + INTRA:          -4.788
REMARK INTER:                  -4.423
REMARK INTRA:                  -0.365
REMARK UNBOUND:                 0.176
REMARK SMILES CC1=CCC[C@@H](C)C(=O)C[C@@H](C(C)C)C(=O)C1
REMARK SMILES IDX 8 1 9 2 6 3 7 4 5 5 4 6 3 7 2 8 1 9 10 11 11 12 15 13 16 14
REMARK SMILES IDX 17 15 12 17 13 18 14 19
REMARK H PARENT
REMARK Flexibility Score: 70.00
ROOT
ATOM      1  C   UNL     1      96.926 143.546 136.124  1.00  0.00     0.136 C 
ATOM      2  O   UNL     1      97.324 144.543 136.711  1.00  0.00    -0.299 OA
ENDROOT
BRANCH   1   3
ATOM      3  C   UNL     1      95.832 143.715 135.083  1.00  0.00     0.053 C 
ATOM      4  C   UNL     1      96.341 144.569 133.914  1.00  0.00     0.016 C 
BRANCH   3   5
ATOM      5  C   UNL     1      94.575 144.353 135.711  1.00  0.00     0.015 C 
BRANCH   5   6
ATOM      6  C   UNL     1      93.592 143.315 136.279  1.00  0.00     0.028 C 
BRANCH   6   7
ATOM      7  C   UNL     1      93.717 143.190 137.779  1.00  0.00    -0.028 C 
ATOM      8  C   UNL     1      94.054 142.073 138.467  1.00  0.00    -0.070 CG0
ATOM      9  C   UNL     1      94.108 142.169 139.973  1.00  0.00     0.039 C 
ATOM     10  G   UNL     1      94.336 140.726 137.823  1.00  0.00     0.000 G0
ENDBRANCH   6   7
ENDBRANCH   5   6
ENDBRANCH   3   5
ENDBRANCH   1   3
BRANCH   1  11
ATOM     11  C   UNL     1      97.483 142.205 136.567  1.00  0.00     0.087 C 
BRANCH  11  12
ATOM     12  C   UNL     1      96.565 140.971 136.342  1.00  0.00     0.066 C 
BRANCH  12  13
ATOM     13  C   UNL     1      95.813 140.492 137.583  1.00  0.00     0.140 C 
ATOM     14  O   UNL     1      96.462 139.950 138.467  1.00  0.00    -0.299 OA
BRANCH  13  15
ATOM     15  C   UNL     1      94.334 140.708 137.820  1.00  0.00     0.106 CG0
ATOM     16  G   UNL     1      94.077 142.059 138.466  1.00  0.00     0.000 G0
ENDBRANCH  13  15
ENDBRANCH  12  13
BRANCH  12  17
ATOM     17  C   UNL     1      97.336 139.804 135.650  1.00  0.00    -0.006 C 
ATOM     18  C   UNL     1      96.504 138.517 135.516  1.00  0.00     0.008 C 
ATOM     19  C   UNL     1      97.895 140.216 134.280  1.00  0.00     0.008 C 
ENDBRANCH  12  17
ENDBRANCH  11  12
ENDBRANCH   1  11
TORSDOF 1
ENDMDL
MODEL 9
REMARK VINA RESULT:    -3.092     14.437     16.561
REMARK INTER + INTRA:          -4.542
REMARK INTER:                  -4.223
REMARK INTRA:                  -0.319
REMARK UNBOUND:                 0.176
REMARK SMILES CC1=CCC[C@@H](C)C(=O)C[C@@H](C(C)C)C(=O)C1
REMARK SMILES IDX 8 1 9 2 6 3 7 4 5 5 4 6 3 7 2 8 1 9 10 11 11 12 15 13 16 14
REMARK SMILES IDX 17 15 12 17 13 18 14 19
REMARK H PARENT
REMARK Flexibility Score: 70.00
ROOT
ATOM      1  C   UNL     1      96.338 139.695 137.133  1.00  0.00     0.136 C 
ATOM      2  O   UNL     1      97.321 138.969 137.200  1.00  0.00    -0.299 OA
ENDROOT
BRANCH   1   3
ATOM      3  C   UNL     1      95.382 139.722 138.315  1.00  0.00     0.053 C 
ATOM      4  C   UNL     1      94.060 139.037 137.943  1.00  0.00     0.016 C 
BRANCH   3   5
ATOM      5  C   UNL     1      95.128 141.172 138.777  1.00  0.00     0.015 C 
BRANCH   5   6
ATOM      6  C   UNL     1      93.752 141.709 138.349  1.00  0.00     0.028 C 
BRANCH   6   7
ATOM      7  C   UNL     1      93.799 143.187 138.044  1.00  0.00    -0.028 C 
ATOM      8  C   UNL     1      93.973 143.751 136.825  1.00  0.00    -0.070 CG0
ATOM      9  C   UNL     1      94.000 145.259 136.750  1.00  0.00     0.039 C 
ATOM     10  G   UNL     1      94.188 142.964 135.543  1.00  0.00     0.000 G0
ENDBRANCH   6   7
ENDBRANCH   5   6
ENDBRANCH   3   5
ENDBRANCH   1   3
BRANCH   1  11
ATOM     11  C   UNL     1      96.096 140.425 135.824  1.00  0.00     0.087 C 
BRANCH  11  12
ATOM     12  C   UNL     1      96.654 141.872 135.730  1.00  0.00     0.066 C 
BRANCH  12  13
ATOM     13  C   UNL     1      95.673 142.908 135.184  1.00  0.00     0.140 C 
ATOM     14  O   UNL     1      96.092 143.709 134.359  1.00  0.00    -0.299 OA
BRANCH  13  15
ATOM     15  C   UNL     1      94.204 142.963 135.542  1.00  0.00     0.106 CG0
ATOM     16  G   UNL     1      93.985 143.738 136.830  1.00  0.00     0.000 G0
ENDBRANCH  13  15
ENDBRANCH  12  13
BRANCH  12  17
ATOM     17  C   UNL     1      98.015 141.911 134.968  1.00  0.00    -0.006 C 
ATOM     18  C   UNL     1      99.239 141.863 135.899  1.00  0.00     0.008 C 
ATOM     19  C   UNL     1      98.114 140.803 133.908  1.00  0.00     0.008 C 
ENDBRANCH  12  17
ENDBRANCH  11  12
ENDBRANCH   1  11
TORSDOF 1
ENDMDL
