MODEL 1
REMARK VINA RESULT:    -5.383      0.000      0.000
REMARK INTER + INTRA:          -6.463
REMARK INTER:                  -6.484
REMARK INTRA:                   0.021
REMARK UNBOUND:                 0.021
REMARK SMILES O=c1c(O)c(-c2ccc(O)c(O)c2)oc2cc(O)cc(O)c12
REMARK SMILES IDX 5 1 3 2 2 3 1 4 22 5 20 6 19 7 17 8 16 9 15 10 14 11 6 12
REMARK SMILES IDX 7 13 8 14 9 15 13 16 11 17 10 18 12 20 4 22 21 24 18 26
REMARK H PARENT 10 19 12 21 4 23 21 25 18 27
REMARK Flexibility Score: inf
ROOT
ATOM      1  C   UNL     1      19.583  25.696  42.397  1.00  0.00     0.180 A 
ATOM      2  C   UNL     1      20.979  25.838  42.457  1.00  0.00     0.208 A 
ATOM      3  C   UNL     1      21.736  24.853  43.111  1.00  0.00     0.238 A 
ATOM      4  O   UNL     1      22.991  24.957  43.114  1.00  0.00    -0.285 OA
ATOM      5  C   UNL     1      21.086  23.748  43.711  1.00  0.00     0.111 A 
ATOM      6  C   UNL     1      21.749  22.711  44.435  1.00  0.00     0.134 A 
ATOM      7  C   UNL     1      21.019  21.599  44.873  1.00  0.00     0.093 A 
ATOM      8  C   UNL     1      19.640  21.518  44.671  1.00  0.00     0.123 A 
ATOM      9  C   UNL     1      18.974  22.552  44.019  1.00  0.00     0.094 A 
ATOM     10  C   UNL     1      19.679  23.658  43.538  1.00  0.00     0.146 A 
ATOM     11  O   UNL     1      19.008  24.616  42.912  1.00  0.00    -0.452 OA
ENDROOT
BRANCH   1  12
ATOM     12  C   UNL     1      18.715  26.706  41.746  1.00  0.00     0.025 A 
ATOM     13  C   UNL     1      17.779  26.341  40.762  1.00  0.00     0.016 A 
ATOM     14  C   UNL     1      16.989  27.314  40.145  1.00  0.00     0.051 A 
ATOM     15  C   UNL     1      17.130  28.665  40.490  1.00  0.00     0.157 A 
ATOM     16  C   UNL     1      18.868  28.063  42.074  1.00  0.00     0.062 A 
ATOM     17  C   UNL     1      18.077  29.039  41.458  1.00  0.00     0.158 A 
BRANCH  15  18
ATOM     18  O   UNL     1      16.339  29.632  39.874  1.00  0.00    -0.504 OA
ATOM     19  H   UNL     1      16.743  30.360  39.296  1.00  0.00     0.293 HD
ENDBRANCH  15  18
BRANCH  17  20
ATOM     20  O   UNL     1      18.248  30.375  41.819  1.00  0.00    -0.504 OA
ATOM     21  H   UNL     1      17.620  31.104  41.497  1.00  0.00     0.293 HD
ENDBRANCH  17  20
ENDBRANCH   1  12
BRANCH   2  22
ATOM     22  O   UNL     1      21.603  26.926  41.839  1.00  0.00    -0.502 OA
ATOM     23  H   UNL     1      21.632  27.847  42.259  1.00  0.00     0.293 HD
ENDBRANCH   2  22
BRANCH   6  24
ATOM     24  O   UNL     1      23.106  22.740  44.769  1.00  0.00    -0.507 OA
ATOM     25  H   UNL     1      23.497  23.260  45.539  1.00  0.00     0.293 HD
ENDBRANCH   6  24
BRANCH   8  26
ATOM     26  O   UNL     1      18.919  20.415  45.125  1.00  0.00    -0.508 OA
ATOM     27  H   UNL     1      18.013  20.180  44.737  1.00  0.00     0.293 HD
ENDBRANCH   8  26
TORSDOF 6
ENDMDL
MODEL 2
REMARK VINA RESULT:    -5.229      1.787      6.960
REMARK INTER + INTRA:          -6.279
REMARK INTER:                  -5.989
REMARK INTRA:                  -0.290
REMARK UNBOUND:                 0.021
REMARK SMILES O=c1c(O)c(-c2ccc(O)c(O)c2)oc2cc(O)cc(O)c12
REMARK SMILES IDX 5 1 3 2 2 3 1 4 22 5 20 6 19 7 17 8 16 9 15 10 14 11 6 12
REMARK SMILES IDX 7 13 8 14 9 15 13 16 11 17 10 18 12 20 4 22 21 24 18 26
REMARK H PARENT 10 19 12 21 4 23 21 25 18 27
REMARK Flexibility Score: inf
ROOT
ATOM      1  C   UNL     1      19.174  26.002  41.903  1.00  0.00     0.180 A 
ATOM      2  C   UNL     1      20.038  27.087  41.678  1.00  0.00     0.208 A 
ATOM      3  C   UNL     1      19.548  28.221  41.010  1.00  0.00     0.238 A 
ATOM      4  O   UNL     1      20.311  29.211  40.860  1.00  0.00    -0.285 OA
ATOM      5  C   UNL     1      18.206  28.248  40.560  1.00  0.00     0.111 A 
ATOM      6  C   UNL     1      17.615  29.328  39.837  1.00  0.00     0.134 A 
ATOM      7  C   UNL     1      16.243  29.302  39.558  1.00  0.00     0.093 A 
ATOM      8  C   UNL     1      15.455  28.207  39.916  1.00  0.00     0.123 A 
ATOM      9  C   UNL     1      16.034  27.122  40.569  1.00  0.00     0.094 A 
ATOM     10  C   UNL     1      17.393  27.133  40.895  1.00  0.00     0.146 A 
ATOM     11  O   UNL     1      17.903  26.084  41.528  1.00  0.00    -0.452 OA
ENDROOT
BRANCH   1  12
ATOM     12  C   UNL     1      19.624  24.763  42.578  1.00  0.00     0.025 A 
ATOM     13  C   UNL     1      19.753  24.698  43.977  1.00  0.00     0.016 A 
ATOM     14  C   UNL     1      20.203  23.526  44.590  1.00  0.00     0.051 A 
ATOM     15  C   UNL     1      20.542  22.407  43.816  1.00  0.00     0.157 A 
ATOM     16  C   UNL     1      19.985  23.647  41.806  1.00  0.00     0.062 A 
ATOM     17  C   UNL     1      20.435  22.471  42.417  1.00  0.00     0.158 A 
BRANCH  15  18
ATOM     18  O   UNL     1      20.989  21.239  44.432  1.00  0.00    -0.504 OA
ATOM     19  H   UNL     1      21.238  20.417  43.894  1.00  0.00     0.293 HD
ENDBRANCH  15  18
BRANCH  17  20
ATOM     20  O   UNL     1      20.772  21.379  41.618  1.00  0.00    -0.504 OA
ATOM     21  H   UNL     1      20.086  20.688  41.335  1.00  0.00     0.293 HD
ENDBRANCH  17  20
ENDBRANCH   1  12
BRANCH   2  22
ATOM     22  O   UNL     1      21.353  27.048  42.149  1.00  0.00    -0.502 OA
ATOM     23  H   UNL     1      21.616  27.407  43.060  1.00  0.00     0.293 HD
ENDBRANCH   2  22
BRANCH   6  24
ATOM     24  O   UNL     1      18.331  30.426  39.352  1.00  0.00    -0.507 OA
ATOM     25  H   UNL     1      17.985  31.373  39.329  1.00  0.00     0.293 HD
ENDBRANCH   6  24
BRANCH   8  26
ATOM     26  O   UNL     1      14.093  28.182  39.620  1.00  0.00    -0.508 OA
ATOM     27  H   UNL     1      13.695  28.787  38.911  1.00  0.00     0.293 HD
ENDBRANCH   8  26
TORSDOF 6
ENDMDL
MODEL 3
REMARK VINA RESULT:    -5.204      1.804      6.525
REMARK INTER + INTRA:          -6.248
REMARK INTER:                  -5.938
REMARK INTRA:                  -0.309
REMARK UNBOUND:                 0.021
REMARK SMILES O=c1c(O)c(-c2ccc(O)c(O)c2)oc2cc(O)cc(O)c12
REMARK SMILES IDX 5 1 3 2 2 3 1 4 22 5 20 6 19 7 17 8 16 9 15 10 14 11 6 12
REMARK SMILES IDX 7 13 8 14 9 15 13 16 11 17 10 18 12 20 4 22 21 24 18 26
REMARK H PARENT 10 19 12 21 4 23 21 25 18 27
REMARK Flexibility Score: inf
ROOT
ATOM      1  C   UNL     1      19.601  25.034  42.218  1.00  0.00     0.180 A 
ATOM      2  C   UNL     1      20.884  25.052  41.646  1.00  0.00     0.208 A 
ATOM      3  C   UNL     1      21.341  26.231  41.035  1.00  0.00     0.238 A 
ATOM      4  O   UNL     1      22.512  26.259  40.574  1.00  0.00    -0.285 OA
ATOM      5  C   UNL     1      20.502  27.371  40.989  1.00  0.00     0.111 A 
ATOM      6  C   UNL     1      20.846  28.606  40.361  1.00  0.00     0.134 A 
ATOM      7  C   UNL     1      19.992  29.707  40.490  1.00  0.00     0.093 A 
ATOM      8  C   UNL     1      18.776  29.601  41.169  1.00  0.00     0.123 A 
ATOM      9  C   UNL     1      18.404  28.384  41.735  1.00  0.00     0.094 A 
ATOM     10  C   UNL     1      19.251  27.276  41.654  1.00  0.00     0.146 A 
ATOM     11  O   UNL     1      18.864  26.138  42.217  1.00  0.00    -0.452 OA
ENDROOT
BRANCH   1  12
ATOM     12  C   UNL     1      19.040  23.821  42.858  1.00  0.00     0.025 A 
ATOM     13  C   UNL     1      19.340  23.493  44.192  1.00  0.00     0.016 A 
ATOM     14  C   UNL     1      18.820  22.330  44.767  1.00  0.00     0.051 A 
ATOM     15  C   UNL     1      18.004  21.473  44.016  1.00  0.00     0.157 A 
ATOM     16  C   UNL     1      18.240  22.948  42.103  1.00  0.00     0.062 A 
ATOM     17  C   UNL     1      17.716  21.784  42.676  1.00  0.00     0.158 A 
BRANCH  15  18
ATOM     18  O   UNL     1      17.485  20.316  44.593  1.00  0.00    -0.504 OA
ATOM     19  H   UNL     1      17.287  20.260  45.586  1.00  0.00     0.293 HD
ENDBRANCH  15  18
BRANCH  17  20
ATOM     20  O   UNL     1      16.915  20.948  41.899  1.00  0.00    -0.504 OA
ATOM     21  H   UNL     1      16.405  21.289  41.092  1.00  0.00     0.293 HD
ENDBRANCH  17  20
ENDBRANCH   1  12
BRANCH   2  22
ATOM     22  O   UNL     1      21.704  23.923  41.722  1.00  0.00    -0.502 OA
ATOM     23  H   UNL     1      21.866  23.424  42.589  1.00  0.00     0.293 HD
ENDBRANCH   2  22
BRANCH   6  24
ATOM     24  O   UNL     1      21.992  28.792  39.582  1.00  0.00    -0.507 OA
ATOM     25  H   UNL     1      22.022  28.718  38.577  1.00  0.00     0.293 HD
ENDBRANCH   6  24
BRANCH   8  26
ATOM     26  O   UNL     1      17.924  30.698  41.280  1.00  0.00    -0.508 OA
ATOM     27  H   UNL     1      18.262  31.645  41.153  1.00  0.00     0.293 HD
ENDBRANCH   8  26
TORSDOF 6
ENDMDL
MODEL 4
REMARK VINA RESULT:    -5.172      1.749      6.889
REMARK INTER + INTRA:          -6.210
REMARK INTER:                  -6.386
REMARK INTRA:                   0.177
REMARK UNBOUND:                 0.021
REMARK SMILES O=c1c(O)c(-c2ccc(O)c(O)c2)oc2cc(O)cc(O)c12
REMARK SMILES IDX 5 1 3 2 2 3 1 4 22 5 20 6 19 7 17 8 16 9 15 10 14 11 6 12
REMARK SMILES IDX 7 13 8 14 9 15 13 16 11 17 10 18 12 20 4 22 21 24 18 26
REMARK H PARENT 10 19 12 21 4 23 21 25 18 27
REMARK Flexibility Score: inf
ROOT
ATOM      1  C   UNL     1      19.305  26.567  41.619  1.00  0.00     0.180 A 
ATOM      2  C   UNL     1      20.083  27.529  40.954  1.00  0.00     0.208 A 
ATOM      3  C   UNL     1      19.448  28.451  40.105  1.00  0.00     0.238 A 
ATOM      4  O   UNL     1      20.144  29.344  39.555  1.00  0.00    -0.285 OA
ATOM      5  C   UNL     1      18.047  28.388  39.920  1.00  0.00     0.111 A 
ATOM      6  C   UNL     1      17.304  29.245  39.053  1.00  0.00     0.134 A 
ATOM      7  C   UNL     1      15.905  29.178  39.048  1.00  0.00     0.093 A 
ATOM      8  C   UNL     1      15.226  28.241  39.829  1.00  0.00     0.123 A 
ATOM      9  C   UNL     1      15.945  27.360  40.634  1.00  0.00     0.094 A 
ATOM     10  C   UNL     1      17.339  27.425  40.688  1.00  0.00     0.146 A 
ATOM     11  O   UNL     1      17.985  26.575  41.477  1.00  0.00    -0.452 OA
ENDROOT
BRANCH   1  12
ATOM     12  C   UNL     1      19.904  25.547  42.510  1.00  0.00     0.025 A 
ATOM     13  C   UNL     1      19.432  24.222  42.527  1.00  0.00     0.016 A 
ATOM     14  C   UNL     1      19.996  23.283  43.394  1.00  0.00     0.051 A 
ATOM     15  C   UNL     1      21.031  23.654  44.264  1.00  0.00     0.157 A 
ATOM     16  C   UNL     1      20.926  25.919  43.398  1.00  0.00     0.062 A 
ATOM     17  C   UNL     1      21.495  24.980  44.266  1.00  0.00     0.158 A 
BRANCH  15  18
ATOM     18  O   UNL     1      21.593  22.714  45.125  1.00  0.00    -0.504 OA
ATOM     19  H   UNL     1      22.149  22.992  45.925  1.00  0.00     0.293 HD
ENDBRANCH  15  18
BRANCH  17  20
ATOM     20  O   UNL     1      22.517  25.384  45.125  1.00  0.00    -0.504 OA
ATOM     21  H   UNL     1      23.017  26.256  44.993  1.00  0.00     0.293 HD
ENDBRANCH  17  20
ENDBRANCH   1  12
BRANCH   2  22
ATOM     22  O   UNL     1      21.463  27.587  41.168  1.00  0.00    -0.502 OA
ATOM     23  H   UNL     1      21.865  27.812  42.070  1.00  0.00     0.293 HD
ENDBRANCH   2  22
BRANCH   6  24
ATOM     24  O   UNL     1      17.889  30.153  38.165  1.00  0.00    -0.507 OA
ATOM     25  H   UNL     1      18.687  30.732  38.378  1.00  0.00     0.293 HD
ENDBRANCH   6  24
BRANCH   8  26
ATOM     26  O   UNL     1      13.835  28.170  39.806  1.00  0.00    -0.508 OA
ATOM     27  H   UNL     1      13.287  28.240  40.656  1.00  0.00     0.293 HD
ENDBRANCH   8  26
TORSDOF 6
ENDMDL
MODEL 5
REMARK VINA RESULT:    -5.059      2.179      6.981
REMARK INTER + INTRA:          -6.074
REMARK INTER:                  -5.743
REMARK INTRA:                  -0.331
REMARK UNBOUND:                 0.021
REMARK SMILES O=c1c(O)c(-c2ccc(O)c(O)c2)oc2cc(O)cc(O)c12
REMARK SMILES IDX 5 1 3 2 2 3 1 4 22 5 20 6 19 7 17 8 16 9 15 10 14 11 6 12
REMARK SMILES IDX 7 13 8 14 9 15 13 16 11 17 10 18 12 20 4 22 21 24 18 26
REMARK H PARENT 10 19 12 21 4 23 21 25 18 27
REMARK Flexibility Score: inf
ROOT
ATOM      1  C   UNL     1      20.813  25.643  42.533  1.00  0.00     0.180 A 
ATOM      2  C   UNL     1      19.933  24.633  42.107  1.00  0.00     0.208 A 
ATOM      3  C   UNL     1      18.702  24.999  41.537  1.00  0.00     0.238 A 
ATOM      4  O   UNL     1      17.942  24.092  41.107  1.00  0.00    -0.285 OA
ATOM      5  C   UNL     1      18.360  26.367  41.417  1.00  0.00     0.111 A 
ATOM      6  C   UNL     1      17.123  26.851  40.893  1.00  0.00     0.134 A 
ATOM      7  C   UNL     1      16.946  28.226  40.700  1.00  0.00     0.093 A 
ATOM      8  C   UNL     1      17.934  29.139  41.074  1.00  0.00     0.123 A 
ATOM      9  C   UNL     1      19.121  28.681  41.641  1.00  0.00     0.094 A 
ATOM     10  C   UNL     1      19.343  27.312  41.813  1.00  0.00     0.146 A 
ATOM     11  O   UNL     1      20.492  26.917  42.347  1.00  0.00    -0.452 OA
ENDROOT
BRANCH   1  12
ATOM     12  C   UNL     1      22.116  25.336  43.165  1.00  0.00     0.025 A 
ATOM     13  C   UNL     1      22.220  25.091  44.546  1.00  0.00     0.016 A 
ATOM     14  C   UNL     1      23.465  24.828  45.125  1.00  0.00     0.051 A 
ATOM     15  C   UNL     1      24.624  24.818  44.337  1.00  0.00     0.157 A 
ATOM     16  C   UNL     1      23.283  25.345  42.384  1.00  0.00     0.062 A 
ATOM     17  C   UNL     1      24.531  25.081  42.960  1.00  0.00     0.158 A 
BRANCH  15  18
ATOM     18  O   UNL     1      25.863  24.553  44.917  1.00  0.00    -0.504 OA
ATOM     19  H   UNL     1      26.715  24.544  44.369  1.00  0.00     0.293 HD
ENDBRANCH  15  18
BRANCH  17  20
ATOM     20  O   UNL     1      25.666  25.086  42.150  1.00  0.00    -0.504 OA
ATOM     21  H   UNL     1      26.118  24.229  41.852  1.00  0.00     0.293 HD
ENDBRANCH  17  20
ENDBRANCH   1  12
BRANCH   2  22
ATOM     22  O   UNL     1      20.299  23.289  42.214  1.00  0.00    -0.502 OA
ATOM     23  H   UNL     1      19.788  22.629  42.789  1.00  0.00     0.293 HD
ENDBRANCH   2  22
BRANCH   6  24
ATOM     24  O   UNL     1      16.037  26.030  40.574  1.00  0.00    -0.507 OA
ATOM     25  H   UNL     1      15.718  25.838  39.638  1.00  0.00     0.293 HD
ENDBRANCH   6  24
BRANCH   8  26
ATOM     26  O   UNL     1      17.744  30.508  40.894  1.00  0.00    -0.508 OA
ATOM     27  H   UNL     1      18.523  31.156  40.901  1.00  0.00     0.293 HD
ENDBRANCH   8  26
TORSDOF 6
ENDMDL
MODEL 6
REMARK VINA RESULT:    -4.945      1.604      7.289
REMARK INTER + INTRA:          -5.936
REMARK INTER:                  -5.609
REMARK INTRA:                  -0.327
REMARK UNBOUND:                 0.021
REMARK SMILES O=c1c(O)c(-c2ccc(O)c(O)c2)oc2cc(O)cc(O)c12
REMARK SMILES IDX 5 1 3 2 2 3 1 4 22 5 20 6 19 7 17 8 16 9 15 10 14 11 6 12
REMARK SMILES IDX 7 13 8 14 9 15 13 16 11 17 10 18 12 20 4 22 21 24 18 26
REMARK H PARENT 10 19 12 21 4 23 21 25 18 27
REMARK Flexibility Score: inf
ROOT
ATOM      1  C   UNL     1      18.970  25.081  42.110  1.00  0.00     0.180 A 
ATOM      2  C   UNL     1      17.874  24.673  41.331  1.00  0.00     0.208 A 
ATOM      3  C   UNL     1      17.140  25.643  40.628  1.00  0.00     0.238 A 
ATOM      4  O   UNL     1      16.193  25.266  39.889  1.00  0.00    -0.285 OA
ATOM      5  C   UNL     1      17.502  27.008  40.726  1.00  0.00     0.111 A 
ATOM      6  C   UNL     1      16.805  28.079  40.090  1.00  0.00     0.134 A 
ATOM      7  C   UNL     1      17.330  29.376  40.150  1.00  0.00     0.093 A 
ATOM      8  C   UNL     1      18.489  29.651  40.878  1.00  0.00     0.123 A 
ATOM      9  C   UNL     1      19.143  28.623  41.552  1.00  0.00     0.094 A 
ATOM     10  C   UNL     1      18.665  27.312  41.482  1.00  0.00     0.146 A 
ATOM     11  O   UNL     1      19.325  26.360  42.129  1.00  0.00    -0.452 OA
ENDROOT
BRANCH   1  12
ATOM     12  C   UNL     1      19.777  24.120  42.898  1.00  0.00     0.025 A 
ATOM     13  C   UNL     1      19.377  23.712  44.184  1.00  0.00     0.016 A 
ATOM     14  C   UNL     1      20.166  22.824  44.919  1.00  0.00     0.051 A 
ATOM     15  C   UNL     1      21.370  22.341  44.389  1.00  0.00     0.157 A 
ATOM     16  C   UNL     1      20.994  23.650  42.381  1.00  0.00     0.062 A 
ATOM     17  C   UNL     1      21.786  22.760  43.115  1.00  0.00     0.158 A 
BRANCH  15  18
ATOM     18  O   UNL     1      22.154  21.454  45.125  1.00  0.00    -0.504 OA
ATOM     19  H   UNL     1      22.349  21.607  46.108  1.00  0.00     0.293 HD
ENDBRANCH  15  18
BRANCH  17  20
ATOM     20  O   UNL     1      22.983  22.305  42.562  1.00  0.00    -0.504 OA
ATOM     21  H   UNL     1      23.886  22.604  42.912  1.00  0.00     0.293 HD
ENDBRANCH  17  20
ENDBRANCH   1  12
BRANCH   2  22
ATOM     22  O   UNL     1      17.547  23.318  41.231  1.00  0.00    -0.502 OA
ATOM     23  H   UNL     1      16.921  22.960  40.519  1.00  0.00     0.293 HD
ENDBRANCH   2  22
BRANCH   6  24
ATOM     24  O   UNL     1      15.590  27.927  39.415  1.00  0.00    -0.507 OA
ATOM     25  H   UNL     1      14.735  27.601  39.837  1.00  0.00     0.293 HD
ENDBRANCH   6  24
BRANCH   8  26
ATOM     26  O   UNL     1      18.995  30.948  40.947  1.00  0.00    -0.508 OA
ATOM     27  H   UNL     1      19.946  31.129  41.247  1.00  0.00     0.293 HD
ENDBRANCH   8  26
TORSDOF 6
ENDMDL
MODEL 7
REMARK VINA RESULT:    -4.905      2.093      3.711
REMARK INTER + INTRA:          -5.888
REMARK INTER:                  -5.561
REMARK INTRA:                  -0.327
REMARK UNBOUND:                 0.021
REMARK SMILES O=c1c(O)c(-c2ccc(O)c(O)c2)oc2cc(O)cc(O)c12
REMARK SMILES IDX 5 1 3 2 2 3 1 4 22 5 20 6 19 7 17 8 16 9 15 10 14 11 6 12
REMARK SMILES IDX 7 13 8 14 9 15 13 16 11 17 10 18 12 20 4 22 21 24 18 26
REMARK H PARENT 10 19 12 21 4 23 21 25 18 27
REMARK Flexibility Score: inf
ROOT
ATOM      1  C   UNL     1      20.775  25.873  42.167  1.00  0.00     0.180 A 
ATOM      2  C   UNL     1      20.920  25.264  43.424  1.00  0.00     0.208 A 
ATOM      3  C   UNL     1      22.111  24.579  43.715  1.00  0.00     0.238 A 
ATOM      4  O   UNL     1      22.258  24.082  44.863  1.00  0.00    -0.285 OA
ATOM      5  C   UNL     1      23.133  24.497  42.739  1.00  0.00     0.111 A 
ATOM      6  C   UNL     1      24.364  23.795  42.910  1.00  0.00     0.134 A 
ATOM      7  C   UNL     1      25.356  23.891  41.927  1.00  0.00     0.093 A 
ATOM      8  C   UNL     1      25.138  24.610  40.750  1.00  0.00     0.123 A 
ATOM      9  C   UNL     1      23.917  25.250  40.547  1.00  0.00     0.094 A 
ATOM     10  C   UNL     1      22.920  25.203  41.525  1.00  0.00     0.146 A 
ATOM     11  O   UNL     1      21.777  25.836  41.297  1.00  0.00    -0.452 OA
ENDROOT
BRANCH   1  12
ATOM     12  C   UNL     1      19.539  26.592  41.778  1.00  0.00     0.025 A 
ATOM     13  C   UNL     1      18.497  25.939  41.096  1.00  0.00     0.016 A 
ATOM     14  C   UNL     1      17.351  26.643  40.718  1.00  0.00     0.051 A 
ATOM     15  C   UNL     1      17.234  28.011  41.003  1.00  0.00     0.157 A 
ATOM     16  C   UNL     1      19.426  27.967  42.042  1.00  0.00     0.062 A 
ATOM     17  C   UNL     1      18.280  28.675  41.665  1.00  0.00     0.158 A 
BRANCH  15  18
ATOM     18  O   UNL     1      16.089  28.709  40.626  1.00  0.00    -0.504 OA
ATOM     19  H   UNL     1      15.234  28.662  41.169  1.00  0.00     0.293 HD
ENDBRANCH  15  18
BRANCH  17  20
ATOM     20  O   UNL     1      18.198  30.036  41.957  1.00  0.00    -0.504 OA
ATOM     21  H   UNL     1      18.729  30.458  42.711  1.00  0.00     0.293 HD
ENDBRANCH  17  20
ENDBRANCH   1  12
BRANCH   2  22
ATOM     22  O   UNL     1      19.908  25.375  44.382  1.00  0.00    -0.502 OA
ATOM     23  H   UNL     1      19.917  26.087  45.103  1.00  0.00     0.293 HD
ENDBRANCH   2  22
BRANCH   6  24
ATOM     24  O   UNL     1      24.647  22.974  44.006  1.00  0.00    -0.507 OA
ATOM     25  H   UNL     1      24.202  22.089  44.191  1.00  0.00     0.293 HD
ENDBRANCH   6  24
BRANCH   8  26
ATOM     26  O   UNL     1      26.125  24.687  39.770  1.00  0.00    -0.508 OA
ATOM     27  H   UNL     1      25.983  25.218  38.918  1.00  0.00     0.293 HD
ENDBRANCH   8  26
TORSDOF 6
ENDMDL
MODEL 8
REMARK VINA RESULT:    -4.878      2.259      3.065
REMARK INTER + INTRA:          -5.856
REMARK INTER:                  -5.540
REMARK INTRA:                  -0.316
REMARK UNBOUND:                 0.021
REMARK SMILES O=c1c(O)c(-c2ccc(O)c(O)c2)oc2cc(O)cc(O)c12
REMARK SMILES IDX 5 1 3 2 2 3 1 4 22 5 20 6 19 7 17 8 16 9 15 10 14 11 6 12
REMARK SMILES IDX 7 13 8 14 9 15 13 16 11 17 10 18 12 20 4 22 21 24 18 26
REMARK H PARENT 10 19 12 21 4 23 21 25 18 27
REMARK Flexibility Score: inf
ROOT
ATOM      1  C   UNL     1      19.264  25.552  42.008  1.00  0.00     0.180 A 
ATOM      2  C   UNL     1      19.974  25.064  43.118  1.00  0.00     0.208 A 
ATOM      3  C   UNL     1      19.657  23.792  43.623  1.00  0.00     0.238 A 
ATOM      4  O   UNL     1      20.334  23.338  44.583  1.00  0.00    -0.285 OA
ATOM      5  C   UNL     1      18.625  23.033  43.023  1.00  0.00     0.111 A 
ATOM      6  C   UNL     1      18.193  21.750  43.477  1.00  0.00     0.134 A 
ATOM      7  C   UNL     1      17.252  21.033  42.728  1.00  0.00     0.093 A 
ATOM      8  C   UNL     1      16.679  21.580  41.578  1.00  0.00     0.123 A 
ATOM      9  C   UNL     1      17.050  22.856  41.160  1.00  0.00     0.094 A 
ATOM     10  C   UNL     1      18.013  23.582  41.865  1.00  0.00     0.146 A 
ATOM     11  O   UNL     1      18.346  24.789  41.426  1.00  0.00    -0.452 OA
ENDROOT
BRANCH   1  12
ATOM     12  C   UNL     1      19.523  26.892  41.434  1.00  0.00     0.025 A 
ATOM     13  C   UNL     1      20.549  27.100  40.495  1.00  0.00     0.016 A 
ATOM     14  C   UNL     1      20.791  28.378  39.986  1.00  0.00     0.051 A 
ATOM     15  C   UNL     1      20.023  29.469  40.415  1.00  0.00     0.157 A 
ATOM     16  C   UNL     1      18.770  27.992  41.877  1.00  0.00     0.062 A 
ATOM     17  C   UNL     1      19.010  29.273  41.368  1.00  0.00     0.158 A 
BRANCH  15  18
ATOM     18  O   UNL     1      20.266  30.742  39.903  1.00  0.00    -0.504 OA
ATOM     19  H   UNL     1      19.800  31.562  40.274  1.00  0.00     0.293 HD
ENDBRANCH  15  18
BRANCH  17  20
ATOM     20  O   UNL     1      18.232  30.338  41.822  1.00  0.00    -0.504 OA
ATOM     21  H   UNL     1      17.223  30.275  41.894  1.00  0.00     0.293 HD
ENDBRANCH  17  20
ENDBRANCH   1  12
BRANCH   2  22
ATOM     22  O   UNL     1      21.004  25.821  43.682  1.00  0.00    -0.502 OA
ATOM     23  H   UNL     1      21.972  25.522  43.665  1.00  0.00     0.293 HD
ENDBRANCH   2  22
BRANCH   6  24
ATOM     24  O   UNL     1      18.634  21.153  44.662  1.00  0.00    -0.507 OA
ATOM     25  H   UNL     1      19.332  20.427  44.715  1.00  0.00     0.293 HD
ENDBRANCH   6  24
BRANCH   8  26
ATOM     26  O   UNL     1      15.731  20.867  40.846  1.00  0.00    -0.508 OA
ATOM     27  H   UNL     1      15.711  20.899  39.833  1.00  0.00     0.293 HD
ENDBRANCH   8  26
TORSDOF 6
ENDMDL
MODEL 9
REMARK VINA RESULT:    -4.822      5.057      8.979
REMARK INTER + INTRA:          -5.788
REMARK INTER:                  -5.465
REMARK INTRA:                  -0.323
REMARK UNBOUND:                 0.021
REMARK SMILES O=c1c(O)c(-c2ccc(O)c(O)c2)oc2cc(O)cc(O)c12
REMARK SMILES IDX 5 1 3 2 2 3 1 4 22 5 20 6 19 7 17 8 16 9 15 10 14 11 6 12
REMARK SMILES IDX 7 13 8 14 9 15 13 16 11 17 10 18 12 20 4 22 21 24 18 26
REMARK H PARENT 10 19 12 21 4 23 21 25 18 27
REMARK Flexibility Score: inf
ROOT
ATOM      1  C   UNL     1      15.849  28.254  39.056  1.00  0.00     0.180 A 
ATOM      2  C   UNL     1      15.554  26.975  38.554  1.00  0.00     0.208 A 
ATOM      3  C   UNL     1      14.283  26.737  38.005  1.00  0.00     0.238 A 
ATOM      4  O   UNL     1      14.043  25.606  37.507  1.00  0.00    -0.285 OA
ATOM      5  C   UNL     1      13.320  27.773  37.980  1.00  0.00     0.111 A 
ATOM      6  C   UNL     1      11.989  27.632  37.485  1.00  0.00     0.134 A 
ATOM      7  C   UNL     1      11.164  28.760  37.390  1.00  0.00     0.093 A 
ATOM      8  C   UNL     1      11.600  30.010  37.833  1.00  0.00     0.123 A 
ATOM      9  C   UNL     1      12.876  30.147  38.373  1.00  0.00     0.094 A 
ATOM     10  C   UNL     1      13.736  29.048  38.449  1.00  0.00     0.146 A 
ATOM     11  O   UNL     1      14.948  29.224  38.960  1.00  0.00    -0.452 OA
ENDROOT
BRANCH   1  12
ATOM     12  C   UNL     1      17.157  28.576  39.673  1.00  0.00     0.025 A 
ATOM     13  C   UNL     1      17.426  28.271  41.019  1.00  0.00     0.016 A 
ATOM     14  C   UNL     1      18.658  28.606  41.586  1.00  0.00     0.051 A 
ATOM     15  C   UNL     1      19.634  29.260  40.822  1.00  0.00     0.157 A 
ATOM     16  C   UNL     1      18.130  29.250  38.918  1.00  0.00     0.062 A 
ATOM     17  C   UNL     1      19.366  29.586  39.482  1.00  0.00     0.158 A 
BRANCH  15  18
ATOM     18  O   UNL     1      20.863  29.590  41.391  1.00  0.00    -0.504 OA
ATOM     19  H   UNL     1      21.537  30.169  40.902  1.00  0.00     0.293 HD
ENDBRANCH  15  18
BRANCH  17  20
ATOM     20  O   UNL     1      20.313  30.243  38.698  1.00  0.00    -0.504 OA
ATOM     21  H   UNL     1      20.453  31.246  38.751  1.00  0.00     0.293 HD
ENDBRANCH  17  20
ENDBRANCH   1  12
BRANCH   2  22
ATOM     22  O   UNL     1      16.527  25.972  38.568  1.00  0.00    -0.502 OA
ATOM     23  H   UNL     1      17.241  25.916  39.284  1.00  0.00     0.293 HD
ENDBRANCH   2  22
BRANCH   6  24
ATOM     24  O   UNL     1      11.425  26.411  37.102  1.00  0.00    -0.507 OA
ATOM     25  H   UNL     1      11.922  25.535  37.066  1.00  0.00     0.293 HD
ENDBRANCH   6  24
BRANCH   8  26
ATOM     26  O   UNL     1      10.767  31.124  37.749  1.00  0.00    -0.508 OA
ATOM     27  H   UNL     1      10.637  31.748  38.538  1.00  0.00     0.293 HD
ENDBRANCH   8  26
TORSDOF 6
ENDMDL
