MODEL 1
REMARK VINA RESULT:    -2.597      0.000      0.000
REMARK INTER + INTRA:          -7.102
REMARK INTER:                  -4.570
REMARK INTRA:                  -2.533
REMARK UNBOUND:                -2.533
REMARK SMILES CCCCCCC=CCCCCCCCC(=O)[O-]
REMARK SMILES IDX 10 1 11 2 12 3 13 4 14 5 15 6 16 7 17 8 18 9 9 10 8 11 7 12
REMARK SMILES IDX 6 13 5 14 4 15 3 16 2 17 1 18
REMARK H PARENT
REMARK Flexibility Score: inf
ROOT
ATOM      1  C   UNL     1      56.171  37.581 126.415  1.00  0.00     0.004 C 
ENDROOT
BRANCH   1   2
ATOM      2  C   UNL     1      57.370  37.694 125.457  1.00  0.00     0.000 C 
BRANCH   2   3
ATOM      3  C   UNL     1      56.933  37.782 123.980  1.00  0.00     0.000 C 
BRANCH   3   4
ATOM      4  C   UNL     1      57.442  39.047 123.261  1.00  0.00     0.000 C 
BRANCH   4   5
ATOM      5  C   UNL     1      57.814  40.211 124.195  1.00  0.00     0.006 C 
BRANCH   5   6
ATOM      6  C   UNL     1      59.282  40.632 124.060  1.00  0.00     0.053 C 
BRANCH   6   7
ATOM      7  C   UNL     1      60.134  39.867 125.022  1.00  0.00     0.041 C 
ATOM      8  O   UNL     1      61.022  39.082 124.596  1.00  0.00    -0.550 OA
ATOM      9  O   UNL     1      59.918  39.984 126.390  1.00  0.00    -0.550 OA
ENDBRANCH   6   7
ENDBRANCH   5   6
ENDBRANCH   4   5
ENDBRANCH   3   4
ENDBRANCH   2   3
ENDBRANCH   1   2
BRANCH   1  10
ATOM     10  C   UNL     1      55.336  36.320 126.153  1.00  0.00     0.027 C 
BRANCH  10  11
ATOM     11  C   UNL     1      53.859  36.623 126.235  1.00  0.00    -0.031 C 
ATOM     12  C   UNL     1      53.002  36.610 125.195  1.00  0.00    -0.031 C 
BRANCH  12  13
ATOM     13  C   UNL     1      53.376  36.327 123.761  1.00  0.00     0.027 C 
BRANCH  13  14
ATOM     14  C   UNL     1      53.536  37.606 122.924  1.00  0.00     0.004 C 
BRANCH  14  15
ATOM     15  C   UNL     1      52.835  38.817 123.563  1.00  0.00     0.000 C 
BRANCH  15  16
ATOM     16  C   UNL     1      53.722  40.074 123.591  1.00  0.00    -0.000 C 
BRANCH  16  17
ATOM     17  C   UNL     1      54.311  40.422 124.970  1.00  0.00    -0.003 C 
ATOM     18  C   UNL     1      53.299  40.272 126.105  1.00  0.00     0.004 C 
ENDBRANCH  16  17
ENDBRANCH  15  16
ENDBRANCH  14  15
ENDBRANCH  13  14
ENDBRANCH  12  13
ENDBRANCH  10  11
ENDBRANCH   1  10
TORSDOF 13
ENDMDL
MODEL 2
REMARK VINA RESULT:    -2.587     12.558     14.093
REMARK INTER + INTRA:          -7.086
REMARK INTER:                  -5.661
REMARK INTRA:                  -1.425
REMARK UNBOUND:                -2.533
REMARK SMILES CCCCCCC=CCCCCCCCC(=O)[O-]
REMARK SMILES IDX 10 1 11 2 12 3 13 4 14 5 15 6 16 7 17 8 18 9 9 10 8 11 7 12
REMARK SMILES IDX 6 13 5 14 4 15 3 16 2 17 1 18
REMARK H PARENT
REMARK Flexibility Score: inf
ROOT
ATOM      1  C   UNL     1      52.942  38.289 136.786  1.00  0.00     0.004 C 
ENDROOT
BRANCH   1   2
ATOM      2  C   UNL     1      54.265  39.030 137.050  1.00  0.00     0.000 C 
BRANCH   2   3
ATOM      3  C   UNL     1      54.983  38.513 138.314  1.00  0.00     0.000 C 
BRANCH   3   4
ATOM      4  C   UNL     1      55.811  39.593 139.038  1.00  0.00     0.000 C 
BRANCH   4   5
ATOM      5  C   UNL     1      56.560  39.098 140.286  1.00  0.00     0.006 C 
BRANCH   5   6
ATOM      6  C   UNL     1      57.549  40.135 140.832  1.00  0.00     0.053 C 
BRANCH   6   7
ATOM      7  C   UNL     1      58.421  39.522 141.881  1.00  0.00     0.041 C 
ATOM      8  O   UNL     1      58.896  38.368 141.715  1.00  0.00    -0.550 OA
ATOM      9  O   UNL     1      58.671  40.205 143.065  1.00  0.00    -0.550 OA
ENDBRANCH   6   7
ENDBRANCH   5   6
ENDBRANCH   4   5
ENDBRANCH   3   4
ENDBRANCH   2   3
ENDBRANCH   1   2
BRANCH   1  10
ATOM     10  C   UNL     1      52.653  37.221 137.850  1.00  0.00     0.027 C 
BRANCH  10  11
ATOM     11  C   UNL     1      51.700  36.175 137.322  1.00  0.00    -0.031 C 
ATOM     12  C   UNL     1      50.379  36.126 137.578  1.00  0.00    -0.031 C 
BRANCH  12  13
ATOM     13  C   UNL     1      49.627  37.085 138.467  1.00  0.00     0.027 C 
BRANCH  13  14
ATOM     14  C   UNL     1      48.790  38.101 137.675  1.00  0.00     0.004 C 
BRANCH  14  15
ATOM     15  C   UNL     1      48.496  37.628 136.241  1.00  0.00     0.000 C 
BRANCH  15  16
ATOM     16  C   UNL     1      48.969  38.630 135.173  1.00  0.00    -0.000 C 
BRANCH  16  17
ATOM     17  C   UNL     1      50.201  38.185 134.366  1.00  0.00    -0.003 C 
ATOM     18  C   UNL     1      50.116  36.733 133.898  1.00  0.00     0.004 C 
ENDBRANCH  16  17
ENDBRANCH  15  16
ENDBRANCH  14  15
ENDBRANCH  13  14
ENDBRANCH  12  13
ENDBRANCH  10  11
ENDBRANCH   1  10
TORSDOF 13
ENDMDL
MODEL 3
REMARK VINA RESULT:    -2.581     11.923     14.213
REMARK INTER + INTRA:          -7.076
REMARK INTER:                  -4.698
REMARK INTRA:                  -2.377
REMARK UNBOUND:                -2.533
REMARK SMILES CCCCCCC=CCCCCCCCC(=O)[O-]
REMARK SMILES IDX 10 1 11 2 12 3 13 4 14 5 15 6 16 7 17 8 18 9 9 10 8 11 7 12
REMARK SMILES IDX 6 13 5 14 4 15 3 16 2 17 1 18
REMARK H PARENT
REMARK Flexibility Score: inf
ROOT
ATOM      1  C   UNL     1      48.816  38.117 137.876  1.00  0.00     0.004 C 
ENDROOT
BRANCH   1   2
ATOM      2  C   UNL     1      48.006  38.497 136.624  1.00  0.00     0.000 C 
BRANCH   2   3
ATOM      3  C   UNL     1      48.715  39.570 135.772  1.00  0.00     0.000 C 
BRANCH   3   4
ATOM      4  C   UNL     1      47.762  40.353 134.847  1.00  0.00     0.000 C 
BRANCH   4   5
ATOM      5  C   UNL     1      46.267  40.096 135.100  1.00  0.00     0.006 C 
BRANCH   5   6
ATOM      6  C   UNL     1      45.415  40.264 133.836  1.00  0.00     0.053 C 
BRANCH   6   7
ATOM      7  C   UNL     1      44.208  39.383 133.900  1.00  0.00     0.041 C 
ATOM      8  O   UNL     1      43.244  39.683 134.653  1.00  0.00    -0.550 OA
ATOM      9  O   UNL     1      44.166  38.205 133.165  1.00  0.00    -0.550 OA
ENDBRANCH   6   7
ENDBRANCH   5   6
ENDBRANCH   4   5
ENDBRANCH   3   4
ENDBRANCH   2   3
ENDBRANCH   1   2
BRANCH   1  10
ATOM     10  C   UNL     1      49.327  36.671 137.818  1.00  0.00     0.027 C 
BRANCH  10  11
ATOM     11  C   UNL     1      50.835  36.627 137.890  1.00  0.00    -0.031 C 
ATOM     12  C   UNL     1      51.654  36.296 136.874  1.00  0.00    -0.031 C 
BRANCH  12  13
ATOM     13  C   UNL     1      51.206  35.875 135.495  1.00  0.00     0.027 C 
BRANCH  13  14
ATOM     14  C   UNL     1      51.056  37.061 134.530  1.00  0.00     0.004 C 
BRANCH  14  15
ATOM     15  C   UNL     1      49.963  36.822 133.474  1.00  0.00     0.000 C 
BRANCH  15  16
ATOM     16  C   UNL     1      48.676  36.226 134.071  1.00  0.00    -0.000 C 
BRANCH  16  17
ATOM     17  C   UNL     1      47.369  36.758 133.457  1.00  0.00    -0.003 C 
ATOM     18  C   UNL     1      47.602  37.649 132.238  1.00  0.00     0.004 C 
ENDBRANCH  16  17
ENDBRANCH  15  16
ENDBRANCH  14  15
ENDBRANCH  13  14
ENDBRANCH  12  13
ENDBRANCH  10  11
ENDBRANCH   1  10
TORSDOF 13
ENDMDL
MODEL 4
REMARK VINA RESULT:    -2.485     12.377     14.517
REMARK INTER + INTRA:          -6.905
REMARK INTER:                  -5.049
REMARK INTRA:                  -1.856
REMARK UNBOUND:                -2.533
REMARK SMILES CCCCCCC=CCCCCCCCC(=O)[O-]
REMARK SMILES IDX 10 1 11 2 12 3 13 4 14 5 15 6 16 7 17 8 18 9 9 10 8 11 7 12
REMARK SMILES IDX 6 13 5 14 4 15 3 16 2 17 1 18
REMARK H PARENT
REMARK Flexibility Score: inf
ROOT
ATOM      1  C   UNL     1      47.467  37.688 133.481  1.00  0.00     0.004 C 
ENDROOT
BRANCH   1   2
ATOM      2  C   UNL     1      48.124  36.300 133.578  1.00  0.00     0.000 C 
BRANCH   2   3
ATOM      3  C   UNL     1      49.171  36.226 134.708  1.00  0.00     0.000 C 
BRANCH   3   4
ATOM      4  C   UNL     1      50.061  37.481 134.806  1.00  0.00     0.000 C 
BRANCH   4   5
ATOM      5  C   UNL     1      50.164  38.087 136.217  1.00  0.00     0.006 C 
BRANCH   5   6
ATOM      6  C   UNL     1      49.123  37.512 137.185  1.00  0.00     0.053 C 
BRANCH   6   7
ATOM      7  C   UNL     1      49.785  36.641 138.204  1.00  0.00     0.041 C 
ATOM      8  O   UNL     1      49.371  36.630 139.393  1.00  0.00    -0.550 OA
ATOM      9  O   UNL     1      50.891  35.875 137.854  1.00  0.00    -0.550 OA
ENDBRANCH   6   7
ENDBRANCH   5   6
ENDBRANCH   4   5
ENDBRANCH   3   4
ENDBRANCH   2   3
ENDBRANCH   1   2
BRANCH   1  10
ATOM     10  C   UNL     1      46.383  37.893 134.548  1.00  0.00     0.027 C 
BRANCH  10  11
ATOM     11  C   UNL     1      46.508  39.253 135.193  1.00  0.00    -0.031 C 
ATOM     12  C   UNL     1      45.743  40.324 134.907  1.00  0.00    -0.031 C 
BRANCH  12  13
ATOM     13  C   UNL     1      44.652  40.362 133.866  1.00  0.00     0.027 C 
BRANCH  13  14
ATOM     14  C   UNL     1      43.261  40.069 134.449  1.00  0.00     0.004 C 
BRANCH  14  15
ATOM     15  C   UNL     1      42.671  38.748 133.924  1.00  0.00     0.000 C 
BRANCH  15  16
ATOM     16  C   UNL     1      42.528  37.680 135.023  1.00  0.00    -0.000 C 
BRANCH  16  17
ATOM     17  C   UNL     1      42.795  36.236 134.562  1.00  0.00    -0.003 C 
ATOM     18  C   UNL     1      43.503  36.163 133.210  1.00  0.00     0.004 C 
ENDBRANCH  16  17
ENDBRANCH  15  16
ENDBRANCH  14  15
ENDBRANCH  13  14
ENDBRANCH  12  13
ENDBRANCH  10  11
ENDBRANCH   1  10
TORSDOF 13
ENDMDL
MODEL 5
REMARK VINA RESULT:    -2.475     13.243     15.391
REMARK INTER + INTRA:          -6.889
REMARK INTER:                  -5.194
REMARK INTRA:                  -1.695
REMARK UNBOUND:                -2.533
REMARK SMILES CCCCCCC=CCCCCCCCC(=O)[O-]
REMARK SMILES IDX 10 1 11 2 12 3 13 4 14 5 15 6 16 7 17 8 18 9 9 10 8 11 7 12
REMARK SMILES IDX 6 13 5 14 4 15 3 16 2 17 1 18
REMARK H PARENT
REMARK Flexibility Score: inf
ROOT
ATOM      1  C   UNL     1      47.613  41.068 134.937  1.00  0.00     0.004 C 
ENDROOT
BRANCH   1   2
ATOM      2  C   UNL     1      46.225  40.429 135.123  1.00  0.00     0.000 C 
BRANCH   2   3
ATOM      3  C   UNL     1      45.414  40.397 133.811  1.00  0.00     0.000 C 
BRANCH   3   4
ATOM      4  C   UNL     1      45.264  38.984 133.214  1.00  0.00     0.000 C 
BRANCH   4   5
ATOM      5  C   UNL     1      45.037  37.870 134.249  1.00  0.00     0.006 C 
BRANCH   5   6
ATOM      6  C   UNL     1      44.068  36.789 133.753  1.00  0.00     0.053 C 
BRANCH   6   7
ATOM      7  C   UNL     1      42.666  37.121 134.157  1.00  0.00     0.041 C 
ATOM      8  O   UNL     1      41.734  37.066 133.314  1.00  0.00    -0.550 OA
ATOM      9  O   UNL     1      42.397  37.537 135.456  1.00  0.00    -0.550 OA
ENDBRANCH   6   7
ENDBRANCH   5   6
ENDBRANCH   4   5
ENDBRANCH   3   4
ENDBRANCH   2   3
ENDBRANCH   1   2
BRANCH   1  10
ATOM     10  C   UNL     1      48.733  40.203 135.528  1.00  0.00     0.027 C 
BRANCH  10  11
ATOM     11  C   UNL     1      48.471  38.736 135.282  1.00  0.00    -0.031 C 
ATOM     12  C   UNL     1      48.492  37.773 136.224  1.00  0.00    -0.031 C 
BRANCH  12  13
ATOM     13  C   UNL     1      48.816  37.986 137.682  1.00  0.00     0.027 C 
BRANCH  13  14
ATOM     14  C   UNL     1      49.334  36.714 138.370  1.00  0.00     0.004 C 
BRANCH  14  15
ATOM     15  C   UNL     1      50.598  36.155 137.695  1.00  0.00     0.000 C 
BRANCH  15  16
ATOM     16  C   UNL     1      51.775  37.146 137.719  1.00  0.00    -0.000 C 
BRANCH  16  17
ATOM     17  C   UNL     1      52.432  37.406 136.352  1.00  0.00    -0.003 C 
ATOM     18  C   UNL     1      52.240  38.840 135.862  1.00  0.00     0.004 C 
ENDBRANCH  16  17
ENDBRANCH  15  16
ENDBRANCH  14  15
ENDBRANCH  13  14
ENDBRANCH  12  13
ENDBRANCH  10  11
ENDBRANCH   1  10
TORSDOF 13
ENDMDL
MODEL 6
REMARK VINA RESULT:    -2.439     11.543     13.507
REMARK INTER + INTRA:          -6.825
REMARK INTER:                  -4.556
REMARK INTRA:                  -2.268
REMARK UNBOUND:                -2.533
REMARK SMILES CCCCCCC=CCCCCCCCC(=O)[O-]
REMARK SMILES IDX 10 1 11 2 12 3 13 4 14 5 15 6 16 7 17 8 18 9 9 10 8 11 7 12
REMARK SMILES IDX 6 13 5 14 4 15 3 16 2 17 1 18
REMARK H PARENT
REMARK Flexibility Score: inf
ROOT
ATOM      1  C   UNL     1      52.748  37.881 136.030  1.00  0.00     0.004 C 
ENDROOT
BRANCH   1   2
ATOM      2  C   UNL     1      52.082  39.238 135.741  1.00  0.00     0.000 C 
BRANCH   2   3
ATOM      3  C   UNL     1      51.292  39.232 134.417  1.00  0.00     0.000 C 
BRANCH   3   4
ATOM      4  C   UNL     1      50.365  40.452 134.245  1.00  0.00     0.000 C 
BRANCH   4   5
ATOM      5  C   UNL     1      49.975  41.151 135.558  1.00  0.00     0.006 C 
BRANCH   5   6
ATOM      6  C   UNL     1      48.669  41.946 135.440  1.00  0.00     0.053 C 
BRANCH   6   7
ATOM      7  C   UNL     1      48.928  43.407 135.631  1.00  0.00     0.041 C 
ATOM      8  O   UNL     1      48.235  44.072 136.443  1.00  0.00    -0.550 OA
ATOM      9  O   UNL     1      49.906  44.044 134.877  1.00  0.00    -0.550 OA
ENDBRANCH   6   7
ENDBRANCH   5   6
ENDBRANCH   4   5
ENDBRANCH   3   4
ENDBRANCH   2   3
ENDBRANCH   1   2
BRANCH   1  10
ATOM     10  C   UNL     1      52.431  37.369 137.442  1.00  0.00     0.027 C 
BRANCH  10  11
ATOM     11  C   UNL     1      51.499  36.181 137.391  1.00  0.00    -0.031 C 
ATOM     12  C   UNL     1      50.199  36.197 137.740  1.00  0.00    -0.031 C 
BRANCH  12  13
ATOM     13  C   UNL     1      49.455  37.394 138.279  1.00  0.00     0.027 C 
BRANCH  13  14
ATOM     14  C   UNL     1      48.691  38.161 137.188  1.00  0.00     0.004 C 
BRANCH  14  15
ATOM     15  C   UNL     1      48.526  37.339 135.899  1.00  0.00     0.000 C 
BRANCH  15  16
ATOM     16  C   UNL     1      47.657  38.048 134.846  1.00  0.00    -0.000 C 
BRANCH  16  17
ATOM     17  C   UNL     1      46.548  38.948 135.419  1.00  0.00    -0.003 C 
ATOM     18  C   UNL     1      45.749  39.673 134.338  1.00  0.00     0.004 C 
ENDBRANCH  16  17
ENDBRANCH  15  16
ENDBRANCH  14  15
ENDBRANCH  13  14
ENDBRANCH  12  13
ENDBRANCH  10  11
ENDBRANCH   1  10
TORSDOF 13
ENDMDL
MODEL 7
REMARK VINA RESULT:    -2.415     11.780     13.027
REMARK INTER + INTRA:          -6.782
REMARK INTER:                  -4.490
REMARK INTRA:                  -2.293
REMARK UNBOUND:                -2.533
REMARK SMILES CCCCCCC=CCCCCCCCC(=O)[O-]
REMARK SMILES IDX 10 1 11 2 12 3 13 4 14 5 15 6 16 7 17 8 18 9 9 10 8 11 7 12
REMARK SMILES IDX 6 13 5 14 4 15 3 16 2 17 1 18
REMARK H PARENT
REMARK Flexibility Score: inf
ROOT
ATOM      1  C   UNL     1      49.136  36.998 138.266  1.00  0.00     0.004 C 
ENDROOT
BRANCH   1   2
ATOM      2  C   UNL     1      50.665  37.008 138.441  1.00  0.00     0.000 C 
BRANCH   2   3
ATOM      3  C   UNL     1      51.362  35.953 137.558  1.00  0.00     0.000 C 
BRANCH   3   4
ATOM      4  C   UNL     1      52.761  36.383 137.072  1.00  0.00     0.000 C 
BRANCH   4   5
ATOM      5  C   UNL     1      53.185  37.797 137.504  1.00  0.00     0.006 C 
BRANCH   5   6
ATOM      6  C   UNL     1      54.031  38.511 136.443  1.00  0.00     0.053 C 
BRANCH   6   7
ATOM      7  C   UNL     1      54.175  39.961 136.781  1.00  0.00     0.041 C 
ATOM      8  O   UNL     1      53.483  40.823 136.181  1.00  0.00    -0.550 OA
ATOM      9  O   UNL     1      55.109  40.365 137.727  1.00  0.00    -0.550 OA
ENDBRANCH   6   7
ENDBRANCH   5   6
ENDBRANCH   4   5
ENDBRANCH   3   4
ENDBRANCH   2   3
ENDBRANCH   1   2
BRANCH   1  10
ATOM     10  C   UNL     1      48.651  38.124 137.343  1.00  0.00     0.027 C 
BRANCH  10  11
ATOM     11  C   UNL     1      48.559  37.650 135.912  1.00  0.00    -0.031 C 
ATOM     12  C   UNL     1      49.411  37.986 134.925  1.00  0.00    -0.031 C 
BRANCH  12  13
ATOM     13  C   UNL     1      50.584  38.924 135.067  1.00  0.00     0.027 C 
BRANCH  13  14
ATOM     14  C   UNL     1      50.267  40.351 134.592  1.00  0.00     0.004 C 
BRANCH  14  15
ATOM     15  C   UNL     1      49.745  41.245 135.730  1.00  0.00     0.000 C 
BRANCH  15  16
ATOM     16  C   UNL     1      48.397  41.909 135.396  1.00  0.00    -0.000 C 
BRANCH  16  17
ATOM     17  C   UNL     1      47.510  41.119 134.417  1.00  0.00    -0.003 C 
ATOM     18  C   UNL     1      46.296  40.483 135.092  1.00  0.00     0.004 C 
ENDBRANCH  16  17
ENDBRANCH  15  16
ENDBRANCH  14  15
ENDBRANCH  13  14
ENDBRANCH  12  13
ENDBRANCH  10  11
ENDBRANCH   1  10
TORSDOF 13
ENDMDL
MODEL 8
REMARK VINA RESULT:    -2.401      1.574      3.659
REMARK INTER + INTRA:          -6.758
REMARK INTER:                  -3.935
REMARK INTRA:                  -2.824
REMARK UNBOUND:                -2.533
REMARK SMILES CCCCCCC=CCCCCCCCC(=O)[O-]
REMARK SMILES IDX 10 1 11 2 12 3 13 4 14 5 15 6 16 7 17 8 18 9 9 10 8 11 7 12
REMARK SMILES IDX 6 13 5 14 4 15 3 16 2 17 1 18
REMARK H PARENT
REMARK Flexibility Score: inf
ROOT
ATOM      1  C   UNL     1      55.484  40.627 123.207  1.00  0.00     0.004 C 
ENDROOT
BRANCH   1   2
ATOM      2  C   UNL     1      55.789  39.155 122.875  1.00  0.00     0.000 C 
BRANCH   2   3
ATOM      3  C   UNL     1      57.230  38.757 123.254  1.00  0.00     0.000 C 
BRANCH   3   4
ATOM      4  C   UNL     1      58.169  39.962 123.461  1.00  0.00     0.000 C 
BRANCH   4   5
ATOM      5  C   UNL     1      58.893  39.986 124.818  1.00  0.00     0.006 C 
BRANCH   5   6
ATOM      6  C   UNL     1      59.190  41.410 125.305  1.00  0.00     0.053 C 
BRANCH   6   7
ATOM      7  C   UNL     1      58.800  41.562 126.740  1.00  0.00     0.041 C 
ATOM      8  O   UNL     1      58.776  40.559 127.500  1.00  0.00    -0.550 OA
ATOM      9  O   UNL     1      58.415  42.804 127.229  1.00  0.00    -0.550 OA
ENDBRANCH   6   7
ENDBRANCH   5   6
ENDBRANCH   4   5
ENDBRANCH   3   4
ENDBRANCH   2   3
ENDBRANCH   1   2
BRANCH   1  10
ATOM     10  C   UNL     1      54.477  40.765 124.357  1.00  0.00     0.027 C 
BRANCH  10  11
ATOM     11  C   UNL     1      55.172  41.153 125.641  1.00  0.00    -0.031 C 
ATOM     12  C   UNL     1      55.382  40.335 126.690  1.00  0.00    -0.031 C 
BRANCH  12  13
ATOM     13  C   UNL     1      54.926  38.900 126.782  1.00  0.00     0.027 C 
BRANCH  13  14
ATOM     14  C   UNL     1      56.064  37.896 126.541  1.00  0.00     0.004 C 
BRANCH  14  15
ATOM     15  C   UNL     1      55.593  36.645 125.780  1.00  0.00     0.000 C 
BRANCH  15  16
ATOM     16  C   UNL     1      54.072  36.627 125.546  1.00  0.00    -0.000 C 
BRANCH  16  17
ATOM     17  C   UNL     1      53.645  36.554 124.069  1.00  0.00    -0.003 C 
ATOM     18  C   UNL     1      52.539  37.547 123.718  1.00  0.00     0.004 C 
ENDBRANCH  16  17
ENDBRANCH  15  16
ENDBRANCH  14  15
ENDBRANCH  13  14
ENDBRANCH  12  13
ENDBRANCH  10  11
ENDBRANCH   1  10
TORSDOF 13
ENDMDL
MODEL 9
REMARK VINA RESULT:    -2.384     11.633     13.461
REMARK INTER + INTRA:          -6.728
REMARK INTER:                  -4.271
REMARK INTRA:                  -2.458
REMARK UNBOUND:                -2.533
REMARK SMILES CCCCCCC=CCCCCCCCC(=O)[O-]
REMARK SMILES IDX 10 1 11 2 12 3 13 4 14 5 15 6 16 7 17 8 18 9 9 10 8 11 7 12
REMARK SMILES IDX 6 13 5 14 4 15 3 16 2 17 1 18
REMARK H PARENT
REMARK Flexibility Score: inf
ROOT
ATOM      1  C   UNL     1      48.022  40.179 134.033  1.00  0.00     0.004 C 
ENDROOT
BRANCH   1   2
ATOM      2  C   UNL     1      47.050  39.885 135.189  1.00  0.00     0.000 C 
BRANCH   2   3
ATOM      3  C   UNL     1      47.300  38.502 135.825  1.00  0.00     0.000 C 
BRANCH   3   4
ATOM      4  C   UNL     1      48.500  38.475 136.792  1.00  0.00     0.000 C 
BRANCH   4   5
ATOM      5  C   UNL     1      49.236  37.127 136.866  1.00  0.00     0.006 C 
BRANCH   5   6
ATOM      6  C   UNL     1      49.101  36.307 135.576  1.00  0.00     0.053 C 
BRANCH   6   7
ATOM      7  C   UNL     1      50.327  36.457 134.733  1.00  0.00     0.041 C 
ATOM      8  O   UNL     1      51.389  36.910 135.234  1.00  0.00    -0.550 OA
ATOM      9  O   UNL     1      50.285  36.140 133.381  1.00  0.00    -0.550 OA
ENDBRANCH   6   7
ENDBRANCH   5   6
ENDBRANCH   4   5
ENDBRANCH   3   4
ENDBRANCH   2   3
ENDBRANCH   1   2
BRANCH   1  10
ATOM     10  C   UNL     1      48.164  38.988 133.077  1.00  0.00     0.027 C 
BRANCH  10  11
ATOM     11  C   UNL     1      47.098  39.021 132.008  1.00  0.00    -0.031 C 
ATOM     12  C   UNL     1      46.139  38.091 131.836  1.00  0.00    -0.031 C 
BRANCH  12  13
ATOM     13  C   UNL     1      45.987  36.834 132.657  1.00  0.00     0.027 C 
BRANCH  13  14
ATOM     14  C   UNL     1      44.852  36.929 133.688  1.00  0.00     0.004 C 
BRANCH  14  15
ATOM     15  C   UNL     1      43.762  37.931 133.270  1.00  0.00     0.000 C 
BRANCH  15  16
ATOM     16  C   UNL     1      43.211  38.743 134.455  1.00  0.00    -0.000 C 
BRANCH  16  17
ATOM     17  C   UNL     1      43.566  40.240 134.436  1.00  0.00    -0.003 C 
ATOM     18  C   UNL     1      43.908  40.755 133.039  1.00  0.00     0.004 C 
ENDBRANCH  16  17
ENDBRANCH  15  16
ENDBRANCH  14  15
ENDBRANCH  13  14
ENDBRANCH  12  13
ENDBRANCH  10  11
ENDBRANCH   1  10
TORSDOF 13
ENDMDL
