MODEL 1
REMARK VINA RESULT:    -5.991      0.000      0.000
REMARK INTER + INTRA:          -7.269
REMARK INTER:                  -7.217
REMARK INTRA:                  -0.051
REMARK UNBOUND:                -0.051
REMARK SMILES O=c1c(O)c(-c2ccc(O)c(O)c2)oc2cc(O)cc(O)c12
REMARK SMILES IDX 5 1 3 2 2 3 1 4 22 5 20 6 19 7 17 8 16 9 15 10 14 11 6 12
REMARK SMILES IDX 7 13 8 14 9 15 13 16 11 17 10 18 12 20 4 22 21 24 18 26
REMARK H PARENT 10 19 12 21 4 23 21 25 18 27
REMARK Flexibility Score: inf
ROOT
ATOM      1  C   UNL     1      24.259  28.935  -4.497  1.00  0.00     0.180 A 
ATOM      2  C   UNL     1      23.744  27.818  -5.176  1.00  0.00     0.208 A 
ATOM      3  C   UNL     1      24.162  26.534  -4.788  1.00  0.00     0.238 A 
ATOM      4  O   UNL     1      23.756  25.543  -5.449  1.00  0.00    -0.285 OA
ATOM      5  C   UNL     1      25.043  26.381  -3.691  1.00  0.00     0.111 A 
ATOM      6  C   UNL     1      25.497  25.126  -3.182  1.00  0.00     0.134 A 
ATOM      7  C   UNL     1      26.453  25.100  -2.159  1.00  0.00     0.093 A 
ATOM      8  C   UNL     1      26.923  26.282  -1.581  1.00  0.00     0.123 A 
ATOM      9  C   UNL     1      26.445  27.509  -2.033  1.00  0.00     0.094 A 
ATOM     10  C   UNL     1      25.521  27.569  -3.079  1.00  0.00     0.146 A 
ATOM     11  O   UNL     1      25.109  28.762  -3.492  1.00  0.00    -0.452 OA
ENDROOT
BRANCH   1  12
ATOM     12  C   UNL     1      23.878  30.321  -4.857  1.00  0.00     0.025 A 
ATOM     13  C   UNL     1      24.873  31.238  -5.218  1.00  0.00     0.016 A 
ATOM     14  C   UNL     1      24.534  32.543  -5.581  1.00  0.00     0.051 A 
ATOM     15  C   UNL     1      23.197  32.952  -5.605  1.00  0.00     0.157 A 
ATOM     16  C   UNL     1      22.532  30.722  -4.903  1.00  0.00     0.062 A 
ATOM     17  C   UNL     1      22.181  32.027  -5.269  1.00  0.00     0.158 A 
BRANCH  15  18
ATOM     18  O   UNL     1      22.926  34.273  -5.969  1.00  0.00    -0.504 OA
ATOM     19  H   UNL     1      23.614  35.012  -5.968  1.00  0.00     0.293 HD
ENDBRANCH  15  18
BRANCH  17  20
ATOM     20  O   UNL     1      20.824  32.356  -5.290  1.00  0.00    -0.504 OA
ATOM     21  H   UNL     1      20.100  31.743  -5.633  1.00  0.00     0.293 HD
ENDBRANCH  17  20
ENDBRANCH   1  12
BRANCH   2  22
ATOM     22  O   UNL     1      22.817  27.987  -6.206  1.00  0.00    -0.502 OA
ATOM     23  H   UNL     1      21.841  27.733  -6.107  1.00  0.00     0.293 HD
ENDBRANCH   2  22
BRANCH   6  24
ATOM     24  O   UNL     1      25.026  23.885  -3.625  1.00  0.00    -0.507 OA
ATOM     25  H   UNL     1      25.354  22.991  -3.293  1.00  0.00     0.293 HD
ENDBRANCH   6  24
BRANCH   8  26
ATOM     26  O   UNL     1      27.860  26.246  -0.552  1.00  0.00    -0.508 OA
ATOM     27  H   UNL     1      28.537  25.496  -0.477  1.00  0.00     0.293 HD
ENDBRANCH   8  26
TORSDOF 6
ENDMDL
MODEL 2
REMARK VINA RESULT:    -5.945      0.707      1.482
REMARK INTER + INTRA:          -7.212
REMARK INTER:                  -7.507
REMARK INTRA:                   0.295
REMARK UNBOUND:                -0.051
REMARK SMILES O=c1c(O)c(-c2ccc(O)c(O)c2)oc2cc(O)cc(O)c12
REMARK SMILES IDX 5 1 3 2 2 3 1 4 22 5 20 6 19 7 17 8 16 9 15 10 14 11 6 12
REMARK SMILES IDX 7 13 8 14 9 15 13 16 11 17 10 18 12 20 4 22 21 24 18 26
REMARK H PARENT 10 19 12 21 4 23 21 25 18 27
REMARK Flexibility Score: inf
ROOT
ATOM      1  C   UNL     1      24.447  28.954  -4.357  1.00  0.00     0.180 A 
ATOM      2  C   UNL     1      23.899  27.836  -5.008  1.00  0.00     0.208 A 
ATOM      3  C   UNL     1      24.311  26.552  -4.616  1.00  0.00     0.238 A 
ATOM      4  O   UNL     1      23.873  25.558  -5.254  1.00  0.00    -0.285 OA
ATOM      5  C   UNL     1      25.221  26.399  -3.543  1.00  0.00     0.111 A 
ATOM      6  C   UNL     1      25.672  25.144  -3.032  1.00  0.00     0.134 A 
ATOM      7  C   UNL     1      26.656  25.117  -2.036  1.00  0.00     0.093 A 
ATOM      8  C   UNL     1      27.158  26.300  -1.486  1.00  0.00     0.123 A 
ATOM      9  C   UNL     1      26.684  27.528  -1.939  1.00  0.00     0.094 A 
ATOM     10  C   UNL     1      25.731  27.588  -2.959  1.00  0.00     0.146 A 
ATOM     11  O   UNL     1      25.323  28.782  -3.375  1.00  0.00    -0.452 OA
ENDROOT
BRANCH   1  12
ATOM     12  C   UNL     1      24.073  30.341  -4.722  1.00  0.00     0.025 A 
ATOM     13  C   UNL     1      22.775  30.607  -5.176  1.00  0.00     0.016 A 
ATOM     14  C   UNL     1      22.395  31.909  -5.506  1.00  0.00     0.051 A 
ATOM     15  C   UNL     1      23.297  32.971  -5.375  1.00  0.00     0.157 A 
ATOM     16  C   UNL     1      24.974  31.407  -4.566  1.00  0.00     0.062 A 
ATOM     17  C   UNL     1      24.602  32.717  -4.891  1.00  0.00     0.158 A 
BRANCH  15  18
ATOM     18  O   UNL     1      22.857  34.248  -5.729  1.00  0.00    -0.504 OA
ATOM     19  H   UNL     1      21.915  34.458  -6.027  1.00  0.00     0.293 HD
ENDBRANCH  15  18
BRANCH  17  20
ATOM     20  O   UNL     1      25.550  33.728  -4.714  1.00  0.00    -0.504 OA
ATOM     21  H   UNL     1      26.332  33.664  -4.079  1.00  0.00     0.293 HD
ENDBRANCH  17  20
ENDBRANCH   1  12
BRANCH   2  22
ATOM     22  O   UNL     1      22.945  28.005  -6.013  1.00  0.00    -0.502 OA
ATOM     23  H   UNL     1      22.043  28.433  -5.842  1.00  0.00     0.293 HD
ENDBRANCH   2  22
BRANCH   6  24
ATOM     24  O   UNL     1      25.174  23.905  -3.447  1.00  0.00    -0.507 OA
ATOM     25  H   UNL     1      25.144  23.584  -4.402  1.00  0.00     0.293 HD
ENDBRANCH   6  24
BRANCH   8  26
ATOM     26  O   UNL     1      28.124  26.263  -0.483  1.00  0.00    -0.508 OA
ATOM     27  H   UNL     1      27.869  26.232   0.497  1.00  0.00     0.293 HD
ENDBRANCH   8  26
TORSDOF 6
ENDMDL
MODEL 3
REMARK VINA RESULT:    -5.877      1.810      3.562
REMARK INTER + INTRA:          -7.131
REMARK INTER:                  -6.799
REMARK INTRA:                  -0.331
REMARK UNBOUND:                -0.051
REMARK SMILES O=c1c(O)c(-c2ccc(O)c(O)c2)oc2cc(O)cc(O)c12
REMARK SMILES IDX 5 1 3 2 2 3 1 4 22 5 20 6 19 7 17 8 16 9 15 10 14 11 6 12
REMARK SMILES IDX 7 13 8 14 9 15 13 16 11 17 10 18 12 20 4 22 21 24 18 26
REMARK H PARENT 10 19 12 21 4 23 21 25 18 27
REMARK Flexibility Score: inf
ROOT
ATOM      1  C   UNL     1      23.744  28.544  -5.319  1.00  0.00     0.180 A 
ATOM      2  C   UNL     1      24.083  27.960  -4.087  1.00  0.00     0.208 A 
ATOM      3  C   UNL     1      24.196  26.562  -4.004  1.00  0.00     0.238 A 
ATOM      4  O   UNL     1      24.425  26.042  -2.881  1.00  0.00    -0.285 OA
ATOM      5  C   UNL     1      24.024  25.771  -5.165  1.00  0.00     0.111 A 
ATOM      6  C   UNL     1      24.160  24.350  -5.207  1.00  0.00     0.134 A 
ATOM      7  C   UNL     1      23.862  23.662  -6.390  1.00  0.00     0.093 A 
ATOM      8  C   UNL     1      23.496  24.349  -7.551  1.00  0.00     0.123 A 
ATOM      9  C   UNL     1      23.415  25.739  -7.535  1.00  0.00     0.094 A 
ATOM     10  C   UNL     1      23.668  26.450  -6.359  1.00  0.00     0.146 A 
ATOM     11  O   UNL     1      23.557  27.774  -6.384  1.00  0.00    -0.452 OA
ENDROOT
BRANCH   1  12
ATOM     12  C   UNL     1      23.593  30.008  -5.483  1.00  0.00     0.025 A 
ATOM     13  C   UNL     1      24.691  30.771  -5.902  1.00  0.00     0.016 A 
ATOM     14  C   UNL     1      24.565  32.150  -6.082  1.00  0.00     0.051 A 
ATOM     15  C   UNL     1      23.341  32.790  -5.864  1.00  0.00     0.157 A 
ATOM     16  C   UNL     1      22.356  30.644  -5.285  1.00  0.00     0.062 A 
ATOM     17  C   UNL     1      22.219  32.025  -5.467  1.00  0.00     0.158 A 
BRANCH  15  18
ATOM     18  O   UNL     1      23.284  34.172  -6.054  1.00  0.00    -0.504 OA
ATOM     19  H   UNL     1      22.506  34.750  -5.769  1.00  0.00     0.293 HD
ENDBRANCH  15  18
BRANCH  17  20
ATOM     20  O   UNL     1      20.960  32.590  -5.250  1.00  0.00    -0.504 OA
ATOM     21  H   UNL     1      20.442  32.499  -4.389  1.00  0.00     0.293 HD
ENDBRANCH  17  20
ENDBRANCH   1  12
BRANCH   2  22
ATOM     22  O   UNL     1      24.323  28.763  -2.970  1.00  0.00    -0.502 OA
ATOM     23  H   UNL     1      23.759  29.577  -2.753  1.00  0.00     0.293 HD
ENDBRANCH   2  22
BRANCH   6  24
ATOM     24  O   UNL     1      24.604  23.573  -4.132  1.00  0.00    -0.507 OA
ATOM     25  H   UNL     1      24.078  22.828  -3.702  1.00  0.00     0.293 HD
ENDBRANCH   6  24
BRANCH   8  26
ATOM     26  O   UNL     1      23.219  23.658  -8.728  1.00  0.00    -0.508 OA
ATOM     27  H   UNL     1      22.524  23.989  -9.387  1.00  0.00     0.293 HD
ENDBRANCH   8  26
TORSDOF 6
ENDMDL
MODEL 4
REMARK VINA RESULT:    -5.674      1.773      3.051
REMARK INTER + INTRA:          -6.886
REMARK INTER:                  -6.667
REMARK INTRA:                  -0.219
REMARK UNBOUND:                -0.051
REMARK SMILES O=c1c(O)c(-c2ccc(O)c(O)c2)oc2cc(O)cc(O)c12
REMARK SMILES IDX 5 1 3 2 2 3 1 4 22 5 20 6 19 7 17 8 16 9 15 10 14 11 6 12
REMARK SMILES IDX 7 13 8 14 9 15 13 16 11 17 10 18 12 20 4 22 21 24 18 26
REMARK H PARENT 10 19 12 21 4 23 21 25 18 27
REMARK Flexibility Score: inf
ROOT
ATOM      1  C   UNL     1      24.720  28.434  -4.849  1.00  0.00     0.180 A 
ATOM      2  C   UNL     1      25.685  28.749  -3.878  1.00  0.00     0.208 A 
ATOM      3  C   UNL     1      26.127  27.740  -3.006  1.00  0.00     0.238 A 
ATOM      4  O   UNL     1      26.935  28.046  -2.090  1.00  0.00    -0.285 OA
ATOM      5  C   UNL     1      25.641  26.418  -3.153  1.00  0.00     0.111 A 
ATOM      6  C   UNL     1      26.053  25.308  -2.355  1.00  0.00     0.134 A 
ATOM      7  C   UNL     1      25.425  24.067  -2.520  1.00  0.00     0.093 A 
ATOM      8  C   UNL     1      24.446  23.880  -3.499  1.00  0.00     0.123 A 
ATOM      9  C   UNL     1      24.076  24.943  -4.319  1.00  0.00     0.094 A 
ATOM     10  C   UNL     1      24.657  26.203  -4.152  1.00  0.00     0.146 A 
ATOM     11  O   UNL     1      24.258  27.193  -4.942  1.00  0.00    -0.452 OA
ENDROOT
BRANCH   1  12
ATOM     12  C   UNL     1      24.194  29.446  -5.795  1.00  0.00     0.025 A 
ATOM     13  C   UNL     1      24.449  29.306  -7.165  1.00  0.00     0.016 A 
ATOM     14  C   UNL     1      23.946  30.238  -8.076  1.00  0.00     0.051 A 
ATOM     15  C   UNL     1      23.168  31.314  -7.640  1.00  0.00     0.157 A 
ATOM     16  C   UNL     1      23.393  30.513  -5.355  1.00  0.00     0.062 A 
ATOM     17  C   UNL     1      22.881  31.450  -6.261  1.00  0.00     0.158 A 
BRANCH  15  18
ATOM     18  O   UNL     1      22.702  32.214  -8.600  1.00  0.00    -0.504 OA
ATOM     19  H   UNL     1      22.725  32.040  -9.595  1.00  0.00     0.293 HD
ENDBRANCH  15  18
BRANCH  17  20
ATOM     20  O   UNL     1      22.095  32.487  -5.753  1.00  0.00    -0.504 OA
ATOM     21  H   UNL     1      21.279  32.346  -5.176  1.00  0.00     0.293 HD
ENDBRANCH  17  20
ENDBRANCH   1  12
BRANCH   2  22
ATOM     22  O   UNL     1      26.209  30.041  -3.799  1.00  0.00    -0.502 OA
ATOM     23  H   UNL     1      26.287  30.544  -2.922  1.00  0.00     0.293 HD
ENDBRANCH   2  22
BRANCH   6  24
ATOM     24  O   UNL     1      27.084  25.362  -1.410  1.00  0.00    -0.507 OA
ATOM     25  H   UNL     1      27.853  24.713  -1.357  1.00  0.00     0.293 HD
ENDBRANCH   6  24
BRANCH   8  26
ATOM     26  O   UNL     1      23.839  22.638  -3.669  1.00  0.00    -0.508 OA
ATOM     27  H   UNL     1      23.550  22.310  -4.583  1.00  0.00     0.293 HD
ENDBRANCH   8  26
TORSDOF 6
ENDMDL
MODEL 5
REMARK VINA RESULT:    -5.574      1.653      6.685
REMARK INTER + INTRA:          -6.766
REMARK INTER:                  -6.566
REMARK INTRA:                  -0.199
REMARK UNBOUND:                -0.051
REMARK SMILES O=c1c(O)c(-c2ccc(O)c(O)c2)oc2cc(O)cc(O)c12
REMARK SMILES IDX 5 1 3 2 2 3 1 4 22 5 20 6 19 7 17 8 16 9 15 10 14 11 6 12
REMARK SMILES IDX 7 13 8 14 9 15 13 16 11 17 10 18 12 20 4 22 21 24 18 26
REMARK H PARENT 10 19 12 21 4 23 21 25 18 27
REMARK Flexibility Score: inf
ROOT
ATOM      1  C   UNL     1      23.960  29.219  -4.465  1.00  0.00     0.180 A 
ATOM      2  C   UNL     1      22.712  29.779  -4.786  1.00  0.00     0.208 A 
ATOM      3  C   UNL     1      22.635  31.153  -5.064  1.00  0.00     0.238 A 
ATOM      4  O   UNL     1      21.503  31.663  -5.276  1.00  0.00    -0.285 OA
ATOM      5  C   UNL     1      23.813  31.939  -5.074  1.00  0.00     0.111 A 
ATOM      6  C   UNL     1      23.859  33.331  -5.387  1.00  0.00     0.134 A 
ATOM      7  C   UNL     1      25.067  34.028  -5.260  1.00  0.00     0.093 A 
ATOM      8  C   UNL     1      26.244  33.370  -4.895  1.00  0.00     0.123 A 
ATOM      9  C   UNL     1      26.221  32.001  -4.642  1.00  0.00     0.094 A 
ATOM     10  C   UNL     1      25.023  31.286  -4.722  1.00  0.00     0.146 A 
ATOM     11  O   UNL     1      25.043  29.986  -4.450  1.00  0.00    -0.452 OA
ENDROOT
BRANCH   1  12
ATOM     12  C   UNL     1      24.120  27.781  -4.146  1.00  0.00     0.025 A 
ATOM     13  C   UNL     1      24.408  27.395  -2.831  1.00  0.00     0.016 A 
ATOM     14  C   UNL     1      24.543  26.044  -2.504  1.00  0.00     0.051 A 
ATOM     15  C   UNL     1      24.376  25.054  -3.478  1.00  0.00     0.157 A 
ATOM     16  C   UNL     1      23.928  26.788  -5.122  1.00  0.00     0.062 A 
ATOM     17  C   UNL     1      24.057  25.431  -4.804  1.00  0.00     0.158 A 
BRANCH  15  18
ATOM     18  O   UNL     1      24.531  23.722  -3.088  1.00  0.00    -0.504 OA
ATOM     19  H   UNL     1      24.811  22.980  -3.713  1.00  0.00     0.293 HD
ENDBRANCH  15  18
BRANCH  17  20
ATOM     20  O   UNL     1      23.856  24.499  -5.825  1.00  0.00    -0.504 OA
ATOM     21  H   UNL     1      23.908  23.500  -5.695  1.00  0.00     0.293 HD
ENDBRANCH  17  20
ENDBRANCH   1  12
BRANCH   2  22
ATOM     22  O   UNL     1      21.573  28.973  -4.846  1.00  0.00    -0.502 OA
ATOM     23  H   UNL     1      21.034  28.730  -4.023  1.00  0.00     0.293 HD
ENDBRANCH   2  22
BRANCH   6  24
ATOM     24  O   UNL     1      22.762  34.067  -5.846  1.00  0.00    -0.507 OA
ATOM     25  H   UNL     1      22.228  33.852  -6.674  1.00  0.00     0.293 HD
ENDBRANCH   6  24
BRANCH   8  26
ATOM     26  O   UNL     1      27.445  34.068  -4.789  1.00  0.00    -0.508 OA
ATOM     27  H   UNL     1      28.265  33.651  -4.363  1.00  0.00     0.293 HD
ENDBRANCH   8  26
TORSDOF 6
ENDMDL
MODEL 6
REMARK VINA RESULT:    -5.558      2.091      2.396
REMARK INTER + INTRA:          -6.747
REMARK INTER:                  -6.528
REMARK INTRA:                  -0.219
REMARK UNBOUND:                -0.051
REMARK SMILES O=c1c(O)c(-c2ccc(O)c(O)c2)oc2cc(O)cc(O)c12
REMARK SMILES IDX 5 1 3 2 2 3 1 4 22 5 20 6 19 7 17 8 16 9 15 10 14 11 6 12
REMARK SMILES IDX 7 13 8 14 9 15 13 16 11 17 10 18 12 20 4 22 21 24 18 26
REMARK H PARENT 10 19 12 21 4 23 21 25 18 27
REMARK Flexibility Score: inf
ROOT
ATOM      1  C   UNL     1      24.216  28.487  -5.902  1.00  0.00     0.180 A 
ATOM      2  C   UNL     1      23.745  27.199  -6.209  1.00  0.00     0.208 A 
ATOM      3  C   UNL     1      24.036  26.141  -5.333  1.00  0.00     0.238 A 
ATOM      4  O   UNL     1      23.676  24.978  -5.653  1.00  0.00    -0.285 OA
ATOM      5  C   UNL     1      24.745  26.392  -4.134  1.00  0.00     0.111 A 
ATOM      6  C   UNL     1      25.056  25.404  -3.152  1.00  0.00     0.134 A 
ATOM      7  C   UNL     1      25.856  25.748  -2.054  1.00  0.00     0.093 A 
ATOM      8  C   UNL     1      26.301  27.060  -1.870  1.00  0.00     0.123 A 
ATOM      9  C   UNL     1      25.956  28.043  -2.794  1.00  0.00     0.094 A 
ATOM     10  C   UNL     1      25.193  27.722  -3.919  1.00  0.00     0.146 A 
ATOM     11  O   UNL     1      24.906  28.687  -4.786  1.00  0.00    -0.452 OA
ENDROOT
BRANCH   1  12
ATOM     12  C   UNL     1      23.962  29.650  -6.783  1.00  0.00     0.025 A 
ATOM     13  C   UNL     1      23.169  30.707  -6.316  1.00  0.00     0.016 A 
ATOM     14  C   UNL     1      22.933  31.823  -7.122  1.00  0.00     0.051 A 
ATOM     15  C   UNL     1      23.496  31.912  -8.399  1.00  0.00     0.157 A 
ATOM     16  C   UNL     1      24.548  29.747  -8.056  1.00  0.00     0.062 A 
ATOM     17  C   UNL     1      24.321  30.863  -8.870  1.00  0.00     0.158 A 
BRANCH  15  18
ATOM     18  O   UNL     1      23.215  33.051  -9.157  1.00  0.00    -0.504 OA
ATOM     19  H   UNL     1      22.952  33.029 -10.132  1.00  0.00     0.293 HD
ENDBRANCH  15  18
BRANCH  17  20
ATOM     20  O   UNL     1      24.933  30.891 -10.125  1.00  0.00    -0.504 OA
ATOM     21  H   UNL     1      24.429  30.930 -10.998  1.00  0.00     0.293 HD
ENDBRANCH  17  20
ENDBRANCH   1  12
BRANCH   2  22
ATOM     22  O   UNL     1      22.981  26.985  -7.359  1.00  0.00    -0.502 OA
ATOM     23  H   UNL     1      22.919  26.081  -7.811  1.00  0.00     0.293 HD
ENDBRANCH   2  22
BRANCH   6  24
ATOM     24  O   UNL     1      24.589  24.086  -3.191  1.00  0.00    -0.507 OA
ATOM     25  H   UNL     1      23.636  23.805  -3.017  1.00  0.00     0.293 HD
ENDBRANCH   6  24
BRANCH   8  26
ATOM     26  O   UNL     1      27.081  27.397  -0.766  1.00  0.00    -0.508 OA
ATOM     27  H   UNL     1      27.273  28.363  -0.528  1.00  0.00     0.293 HD
ENDBRANCH   8  26
TORSDOF 6
ENDMDL
MODEL 7
REMARK VINA RESULT:    -5.441      1.939      2.780
REMARK INTER + INTRA:          -6.605
REMARK INTER:                  -6.334
REMARK INTRA:                  -0.271
REMARK UNBOUND:                -0.051
REMARK SMILES O=c1c(O)c(-c2ccc(O)c(O)c2)oc2cc(O)cc(O)c12
REMARK SMILES IDX 5 1 3 2 2 3 1 4 22 5 20 6 19 7 17 8 16 9 15 10 14 11 6 12
REMARK SMILES IDX 7 13 8 14 9 15 13 16 11 17 10 18 12 20 4 22 21 24 18 26
REMARK H PARENT 10 19 12 21 4 23 21 25 18 27
REMARK Flexibility Score: inf
ROOT
ATOM      1  C   UNL     1      23.839  29.402  -5.762  1.00  0.00     0.180 A 
ATOM      2  C   UNL     1      23.725  28.780  -7.017  1.00  0.00     0.208 A 
ATOM      3  C   UNL     1      23.793  27.379  -7.091  1.00  0.00     0.238 A 
ATOM      4  O   UNL     1      23.766  26.833  -8.225  1.00  0.00    -0.285 OA
ATOM      5  C   UNL     1      23.919  26.616  -5.905  1.00  0.00     0.111 A 
ATOM      6  C   UNL     1      23.952  25.189  -5.857  1.00  0.00     0.134 A 
ATOM      7  C   UNL     1      24.187  24.544  -4.636  1.00  0.00     0.093 A 
ATOM      8  C   UNL     1      24.324  25.272  -3.451  1.00  0.00     0.123 A 
ATOM      9  C   UNL     1      24.237  26.662  -3.479  1.00  0.00     0.094 A 
ATOM     10  C   UNL     1      24.043  27.335  -4.688  1.00  0.00     0.146 A 
ATOM     11  O   UNL     1      23.989  28.662  -4.671  1.00  0.00    -0.452 OA
ENDROOT
BRANCH   1  12
ATOM     12  C   UNL     1      23.791  30.875  -5.606  1.00  0.00     0.025 A 
ATOM     13  C   UNL     1      22.555  31.533  -5.663  1.00  0.00     0.016 A 
ATOM     14  C   UNL     1      22.484  32.918  -5.497  1.00  0.00     0.051 A 
ATOM     15  C   UNL     1      23.639  33.668  -5.255  1.00  0.00     0.157 A 
ATOM     16  C   UNL     1      24.950  31.622  -5.339  1.00  0.00     0.062 A 
ATOM     17  C   UNL     1      24.889  33.010  -5.168  1.00  0.00     0.158 A 
BRANCH  15  18
ATOM     18  O   UNL     1      23.501  35.049  -5.106  1.00  0.00    -0.504 OA
ATOM     19  H   UNL     1      23.347  35.688  -5.874  1.00  0.00     0.293 HD
ENDBRANCH  15  18
BRANCH  17  20
ATOM     20  O   UNL     1      26.082  33.689  -4.909  1.00  0.00    -0.504 OA
ATOM     21  H   UNL     1      26.170  34.695  -4.908  1.00  0.00     0.293 HD
ENDBRANCH  17  20
ENDBRANCH   1  12
BRANCH   2  22
ATOM     22  O   UNL     1      23.525  29.547  -8.167  1.00  0.00    -0.502 OA
ATOM     23  H   UNL     1      23.260  30.525  -8.131  1.00  0.00     0.293 HD
ENDBRANCH   2  22
BRANCH   6  24
ATOM     24  O   UNL     1      23.739  24.363  -6.965  1.00  0.00    -0.507 OA
ATOM     25  H   UNL     1      22.967  24.447  -7.608  1.00  0.00     0.293 HD
ENDBRANCH   6  24
BRANCH   8  26
ATOM     26  O   UNL     1      24.539  24.622  -2.238  1.00  0.00    -0.508 OA
ATOM     27  H   UNL     1      24.490  23.612  -2.162  1.00  0.00     0.293 HD
ENDBRANCH   8  26
TORSDOF 6
ENDMDL
MODEL 8
REMARK VINA RESULT:    -5.440      2.314      7.085
REMARK INTER + INTRA:          -6.604
REMARK INTER:                  -6.316
REMARK INTRA:                  -0.289
REMARK UNBOUND:                -0.051
REMARK SMILES O=c1c(O)c(-c2ccc(O)c(O)c2)oc2cc(O)cc(O)c12
REMARK SMILES IDX 5 1 3 2 2 3 1 4 22 5 20 6 19 7 17 8 16 9 15 10 14 11 6 12
REMARK SMILES IDX 7 13 8 14 9 15 13 16 11 17 10 18 12 20 4 22 21 24 18 26
REMARK H PARENT 10 19 12 21 4 23 21 25 18 27
REMARK Flexibility Score: inf
ROOT
ATOM      1  C   UNL     1      25.238  30.493  -4.741  1.00  0.00     0.180 A 
ATOM      2  C   UNL     1      25.064  30.194  -6.103  1.00  0.00     0.208 A 
ATOM      3  C   UNL     1      24.613  31.203  -6.969  1.00  0.00     0.238 A 
ATOM      4  O   UNL     1      24.387  30.908  -8.172  1.00  0.00    -0.285 OA
ATOM      5  C   UNL     1      24.397  32.512  -6.475  1.00  0.00     0.111 A 
ATOM      6  C   UNL     1      23.984  33.623  -7.272  1.00  0.00     0.134 A 
ATOM      7  C   UNL     1      23.699  34.848  -6.655  1.00  0.00     0.093 A 
ATOM      8  C   UNL     1      23.874  35.019  -5.279  1.00  0.00     0.123 A 
ATOM      9  C   UNL     1      24.330  33.957  -4.502  1.00  0.00     0.094 A 
ATOM     10  C   UNL     1      24.585  32.712  -5.083  1.00  0.00     0.146 A 
ATOM     11  O   UNL     1      24.997  31.722  -4.300  1.00  0.00    -0.452 OA
ENDROOT
BRANCH   1  12
ATOM     12  C   UNL     1      25.697  29.479  -3.763  1.00  0.00     0.025 A 
ATOM     13  C   UNL     1      27.006  29.541  -3.269  1.00  0.00     0.016 A 
ATOM     14  C   UNL     1      27.453  28.608  -2.332  1.00  0.00     0.051 A 
ATOM     15  C   UNL     1      26.599  27.607  -1.858  1.00  0.00     0.157 A 
ATOM     16  C   UNL     1      24.828  28.489  -3.273  1.00  0.00     0.062 A 
ATOM     17  C   UNL     1      25.266  27.551  -2.330  1.00  0.00     0.158 A 
BRANCH  15  18
ATOM     18  O   UNL     1      27.109  26.700  -0.927  1.00  0.00    -0.504 OA
ATOM     19  H   UNL     1      26.869  25.719  -0.904  1.00  0.00     0.293 HD
ENDBRANCH  15  18
BRANCH  17  20
ATOM     20  O   UNL     1      24.349  26.594  -1.888  1.00  0.00    -0.504 OA
ATOM     21  H   UNL     1      24.155  26.405  -0.916  1.00  0.00     0.293 HD
ENDBRANCH  17  20
ENDBRANCH   1  12
BRANCH   2  22
ATOM     22  O   UNL     1      25.355  28.916  -6.585  1.00  0.00    -0.502 OA
ATOM     23  H   UNL     1      24.783  28.452  -7.281  1.00  0.00     0.293 HD
ENDBRANCH   2  22
BRANCH   6  24
ATOM     24  O   UNL     1      23.863  33.586  -8.664  1.00  0.00    -0.507 OA
ATOM     25  H   UNL     1      24.632  33.651  -9.313  1.00  0.00     0.293 HD
ENDBRANCH   6  24
BRANCH   8  26
ATOM     26  O   UNL     1      23.605  36.246  -4.676  1.00  0.00    -0.508 OA
ATOM     27  H   UNL     1      24.272  37.008  -4.705  1.00  0.00     0.293 HD
ENDBRANCH   8  26
TORSDOF 6
ENDMDL
MODEL 9
REMARK VINA RESULT:    -5.277      1.698      2.631
REMARK INTER + INTRA:          -6.408
REMARK INTER:                  -6.106
REMARK INTRA:                  -0.302
REMARK UNBOUND:                -0.051
REMARK SMILES O=c1c(O)c(-c2ccc(O)c(O)c2)oc2cc(O)cc(O)c12
REMARK SMILES IDX 5 1 3 2 2 3 1 4 22 5 20 6 19 7 17 8 16 9 15 10 14 11 6 12
REMARK SMILES IDX 7 13 8 14 9 15 13 16 11 17 10 18 12 20 4 22 21 24 18 26
REMARK H PARENT 10 19 12 21 4 23 21 25 18 27
REMARK Flexibility Score: inf
ROOT
ATOM      1  C   UNL     1      24.680  31.044  -5.362  1.00  0.00     0.180 A 
ATOM      2  C   UNL     1      23.924  30.165  -6.157  1.00  0.00     0.208 A 
ATOM      3  C   UNL     1      23.841  28.813  -5.786  1.00  0.00     0.238 A 
ATOM      4  O   UNL     1      23.225  28.018  -6.542  1.00  0.00    -0.285 OA
ATOM      5  C   UNL     1      24.466  28.369  -4.596  1.00  0.00     0.111 A 
ATOM      6  C   UNL     1      24.409  27.031  -4.099  1.00  0.00     0.134 A 
ATOM      7  C   UNL     1      25.156  26.682  -2.966  1.00  0.00     0.093 A 
ATOM      8  C   UNL     1      25.905  27.638  -2.275  1.00  0.00     0.123 A 
ATOM      9  C   UNL     1      25.923  28.957  -2.720  1.00  0.00     0.094 A 
ATOM     10  C   UNL     1      25.219  29.327  -3.869  1.00  0.00     0.146 A 
ATOM     11  O   UNL     1      25.282  30.592  -4.270  1.00  0.00    -0.452 OA
ENDROOT
BRANCH   1  12
ATOM     12  C   UNL     1      24.827  32.480  -5.696  1.00  0.00     0.025 A 
ATOM     13  C   UNL     1      25.768  32.871  -6.658  1.00  0.00     0.016 A 
ATOM     14  C   UNL     1      25.908  34.217  -7.002  1.00  0.00     0.051 A 
ATOM     15  C   UNL     1      25.103  35.194  -6.408  1.00  0.00     0.157 A 
ATOM     16  C   UNL     1      24.000  33.455  -5.114  1.00  0.00     0.062 A 
ATOM     17  C   UNL     1      24.130  34.807  -5.456  1.00  0.00     0.158 A 
BRANCH  15  18
ATOM     18  O   UNL     1      25.299  36.522  -6.791  1.00  0.00    -0.504 OA
ATOM     19  H   UNL     1      24.706  37.015  -7.444  1.00  0.00     0.293 HD
ENDBRANCH  15  18
BRANCH  17  20
ATOM     20  O   UNL     1      23.277  35.722  -4.836  1.00  0.00    -0.504 OA
ATOM     21  H   UNL     1      23.241  35.874  -3.838  1.00  0.00     0.293 HD
ENDBRANCH  17  20
ENDBRANCH   1  12
BRANCH   2  22
ATOM     22  O   UNL     1      23.251  30.639  -7.285  1.00  0.00    -0.502 OA
ATOM     23  H   UNL     1      23.294  31.608  -7.578  1.00  0.00     0.293 HD
ENDBRANCH   2  22
BRANCH   6  24
ATOM     24  O   UNL     1      23.622  26.020  -4.660  1.00  0.00    -0.507 OA
ATOM     25  H   UNL     1      23.537  25.084  -4.295  1.00  0.00     0.293 HD
ENDBRANCH   6  24
BRANCH   8  26
ATOM     26  O   UNL     1      26.630  27.286  -1.139  1.00  0.00    -0.508 OA
ATOM     27  H   UNL     1      26.633  26.336  -0.785  1.00  0.00     0.293 HD
ENDBRANCH   8  26
TORSDOF 6
ENDMDL
