MODEL 1
REMARK VINA RESULT:    -6.497      0.000      0.000
REMARK INTER + INTRA:          -7.913
REMARK INTER:                  -7.636
REMARK INTRA:                  -0.277
REMARK UNBOUND:                -0.277
REMARK SMILES O=c1cc(-c2ccc(O)c(O)c2)oc2cc(O)cc(O)c12
REMARK SMILES IDX 4 1 3 2 2 3 1 4 21 5 19 6 18 7 16 8 15 9 14 10 13 11 5 12
REMARK SMILES IDX 6 13 7 14 8 15 12 16 10 17 9 18 11 20 20 22 17 24
REMARK H PARENT 9 19 11 21 20 23 17 25
REMARK Flexibility Score: inf
ROOT
ATOM      1  C   UNL     1       2.085  -4.034  21.822  1.00  0.00     0.138 A 
ATOM      2  C   UNL     1       3.225  -3.895  22.625  1.00  0.00     0.100 A 
ATOM      3  C   UNL     1       3.084  -3.601  23.981  1.00  0.00     0.197 A 
ATOM      4  O   UNL     1       4.124  -3.537  24.686  1.00  0.00    -0.289 OA
ATOM      5  C   UNL     1       1.792  -3.408  24.529  1.00  0.00     0.107 A 
ATOM      6  C   UNL     1       1.526  -3.071  25.890  1.00  0.00     0.134 A 
ATOM      7  C   UNL     1       0.202  -3.004  26.339  1.00  0.00     0.093 A 
ATOM      8  C   UNL     1      -0.866  -3.203  25.465  1.00  0.00     0.123 A 
ATOM      9  C   UNL     1      -0.620  -3.484  24.121  1.00  0.00     0.094 A 
ATOM     10  C   UNL     1       0.691  -3.593  23.650  1.00  0.00     0.146 A 
ATOM     11  O   UNL     1       0.882  -3.880  22.367  1.00  0.00    -0.456 OA
ENDROOT
BRANCH   1  12
ATOM     12  C   UNL     1       2.177  -4.343  20.373  1.00  0.00     0.021 A 
ATOM     13  C   UNL     1       2.747  -5.542  19.907  1.00  0.00     0.016 A 
ATOM     14  C   UNL     1       2.810  -5.809  18.538  1.00  0.00     0.051 A 
ATOM     15  C   UNL     1       2.303  -4.897  17.607  1.00  0.00     0.157 A 
ATOM     16  C   UNL     1       1.655  -3.434  19.437  1.00  0.00     0.062 A 
ATOM     17  C   UNL     1       1.715  -3.695  18.062  1.00  0.00     0.158 A 
BRANCH  15  18
ATOM     18  O   UNL     1       2.402  -5.225  16.253  1.00  0.00    -0.504 OA
ATOM     19  H   UNL     1       2.406  -4.546  15.507  1.00  0.00     0.293 HD
ENDBRANCH  15  18
BRANCH  17  20
ATOM     20  O   UNL     1       1.184  -2.739  17.194  1.00  0.00    -0.504 OA
ATOM     21  H   UNL     1       1.683  -2.354  16.405  1.00  0.00     0.293 HD
ENDBRANCH  17  20
ENDBRANCH   1  12
BRANCH   6  22
ATOM     22  O   UNL     1       2.517  -2.773  26.831  1.00  0.00    -0.507 OA
ATOM     23  H   UNL     1       2.737  -1.849  27.169  1.00  0.00     0.293 HD
ENDBRANCH   6  22
BRANCH   8  24
ATOM     24  O   UNL     1      -2.172  -3.112  25.944  1.00  0.00    -0.508 OA
ATOM     25  H   UNL     1      -2.708  -3.939  26.181  1.00  0.00     0.293 HD
ENDBRANCH   8  24
TORSDOF 5
ENDMDL
MODEL 2
REMARK VINA RESULT:    -6.423      1.776      6.716
REMARK INTER + INTRA:          -7.826
REMARK INTER:                  -7.519
REMARK INTRA:                  -0.307
REMARK UNBOUND:                -0.277
REMARK SMILES O=c1cc(-c2ccc(O)c(O)c2)oc2cc(O)cc(O)c12
REMARK SMILES IDX 4 1 3 2 2 3 1 4 21 5 19 6 18 7 16 8 15 9 14 10 13 11 5 12
REMARK SMILES IDX 6 13 7 14 8 15 12 16 10 17 9 18 11 20 20 22 17 24
REMARK H PARENT 9 19 11 21 20 23 17 25
REMARK Flexibility Score: inf
ROOT
ATOM      1  C   UNL     1       2.464  -4.532  21.807  1.00  0.00     0.138 A 
ATOM      2  C   UNL     1       3.003  -5.420  20.867  1.00  0.00     0.100 A 
ATOM      3  C   UNL     1       2.729  -5.241  19.511  1.00  0.00     0.197 A 
ATOM      4  O   UNL     1       3.273  -6.022  18.688  1.00  0.00    -0.289 OA
ATOM      5  C   UNL     1       1.879  -4.186  19.097  1.00  0.00     0.107 A 
ATOM      6  C   UNL     1       1.500  -3.928  17.745  1.00  0.00     0.134 A 
ATOM      7  C   UNL     1       0.734  -2.795  17.449  1.00  0.00     0.093 A 
ATOM      8  C   UNL     1       0.281  -1.946  18.458  1.00  0.00     0.123 A 
ATOM      9  C   UNL     1       0.603  -2.217  19.788  1.00  0.00     0.094 A 
ATOM     10  C   UNL     1       1.396  -3.319  20.114  1.00  0.00     0.146 A 
ATOM     11  O   UNL     1       1.694  -3.531  21.391  1.00  0.00    -0.456 OA
ENDROOT
BRANCH   1  12
ATOM     12  C   UNL     1       2.720  -4.678  23.262  1.00  0.00     0.021 A 
ATOM     13  C   UNL     1       3.908  -5.249  23.751  1.00  0.00     0.016 A 
ATOM     14  C   UNL     1       4.125  -5.363  25.126  1.00  0.00     0.051 A 
ATOM     15  C   UNL     1       3.172  -4.905  26.041  1.00  0.00     0.157 A 
ATOM     16  C   UNL     1       1.769  -4.205  24.183  1.00  0.00     0.062 A 
ATOM     17  C   UNL     1       1.979  -4.316  25.564  1.00  0.00     0.158 A 
BRANCH  15  18
ATOM     18  O   UNL     1       3.451  -5.053  27.401  1.00  0.00    -0.504 OA
ATOM     19  H   UNL     1       3.053  -4.472  28.124  1.00  0.00     0.293 HD
ENDBRANCH  15  18
BRANCH  17  20
ATOM     20  O   UNL     1       0.984  -3.832  26.415  1.00  0.00    -0.504 OA
ATOM     21  H   UNL     1       0.144  -4.342  26.648  1.00  0.00     0.293 HD
ENDBRANCH  17  20
ENDBRANCH   1  12
BRANCH   6  22
ATOM     22  O   UNL     1       1.830  -4.755  16.667  1.00  0.00    -0.507 OA
ATOM     23  H   UNL     1       1.834  -5.763  16.690  1.00  0.00     0.293 HD
ENDBRANCH   6  22
BRANCH   8  24
ATOM     24  O   UNL     1      -0.494  -0.836  18.126  1.00  0.00    -0.508 OA
ATOM     25  H   UNL     1      -1.400  -0.676  18.551  1.00  0.00     0.293 HD
ENDBRANCH   8  24
TORSDOF 5
ENDMDL
MODEL 3
REMARK VINA RESULT:    -6.075      5.888      7.785
REMARK INTER + INTRA:          -7.417
REMARK INTER:                  -7.100
REMARK INTRA:                  -0.317
REMARK UNBOUND:                -0.277
REMARK SMILES O=c1cc(-c2ccc(O)c(O)c2)oc2cc(O)cc(O)c12
REMARK SMILES IDX 4 1 3 2 2 3 1 4 21 5 19 6 18 7 16 8 15 9 14 10 13 11 5 12
REMARK SMILES IDX 6 13 7 14 8 15 12 16 10 17 9 18 11 20 20 22 17 24
REMARK H PARENT 9 19 11 21 20 23 17 25
REMARK Flexibility Score: inf
ROOT
ATOM      1  C   UNL     1      -2.070  -0.987  18.895  1.00  0.00     0.138 A 
ATOM      2  C   UNL     1      -2.491  -0.504  20.142  1.00  0.00     0.100 A 
ATOM      3  C   UNL     1      -3.647   0.271  20.229  1.00  0.00     0.197 A 
ATOM      4  O   UNL     1      -4.028   0.642  21.369  1.00  0.00    -0.289 OA
ATOM      5  C   UNL     1      -4.367   0.596  19.053  1.00  0.00     0.107 A 
ATOM      6  C   UNL     1      -5.541   1.407  19.014  1.00  0.00     0.134 A 
ATOM      7  C   UNL     1      -6.223   1.577  17.804  1.00  0.00     0.093 A 
ATOM      8  C   UNL     1      -5.743   1.016  16.621  1.00  0.00     0.123 A 
ATOM      9  C   UNL     1      -4.569   0.262  16.637  1.00  0.00     0.094 A 
ATOM     10  C   UNL     1      -3.885   0.044  17.836  1.00  0.00     0.146 A 
ATOM     11  O   UNL     1      -2.781  -0.694  17.810  1.00  0.00    -0.456 OA
ENDROOT
BRANCH   1  12
ATOM     12  C   UNL     1      -0.845  -1.813  18.745  1.00  0.00     0.021 A 
ATOM     13  C   UNL     1       0.056  -2.000  19.808  1.00  0.00     0.016 A 
ATOM     14  C   UNL     1       1.194  -2.791  19.639  1.00  0.00     0.051 A 
ATOM     15  C   UNL     1       1.455  -3.417  18.416  1.00  0.00     0.157 A 
ATOM     16  C   UNL     1      -0.590  -2.454  17.521  1.00  0.00     0.062 A 
ATOM     17  C   UNL     1       0.550  -3.249  17.343  1.00  0.00     0.158 A 
BRANCH  15  18
ATOM     18  O   UNL     1       2.612  -4.192  18.314  1.00  0.00    -0.504 OA
ATOM     19  H   UNL     1       2.939  -4.815  19.038  1.00  0.00     0.293 HD
ENDBRANCH  15  18
BRANCH  17  20
ATOM     20  O   UNL     1       0.740  -3.846  16.096  1.00  0.00    -0.504 OA
ATOM     21  H   UNL     1       0.060  -3.824  15.350  1.00  0.00     0.293 HD
ENDBRANCH  17  20
ENDBRANCH   1  12
BRANCH   6  22
ATOM     22  O   UNL     1      -6.063   2.082  20.122  1.00  0.00    -0.507 OA
ATOM     23  H   UNL     1      -5.771   1.942  21.077  1.00  0.00     0.293 HD
ENDBRANCH   6  22
BRANCH   8  24
ATOM     24  O   UNL     1      -6.440   1.219  15.431  1.00  0.00    -0.508 OA
ATOM     25  H   UNL     1      -7.453   1.192  15.399  1.00  0.00     0.293 HD
ENDBRANCH   8  24
TORSDOF 5
ENDMDL
MODEL 4
REMARK VINA RESULT:    -5.722      1.508      1.826
REMARK INTER + INTRA:          -7.002
REMARK INTER:                  -6.693
REMARK INTRA:                  -0.309
REMARK UNBOUND:                -0.277
REMARK SMILES O=c1cc(-c2ccc(O)c(O)c2)oc2cc(O)cc(O)c12
REMARK SMILES IDX 4 1 3 2 2 3 1 4 21 5 19 6 18 7 16 8 15 9 14 10 13 11 5 12
REMARK SMILES IDX 6 13 7 14 8 15 12 16 10 17 9 18 11 20 20 22 17 24
REMARK H PARENT 9 19 11 21 20 23 17 25
REMARK Flexibility Score: inf
ROOT
ATOM      1  C   UNL     1       2.203  -4.212  23.305  1.00  0.00     0.138 A 
ATOM      2  C   UNL     1       3.221  -4.841  24.035  1.00  0.00     0.100 A 
ATOM      3  C   UNL     1       3.229  -4.753  25.427  1.00  0.00     0.197 A 
ATOM      4  O   UNL     1       4.125  -5.375  26.055  1.00  0.00    -0.289 OA
ATOM      5  C   UNL     1       2.231  -3.998  26.091  1.00  0.00     0.107 A 
ATOM      6  C   UNL     1       2.159  -3.809  27.504  1.00  0.00     0.134 A 
ATOM      7  C   UNL     1       1.068  -3.124  28.053  1.00  0.00     0.093 A 
ATOM      8  C   UNL     1       0.081  -2.571  27.240  1.00  0.00     0.123 A 
ATOM      9  C   UNL     1       0.167  -2.707  25.853  1.00  0.00     0.094 A 
ATOM     10  C   UNL     1       1.224  -3.415  25.277  1.00  0.00     0.146 A 
ATOM     11  O   UNL     1       1.259  -3.536  23.954  1.00  0.00    -0.456 OA
ENDROOT
BRANCH   1  12
ATOM     12  C   UNL     1       2.147  -4.270  21.823  1.00  0.00     0.021 A 
ATOM     13  C   UNL     1       2.702  -5.343  21.103  1.00  0.00     0.016 A 
ATOM     14  C   UNL     1       2.625  -5.375  19.710  1.00  0.00     0.051 A 
ATOM     15  C   UNL     1       1.989  -4.349  19.004  1.00  0.00     0.157 A 
ATOM     16  C   UNL     1       1.495  -3.246  21.114  1.00  0.00     0.062 A 
ATOM     17  C   UNL     1       1.414  -3.271  19.716  1.00  0.00     0.158 A 
BRANCH  15  18
ATOM     18  O   UNL     1       1.950  -4.441  17.612  1.00  0.00    -0.504 OA
ATOM     19  H   UNL     1       1.121  -4.674  17.085  1.00  0.00     0.293 HD
ENDBRANCH  15  18
BRANCH  17  20
ATOM     20  O   UNL     1       0.759  -2.213  19.083  1.00  0.00    -0.504 OA
ATOM     21  H   UNL     1       1.138  -1.280  19.006  1.00  0.00     0.293 HD
ENDBRANCH  17  20
ENDBRANCH   1  12
BRANCH   6  22
ATOM     22  O   UNL     1       3.134  -4.250  28.405  1.00  0.00    -0.507 OA
ATOM     23  H   UNL     1       3.815  -4.968  28.215  1.00  0.00     0.293 HD
ENDBRANCH   6  22
BRANCH   8  24
ATOM     24  O   UNL     1      -0.982  -1.882  27.821  1.00  0.00    -0.508 OA
ATOM     25  H   UNL     1      -1.237  -0.948  27.519  1.00  0.00     0.293 HD
ENDBRANCH   8  24
TORSDOF 5
ENDMDL
MODEL 5
REMARK VINA RESULT:    -5.704      4.341      6.049
REMARK INTER + INTRA:          -6.981
REMARK INTER:                  -6.716
REMARK INTRA:                  -0.265
REMARK UNBOUND:                -0.277
REMARK SMILES O=c1cc(-c2ccc(O)c(O)c2)oc2cc(O)cc(O)c12
REMARK SMILES IDX 4 1 3 2 2 3 1 4 21 5 19 6 18 7 16 8 15 9 14 10 13 11 5 12
REMARK SMILES IDX 6 13 7 14 8 15 12 16 10 17 9 18 11 20 20 22 17 24
REMARK H PARENT 9 19 11 21 20 23 17 25
REMARK Flexibility Score: inf
ROOT
ATOM      1  C   UNL     1      -2.618  -1.094  22.912  1.00  0.00     0.138 A 
ATOM      2  C   UNL     1      -2.550  -0.275  24.048  1.00  0.00     0.100 A 
ATOM      3  C   UNL     1      -1.639  -0.574  25.062  1.00  0.00     0.197 A 
ATOM      4  O   UNL     1      -1.565   0.212  26.042  1.00  0.00    -0.289 OA
ATOM      5  C   UNL     1      -0.817  -1.722  24.954  1.00  0.00     0.107 A 
ATOM      6  C   UNL     1       0.124  -2.145  25.941  1.00  0.00     0.134 A 
ATOM      7  C   UNL     1       0.952  -3.242  25.678  1.00  0.00     0.093 A 
ATOM      8  C   UNL     1       0.835  -3.967  24.493  1.00  0.00     0.123 A 
ATOM      9  C   UNL     1      -0.116  -3.593  23.542  1.00  0.00     0.094 A 
ATOM     10  C   UNL     1      -0.933  -2.481  23.759  1.00  0.00     0.146 A 
ATOM     11  O   UNL     1      -1.812  -2.148  22.821  1.00  0.00    -0.456 OA
ENDROOT
BRANCH   1  12
ATOM     12  C   UNL     1      -3.570  -0.825  21.805  1.00  0.00     0.021 A 
ATOM     13  C   UNL     1      -4.911  -1.242  21.866  1.00  0.00     0.016 A 
ATOM     14  C   UNL     1      -5.786  -0.965  20.813  1.00  0.00     0.051 A 
ATOM     15  C   UNL     1      -5.349  -0.263  19.686  1.00  0.00     0.157 A 
ATOM     16  C   UNL     1      -3.135  -0.106  20.679  1.00  0.00     0.062 A 
ATOM     17  C   UNL     1      -4.007   0.176  19.618  1.00  0.00     0.158 A 
BRANCH  15  18
ATOM     18  O   UNL     1      -6.274  -0.022  18.668  1.00  0.00    -0.504 OA
ATOM     19  H   UNL     1      -7.273  -0.116  18.780  1.00  0.00     0.293 HD
ENDBRANCH  15  18
BRANCH  17  20
ATOM     20  O   UNL     1      -3.499   0.885  18.529  1.00  0.00    -0.504 OA
ATOM     21  H   UNL     1      -3.767   1.831  18.296  1.00  0.00     0.293 HD
ENDBRANCH  17  20
ENDBRANCH   1  12
BRANCH   6  22
ATOM     22  O   UNL     1       0.269  -1.542  27.194  1.00  0.00    -0.507 OA
ATOM     23  H   UNL     1       0.173  -2.015  28.079  1.00  0.00     0.293 HD
ENDBRANCH   6  22
BRANCH   8  24
ATOM     24  O   UNL     1       1.666  -5.064  24.272  1.00  0.00    -0.508 OA
ATOM     25  H   UNL     1       2.229  -5.461  25.016  1.00  0.00     0.293 HD
ENDBRANCH   8  24
TORSDOF 5
ENDMDL
MODEL 6
REMARK VINA RESULT:    -5.680      4.629      7.430
REMARK INTER + INTRA:          -6.953
REMARK INTER:                  -6.637
REMARK INTRA:                  -0.316
REMARK UNBOUND:                -0.277
REMARK SMILES O=c1cc(-c2ccc(O)c(O)c2)oc2cc(O)cc(O)c12
REMARK SMILES IDX 4 1 3 2 2 3 1 4 21 5 19 6 18 7 16 8 15 9 14 10 13 11 5 12
REMARK SMILES IDX 6 13 7 14 8 15 12 16 10 17 9 18 11 20 20 22 17 24
REMARK H PARENT 9 19 11 21 20 23 17 25
REMARK Flexibility Score: inf
ROOT
ATOM      1  C   UNL     1      -2.355  -1.361  23.788  1.00  0.00     0.138 A 
ATOM      2  C   UNL     1      -2.794  -0.303  24.596  1.00  0.00     0.100 A 
ATOM      3  C   UNL     1      -3.877   0.475  24.188  1.00  0.00     0.197 A 
ATOM      4  O   UNL     1      -4.281   1.382  24.961  1.00  0.00    -0.289 OA
ATOM      5  C   UNL     1      -4.503   0.214  22.944  1.00  0.00     0.107 A 
ATOM      6  C   UNL     1      -5.594   0.963  22.408  1.00  0.00     0.134 A 
ATOM      7  C   UNL     1      -6.193   0.549  21.213  1.00  0.00     0.093 A 
ATOM      8  C   UNL     1      -5.707  -0.549  20.505  1.00  0.00     0.123 A 
ATOM      9  C   UNL     1      -4.609  -1.259  20.993  1.00  0.00     0.094 A 
ATOM     10  C   UNL     1      -4.011  -0.892  22.201  1.00  0.00     0.146 A 
ATOM     11  O   UNL     1      -2.980  -1.605  22.640  1.00  0.00    -0.456 OA
ENDROOT
BRANCH   1  12
ATOM     12  C   UNL     1      -1.206  -2.219  24.172  1.00  0.00     0.021 A 
ATOM     13  C   UNL     1      -0.354  -1.880  25.238  1.00  0.00     0.016 A 
ATOM     14  C   UNL     1       0.714  -2.712  25.581  1.00  0.00     0.051 A 
ATOM     15  C   UNL     1       0.951  -3.898  24.881  1.00  0.00     0.157 A 
ATOM     16  C   UNL     1      -0.975  -3.418  23.477  1.00  0.00     0.062 A 
ATOM     17  C   UNL     1       0.093  -4.259  23.816  1.00  0.00     0.158 A 
BRANCH  15  18
ATOM     18  O   UNL     1       2.037  -4.683  25.274  1.00  0.00    -0.504 OA
ATOM     19  H   UNL     1       2.759  -4.369  25.906  1.00  0.00     0.293 HD
ENDBRANCH  15  18
BRANCH  17  20
ATOM     20  O   UNL     1       0.263  -5.428  23.073  1.00  0.00    -0.504 OA
ATOM     21  H   UNL     1       1.009  -6.091  23.226  1.00  0.00     0.293 HD
ENDBRANCH  17  20
ENDBRANCH   1  12
BRANCH   6  22
ATOM     22  O   UNL     1      -6.109   2.125  22.993  1.00  0.00    -0.507 OA
ATOM     23  H   UNL     1      -5.609   2.722  23.633  1.00  0.00     0.293 HD
ENDBRANCH   6  22
BRANCH   8  24
ATOM     24  O   UNL     1      -6.320  -0.922  19.310  1.00  0.00    -0.508 OA
ATOM     25  H   UNL     1      -5.778  -1.210  18.503  1.00  0.00     0.293 HD
ENDBRANCH   8  24
TORSDOF 5
ENDMDL
MODEL 7
REMARK VINA RESULT:    -5.669      4.985      6.621
REMARK INTER + INTRA:          -6.941
REMARK INTER:                  -6.653
REMARK INTRA:                  -0.288
REMARK UNBOUND:                -0.277
REMARK SMILES O=c1cc(-c2ccc(O)c(O)c2)oc2cc(O)cc(O)c12
REMARK SMILES IDX 4 1 3 2 2 3 1 4 21 5 19 6 18 7 16 8 15 9 14 10 13 11 5 12
REMARK SMILES IDX 6 13 7 14 8 15 12 16 10 17 9 18 11 20 20 22 17 24
REMARK H PARENT 9 19 11 21 20 23 17 25
REMARK Flexibility Score: inf
ROOT
ATOM      1  C   UNL     1      -3.585  -0.680  21.899  1.00  0.00     0.138 A 
ATOM      2  C   UNL     1      -4.335  -0.089  22.927  1.00  0.00     0.100 A 
ATOM      3  C   UNL     1      -4.033  -0.381  24.257  1.00  0.00     0.197 A 
ATOM      4  O   UNL     1      -4.688   0.208  25.156  1.00  0.00    -0.289 OA
ATOM      5  C   UNL     1      -2.997  -1.298  24.560  1.00  0.00     0.107 A 
ATOM      6  C   UNL     1      -2.623  -1.698  25.878  1.00  0.00     0.134 A 
ATOM      7  C   UNL     1      -1.516  -2.536  26.057  1.00  0.00     0.093 A 
ATOM      8  C   UNL     1      -0.807  -3.037  24.966  1.00  0.00     0.123 A 
ATOM      9  C   UNL     1      -1.194  -2.693  23.670  1.00  0.00     0.094 A 
ATOM     10  C   UNL     1      -2.272  -1.830  23.460  1.00  0.00     0.146 A 
ATOM     11  O   UNL     1      -2.597  -1.513  22.211  1.00  0.00    -0.456 OA
ENDROOT
BRANCH   1  12
ATOM     12  C   UNL     1      -3.865  -0.408  20.467  1.00  0.00     0.021 A 
ATOM     13  C   UNL     1      -2.875  -0.555  19.479  1.00  0.00     0.016 A 
ATOM     14  C   UNL     1      -3.171  -0.301  18.138  1.00  0.00     0.051 A 
ATOM     15  C   UNL     1      -4.456   0.092  17.751  1.00  0.00     0.157 A 
ATOM     16  C   UNL     1      -5.159  -0.027  20.075  1.00  0.00     0.062 A 
ATOM     17  C   UNL     1      -5.465   0.229  18.732  1.00  0.00     0.158 A 
BRANCH  15  18
ATOM     18  O   UNL     1      -4.683   0.332  16.395  1.00  0.00    -0.504 OA
ATOM     19  H   UNL     1      -5.581   0.585  16.009  1.00  0.00     0.293 HD
ENDBRANCH  15  18
BRANCH  17  20
ATOM     20  O   UNL     1      -6.770   0.614  18.423  1.00  0.00    -0.504 OA
ATOM     21  H   UNL     1      -7.509  -0.033  18.186  1.00  0.00     0.293 HD
ENDBRANCH  17  20
ENDBRANCH   1  12
BRANCH   6  22
ATOM     22  O   UNL     1      -3.311  -1.321  27.036  1.00  0.00    -0.507 OA
ATOM     23  H   UNL     1      -3.449  -0.372  27.345  1.00  0.00     0.293 HD
ENDBRANCH   6  22
BRANCH   8  24
ATOM     24  O   UNL     1       0.280  -3.882  25.181  1.00  0.00    -0.508 OA
ATOM     25  H   UNL     1       0.801  -4.283  24.410  1.00  0.00     0.293 HD
ENDBRANCH   8  24
TORSDOF 5
ENDMDL
MODEL 8
REMARK VINA RESULT:    -5.488      2.179      7.020
REMARK INTER + INTRA:          -6.728
REMARK INTER:                  -6.442
REMARK INTRA:                  -0.286
REMARK UNBOUND:                -0.277
REMARK SMILES O=c1cc(-c2ccc(O)c(O)c2)oc2cc(O)cc(O)c12
REMARK SMILES IDX 4 1 3 2 2 3 1 4 21 5 19 6 18 7 16 8 15 9 14 10 13 11 5 12
REMARK SMILES IDX 6 13 7 14 8 15 12 16 10 17 9 18 11 20 20 22 17 24
REMARK H PARENT 9 19 11 21 20 23 17 25
REMARK Flexibility Score: inf
ROOT
ATOM      1  C   UNL     1       0.245  -2.739  25.038  1.00  0.00     0.138 A 
ATOM      2  C   UNL     1       1.171  -3.482  25.782  1.00  0.00     0.100 A 
ATOM      3  C   UNL     1       2.170  -4.200  25.124  1.00  0.00     0.197 A 
ATOM      4  O   UNL     1       3.019  -4.812  25.822  1.00  0.00    -0.289 OA
ATOM      5  C   UNL     1       2.220  -4.202  23.708  1.00  0.00     0.107 A 
ATOM      6  C   UNL     1       3.171  -4.925  22.927  1.00  0.00     0.134 A 
ATOM      7  C   UNL     1       3.182  -4.770  21.536  1.00  0.00     0.093 A 
ATOM      8  C   UNL     1       2.240  -3.968  20.892  1.00  0.00     0.123 A 
ATOM      9  C   UNL     1       1.273  -3.296  21.642  1.00  0.00     0.094 A 
ATOM     10  C   UNL     1       1.258  -3.402  23.034  1.00  0.00     0.146 A 
ATOM     11  O   UNL     1       0.332  -2.732  23.711  1.00  0.00    -0.456 OA
ENDROOT
BRANCH   1  12
ATOM     12  C   UNL     1      -0.840  -1.960  25.686  1.00  0.00     0.021 A 
ATOM     13  C   UNL     1      -0.573  -1.021  26.698  1.00  0.00     0.016 A 
ATOM     14  C   UNL     1      -1.614  -0.297  27.282  1.00  0.00     0.051 A 
ATOM     15  C   UNL     1      -2.936  -0.483  26.868  1.00  0.00     0.157 A 
ATOM     16  C   UNL     1      -2.167  -2.136  25.260  1.00  0.00     0.062 A 
ATOM     17  C   UNL     1      -3.217  -1.413  25.841  1.00  0.00     0.158 A 
BRANCH  15  18
ATOM     18  O   UNL     1      -3.929   0.272  27.495  1.00  0.00    -0.504 OA
ATOM     19  H   UNL     1      -4.610  -0.111  28.134  1.00  0.00     0.293 HD
ENDBRANCH  15  18
BRANCH  17  20
ATOM     20  O   UNL     1      -4.510  -1.650  25.371  1.00  0.00    -0.504 OA
ATOM     21  H   UNL     1      -5.080  -2.433  25.658  1.00  0.00     0.293 HD
ENDBRANCH  17  20
ENDBRANCH   1  12
BRANCH   6  22
ATOM     22  O   UNL     1       4.107  -5.817  23.461  1.00  0.00    -0.507 OA
ATOM     23  H   UNL     1       4.400  -6.678  23.027  1.00  0.00     0.293 HD
ENDBRANCH   6  22
BRANCH   8  24
ATOM     24  O   UNL     1       2.271  -3.851  19.504  1.00  0.00    -0.508 OA
ATOM     25  H   UNL     1       1.475  -3.501  18.984  1.00  0.00     0.293 HD
ENDBRANCH   8  24
TORSDOF 5
ENDMDL
