MODEL 1
REMARK VINA RESULT:    20.623      0.000      0.000
REMARK INTER + INTRA:          24.180
REMARK INTER:                  20.623
REMARK INTRA:                   3.557
REMARK UNBOUND:                 3.557
REMARK SMILES C[C@@H]1O[C@H](O[C@H]2[C@H](Oc3cc(O)c4c(c3)O[C@@H](c3ccc(O)cc3)CC4=O)O[C@H](CO)[C@@H](O)[C@@H]2O)[C@H](O)[C@H](O)[C@H]1O
REMARK SMILES IDX 6 1 34 2 32 3 29 4 28 5 7 6 5 7 4 8 1 9 2 10 40 11 3 12
REMARK SMILES IDX 38 13 36 14 41 15 39 17 37 19 35 21 8 23 9 24 10 25 15 26
REMARK SMILES IDX 11 27 14 28 13 29 16 30 26 31 17 32 27 33 25 34 12 35 18 37
REMARK SMILES IDX 19 38 24 39 20 40 23 41 21 42 22 43 33 45 30 47 31 48
REMARK H PARENT 41 16 39 18 37 20 35 22 12 36 22 44 33 46 31 49
REMARK Flexibility Score: inf
ROOT
ATOM      1  C   UNL     1      12.049  11.135  44.060  1.00  0.00     0.221 C 
ATOM      2  C   UNL     1       9.881  10.992  45.232  1.00  0.00     0.181 C 
ATOM      3  C   UNL     1      11.554   9.876  46.808  1.00  0.00     0.177 C 
ATOM      4  C   UNL     1      14.116  12.285  47.254  1.00  0.00     0.179 C 
ATOM      5  O   UNL     1      16.229  12.403  46.444  1.00  0.00    -0.332 OA
ATOM      6  C   UNL     1      14.609   8.988  45.582  1.00  0.00     0.339 C 
ENDROOT
BRANCH   1   7
ATOM      7  O   UNL     1      11.078  12.372  45.777  1.00  0.00    -0.337 OA
BRANCH   7   8
ATOM      8  C   UNL     1      10.970  11.804  48.089  1.00  0.00     0.282 C 
ATOM      9  C   UNL     1      10.447  12.238  54.885  1.00  0.00     0.041 C 
ATOM     10  C   UNL     1      10.161  10.842  51.505  1.00  0.00     0.150 C 
ATOM     11  C   UNL     1       7.709   9.791  51.294  1.00  0.00     0.174 C 
ATOM     12  O   UNL     1      10.487  11.945  49.958  1.00  0.00    -0.344 OA
ATOM     13  C   UNL     1       6.522  11.254  47.993  1.00  0.00     0.179 C 
ATOM     14  C   UNL     1       8.771  12.990  46.457  1.00  0.00     0.202 C 
BRANCH  11  15
ATOM     15  O   UNL     1       6.604   7.726  53.563  1.00  0.00    -0.388 OA
ATOM     16  H   UNL     1       5.578   8.857  52.846  1.00  0.00     0.211 HD
ENDBRANCH  11  15
BRANCH  13  17
ATOM     17  O   UNL     1       5.173  10.259  48.871  1.00  0.00    -0.387 OA
ATOM     18  H   UNL     1       6.575   9.391  49.654  1.00  0.00     0.211 HD
ENDBRANCH  13  17
BRANCH  14  19
ATOM     19  O   UNL     1       8.177  14.123  46.613  1.00  0.00    -0.385 OA
ATOM     20  H   UNL     1       8.447  14.590  45.459  1.00  0.00     0.211 HD
ENDBRANCH  14  19
ENDBRANCH   7   8
ENDBRANCH   1   7
BRANCH   2  21
ATOM     21  O   UNL     1       6.410  11.480  45.001  1.00  0.00    -0.387 OA
ATOM     22  H   UNL     1       7.986   9.563  44.090  1.00  0.00     0.211 HD
ENDBRANCH   2  21
BRANCH   6  23
ATOM     23  O   UNL     1      12.194   5.155  46.312  1.00  0.00    -0.462 OA
BRANCH  23  24
ATOM     24  C   UNL     1       9.460   2.492  47.456  1.00  0.00     0.130 A 
ATOM     25  C   UNL     1       7.868  -0.280  49.101  1.00  0.00     0.093 A 
ATOM     26  C   UNL     1       7.061   1.123  46.972  1.00  0.00     0.094 A 
ATOM     27  C   UNL     1       5.836  -1.503  48.288  1.00  0.00     0.133 A 
ATOM     28  C   UNL     1       5.053  -0.572  47.244  1.00  0.00     0.138 A 
ATOM     29  C   UNL     1       3.858  -3.145  48.480  1.00  0.00     0.102 A 
ATOM     30  O   UNL     1       5.285  -2.709  46.533  1.00  0.00    -0.484 OA
ATOM     31  C   UNL     1       0.980  -6.120  49.758  1.00  0.00     0.174 C 
ATOM     32  C   UNL     1       5.619  -4.708  47.323  1.00  0.00     0.211 C 
ATOM     33  O   UNL     1      -0.412  -5.753  49.503  1.00  0.00    -0.294 OA
ATOM     34  C   UNL     1       3.149  -5.759  48.538  1.00  0.00     0.131 C 
BRANCH  27  35
ATOM     35  O   UNL     1       4.674  -2.689  49.058  1.00  0.00    -0.507 OA
ATOM     36  H   UNL     1       3.243  -3.031  49.219  1.00  0.00     0.293 HD
ENDBRANCH  27  35
BRANCH  32  37
ATOM     37  C   UNL     1       7.745  -5.360  47.511  1.00  0.00    -0.007 A 
ATOM     38  C   UNL     1       9.119  -5.958  46.750  1.00  0.00     0.011 A 
ATOM     39  C   UNL     1       9.343  -4.860  47.857  1.00  0.00     0.011 A 
ATOM     40  C   UNL     1      10.915  -6.123  46.325  1.00  0.00     0.046 A 
ATOM     41  C   UNL     1      11.045  -5.045  47.869  1.00  0.00     0.046 A 
ATOM     42  C   UNL     1      12.365  -5.891  47.068  1.00  0.00     0.115 A 
BRANCH  42  43
ATOM     43  O   UNL     1      14.333  -5.771  46.981  1.00  0.00    -0.508 OA
ATOM     44  H   UNL     1      15.904  -5.401  46.116  1.00  0.00     0.293 HD
ENDBRANCH  42  43
ENDBRANCH  32  37
ENDBRANCH  23  24
ENDBRANCH   6  23
BRANCH   3  45
ATOM     45  O   UNL     1      10.160   8.186  47.316  1.00  0.00    -0.387 OA
ATOM     46  H   UNL     1       9.121   8.772  47.694  1.00  0.00     0.211 HD
ENDBRANCH   3  45
BRANCH   4  47
ATOM     47  C   UNL     1      16.957  12.147  50.390  1.00  0.00     0.191 C 
BRANCH  47  48
ATOM     48  O   UNL     1      16.798  10.587  48.319  1.00  0.00    -0.394 OA
ATOM     49  H   UNL     1      17.498  12.212  47.193  1.00  0.00     0.210 HD
ENDBRANCH  47  48
ENDBRANCH   4  47
TORSDOF 14
ENDMDL
