MODEL 1
REMARK VINA RESULT:    -4.916      0.000      0.000
REMARK INTER + INTRA:          -5.160
REMARK INTER:                  -5.635
REMARK INTRA:                   0.475
REMARK UNBOUND:                 0.475
REMARK SMILES CC(C)[C@H]([NH3+])C(=O)[O-]
REMARK SMILES IDX 4 1 5 2 6 6 7 7 8 8 2 9 1 10 3 11
REMARK H PARENT 5 3 5 4 5 5
REMARK Flexibility Score: inf
ROOT
ATOM      1  C   UNL     1     -15.650   0.977 -23.617  1.00  0.00     0.230 C 
ENDROOT
BRANCH   1   2
ATOM      2  N   UNL     1     -16.367   0.072 -22.704  1.00  0.00    -0.350 N 
ATOM      3  H   UNL     1     -16.949  -0.595 -23.262  1.00  0.00     0.345 HD
ATOM      4  H   UNL     1     -17.013   0.613 -22.086  1.00  0.00     0.345 HD
ATOM      5  H   UNL     1     -15.704  -0.479 -22.114  1.00  0.00     0.345 HD
ENDBRANCH   1   2
BRANCH   1   6
ATOM      6  C   UNL     1     -14.302   0.407 -23.983  1.00  0.00     0.099 C 
ATOM      7  O   UNL     1     -13.286   0.714 -23.304  1.00  0.00    -0.544 OA
ATOM      8  O   UNL     1     -14.172  -0.493 -25.034  1.00  0.00    -0.544 OA
ENDBRANCH   1   6
BRANCH   1   9
ATOM      9  C   UNL     1     -15.509   2.423 -23.055  1.00  0.00     0.047 C 
ATOM     10  C   UNL     1     -16.834   3.201 -23.013  1.00  0.00     0.014 C 
ATOM     11  C   UNL     1     -14.445   3.231 -23.813  1.00  0.00     0.014 C 
ENDBRANCH   1   9
TORSDOF 3
ENDMDL
MODEL 2
REMARK VINA RESULT:    -4.528      1.854      2.256
REMARK INTER + INTRA:          -4.714
REMARK INTER:                  -4.857
REMARK INTRA:                   0.142
REMARK UNBOUND:                 0.475
REMARK SMILES CC(C)[C@H]([NH3+])C(=O)[O-]
REMARK SMILES IDX 4 1 5 2 6 6 7 7 8 8 2 9 1 10 3 11
REMARK H PARENT 5 3 5 4 5 5
REMARK Flexibility Score: inf
ROOT
ATOM      1  C   UNL     1     -14.012   1.460 -23.676  1.00  0.00     0.230 C 
ENDROOT
BRANCH   1   2
ATOM      2  N   UNL     1     -13.551   2.831 -23.949  1.00  0.00    -0.350 N 
ATOM      3  H   UNL     1     -12.510   2.875 -23.846  1.00  0.00     0.345 HD
ATOM      4  H   UNL     1     -13.964   3.499 -23.260  1.00  0.00     0.345 HD
ATOM      5  H   UNL     1     -13.801   3.133 -24.917  1.00  0.00     0.345 HD
ENDBRANCH   1   2
BRANCH   1   6
ATOM      6  C   UNL     1     -13.464   0.499 -24.703  1.00  0.00     0.099 C 
ATOM      7  O   UNL     1     -12.298   0.659 -25.153  1.00  0.00    -0.544 OA
ATOM      8  O   UNL     1     -14.213  -0.593 -25.125  1.00  0.00    -0.544 OA
ENDBRANCH   1   6
BRANCH   1   9
ATOM      9  C   UNL     1     -15.563   1.346 -23.581  1.00  0.00     0.047 C 
ATOM     10  C   UNL     1     -16.252   2.655 -23.162  1.00  0.00     0.014 C 
ATOM     11  C   UNL     1     -15.997   0.199 -22.655  1.00  0.00     0.014 C 
ENDBRANCH   1   9
TORSDOF 3
ENDMDL
MODEL 3
REMARK VINA RESULT:    -4.224      9.118      9.888
REMARK INTER + INTRA:          -4.365
REMARK INTER:                  -4.318
REMARK INTRA:                  -0.047
REMARK UNBOUND:                 0.475
REMARK SMILES CC(C)[C@H]([NH3+])C(=O)[O-]
REMARK SMILES IDX 4 1 5 2 6 6 7 7 8 8 2 9 1 10 3 11
REMARK H PARENT 5 3 5 4 5 5
REMARK Flexibility Score: inf
ROOT
ATOM      1  C   UNL     1     -12.020   1.027 -32.495  1.00  0.00     0.230 C 
ENDROOT
BRANCH   1   2
ATOM      2  N   UNL     1     -11.127   0.118 -33.231  1.00  0.00    -0.350 N 
ATOM      3  H   UNL     1     -11.658  -0.333 -34.012  1.00  0.00     0.345 HD
ATOM      4  H   UNL     1     -10.782  -0.643 -32.604  1.00  0.00     0.345 HD
ATOM      5  H   UNL     1     -10.312   0.629 -33.638  1.00  0.00     0.345 HD
ENDBRANCH   1   2
BRANCH   1   6
ATOM      6  C   UNL     1     -12.633   2.043 -33.427  1.00  0.00     0.099 C 
ATOM      7  O   UNL     1     -12.921   1.718 -34.609  1.00  0.00    -0.544 OA
ATOM      8  O   UNL     1     -12.931   3.326 -32.982  1.00  0.00    -0.544 OA
ENDBRANCH   1   6
BRANCH   1   9
ATOM      9  C   UNL     1     -11.319   1.728 -31.292  1.00  0.00     0.047 C 
ATOM     10  C   UNL     1      -9.878   1.248 -31.054  1.00  0.00     0.014 C 
ATOM     11  C   UNL     1     -12.139   1.603 -29.999  1.00  0.00     0.014 C 
ENDBRANCH   1   9
TORSDOF 3
ENDMDL
MODEL 4
REMARK VINA RESULT:    -4.205      7.645      8.116
REMARK INTER + INTRA:          -4.345
REMARK INTER:                  -4.297
REMARK INTRA:                  -0.047
REMARK UNBOUND:                 0.475
REMARK SMILES CC(C)[C@H]([NH3+])C(=O)[O-]
REMARK SMILES IDX 4 1 5 2 6 6 7 7 8 8 2 9 1 10 3 11
REMARK H PARENT 5 3 5 4 5 5
REMARK Flexibility Score: inf
ROOT
ATOM      1  C   UNL     1     -12.189   1.674 -30.448  1.00  0.00     0.230 C 
ENDROOT
BRANCH   1   2
ATOM      2  N   UNL     1     -11.648   1.886 -29.096  1.00  0.00    -0.350 N 
ATOM      3  H   UNL     1     -12.333   1.531 -28.388  1.00  0.00     0.345 HD
ATOM      4  H   UNL     1     -11.508   2.905 -28.915  1.00  0.00     0.345 HD
ATOM      5  H   UNL     1     -10.743   1.382 -28.963  1.00  0.00     0.345 HD
ENDBRANCH   1   2
BRANCH   1   6
ATOM      6  C   UNL     1     -11.137   1.088 -31.358  1.00  0.00     0.099 C 
ATOM      7  O   UNL     1      -9.917   1.273 -31.106  1.00  0.00    -0.544 OA
ATOM      8  O   UNL     1     -11.497   0.304 -32.448  1.00  0.00    -0.544 OA
ENDBRANCH   1   6
BRANCH   1   9
ATOM      9  C   UNL     1     -12.803   2.965 -31.068  1.00  0.00     0.047 C 
ATOM     10  C   UNL     1     -13.014   4.098 -30.050  1.00  0.00     0.014 C 
ATOM     11  C   UNL     1     -14.114   2.675 -31.815  1.00  0.00     0.014 C 
ENDBRANCH   1   9
TORSDOF 3
ENDMDL
MODEL 5
REMARK VINA RESULT:    -4.194      6.501      7.019
REMARK INTER + INTRA:          -4.331
REMARK INTER:                  -4.288
REMARK INTRA:                  -0.043
REMARK UNBOUND:                 0.475
REMARK SMILES CC(C)[C@H]([NH3+])C(=O)[O-]
REMARK SMILES IDX 4 1 5 2 6 6 7 7 8 8 2 9 1 10 3 11
REMARK H PARENT 5 3 5 4 5 5
REMARK Flexibility Score: inf
ROOT
ATOM      1  C   UNL     1     -11.524   3.837 -29.007  1.00  0.00     0.230 C 
ENDROOT
BRANCH   1   2
ATOM      2  N   UNL     1     -11.490   2.373 -29.158  1.00  0.00    -0.350 N 
ATOM      3  H   UNL     1     -10.687   2.106 -29.774  1.00  0.00     0.345 HD
ATOM      4  H   UNL     1     -12.365   2.034 -29.617  1.00  0.00     0.345 HD
ATOM      5  H   UNL     1     -11.374   1.897 -28.236  1.00  0.00     0.345 HD
ENDBRANCH   1   2
BRANCH   1   6
ATOM      6  C   UNL     1     -10.953   4.249 -27.672  1.00  0.00     0.099 C 
ATOM      7  O   UNL     1     -10.003   5.074 -27.623  1.00  0.00    -0.544 OA
ATOM      8  O   UNL     1     -11.496   3.765 -26.487  1.00  0.00    -0.544 OA
ENDBRANCH   1   6
BRANCH   1   9
ATOM      9  C   UNL     1     -12.947   4.438 -29.212  1.00  0.00     0.047 C 
ATOM     10  C   UNL     1     -13.631   3.975 -30.508  1.00  0.00     0.014 C 
ATOM     11  C   UNL     1     -12.937   5.972 -29.138  1.00  0.00     0.014 C 
ENDBRANCH   1   9
TORSDOF 3
ENDMDL
MODEL 6
REMARK VINA RESULT:    -4.179      8.523      9.125
REMARK INTER + INTRA:          -4.315
REMARK INTER:                  -4.266
REMARK INTRA:                  -0.048
REMARK UNBOUND:                 0.475
REMARK SMILES CC(C)[C@H]([NH3+])C(=O)[O-]
REMARK SMILES IDX 4 1 5 2 6 6 7 7 8 8 2 9 1 10 3 11
REMARK H PARENT 5 3 5 4 5 5
REMARK Flexibility Score: inf
ROOT
ATOM      1  C   UNL     1     -13.354   2.254 -31.905  1.00  0.00     0.230 C 
ENDROOT
BRANCH   1   2
ATOM      2  N   UNL     1     -12.952   0.861 -31.648  1.00  0.00    -0.350 N 
ATOM      3  H   UNL     1     -13.640   0.416 -30.997  1.00  0.00     0.345 HD
ATOM      4  H   UNL     1     -12.016   0.831 -31.186  1.00  0.00     0.345 HD
ATOM      5  H   UNL     1     -12.922   0.303 -32.530  1.00  0.00     0.345 HD
ENDBRANCH   1   2
BRANCH   1   6
ATOM      6  C   UNL     1     -13.097   2.626 -33.345  1.00  0.00     0.099 C 
ATOM      7  O   UNL     1     -12.909   1.723 -34.203  1.00  0.00    -0.544 OA
ATOM      8  O   UNL     1     -13.111   3.956 -33.748  1.00  0.00    -0.544 OA
ENDBRANCH   1   6
BRANCH   1   9
ATOM      9  C   UNL     1     -12.678   3.272 -30.939  1.00  0.00     0.047 C 
ATOM     10  C   UNL     1     -11.723   2.619 -29.926  1.00  0.00     0.014 C 
ATOM     11  C   UNL     1     -13.712   4.140 -30.206  1.00  0.00     0.014 C 
ENDBRANCH   1   9
TORSDOF 3
ENDMDL
MODEL 7
REMARK VINA RESULT:    -4.156      3.262      3.876
REMARK INTER + INTRA:          -4.288
REMARK INTER:                  -4.227
REMARK INTRA:                  -0.061
REMARK UNBOUND:                 0.475
REMARK SMILES CC(C)[C@H]([NH3+])C(=O)[O-]
REMARK SMILES IDX 4 1 5 2 6 6 7 7 8 8 2 9 1 10 3 11
REMARK H PARENT 5 3 5 4 5 5
REMARK Flexibility Score: inf
ROOT
ATOM      1  C   UNL     1     -17.051   4.088 -23.730  1.00  0.00     0.230 C 
ENDROOT
BRANCH   1   2
ATOM      2  N   UNL     1     -18.479   4.394 -23.917  1.00  0.00    -0.350 N 
ATOM      3  H   UNL     1     -18.890   3.725 -24.609  1.00  0.00     0.345 HD
ATOM      4  H   UNL     1     -18.598   5.358 -24.302  1.00  0.00     0.345 HD
ATOM      5  H   UNL     1     -19.008   4.311 -23.021  1.00  0.00     0.345 HD
ENDBRANCH   1   2
BRANCH   1   6
ATOM      6  C   UNL     1     -16.859   3.112 -22.596  1.00  0.00     0.099 C 
ATOM      7  O   UNL     1     -17.444   3.303 -21.497  1.00  0.00    -0.544 OA
ATOM      8  O   UNL     1     -16.079   1.973 -22.762  1.00  0.00    -0.544 OA
ENDBRANCH   1   6
BRANCH   1   9
ATOM      9  C   UNL     1     -16.177   5.361 -23.522  1.00  0.00     0.047 C 
ATOM     10  C   UNL     1     -16.651   6.574 -24.340  1.00  0.00     0.014 C 
ATOM     11  C   UNL     1     -14.691   5.087 -23.795  1.00  0.00     0.014 C 
ENDBRANCH   1   9
TORSDOF 3
ENDMDL
MODEL 8
REMARK VINA RESULT:    -4.049      8.189      8.947
REMARK INTER + INTRA:          -4.166
REMARK INTER:                  -4.098
REMARK INTRA:                  -0.068
REMARK UNBOUND:                 0.475
REMARK SMILES CC(C)[C@H]([NH3+])C(=O)[O-]
REMARK SMILES IDX 4 1 5 2 6 6 7 7 8 8 2 9 1 10 3 11
REMARK H PARENT 5 3 5 4 5 5
REMARK Flexibility Score: inf
ROOT
ATOM      1  C   UNL     1     -10.831   1.749 -31.141  1.00  0.00     0.230 C 
ENDROOT
BRANCH   1   2
ATOM      2  N   UNL     1      -9.645   0.966 -30.758  1.00  0.00    -0.350 N 
ATOM      3  H   UNL     1      -9.896   0.313 -29.979  1.00  0.00     0.345 HD
ATOM      4  H   UNL     1      -8.888   1.596 -30.409  1.00  0.00     0.345 HD
ATOM      5  H   UNL     1      -9.284   0.402 -31.559  1.00  0.00     0.345 HD
ENDBRANCH   1   2
BRANCH   1   6
ATOM      6  C   UNL     1     -11.562   2.242 -29.916  1.00  0.00     0.099 C 
ATOM      7  O   UNL     1     -12.032   1.415 -29.091  1.00  0.00    -0.544 OA
ATOM      8  O   UNL     1     -11.683   3.603 -29.660  1.00  0.00    -0.544 OA
ENDBRANCH   1   6
BRANCH   1   9
ATOM      9  C   UNL     1     -11.794   0.973 -32.088  1.00  0.00     0.047 C 
ATOM     10  C   UNL     1     -11.124   0.486 -33.384  1.00  0.00     0.014 C 
ATOM     11  C   UNL     1     -13.053   1.788 -32.418  1.00  0.00     0.014 C 
ENDBRANCH   1   9
TORSDOF 3
ENDMDL
MODEL 9
REMARK VINA RESULT:    -4.039      7.450      8.038
REMARK INTER + INTRA:          -4.154
REMARK INTER:                  -4.146
REMARK INTRA:                  -0.008
REMARK UNBOUND:                 0.475
REMARK SMILES CC(C)[C@H]([NH3+])C(=O)[O-]
REMARK SMILES IDX 4 1 5 2 6 6 7 7 8 8 2 9 1 10 3 11
REMARK H PARENT 5 3 5 4 5 5
REMARK Flexibility Score: inf
ROOT
ATOM      1  C   UNL     1     -11.504   2.981 -30.400  1.00  0.00     0.230 C 
ENDROOT
BRANCH   1   2
ATOM      2  N   UNL     1     -10.477   1.942 -30.216  1.00  0.00    -0.350 N 
ATOM      3  H   UNL     1     -10.049   2.042 -29.266  1.00  0.00     0.345 HD
ATOM      4  H   UNL     1      -9.713   2.056 -30.919  1.00  0.00     0.345 HD
ATOM      5  H   UNL     1     -10.884   0.984 -30.297  1.00  0.00     0.345 HD
ENDBRANCH   1   2
BRANCH   1   6
ATOM      6  C   UNL     1     -11.693   3.775 -29.131  1.00  0.00     0.099 C 
ATOM      7  O   UNL     1     -10.742   3.883 -28.311  1.00  0.00    -0.544 OA
ATOM      8  O   UNL     1     -12.890   4.433 -28.876  1.00  0.00    -0.544 OA
ENDBRANCH   1   6
BRANCH   1   9
ATOM      9  C   UNL     1     -12.863   2.412 -30.907  1.00  0.00     0.047 C 
ATOM     10  C   UNL     1     -12.785   0.946 -31.364  1.00  0.00     0.014 C 
ATOM     11  C   UNL     1     -13.470   3.281 -32.018  1.00  0.00     0.014 C 
ENDBRANCH   1   9
TORSDOF 3
ENDMDL
