MODEL 1
REMARK VINA RESULT:    -1.469      0.000      0.000
REMARK INTER + INTRA:          -2.594
REMARK INTER:                  -2.243
REMARK INTRA:                  -0.352
REMARK UNBOUND:                -0.352
REMARK SMILES CC1=CCC[C@H](C)C(=O)C[C@@H](C(C)C)C(=O)C1
REMARK SMILES IDX 8 1 9 2 6 3 7 4 5 5 4 6 3 7 2 8 1 9 10 11 11 12 15 13 16 14
REMARK SMILES IDX 17 15 12 17 13 18 14 19
REMARK H PARENT
REMARK Flexibility Score: 70.00
ROOT
ATOM      1  C   UNL     1      30.118  58.698  12.703  1.00  0.00     0.136 C 
ATOM      2  O   UNL     1      28.999  58.464  13.137  1.00  0.00    -0.299 OA
ENDROOT
BRANCH   1   3
ATOM      3  C   UNL     1      31.209  57.653  12.840  1.00  0.00     0.053 C 
ATOM      4  C   UNL     1      31.623  57.535  14.311  1.00  0.00     0.016 C 
BRANCH   3   5
ATOM      5  C   UNL     1      30.759  56.279  12.299  1.00  0.00     0.015 C 
BRANCH   5   6
ATOM      6  C   UNL     1      30.999  56.077  10.792  1.00  0.00     0.028 C 
BRANCH   6   7
ATOM      7  C   UNL     1      29.757  56.256   9.951  1.00  0.00    -0.028 C 
ATOM      8  C   UNL     1      29.481  57.251   9.067  1.00  0.00    -0.070 CG0
ATOM      9  C   UNL     1      28.109  57.232   8.434  1.00  0.00     0.039 C 
ATOM     10  G   UNL     1      30.462  58.322   8.600  1.00  0.00     0.000 G0
ENDBRANCH   6   7
ENDBRANCH   5   6
ENDBRANCH   3   5
ENDBRANCH   1   3
BRANCH   1  11
ATOM     11  C   UNL     1      30.394  60.039  12.072  1.00  0.00     0.087 C 
BRANCH  11  12
ATOM     12  C   UNL     1      29.976  60.090  10.577  1.00  0.00     0.066 C 
BRANCH  12  13
ATOM     13  C   UNL     1      30.920  59.356   9.622  1.00  0.00     0.140 C 
ATOM     14  O   UNL     1      32.125  59.517   9.759  1.00  0.00    -0.299 OA
BRANCH  13  15
ATOM     15  C   UNL     1      30.446  58.364   8.585  1.00  0.00     0.106 CG0
ATOM     16  G   UNL     1      29.504  57.283   9.106  1.00  0.00     0.000 G0
ENDBRANCH  13  15
ENDBRANCH  12  13
BRANCH  12  17
ATOM     17  C   UNL     1      29.689  61.553  10.118  1.00  0.00    -0.006 C 
ATOM     18  C   UNL     1      28.584  61.659   9.053  1.00  0.00     0.008 C 
ATOM     19  C   UNL     1      29.363  62.472  11.305  1.00  0.00     0.008 C 
ENDBRANCH  12  17
ENDBRANCH  11  12
ENDBRANCH   1  11
TORSDOF 1
ENDMDL
MODEL 2
REMARK VINA RESULT:    -1.348      1.942      4.302
REMARK INTER + INTRA:          -2.409
REMARK INTER:                  -1.979
REMARK INTRA:                  -0.430
REMARK UNBOUND:                -0.352
REMARK SMILES CC1=CCC[C@H](C)C(=O)C[C@@H](C(C)C)C(=O)C1
REMARK SMILES IDX 8 1 9 2 6 3 7 4 5 5 4 6 3 7 2 8 1 9 10 11 11 12 15 13 16 14
REMARK SMILES IDX 17 15 12 17 13 18 14 19
REMARK H PARENT
REMARK Flexibility Score: 70.00
ROOT
ATOM      1  C   UNL     1      29.014  59.472  13.386  1.00  0.00     0.136 C 
ATOM      2  O   UNL     1      28.741  58.899  14.431  1.00  0.00    -0.299 OA
ENDROOT
BRANCH   1   3
ATOM      3  C   UNL     1      29.175  60.980  13.378  1.00  0.00     0.053 C 
ATOM      4  C   UNL     1      28.551  61.569  14.648  1.00  0.00     0.016 C 
BRANCH   3   5
ATOM      5  C   UNL     1      30.657  61.399  13.268  1.00  0.00     0.015 C 
BRANCH   5   6
ATOM      6  C   UNL     1      30.960  62.374  12.117  1.00  0.00     0.028 C 
BRANCH   6   7
ATOM      7  C   UNL     1      30.219  62.055  10.840  1.00  0.00    -0.028 C 
ATOM      8  C   UNL     1      30.528  61.118   9.905  1.00  0.00    -0.070 CG0
ATOM      9  C   UNL     1      29.660  61.084   8.668  1.00  0.00     0.039 C 
ATOM     10  G   UNL     1      31.611  60.053  10.038  1.00  0.00     0.000 G0
ENDBRANCH   6   7
ENDBRANCH   5   6
ENDBRANCH   3   5
ENDBRANCH   1   3
BRANCH   1  11
ATOM     11  C   UNL     1      29.149  58.664  12.121  1.00  0.00     0.087 C 
BRANCH  11  12
ATOM     12  C   UNL     1      30.625  58.295  11.805  1.00  0.00     0.066 C 
BRANCH  12  13
ATOM     13  C   UNL     1      31.090  58.661  10.394  1.00  0.00     0.140 C 
ATOM     14  O   UNL     1      30.976  57.824   9.510  1.00  0.00    -0.299 OA
BRANCH  13  15
ATOM     15  C   UNL     1      31.589  60.036  10.015  1.00  0.00     0.106 CG0
ATOM     16  G   UNL     1      30.508  61.105   9.886  1.00  0.00     0.000 G0
ENDBRANCH  13  15
ENDBRANCH  12  13
BRANCH  12  17
ATOM     17  C   UNL     1      30.926  56.806  12.162  1.00  0.00    -0.006 C 
ATOM     18  C   UNL     1      31.642  56.628  13.511  1.00  0.00     0.008 C 
ATOM     19  C   UNL     1      29.657  55.940  12.122  1.00  0.00     0.008 C 
ENDBRANCH  12  17
ENDBRANCH  11  12
ENDBRANCH   1  11
TORSDOF 1
ENDMDL
MODEL 3
REMARK VINA RESULT:    -1.055      2.274      4.627
REMARK INTER + INTRA:          -1.962
REMARK INTER:                  -1.400
REMARK INTRA:                  -0.562
REMARK UNBOUND:                -0.352
REMARK SMILES CC1=CCC[C@H](C)C(=O)C[C@@H](C(C)C)C(=O)C1
REMARK SMILES IDX 8 1 9 2 6 3 7 4 5 5 4 6 3 7 2 8 1 9 10 11 11 12 15 13 16 14
REMARK SMILES IDX 17 15 12 17 13 18 14 19
REMARK H PARENT
REMARK Flexibility Score: 70.00
ROOT
ATOM      1  C   UNL     1      29.847  60.998  13.642  1.00  0.00     0.136 C 
ATOM      2  O   UNL     1      30.532  61.742  14.330  1.00  0.00    -0.299 OA
ENDROOT
BRANCH   1   3
ATOM      3  C   UNL     1      29.681  61.286  12.163  1.00  0.00     0.053 C 
ATOM      4  C   UNL     1      29.293  62.756  11.967  1.00  0.00     0.016 C 
BRANCH   3   5
ATOM      5  C   UNL     1      30.964  60.962  11.368  1.00  0.00     0.015 C 
BRANCH   5   6
ATOM      6  C   UNL     1      31.038  59.520  10.837  1.00  0.00     0.028 C 
BRANCH   6   7
ATOM      7  C   UNL     1      29.686  58.892  10.593  1.00  0.00    -0.028 C 
ATOM      8  C   UNL     1      29.182  57.753  11.137  1.00  0.00    -0.070 CG0
ATOM      9  C   UNL     1      27.829  57.303  10.635  1.00  0.00     0.039 C 
ATOM     10  G   UNL     1      29.823  56.947  12.263  1.00  0.00     0.000 G0
ENDBRANCH   6   7
ENDBRANCH   5   6
ENDBRANCH   3   5
ENDBRANCH   1   3
BRANCH   1  11
ATOM     11  C   UNL     1      29.152  59.830  14.295  1.00  0.00     0.087 C 
BRANCH  11  12
ATOM     12  C   UNL     1      30.050  58.563  14.355  1.00  0.00     0.066 C 
BRANCH  12  13
ATOM     13  C   UNL     1      29.462  57.328  13.672  1.00  0.00     0.140 C 
ATOM     14  O   UNL     1      28.611  56.683  14.270  1.00  0.00    -0.299 OA
BRANCH  13  15
ATOM     15  C   UNL     1      29.804  56.919  12.258  1.00  0.00     0.106 CG0
ATOM     16  G   UNL     1      29.164  57.770  11.165  1.00  0.00     0.000 G0
ENDBRANCH  13  15
ENDBRANCH  12  13
BRANCH  12  17
ATOM     17  C   UNL     1      30.516  58.269  15.815  1.00  0.00    -0.006 C 
ATOM     18  C   UNL     1      31.978  58.663  16.087  1.00  0.00     0.008 C 
ATOM     19  C   UNL     1      29.594  58.924  16.854  1.00  0.00     0.008 C 
ENDBRANCH  12  17
ENDBRANCH  11  12
ENDBRANCH   1  11
TORSDOF 1
ENDMDL
MODEL 4
REMARK VINA RESULT:    -0.958      2.569      3.539
REMARK INTER + INTRA:          -1.814
REMARK INTER:                  -1.534
REMARK INTRA:                  -0.279
REMARK UNBOUND:                -0.352
REMARK SMILES CC1=CCC[C@H](C)C(=O)C[C@@H](C(C)C)C(=O)C1
REMARK SMILES IDX 8 1 9 2 6 3 7 4 5 5 4 6 3 7 2 8 1 9 10 11 11 12 15 13 16 14
REMARK SMILES IDX 17 15 12 17 13 18 14 19
REMARK H PARENT
REMARK Flexibility Score: 70.00
ROOT
ATOM      1  C   UNL     1      29.732  58.738  15.255  1.00  0.00     0.136 C 
ATOM      2  O   UNL     1      29.337  58.310  16.330  1.00  0.00    -0.299 OA
ENDROOT
BRANCH   1   3
ATOM      3  C   UNL     1      31.160  58.472  14.820  1.00  0.00     0.053 C 
ATOM      4  C   UNL     1      32.121  59.293  15.686  1.00  0.00     0.016 C 
BRANCH   3   5
ATOM      5  C   UNL     1      31.515  56.972  14.902  1.00  0.00     0.015 C 
BRANCH   5   6
ATOM      6  C   UNL     1      30.938  56.116  13.761  1.00  0.00     0.028 C 
BRANCH   6   7
ATOM      7  C   UNL     1      31.342  56.589  12.384  1.00  0.00    -0.028 C 
ATOM      8  C   UNL     1      30.533  56.974  11.362  1.00  0.00    -0.070 CG0
ATOM      9  C   UNL     1      31.210  57.307  10.052  1.00  0.00     0.039 C 
ATOM     10  G   UNL     1      29.024  57.180  11.451  1.00  0.00     0.000 G0
ENDBRANCH   6   7
ENDBRANCH   5   6
ENDBRANCH   3   5
ENDBRANCH   1   3
BRANCH   1  11
ATOM     11  C   UNL     1      28.794  59.554  14.402  1.00  0.00     0.087 C 
BRANCH  11  12
ATOM     12  C   UNL     1      27.981  58.679  13.408  1.00  0.00     0.066 C 
BRANCH  12  13
ATOM     13  C   UNL     1      28.607  58.536  12.020  1.00  0.00     0.140 C 
ATOM     14  O   UNL     1      28.853  59.553  11.387  1.00  0.00    -0.299 OA
BRANCH  13  15
ATOM     15  C   UNL     1      29.029  57.209  11.432  1.00  0.00     0.106 CG0
ATOM     16  G   UNL     1      30.536  56.988  11.346  1.00  0.00     0.000 G0
ENDBRANCH  13  15
ENDBRANCH  12  13
BRANCH  12  17
ATOM     17  C   UNL     1      26.489  59.133  13.342  1.00  0.00    -0.006 C 
ATOM     18  C   UNL     1      25.765  58.687  12.061  1.00  0.00     0.008 C 
ATOM     19  C   UNL     1      25.697  58.677  14.578  1.00  0.00     0.008 C 
ENDBRANCH  12  17
ENDBRANCH  11  12
ENDBRANCH   1  11
TORSDOF 1
ENDMDL
MODEL 5
REMARK VINA RESULT:    -0.939      2.112      4.083
REMARK INTER + INTRA:          -1.784
REMARK INTER:                  -1.265
REMARK INTRA:                  -0.519
REMARK UNBOUND:                -0.352
REMARK SMILES CC1=CCC[C@H](C)C(=O)C[C@@H](C(C)C)C(=O)C1
REMARK SMILES IDX 8 1 9 2 6 3 7 4 5 5 4 6 3 7 2 8 1 9 10 11 11 12 15 13 16 14
REMARK SMILES IDX 17 15 12 17 13 18 14 19
REMARK H PARENT
REMARK Flexibility Score: 70.00
ROOT
ATOM      1  C   UNL     1      28.629  61.193  11.416  1.00  0.00     0.136 C 
ATOM      2  O   UNL     1      28.545  62.413  11.398  1.00  0.00    -0.299 OA
ENDROOT
BRANCH   1   3
ATOM      3  C   UNL     1      28.689  60.425  10.110  1.00  0.00     0.053 C 
ATOM      4  C   UNL     1      27.697  61.034   9.112  1.00  0.00     0.016 C 
BRANCH   3   5
ATOM      5  C   UNL     1      30.112  60.419   9.512  1.00  0.00     0.015 C 
BRANCH   5   6
ATOM      6  C   UNL     1      30.750  59.023   9.400  1.00  0.00     0.028 C 
BRANCH   6   7
ATOM      7  C   UNL     1      29.875  57.911   9.929  1.00  0.00    -0.028 C 
ATOM      8  C   UNL     1      29.967  57.272  11.125  1.00  0.00    -0.070 CG0
ATOM      9  C   UNL     1      29.013  56.121  11.353  1.00  0.00     0.039 C 
ATOM     10  G   UNL     1      30.881  57.672  12.279  1.00  0.00     0.000 G0
ENDBRANCH   6   7
ENDBRANCH   5   6
ENDBRANCH   3   5
ENDBRANCH   1   3
BRANCH   1  11
ATOM     11  C   UNL     1      28.635  60.479  12.744  1.00  0.00     0.087 C 
BRANCH  11  12
ATOM     12  C   UNL     1      30.063  60.051  13.183  1.00  0.00     0.066 C 
BRANCH  12  13
ATOM     13  C   UNL     1      30.256  58.543  13.354  1.00  0.00     0.140 C 
ATOM     14  O   UNL     1      29.810  58.012  14.362  1.00  0.00    -0.299 OA
BRANCH  13  15
ATOM     15  C   UNL     1      30.878  57.660  12.297  1.00  0.00     0.106 CG0
ATOM     16  G   UNL     1      29.952  57.271  11.150  1.00  0.00     0.000 G0
ENDBRANCH  13  15
ENDBRANCH  12  13
BRANCH  12  17
ATOM     17  C   UNL     1      30.537  60.855  14.433  1.00  0.00    -0.006 C 
ATOM     18  C   UNL     1      31.728  61.787  14.151  1.00  0.00     0.008 C 
ATOM     19  C   UNL     1      29.388  61.651  15.072  1.00  0.00     0.008 C 
ENDBRANCH  12  17
ENDBRANCH  11  12
ENDBRANCH   1  11
TORSDOF 1
ENDMDL
MODEL 6
REMARK VINA RESULT:    -0.883      3.754      5.945
REMARK INTER + INTRA:          -1.700
REMARK INTER:                  -1.315
REMARK INTRA:                  -0.385
REMARK UNBOUND:                -0.352
REMARK SMILES CC1=CCC[C@H](C)C(=O)C[C@@H](C(C)C)C(=O)C1
REMARK SMILES IDX 8 1 9 2 6 3 7 4 5 5 4 6 3 7 2 8 1 9 10 11 11 12 15 13 16 14
REMARK SMILES IDX 17 15 12 17 13 18 14 19
REMARK H PARENT
REMARK Flexibility Score: 70.00
ROOT
ATOM      1  C   UNL     1      27.486  58.796  13.011  1.00  0.00     0.136 C 
ATOM      2  O   UNL     1      26.654  58.006  12.588  1.00  0.00    -0.299 OA
ENDROOT
BRANCH   1   3
ATOM      3  C   UNL     1      27.167  59.641  14.228  1.00  0.00     0.053 C 
ATOM      4  C   UNL     1      25.807  60.322  14.038  1.00  0.00     0.016 C 
BRANCH   3   5
ATOM      5  C   UNL     1      27.170  58.805  15.525  1.00  0.00     0.015 C 
BRANCH   5   6
ATOM      6  C   UNL     1      28.190  59.266  16.581  1.00  0.00     0.028 C 
BRANCH   6   7
ATOM      7  C   UNL     1      28.735  60.653  16.332  1.00  0.00    -0.028 C 
ATOM      8  C   UNL     1      29.946  60.995  15.819  1.00  0.00    -0.070 CG0
ATOM      9  C   UNL     1      30.269  62.471  15.772  1.00  0.00     0.039 C 
ATOM     10  G   UNL     1      30.960  60.030  15.212  1.00  0.00     0.000 G0
ENDBRANCH   6   7
ENDBRANCH   5   6
ENDBRANCH   3   5
ENDBRANCH   1   3
BRANCH   1  11
ATOM     11  C   UNL     1      28.800  58.934  12.284  1.00  0.00     0.087 C 
BRANCH  11  12
ATOM     12  C   UNL     1      30.015  58.559  13.177  1.00  0.00     0.066 C 
BRANCH  12  13
ATOM     13  C   UNL     1      30.801  59.752  13.724  1.00  0.00     0.140 C 
ATOM     14  O   UNL     1      31.244  60.569  12.929  1.00  0.00    -0.299 OA
BRANCH  13  15
ATOM     15  C   UNL     1      30.973  60.027  15.200  1.00  0.00     0.106 CG0
ATOM     16  G   UNL     1      29.952  60.987  15.803  1.00  0.00     0.000 G0
ENDBRANCH  13  15
ENDBRANCH  12  13
BRANCH  12  17
ATOM     17  C   UNL     1      30.936  57.515  12.473  1.00  0.00    -0.006 C 
ATOM     18  C   UNL     1      31.680  56.590  13.450  1.00  0.00     0.008 C 
ATOM     19  C   UNL     1      30.166  56.676  11.441  1.00  0.00     0.008 C 
ENDBRANCH  12  17
ENDBRANCH  11  12
ENDBRANCH   1  11
TORSDOF 1
ENDMDL
MODEL 7
REMARK VINA RESULT:    -0.835      1.725      3.933
REMARK INTER + INTRA:          -1.626
REMARK INTER:                  -1.599
REMARK INTRA:                  -0.027
REMARK UNBOUND:                -0.352
REMARK SMILES CC1=CCC[C@H](C)C(=O)C[C@@H](C(C)C)C(=O)C1
REMARK SMILES IDX 8 1 9 2 6 3 7 4 5 5 4 6 3 7 2 8 1 9 10 11 11 12 15 13 16 14
REMARK SMILES IDX 17 15 12 17 13 18 14 19
REMARK H PARENT
REMARK Flexibility Score: 70.00
ROOT
ATOM      1  C   UNL     1      28.537  60.607  11.034  1.00  0.00     0.136 C 
ATOM      2  O   UNL     1      27.531  60.625  10.338  1.00  0.00    -0.299 OA
ENDROOT
BRANCH   1   3
ATOM      3  C   UNL     1      29.700  61.518  10.695  1.00  0.00     0.053 C 
ATOM      4  C   UNL     1      30.387  61.975  11.986  1.00  0.00     0.016 C 
BRANCH   3   5
ATOM      5  C   UNL     1      30.718  60.828   9.763  1.00  0.00     0.015 C 
BRANCH   5   6
ATOM      6  C   UNL     1      30.088  59.929   8.684  1.00  0.00     0.028 C 
BRANCH   6   7
ATOM      7  C   UNL     1      30.711  58.556   8.598  1.00  0.00    -0.028 C 
ATOM      8  C   UNL     1      30.192  57.374   9.022  1.00  0.00    -0.070 CG0
ATOM      9  C   UNL     1      31.084  56.159   8.899  1.00  0.00     0.039 C 
ATOM     10  G   UNL     1      28.769  57.157   9.526  1.00  0.00     0.000 G0
ENDBRANCH   6   7
ENDBRANCH   5   6
ENDBRANCH   3   5
ENDBRANCH   1   3
BRANCH   1  11
ATOM     11  C   UNL     1      28.607  59.648  12.195  1.00  0.00     0.087 C 
BRANCH  11  12
ATOM     12  C   UNL     1      29.394  58.354  11.851  1.00  0.00     0.066 C 
BRANCH  12  13
ATOM     13  C   UNL     1      28.607  57.320  11.044  1.00  0.00     0.140 C 
ATOM     14  O   UNL     1      27.746  56.669  11.618  1.00  0.00    -0.299 OA
BRANCH  13  15
ATOM     15  C   UNL     1      28.769  57.131   9.554  1.00  0.00     0.106 CG0
ATOM     16  G   UNL     1      30.178  57.373   9.020  1.00  0.00     0.000 G0
ENDBRANCH  13  15
ENDBRANCH  12  13
BRANCH  12  17
ATOM     17  C   UNL     1      30.055  57.737  13.123  1.00  0.00    -0.006 C 
ATOM     18  C   UNL     1      30.647  56.336  12.893  1.00  0.00     0.008 C 
ATOM     19  C   UNL     1      31.122  58.665  13.722  1.00  0.00     0.008 C 
ENDBRANCH  12  17
ENDBRANCH  11  12
ENDBRANCH   1  11
TORSDOF 1
ENDMDL
MODEL 8
REMARK VINA RESULT:    -0.783      2.758      4.540
REMARK INTER + INTRA:          -1.547
REMARK INTER:                  -1.521
REMARK INTRA:                  -0.026
REMARK UNBOUND:                -0.352
REMARK SMILES CC1=CCC[C@H](C)C(=O)C[C@@H](C(C)C)C(=O)C1
REMARK SMILES IDX 8 1 9 2 6 3 7 4 5 5 4 6 3 7 2 8 1 9 10 11 11 12 15 13 16 14
REMARK SMILES IDX 17 15 12 17 13 18 14 19
REMARK H PARENT
REMARK Flexibility Score: 70.00
ROOT
ATOM      1  C   UNL     1      27.862  57.599  12.607  1.00  0.00     0.136 C 
ATOM      2  O   UNL     1      28.355  57.642  13.726  1.00  0.00    -0.299 OA
ENDROOT
BRANCH   1   3
ATOM      3  C   UNL     1      26.388  57.909  12.425  1.00  0.00     0.053 C 
ATOM      4  C   UNL     1      25.553  56.939  13.267  1.00  0.00     0.016 C 
BRANCH   3   5
ATOM      5  C   UNL     1      26.057  59.368  12.803  1.00  0.00     0.015 C 
BRANCH   5   6
ATOM      6  C   UNL     1      26.473  60.410  11.751  1.00  0.00     0.028 C 
BRANCH   6   7
ATOM      7  C   UNL     1      27.644  61.266  12.174  1.00  0.00    -0.028 C 
ATOM      8  C   UNL     1      28.849  61.397  11.560  1.00  0.00    -0.070 CG0
ATOM      9  C   UNL     1      29.878  62.253  12.264  1.00  0.00     0.039 C 
ATOM     10  G   UNL     1      29.217  60.831  10.192  1.00  0.00     0.000 G0
ENDBRANCH   6   7
ENDBRANCH   5   6
ENDBRANCH   3   5
ENDBRANCH   1   3
BRANCH   1  11
ATOM     11  C   UNL     1      28.729  57.204  11.439  1.00  0.00     0.087 C 
BRANCH  11  12
ATOM     12  C   UNL     1      29.700  58.337  11.009  1.00  0.00     0.066 C 
BRANCH  12  13
ATOM     13  C   UNL     1      29.113  59.343  10.017  1.00  0.00     0.140 C 
ATOM     14  O   UNL     1      28.442  58.917   9.087  1.00  0.00    -0.299 OA
BRANCH  13  15
ATOM     15  C   UNL     1      29.235  60.840  10.182  1.00  0.00     0.106 CG0
ATOM     16  G   UNL     1      28.840  61.374  11.555  1.00  0.00     0.000 G0
ENDBRANCH  13  15
ENDBRANCH  12  13
BRANCH  12  17
ATOM     17  C   UNL     1      31.068  57.760  10.529  1.00  0.00    -0.006 C 
ATOM     18  C   UNL     1      30.947  56.412   9.799  1.00  0.00     0.008 C 
ATOM     19  C   UNL     1      31.837  58.762   9.654  1.00  0.00     0.008 C 
ENDBRANCH  12  17
ENDBRANCH  11  12
ENDBRANCH   1  11
TORSDOF 1
ENDMDL
MODEL 9
REMARK VINA RESULT:    -0.678      2.840      5.341
REMARK INTER + INTRA:          -1.386
REMARK INTER:                  -0.923
REMARK INTRA:                  -0.463
REMARK UNBOUND:                -0.352
REMARK SMILES CC1=CCC[C@H](C)C(=O)C[C@@H](C(C)C)C(=O)C1
REMARK SMILES IDX 8 1 9 2 6 3 7 4 5 5 4 6 3 7 2 8 1 9 10 11 11 12 15 13 16 14
REMARK SMILES IDX 17 15 12 17 13 18 14 19
REMARK H PARENT
REMARK Flexibility Score: 70.00
ROOT
ATOM      1  C   UNL     1      28.603  60.259  15.621  1.00  0.00     0.136 C 
ATOM      2  O   UNL     1      29.276  60.830  16.467  1.00  0.00    -0.299 OA
ENDROOT
BRANCH   1   3
ATOM      3  C   UNL     1      27.668  61.065  14.739  1.00  0.00     0.053 C 
ATOM      4  C   UNL     1      27.146  62.277  15.518  1.00  0.00     0.016 C 
BRANCH   3   5
ATOM      5  C   UNL     1      28.359  61.523  13.437  1.00  0.00     0.015 C 
BRANCH   5   6
ATOM      6  C   UNL     1      27.867  60.805  12.167  1.00  0.00     0.028 C 
BRANCH   6   7
ATOM      7  C   UNL     1      28.977  60.172  11.360  1.00  0.00    -0.028 C 
ATOM      8  C   UNL     1      29.575  58.969  11.562  1.00  0.00    -0.070 CG0
ATOM      9  C   UNL     1      30.734  58.629  10.652  1.00  0.00     0.039 C 
ATOM     10  G   UNL     1      29.124  57.907  12.560  1.00  0.00     0.000 G0
ENDBRANCH   6   7
ENDBRANCH   5   6
ENDBRANCH   3   5
ENDBRANCH   1   3
BRANCH   1  11
ATOM     11  C   UNL     1      28.694  58.760  15.500  1.00  0.00     0.087 C 
BRANCH  11  12
ATOM     12  C   UNL     1      30.095  58.285  15.025  1.00  0.00     0.066 C 
BRANCH  12  13
ATOM     13  C   UNL     1      30.107  57.581  13.667  1.00  0.00     0.140 C 
ATOM     14  O   UNL     1      30.898  56.665  13.495  1.00  0.00    -0.299 OA
BRANCH  13  15
ATOM     15  C   UNL     1      29.125  57.893  12.561  1.00  0.00     0.106 CG0
ATOM     16  G   UNL     1      29.580  58.962  11.573  1.00  0.00     0.000 G0
ENDBRANCH  13  15
ENDBRANCH  12  13
BRANCH  12  17
ATOM     17  C   UNL     1      30.817  57.454  16.130  1.00  0.00    -0.006 C 
ATOM     18  C   UNL     1      31.978  58.203  16.805  1.00  0.00     0.008 C 
ATOM     19  C   UNL     1      29.835  56.942  17.195  1.00  0.00     0.008 C 
ENDBRANCH  12  17
ENDBRANCH  11  12
ENDBRANCH   1  11
TORSDOF 1
ENDMDL
