MODEL 1
REMARK VINA RESULT:    -4.593      0.000      0.000
REMARK INTER + INTRA:          -5.185
REMARK INTER:                  -4.996
REMARK INTRA:                  -0.189
REMARK UNBOUND:                -0.189
REMARK SMILES C=C(C)[C@@H]1CC[C@H](C)C[C@@H]1O
REMARK SMILES IDX 8 1 7 2 6 3 5 4 4 5 10 6 9 7 11 8 2 10 1 11 3 12
REMARK H PARENT 11 9
REMARK Flexibility Score: inf
ROOT
ATOM      1  C   UNL     1      33.698  12.023   2.105  1.00  0.00     0.008 C 
ATOM      2  C   UNL     1      34.638  10.979   2.718  1.00  0.00    -0.012 C 
ATOM      3  C   UNL     1      34.716  11.144   4.247  1.00  0.00     0.004 C 
ATOM      4  C   UNL     1      35.745  10.184   4.880  1.00  0.00     0.011 C 
ATOM      5  C   UNL     1      35.939   8.876   4.068  1.00  0.00     0.043 C 
ATOM      6  C   UNL     1      34.643   8.453   3.338  1.00  0.00     0.121 C 
ATOM      7  C   UNL     1      34.200   9.541   2.326  1.00  0.00     0.035 C 
ENDROOT
BRANCH   6   8
ATOM      8  O   UNL     1      33.615   8.224   4.268  1.00  0.00    -0.392 OA
ATOM      9  H   UNL     1      32.787   8.617   3.886  1.00  0.00     0.210 HD
ENDBRANCH   6   8
BRANCH   5  10
ATOM     10  C   UNL     1      36.527   7.748   4.913  1.00  0.00    -0.075 C 
ATOM     11  C   UNL     1      36.627   7.845   6.250  1.00  0.00     0.008 C 
ATOM     12  C   UNL     1      37.013   6.483   4.250  1.00  0.00     0.039 C 
ENDBRANCH   5  10
TORSDOF 2
ENDMDL
MODEL 2
REMARK VINA RESULT:    -4.309      1.293      4.345
REMARK INTER + INTRA:          -4.876
REMARK INTER:                  -4.830
REMARK INTRA:                  -0.046
REMARK UNBOUND:                -0.189
REMARK SMILES C=C(C)[C@@H]1CC[C@H](C)C[C@@H]1O
REMARK SMILES IDX 8 1 7 2 6 3 5 4 4 5 10 6 9 7 11 8 2 10 1 11 3 12
REMARK H PARENT 11 9
REMARK Flexibility Score: inf
ROOT
ATOM      1  C   UNL     1      37.793   7.094   4.927  1.00  0.00     0.008 C 
ATOM      2  C   UNL     1      36.925   8.158   4.245  1.00  0.00    -0.012 C 
ATOM      3  C   UNL     1      35.585   7.557   3.784  1.00  0.00     0.004 C 
ATOM      4  C   UNL     1      34.739   8.574   2.989  1.00  0.00     0.011 C 
ATOM      5  C   UNL     1      35.016  10.046   3.393  1.00  0.00     0.043 C 
ATOM      6  C   UNL     1      35.407  10.171   4.884  1.00  0.00     0.121 C 
ATOM      7  C   UNL     1      36.707   9.378   5.182  1.00  0.00     0.035 C 
ENDROOT
BRANCH   6   8
ATOM      8  O   UNL     1      34.366   9.697   5.700  1.00  0.00    -0.392 OA
ATOM      9  H   UNL     1      33.550   9.658   5.135  1.00  0.00     0.210 HD
ENDBRANCH   6   8
BRANCH   5  10
ATOM     10  C   UNL     1      33.870  10.980   3.011  1.00  0.00    -0.075 C 
ATOM     11  C   UNL     1      33.639  12.125   3.677  1.00  0.00     0.008 C 
ATOM     12  C   UNL     1      32.964  10.630   1.857  1.00  0.00     0.039 C 
ENDBRANCH   5  10
TORSDOF 2
ENDMDL
MODEL 3
REMARK VINA RESULT:    -4.295      2.019      4.398
REMARK INTER + INTRA:          -4.860
REMARK INTER:                  -4.862
REMARK INTRA:                   0.002
REMARK UNBOUND:                -0.189
REMARK SMILES C=C(C)[C@@H]1CC[C@H](C)C[C@@H]1O
REMARK SMILES IDX 8 1 7 2 6 3 5 4 4 5 10 6 9 7 11 8 2 10 1 11 3 12
REMARK H PARENT 11 9
REMARK Flexibility Score: inf
ROOT
ATOM      1  C   UNL     1      36.655  10.342   7.865  1.00  0.00     0.008 C 
ATOM      2  C   UNL     1      36.256  10.428   6.387  1.00  0.00    -0.012 C 
ATOM      3  C   UNL     1      35.165   9.393   6.054  1.00  0.00     0.004 C 
ATOM      4  C   UNL     1      34.827   9.374   4.549  1.00  0.00     0.011 C 
ATOM      5  C   UNL     1      35.066  10.739   3.853  1.00  0.00     0.043 C 
ATOM      6  C   UNL     1      34.827  11.926   4.814  1.00  0.00     0.121 C 
ATOM      7  C   UNL     1      35.803  11.866   6.019  1.00  0.00     0.035 C 
ENDROOT
BRANCH   6   8
ATOM      8  O   UNL     1      33.501  11.915   5.278  1.00  0.00    -0.392 OA
ATOM      9  H   UNL     1      33.238  12.861   5.425  1.00  0.00     0.210 HD
ENDBRANCH   6   8
BRANCH   5  10
ATOM     10  C   UNL     1      34.279  10.874   2.551  1.00  0.00    -0.075 C 
ATOM     11  C   UNL     1      33.827  12.065   2.119  1.00  0.00     0.008 C 
ATOM     12  C   UNL     1      33.994   9.655   1.711  1.00  0.00     0.039 C 
ENDBRANCH   5  10
TORSDOF 2
ENDMDL
MODEL 4
REMARK VINA RESULT:    -4.196      1.174      4.494
REMARK INTER + INTRA:          -4.753
REMARK INTER:                  -4.563
REMARK INTRA:                  -0.190
REMARK UNBOUND:                -0.189
REMARK SMILES C=C(C)[C@@H]1CC[C@H](C)C[C@@H]1O
REMARK SMILES IDX 8 1 7 2 6 3 5 4 4 5 10 6 9 7 11 8 2 10 1 11 3 12
REMARK H PARENT 11 9
REMARK Flexibility Score: inf
ROOT
ATOM      1  C   UNL     1      36.825   6.101   6.647  1.00  0.00     0.008 C 
ATOM      2  C   UNL     1      36.412   7.205   5.667  1.00  0.00    -0.012 C 
ATOM      3  C   UNL     1      36.018   6.608   4.304  1.00  0.00     0.004 C 
ATOM      4  C   UNL     1      35.711   7.702   3.261  1.00  0.00     0.011 C 
ATOM      5  C   UNL     1      35.188   9.019   3.893  1.00  0.00     0.043 C 
ATOM      6  C   UNL     1      34.382   8.757   5.186  1.00  0.00     0.121 C 
ATOM      7  C   UNL     1      35.267   8.071   6.260  1.00  0.00     0.035 C 
ENDROOT
BRANCH   6   8
ATOM      8  O   UNL     1      33.266   7.950   4.907  1.00  0.00    -0.392 OA
ATOM      9  H   UNL     1      33.595   7.016   4.833  1.00  0.00     0.210 HD
ENDBRANCH   6   8
BRANCH   5  10
ATOM     10  C   UNL     1      34.422   9.881   2.893  1.00  0.00    -0.075 C 
ATOM     11  C   UNL     1      34.083   9.420   1.676  1.00  0.00     0.008 C 
ATOM     12  C   UNL     1      34.023  11.289   3.260  1.00  0.00     0.039 C 
ENDBRANCH   5  10
TORSDOF 2
ENDMDL
MODEL 5
REMARK VINA RESULT:    -4.180     13.630     14.665
REMARK INTER + INTRA:          -4.736
REMARK INTER:                  -4.551
REMARK INTRA:                  -0.184
REMARK UNBOUND:                -0.189
REMARK SMILES C=C(C)[C@@H]1CC[C@H](C)C[C@@H]1O
REMARK SMILES IDX 8 1 7 2 6 3 5 4 4 5 10 6 9 7 11 8 2 10 1 11 3 12
REMARK H PARENT 11 9
REMARK Flexibility Score: inf
ROOT
ATOM      1  C   UNL     1      37.937   4.213 -10.420  1.00  0.00     0.008 C 
ATOM      2  C   UNL     1      39.107   3.928  -9.472  1.00  0.00    -0.012 C 
ATOM      3  C   UNL     1      38.605   3.700  -8.035  1.00  0.00     0.004 C 
ATOM      4  C   UNL     1      39.767   3.528  -7.036  1.00  0.00     0.011 C 
ATOM      5  C   UNL     1      41.047   2.938  -7.685  1.00  0.00     0.043 C 
ATOM      6  C   UNL     1      40.712   1.978  -8.851  1.00  0.00     0.121 C 
ATOM      7  C   UNL     1      39.947   2.723  -9.977  1.00  0.00     0.035 C 
ENDROOT
BRANCH   6   8
ATOM      8  O   UNL     1      39.939   0.901  -8.386  1.00  0.00    -0.392 OA
ATOM      9  H   UNL     1      40.351   0.072  -8.745  1.00  0.00     0.210 HD
ENDBRANCH   6   8
BRANCH   5  10
ATOM     10  C   UNL     1      41.981   2.304  -6.658  1.00  0.00    -0.075 C 
ATOM     11  C   UNL     1      41.569   2.012  -5.412  1.00  0.00     0.008 C 
ATOM     12  C   UNL     1      43.408   1.985  -7.031  1.00  0.00     0.039 C 
ENDBRANCH   5  10
TORSDOF 2
ENDMDL
MODEL 6
REMARK VINA RESULT:    -4.124     14.264     15.764
REMARK INTER + INTRA:          -4.675
REMARK INTER:                  -4.488
REMARK INTRA:                  -0.187
REMARK UNBOUND:                -0.189
REMARK SMILES C=C(C)[C@@H]1CC[C@H](C)C[C@@H]1O
REMARK SMILES IDX 8 1 7 2 6 3 5 4 4 5 10 6 9 7 11 8 2 10 1 11 3 12
REMARK H PARENT 11 9
REMARK Flexibility Score: inf
ROOT
ATOM      1  C   UNL     1      43.266   2.532  -6.054  1.00  0.00     0.008 C 
ATOM      2  C   UNL     1      42.237   2.945  -7.112  1.00  0.00    -0.012 C 
ATOM      3  C   UNL     1      42.666   2.463  -8.510  1.00  0.00     0.004 C 
ATOM      4  C   UNL     1      41.711   2.966  -9.613  1.00  0.00     0.011 C 
ATOM      5  C   UNL     1      40.264   3.201  -9.107  1.00  0.00     0.043 C 
ATOM      6  C   UNL     1      39.888   2.228  -7.966  1.00  0.00     0.121 C 
ATOM      7  C   UNL     1      40.822   2.424  -6.743  1.00  0.00     0.035 C 
ENDROOT
BRANCH   6   8
ATOM      8  O   UNL     1      39.968   0.899  -8.415  1.00  0.00    -0.392 OA
ATOM      9  H   UNL     1      40.592   0.891  -9.187  1.00  0.00     0.210 HD
ENDBRANCH   6   8
BRANCH   5  10
ATOM     10  C   UNL     1      39.242   3.193 -10.241  1.00  0.00    -0.075 C 
ATOM     11  C   UNL     1      39.617   3.126 -11.531  1.00  0.00     0.008 C 
ATOM     12  C   UNL     1      37.768   3.257  -9.929  1.00  0.00     0.039 C 
ENDBRANCH   5  10
TORSDOF 2
ENDMDL
MODEL 7
REMARK VINA RESULT:    -4.111     14.103     14.741
REMARK INTER + INTRA:          -4.660
REMARK INTER:                  -4.704
REMARK INTRA:                   0.044
REMARK UNBOUND:                -0.189
REMARK SMILES C=C(C)[C@@H]1CC[C@H](C)C[C@@H]1O
REMARK SMILES IDX 8 1 7 2 6 3 5 4 4 5 10 6 9 7 11 8 2 10 1 11 3 12
REMARK H PARENT 11 9
REMARK Flexibility Score: inf
ROOT
ATOM      1  C   UNL     1      39.616   5.848  -9.093  1.00  0.00     0.008 C 
ATOM      2  C   UNL     1      40.517   4.963  -8.225  1.00  0.00    -0.012 C 
ATOM      3  C   UNL     1      39.798   3.656  -7.844  1.00  0.00     0.004 C 
ATOM      4  C   UNL     1      40.634   2.797  -6.873  1.00  0.00     0.011 C 
ATOM      5  C   UNL     1      42.162   3.013  -7.029  1.00  0.00     0.043 C 
ATOM      6  C   UNL     1      42.550   3.361  -8.485  1.00  0.00     0.121 C 
ATOM      7  C   UNL     1      41.867   4.679  -8.938  1.00  0.00     0.035 C 
ENDROOT
BRANCH   6   8
ATOM      8  O   UNL     1      42.181   2.316  -9.348  1.00  0.00    -0.392 OA
ATOM      9  H   UNL     1      41.754   1.615  -8.789  1.00  0.00     0.210 HD
ENDBRANCH   6   8
BRANCH   5  10
ATOM     10  C   UNL     1      42.975   1.847  -6.472  1.00  0.00    -0.075 C 
ATOM     11  C   UNL     1      44.118   1.441  -7.052  1.00  0.00     0.008 C 
ATOM     12  C   UNL     1      42.503   1.119  -5.238  1.00  0.00     0.039 C 
ENDBRANCH   5  10
TORSDOF 2
ENDMDL
MODEL 8
REMARK VINA RESULT:    -3.981      1.736      2.404
REMARK INTER + INTRA:          -4.519
REMARK INTER:                  -4.344
REMARK INTRA:                  -0.175
REMARK UNBOUND:                -0.189
REMARK SMILES C=C(C)[C@@H]1CC[C@H](C)C[C@@H]1O
REMARK SMILES IDX 8 1 7 2 6 3 5 4 4 5 10 6 9 7 11 8 2 10 1 11 3 12
REMARK H PARENT 11 9
REMARK Flexibility Score: inf
ROOT
ATOM      1  C   UNL     1      34.368  11.140   2.117  1.00  0.00     0.008 C 
ATOM      2  C   UNL     1      34.333  10.176   3.309  1.00  0.00    -0.012 C 
ATOM      3  C   UNL     1      34.724   8.752   2.873  1.00  0.00     0.004 C 
ATOM      4  C   UNL     1      34.584   7.736   4.026  1.00  0.00     0.011 C 
ATOM      5  C   UNL     1      34.777   8.373   5.427  1.00  0.00     0.043 C 
ATOM      6  C   UNL     1      35.767   9.560   5.389  1.00  0.00     0.121 C 
ATOM      7  C   UNL     1      35.243  10.686   4.459  1.00  0.00     0.035 C 
ENDROOT
BRANCH   6   8
ATOM      8  O   UNL     1      37.027   9.127   4.944  1.00  0.00    -0.392 OA
ATOM      9  H   UNL     1      37.648   9.199   5.716  1.00  0.00     0.210 HD
ENDBRANCH   6   8
BRANCH   5  10
ATOM     10  C   UNL     1      35.145   7.341   6.490  1.00  0.00    -0.075 C 
ATOM     11  C   UNL     1      35.463   7.701   7.746  1.00  0.00     0.008 C 
ATOM     12  C   UNL     1      35.156   5.872   6.144  1.00  0.00     0.039 C 
ENDBRANCH   5  10
TORSDOF 2
ENDMDL
