MODEL 1
REMARK VINA RESULT:    -2.875      0.000      0.000
REMARK INTER + INTRA:          -3.851
REMARK INTER:                  -3.631
REMARK INTRA:                  -0.220
REMARK UNBOUND:                -0.220
REMARK SMILES CCCCC[C@@H](C)O
REMARK SMILES IDX 4 1 3 2 2 3 1 4 5 5 6 6 7 7 8 8
REMARK H PARENT 8 9
REMARK Flexibility Score: inf
ROOT
ATOM      1  C   UNL     1     172.250 160.608 172.485  1.00  0.00     0.003 C 
ENDROOT
BRANCH   1   2
ATOM      2  C   UNL     1     170.945 160.731 171.689  1.00  0.00    -0.000 C 
BRANCH   2   3
ATOM      3  C   UNL     1     170.554 162.202 171.499  1.00  0.00    -0.003 C 
ATOM      4  C   UNL     1     169.770 162.401 170.205  1.00  0.00     0.004 C 
ENDBRANCH   2   3
ENDBRANCH   1   2
BRANCH   1   5
ATOM      5  C   UNL     1     173.011 161.940 172.504  1.00  0.00     0.031 C 
BRANCH   5   6
ATOM      6  C   UNL     1     174.467 161.770 172.029  1.00  0.00     0.111 C 
ATOM      7  C   UNL     1     174.767 160.308 171.679  1.00  0.00     0.038 C 
BRANCH   6   8
ATOM      8  O   UNL     1     174.743 162.600 170.928  1.00  0.00    -0.393 OA
ATOM      9  H   UNL     1     174.626 162.057 170.105  1.00  0.00     0.210 HD
ENDBRANCH   6   8
ENDBRANCH   5   6
ENDBRANCH   1   5
TORSDOF 5
ENDMDL
MODEL 2
REMARK VINA RESULT:    -2.863     10.707     11.343
REMARK INTER + INTRA:          -3.836
REMARK INTER:                  -3.626
REMARK INTRA:                  -0.210
REMARK UNBOUND:                -0.220
REMARK SMILES CCCCC[C@@H](C)O
REMARK SMILES IDX 4 1 3 2 2 3 1 4 5 5 6 6 7 7 8 8
REMARK H PARENT 8 9
REMARK Flexibility Score: inf
ROOT
ATOM      1  C   UNL     1     174.616 172.155 172.746  1.00  0.00     0.003 C 
ENDROOT
BRANCH   1   2
ATOM      2  C   UNL     1     174.573 170.844 171.949  1.00  0.00    -0.000 C 
BRANCH   2   3
ATOM      3  C   UNL     1     173.132 170.350 171.780  1.00  0.00    -0.003 C 
ATOM      4  C   UNL     1     172.913 169.755 170.392  1.00  0.00     0.004 C 
ENDBRANCH   2   3
ENDBRANCH   1   2
BRANCH   1   5
ATOM      5  C   UNL     1     173.292 172.920 172.616  1.00  0.00     0.031 C 
BRANCH   5   6
ATOM      6  C   UNL     1     173.522 174.386 172.201  1.00  0.00     0.111 C 
ATOM      7  C   UNL     1     175.001 174.650 171.901  1.00  0.00     0.038 C 
BRANCH   6   8
ATOM      8  O   UNL     1     172.731 174.729 171.090  1.00  0.00    -0.393 OA
ATOM      9  H   UNL     1     172.109 175.449 171.374  1.00  0.00     0.210 HD
ENDBRANCH   6   8
ENDBRANCH   5   6
ENDBRANCH   1   5
TORSDOF 5
ENDMDL
MODEL 3
REMARK VINA RESULT:    -2.838     14.228     16.287
REMARK INTER + INTRA:          -3.804
REMARK INTER:                  -3.558
REMARK INTRA:                  -0.246
REMARK UNBOUND:                -0.220
REMARK SMILES CCCCC[C@@H](C)O
REMARK SMILES IDX 4 1 3 2 2 3 1 4 5 5 6 6 7 7 8 8
REMARK H PARENT 8 9
REMARK Flexibility Score: inf
ROOT
ATOM      1  C   UNL     1     162.951 175.004 172.540  1.00  0.00     0.003 C 
ENDROOT
BRANCH   1   2
ATOM      2  C   UNL     1     164.327 174.728 171.922  1.00  0.00    -0.000 C 
BRANCH   2   3
ATOM      3  C   UNL     1     164.612 173.223 171.862  1.00  0.00    -0.003 C 
ATOM      4  C   UNL     1     165.464 172.871 170.646  1.00  0.00     0.004 C 
ENDBRANCH   2   3
ENDBRANCH   1   2
BRANCH   1   5
ATOM      5  C   UNL     1     162.200 173.695 172.817  1.00  0.00     0.031 C 
BRANCH   5   6
ATOM      6  C   UNL     1     160.820 173.675 172.132  1.00  0.00     0.111 C 
ATOM      7  C   UNL     1     160.445 175.064 171.605  1.00  0.00     0.038 C 
BRANCH   6   8
ATOM      8  O   UNL     1     160.786 172.733 171.087  1.00  0.00    -0.393 OA
ATOM      9  H   UNL     1     161.298 171.936 171.384  1.00  0.00     0.210 HD
ENDBRANCH   6   8
ENDBRANCH   5   6
ENDBRANCH   1   5
TORSDOF 5
ENDMDL
MODEL 4
REMARK VINA RESULT:    -2.737      6.905      8.808
REMARK INTER + INTRA:          -3.677
REMARK INTER:                  -3.480
REMARK INTRA:                  -0.197
REMARK UNBOUND:                -0.220
REMARK SMILES CCCCC[C@@H](C)O
REMARK SMILES IDX 4 1 3 2 2 3 1 4 5 5 6 6 7 7 8 8
REMARK H PARENT 8 9
REMARK Flexibility Score: inf
ROOT
ATOM      1  C   UNL     1     165.102 166.823 169.662  1.00  0.00     0.003 C 
ENDROOT
BRANCH   1   2
ATOM      2  C   UNL     1     164.845 166.693 171.169  1.00  0.00    -0.000 C 
BRANCH   2   3
ATOM      3  C   UNL     1     163.457 166.102 171.442  1.00  0.00    -0.003 C 
ATOM      4  C   UNL     1     162.779 165.668 170.145  1.00  0.00     0.004 C 
ENDBRANCH   2   3
ENDBRANCH   1   2
BRANCH   1   5
ATOM      5  C   UNL     1     166.599 166.715 169.347  1.00  0.00     0.031 C 
BRANCH   5   6
ATOM      6  C   UNL     1     166.890 165.577 168.350  1.00  0.00     0.111 C 
ATOM      7  C   UNL     1     168.085 164.734 168.807  1.00  0.00     0.038 C 
BRANCH   6   8
ATOM      8  O   UNL     1     165.760 164.760 168.168  1.00  0.00    -0.393 OA
ATOM      9  H   UNL     1     165.053 165.082 168.787  1.00  0.00     0.210 HD
ENDBRANCH   6   8
ENDBRANCH   5   6
ENDBRANCH   1   5
TORSDOF 5
ENDMDL
MODEL 5
REMARK VINA RESULT:    -2.735      7.690      9.721
REMARK INTER + INTRA:          -3.674
REMARK INTER:                  -3.484
REMARK INTRA:                  -0.190
REMARK UNBOUND:                -0.220
REMARK SMILES CCCCC[C@@H](C)O
REMARK SMILES IDX 4 1 3 2 2 3 1 4 5 5 6 6 7 7 8 8
REMARK H PARENT 8 9
REMARK Flexibility Score: inf
ROOT
ATOM      1  C   UNL     1     169.186 168.996 169.309  1.00  0.00     0.003 C 
ENDROOT
BRANCH   1   2
ATOM      2  C   UNL     1     170.395 168.110 168.985  1.00  0.00    -0.000 C 
BRANCH   2   3
ATOM      3  C   UNL     1     170.039 167.061 167.924  1.00  0.00    -0.003 C 
ATOM      4  C   UNL     1     169.083 166.012 168.486  1.00  0.00     0.004 C 
ENDBRANCH   2   3
ENDBRANCH   1   2
BRANCH   1   5
ATOM      5  C   UNL     1     168.706 169.752 168.063  1.00  0.00     0.031 C 
BRANCH   5   6
ATOM      6  C   UNL     1     167.299 170.346 168.264  1.00  0.00     0.111 C 
ATOM      7  C   UNL     1     166.840 170.199 169.719  1.00  0.00     0.038 C 
BRANCH   6   8
ATOM      8  O   UNL     1     167.257 171.697 167.875  1.00  0.00    -0.393 OA
ATOM      9  H   UNL     1     166.303 171.949 167.765  1.00  0.00     0.210 HD
ENDBRANCH   6   8
ENDBRANCH   5   6
ENDBRANCH   1   5
TORSDOF 5
ENDMDL
MODEL 6
REMARK VINA RESULT:    -2.731      6.541      7.359
REMARK INTER + INTRA:          -3.670
REMARK INTER:                  -3.395
REMARK INTRA:                  -0.275
REMARK UNBOUND:                -0.220
REMARK SMILES CCCCC[C@@H](C)O
REMARK SMILES IDX 4 1 3 2 2 3 1 4 5 5 6 6 7 7 8 8
REMARK H PARENT 8 9
REMARK Flexibility Score: inf
ROOT
ATOM      1  C   UNL     1     169.141 166.445 169.466  1.00  0.00     0.003 C 
ENDROOT
BRANCH   1   2
ATOM      2  C   UNL     1     168.049 165.374 169.353  1.00  0.00    -0.000 C 
BRANCH   2   3
ATOM      3  C   UNL     1     167.326 165.467 168.003  1.00  0.00    -0.003 C 
ATOM      4  C   UNL     1     166.209 166.506 168.047  1.00  0.00     0.004 C 
ENDBRANCH   2   3
ENDBRANCH   1   2
BRANCH   1   5
ATOM      5  C   UNL     1     169.965 166.530 168.175  1.00  0.00     0.031 C 
BRANCH   5   6
ATOM      6  C   UNL     1     170.405 167.976 167.876  1.00  0.00     0.111 C 
ATOM      7  C   UNL     1     169.742 168.966 168.840  1.00  0.00     0.038 C 
BRANCH   6   8
ATOM      8  O   UNL     1     171.805 168.103 167.934  1.00  0.00    -0.393 OA
ATOM      9  H   UNL     1     172.122 167.579 168.716  1.00  0.00     0.210 HD
ENDBRANCH   6   8
ENDBRANCH   5   6
ENDBRANCH   1   5
TORSDOF 5
ENDMDL
MODEL 7
REMARK VINA RESULT:    -2.716      8.054      9.345
REMARK INTER + INTRA:          -3.651
REMARK INTER:                  -3.479
REMARK INTRA:                  -0.171
REMARK UNBOUND:                -0.220
REMARK SMILES CCCCC[C@@H](C)O
REMARK SMILES IDX 4 1 3 2 2 3 1 4 5 5 6 6 7 7 8 8
REMARK H PARENT 8 9
REMARK Flexibility Score: inf
ROOT
ATOM      1  C   UNL     1     170.446 168.707 169.619  1.00  0.00     0.003 C 
ENDROOT
BRANCH   1   2
ATOM      2  C   UNL     1     170.589 168.746 171.145  1.00  0.00    -0.000 C 
BRANCH   2   3
ATOM      3  C   UNL     1     171.999 169.189 171.555  1.00  0.00    -0.003 C 
ATOM      4  C   UNL     1     172.770 169.746 170.361  1.00  0.00     0.004 C 
ENDBRANCH   2   3
ENDBRANCH   1   2
BRANCH   1   5
ATOM      5  C   UNL     1     168.994 168.432 169.208  1.00  0.00     0.031 C 
BRANCH   5   6
ATOM      6  C   UNL     1     168.403 169.597 168.391  1.00  0.00     0.111 C 
ATOM      7  C   UNL     1     167.169 170.187 169.083  1.00  0.00     0.038 C 
BRANCH   6   8
ATOM      8  O   UNL     1     169.363 170.601 168.170  1.00  0.00    -0.393 OA
ATOM      9  H   UNL     1     169.400 171.167 168.985  1.00  0.00     0.210 HD
ENDBRANCH   6   8
ENDBRANCH   5   6
ENDBRANCH   1   5
TORSDOF 5
ENDMDL
MODEL 8
REMARK VINA RESULT:    -2.681      8.917     10.423
REMARK INTER + INTRA:          -3.606
REMARK INTER:                  -3.359
REMARK INTRA:                  -0.247
REMARK UNBOUND:                -0.220
REMARK SMILES CCCCC[C@@H](C)O
REMARK SMILES IDX 4 1 3 2 2 3 1 4 5 5 6 6 7 7 8 8
REMARK H PARENT 8 9
REMARK Flexibility Score: inf
ROOT
ATOM      1  C   UNL     1     166.561 169.210 169.218  1.00  0.00     0.003 C 
ENDROOT
BRANCH   1   2
ATOM      2  C   UNL     1     167.591 170.266 168.799  1.00  0.00    -0.000 C 
BRANCH   2   3
ATOM      3  C   UNL     1     168.826 169.611 168.170  1.00  0.00    -0.003 C 
ATOM      4  C   UNL     1     169.297 168.417 168.995  1.00  0.00     0.004 C 
ENDBRANCH   2   3
ENDBRANCH   1   2
BRANCH   1   5
ATOM      5  C   UNL     1     165.703 168.774 168.023  1.00  0.00     0.031 C 
BRANCH   5   6
ATOM      6  C   UNL     1     165.198 167.327 168.184  1.00  0.00     0.111 C 
ATOM      7  C   UNL     1     165.461 166.804 169.601  1.00  0.00     0.038 C 
BRANCH   6   8
ATOM      8  O   UNL     1     163.829 167.229 167.876  1.00  0.00    -0.393 OA
ATOM      9  H   UNL     1     163.417 166.606 168.530  1.00  0.00     0.210 HD
ENDBRANCH   6   8
ENDBRANCH   5   6
ENDBRANCH   1   5
TORSDOF 5
ENDMDL
