MODEL 1
REMARK VINA RESULT:    -6.479      0.000      0.000
REMARK INTER + INTRA:          -7.725
REMARK INTER:                  -7.616
REMARK INTRA:                  -0.110
REMARK UNBOUND:                -0.110
REMARK SMILES O=c1c(O)c(-c2ccc(O)cc2)oc2cc(O)cc(O)c12
REMARK SMILES IDX 5 1 3 2 2 3 1 4 21 5 19 6 18 7 16 8 15 9 14 10 13 11 6 12
REMARK SMILES IDX 7 13 8 14 9 15 12 16 11 17 10 18 4 20 20 22 17 24
REMARK H PARENT 10 19 4 21 20 23 17 25
REMARK Flexibility Score: inf
ROOT
ATOM      1  C   UNL     1      55.986 -40.677 -25.873  1.00  0.00     0.180 A 
ATOM      2  C   UNL     1      56.230 -42.063 -25.924  1.00  0.00     0.208 A 
ATOM      3  C   UNL     1      56.408 -42.675 -27.174  1.00  0.00     0.238 A 
ATOM      4  O   UNL     1      56.615 -43.918 -27.233  1.00  0.00    -0.285 OA
ATOM      5  C   UNL     1      56.361 -41.892 -28.347  1.00  0.00     0.111 A 
ATOM      6  C   UNL     1      56.534 -42.431 -29.645  1.00  0.00     0.134 A 
ATOM      7  C   UNL     1      56.482 -41.583 -30.761  1.00  0.00     0.093 A 
ATOM      8  C   UNL     1      56.262 -40.211 -30.605  1.00  0.00     0.123 A 
ATOM      9  C   UNL     1      56.090 -39.676 -29.327  1.00  0.00     0.094 A 
ATOM     10  C   UNL     1      56.135 -40.503 -28.201  1.00  0.00     0.146 A 
ATOM     11  O   UNL     1      55.964 -39.969 -26.999  1.00  0.00    -0.452 OA
ENDROOT
BRANCH   1  12
ATOM     12  C   UNL     1      55.769 -39.963 -24.595  1.00  0.00     0.021 A 
ATOM     13  C   UNL     1      56.603 -38.883 -24.255  1.00  0.00     0.016 A 
ATOM     14  C   UNL     1      56.402 -38.180 -23.064  1.00  0.00     0.047 A 
ATOM     15  C   UNL     1      55.355 -38.538 -22.203  1.00  0.00     0.115 A 
ATOM     16  C   UNL     1      54.709 -40.303 -23.735  1.00  0.00     0.016 A 
ATOM     17  C   UNL     1      54.510 -39.598 -22.544  1.00  0.00     0.047 A 
BRANCH  15  18
ATOM     18  O   UNL     1      55.146 -37.845 -21.013  1.00  0.00    -0.508 OA
ATOM     19  H   UNL     1      54.680 -38.276 -20.224  1.00  0.00     0.293 HD
ENDBRANCH  15  18
ENDBRANCH   1  12
BRANCH   2  20
ATOM     20  O   UNL     1      56.321 -42.808 -24.746  1.00  0.00    -0.502 OA
ATOM     21  H   UNL     1      55.618 -42.762 -24.017  1.00  0.00     0.293 HD
ENDBRANCH   2  20
BRANCH   6  22
ATOM     22  O   UNL     1      56.757 -43.796 -29.832  1.00  0.00    -0.507 OA
ATOM     23  H   UNL     1      56.090 -44.382 -30.321  1.00  0.00     0.293 HD
ENDBRANCH   6  22
BRANCH   8  24
ATOM     24  O   UNL     1      56.211 -39.369 -31.714  1.00  0.00    -0.508 OA
ATOM     25  H   UNL     1      55.560 -38.594 -31.761  1.00  0.00     0.293 HD
ENDBRANCH   8  24
TORSDOF 5
ENDMDL
MODEL 2
REMARK VINA RESULT:    -6.156      1.805      6.563
REMARK INTER + INTRA:          -7.345
REMARK INTER:                  -7.082
REMARK INTRA:                  -0.263
REMARK UNBOUND:                -0.110
REMARK SMILES O=c1c(O)c(-c2ccc(O)cc2)oc2cc(O)cc(O)c12
REMARK SMILES IDX 5 1 3 2 2 3 1 4 21 5 19 6 18 7 16 8 15 9 14 10 13 11 6 12
REMARK SMILES IDX 7 13 8 14 9 15 12 16 11 17 10 18 4 20 20 22 17 24
REMARK H PARENT 10 19 4 21 20 23 17 25
REMARK Flexibility Score: inf
ROOT
ATOM      1  C   UNL     1      55.357 -40.993 -28.657  1.00  0.00     0.180 A 
ATOM      2  C   UNL     1      55.647 -42.252 -28.097  1.00  0.00     0.208 A 
ATOM      3  C   UNL     1      55.980 -42.329 -26.736  1.00  0.00     0.238 A 
ATOM      4  O   UNL     1      56.253 -43.449 -26.226  1.00  0.00    -0.285 OA
ATOM      5  C   UNL     1      55.995 -41.154 -25.955  1.00  0.00     0.111 A 
ATOM      6  C   UNL     1      56.316 -41.145 -24.575  1.00  0.00     0.134 A 
ATOM      7  C   UNL     1      56.300 -39.936 -23.865  1.00  0.00     0.093 A 
ATOM      8  C   UNL     1      55.971 -38.737 -24.507  1.00  0.00     0.123 A 
ATOM      9  C   UNL     1      55.655 -38.741 -25.867  1.00  0.00     0.094 A 
ATOM     10  C   UNL     1      55.667 -39.935 -26.593  1.00  0.00     0.146 A 
ATOM     11  O   UNL     1      55.368 -39.909 -27.886  1.00  0.00    -0.452 OA
ENDROOT
BRANCH   1  12
ATOM     12  C   UNL     1      55.018 -40.827 -30.088  1.00  0.00     0.021 A 
ATOM     13  C   UNL     1      53.707 -41.089 -30.523  1.00  0.00     0.016 A 
ATOM     14  C   UNL     1      53.358 -40.918 -31.866  1.00  0.00     0.047 A 
ATOM     15  C   UNL     1      54.313 -40.468 -32.789  1.00  0.00     0.115 A 
ATOM     16  C   UNL     1      55.964 -40.359 -31.017  1.00  0.00     0.016 A 
ATOM     17  C   UNL     1      55.613 -40.188 -32.360  1.00  0.00     0.047 A 
BRANCH  15  18
ATOM     18  O   UNL     1      53.977 -40.296 -34.130  1.00  0.00    -0.508 OA
ATOM     19  H   UNL     1      53.233 -39.670 -34.414  1.00  0.00     0.293 HD
ENDBRANCH  15  18
ENDBRANCH   1  12
BRANCH   2  20
ATOM     20  O   UNL     1      55.577 -43.406 -28.880  1.00  0.00    -0.502 OA
ATOM     21  H   UNL     1      56.402 -43.868 -29.244  1.00  0.00     0.293 HD
ENDBRANCH   2  20
BRANCH   6  22
ATOM     22  O   UNL     1      56.647 -42.326 -23.908  1.00  0.00    -0.507 OA
ATOM     23  H   UNL     1      57.496 -42.408 -23.361  1.00  0.00     0.293 HD
ENDBRANCH   6  22
BRANCH   8  24
ATOM     24  O   UNL     1      55.955 -37.536 -23.802  1.00  0.00    -0.508 OA
ATOM     25  H   UNL     1      55.741 -37.506 -22.812  1.00  0.00     0.293 HD
ENDBRANCH   8  24
TORSDOF 5
ENDMDL
MODEL 3
REMARK VINA RESULT:    -6.072     13.428     15.537
REMARK INTER + INTRA:          -7.247
REMARK INTER:                  -6.950
REMARK INTRA:                  -0.296
REMARK UNBOUND:                -0.110
REMARK SMILES O=c1c(O)c(-c2ccc(O)cc2)oc2cc(O)cc(O)c12
REMARK SMILES IDX 5 1 3 2 2 3 1 4 21 5 19 6 18 7 16 8 15 9 14 10 13 11 6 12
REMARK SMILES IDX 7 13 8 14 9 15 12 16 11 17 10 18 4 20 20 22 17 24
REMARK H PARENT 10 19 4 21 20 23 17 25
REMARK Flexibility Score: inf
ROOT
ATOM      1  C   UNL     1      52.023 -27.902 -30.971  1.00  0.00     0.180 A 
ATOM      2  C   UNL     1      51.297 -28.328 -32.099  1.00  0.00     0.208 A 
ATOM      3  C   UNL     1      49.982 -27.870 -32.273  1.00  0.00     0.238 A 
ATOM      4  O   UNL     1      49.318 -28.254 -33.274  1.00  0.00    -0.285 OA
ATOM      5  C   UNL     1      49.424 -26.980 -31.331  1.00  0.00     0.111 A 
ATOM      6  C   UNL     1      48.107 -26.469 -31.435  1.00  0.00     0.134 A 
ATOM      7  C   UNL     1      47.628 -25.580 -30.461  1.00  0.00     0.093 A 
ATOM      8  C   UNL     1      48.438 -25.194 -29.388  1.00  0.00     0.123 A 
ATOM      9  C   UNL     1      49.737 -25.696 -29.282  1.00  0.00     0.094 A 
ATOM     10  C   UNL     1      50.233 -26.585 -30.240  1.00  0.00     0.146 A 
ATOM     11  O   UNL     1      51.469 -27.051 -30.112  1.00  0.00    -0.452 OA
ENDROOT
BRANCH   1  12
ATOM     12  C   UNL     1      53.407 -28.356 -30.707  1.00  0.00     0.021 A 
ATOM     13  C   UNL     1      54.488 -27.604 -31.200  1.00  0.00     0.016 A 
ATOM     14  C   UNL     1      55.803 -28.002 -30.945  1.00  0.00     0.047 A 
ATOM     15  C   UNL     1      56.055 -29.150 -30.180  1.00  0.00     0.115 A 
ATOM     16  C   UNL     1      53.669 -29.496 -29.925  1.00  0.00     0.016 A 
ATOM     17  C   UNL     1      54.986 -29.891 -29.671  1.00  0.00     0.047 A 
BRANCH  15  18
ATOM     18  O   UNL     1      57.362 -29.557 -29.921  1.00  0.00    -0.508 OA
ATOM     19  H   UNL     1      57.590 -30.123 -29.112  1.00  0.00     0.293 HD
ENDBRANCH  15  18
ENDBRANCH   1  12
BRANCH   2  20
ATOM     20  O   UNL     1      51.889 -29.170 -33.043  1.00  0.00    -0.502 OA
ATOM     21  H   UNL     1      51.356 -29.631 -33.771  1.00  0.00     0.293 HD
ENDBRANCH   2  20
BRANCH   6  22
ATOM     22  O   UNL     1      47.276 -26.835 -32.495  1.00  0.00    -0.507 OA
ATOM     23  H   UNL     1      46.619 -26.182 -32.906  1.00  0.00     0.293 HD
ENDBRANCH   6  22
BRANCH   8  24
ATOM     24  O   UNL     1      47.963 -24.311 -28.421  1.00  0.00    -0.508 OA
ATOM     25  H   UNL     1      48.427 -23.429 -28.235  1.00  0.00     0.293 HD
ENDBRANCH   8  24
TORSDOF 5
ENDMDL
MODEL 4
REMARK VINA RESULT:    -5.789     12.878     14.438
REMARK INTER + INTRA:          -6.914
REMARK INTER:                  -6.616
REMARK INTRA:                  -0.298
REMARK UNBOUND:                -0.110
REMARK SMILES O=c1c(O)c(-c2ccc(O)cc2)oc2cc(O)cc(O)c12
REMARK SMILES IDX 5 1 3 2 2 3 1 4 21 5 19 6 18 7 16 8 15 9 14 10 13 11 6 12
REMARK SMILES IDX 7 13 8 14 9 15 12 16 11 17 10 18 4 20 20 22 17 24
REMARK H PARENT 10 19 4 21 20 23 17 25
REMARK Flexibility Score: inf
ROOT
ATOM      1  C   UNL     1      47.177 -31.001 -29.352  1.00  0.00     0.180 A 
ATOM      2  C   UNL     1      46.124 -30.171 -29.780  1.00  0.00     0.208 A 
ATOM      3  C   UNL     1      46.432 -28.954 -30.407  1.00  0.00     0.238 A 
ATOM      4  O   UNL     1      45.497 -28.196 -30.784  1.00  0.00    -0.285 OA
ATOM      5  C   UNL     1      47.781 -28.598 -30.614  1.00  0.00     0.111 A 
ATOM      6  C   UNL     1      48.177 -27.391 -31.241  1.00  0.00     0.134 A 
ATOM      7  C   UNL     1      49.540 -27.114 -31.419  1.00  0.00     0.093 A 
ATOM      8  C   UNL     1      50.514 -28.019 -30.982  1.00  0.00     0.123 A 
ATOM      9  C   UNL     1      50.129 -29.209 -30.362  1.00  0.00     0.094 A 
ATOM     10  C   UNL     1      48.775 -29.504 -30.174  1.00  0.00     0.146 A 
ATOM     11  O   UNL     1      48.438 -30.640 -29.578  1.00  0.00    -0.452 OA
ENDROOT
BRANCH   1  12
ATOM     12  C   UNL     1      46.934 -32.291 -28.666  1.00  0.00     0.021 A 
ATOM     13  C   UNL     1      46.860 -33.474 -29.421  1.00  0.00     0.016 A 
ATOM     14  C   UNL     1      46.654 -34.705 -28.793  1.00  0.00     0.047 A 
ATOM     15  C   UNL     1      46.533 -34.771 -27.398  1.00  0.00     0.115 A 
ATOM     16  C   UNL     1      46.831 -32.368 -27.265  1.00  0.00     0.016 A 
ATOM     17  C   UNL     1      46.625 -33.601 -26.638  1.00  0.00     0.047 A 
BRANCH  15  18
ATOM     18  O   UNL     1      46.325 -35.992 -26.760  1.00  0.00    -0.508 OA
ATOM     19  H   UNL     1      45.668 -36.673 -27.121  1.00  0.00     0.293 HD
ENDBRANCH  15  18
ENDBRANCH   1  12
BRANCH   2  20
ATOM     20  O   UNL     1      44.796 -30.569 -29.607  1.00  0.00    -0.502 OA
ATOM     21  H   UNL     1      44.149 -30.061 -29.016  1.00  0.00     0.293 HD
ENDBRANCH   2  20
BRANCH   6  22
ATOM     22  O   UNL     1      47.228 -26.470 -31.688  1.00  0.00    -0.507 OA
ATOM     23  H   UNL     1      46.234 -26.649 -31.607  1.00  0.00     0.293 HD
ENDBRANCH   6  22
BRANCH   8  24
ATOM     24  O   UNL     1      51.868 -27.744 -31.159  1.00  0.00    -0.508 OA
ATOM     25  H   UNL     1      52.193 -26.816 -31.402  1.00  0.00     0.293 HD
ENDBRANCH   8  24
TORSDOF 5
ENDMDL
MODEL 5
REMARK VINA RESULT:    -5.784     15.811     17.216
REMARK INTER + INTRA:          -6.908
REMARK INTER:                  -6.626
REMARK INTRA:                  -0.282
REMARK UNBOUND:                -0.110
REMARK SMILES O=c1c(O)c(-c2ccc(O)cc2)oc2cc(O)cc(O)c12
REMARK SMILES IDX 5 1 3 2 2 3 1 4 21 5 19 6 18 7 16 8 15 9 14 10 13 11 6 12
REMARK SMILES IDX 7 13 8 14 9 15 12 16 11 17 10 18 4 20 20 22 17 24
REMARK H PARENT 10 19 4 21 20 23 17 25
REMARK Flexibility Score: inf
ROOT
ATOM      1  C   UNL     1      45.534 -28.113 -30.315  1.00  0.00     0.180 A 
ATOM      2  C   UNL     1      46.063 -27.292 -29.302  1.00  0.00     0.208 A 
ATOM      3  C   UNL     1      47.391 -26.851 -29.411  1.00  0.00     0.238 A 
ATOM      4  O   UNL     1      47.880 -26.124 -28.504  1.00  0.00    -0.285 OA
ATOM      5  C   UNL     1      48.158 -27.220 -30.536  1.00  0.00     0.111 A 
ATOM      6  C   UNL     1      49.502 -26.815 -30.724  1.00  0.00     0.134 A 
ATOM      7  C   UNL     1      50.194 -27.216 -31.876  1.00  0.00     0.093 A 
ATOM      8  C   UNL     1      49.570 -28.012 -32.842  1.00  0.00     0.123 A 
ATOM      9  C   UNL     1      48.245 -28.415 -32.660  1.00  0.00     0.094 A 
ATOM     10  C   UNL     1      47.538 -28.028 -31.518  1.00  0.00     0.146 A 
ATOM     11  O   UNL     1      46.282 -28.428 -31.369  1.00  0.00    -0.452 OA
ENDROOT
BRANCH   1  12
ATOM     12  C   UNL     1      44.149 -28.634 -30.262  1.00  0.00     0.021 A 
ATOM     13  C   UNL     1      43.874 -29.796 -29.520  1.00  0.00     0.016 A 
ATOM     14  C   UNL     1      42.570 -30.293 -29.438  1.00  0.00     0.047 A 
ATOM     15  C   UNL     1      41.521 -29.626 -30.086  1.00  0.00     0.115 A 
ATOM     16  C   UNL     1      43.087 -27.960 -30.893  1.00  0.00     0.016 A 
ATOM     17  C   UNL     1      41.784 -28.459 -30.809  1.00  0.00     0.047 A 
BRANCH  15  18
ATOM     18  O   UNL     1      40.218 -30.112 -30.012  1.00  0.00    -0.508 OA
ATOM     19  H   UNL     1      39.869 -30.794 -30.675  1.00  0.00     0.293 HD
ENDBRANCH  15  18
ENDBRANCH   1  12
BRANCH   2  20
ATOM     20  O   UNL     1      45.268 -26.900 -28.222  1.00  0.00    -0.502 OA
ATOM     21  H   UNL     1      44.825 -25.991 -28.174  1.00  0.00     0.293 HD
ENDBRANCH   2  20
BRANCH   6  22
ATOM     22  O   UNL     1      50.151 -26.019 -29.779  1.00  0.00    -0.507 OA
ATOM     23  H   UNL     1      50.789 -26.414 -29.098  1.00  0.00     0.293 HD
ENDBRANCH   6  22
BRANCH   8  24
ATOM     24  O   UNL     1      50.257 -28.411 -33.986  1.00  0.00    -0.508 OA
ATOM     25  H   UNL     1      50.017 -29.264 -34.478  1.00  0.00     0.293 HD
ENDBRANCH   8  24
TORSDOF 5
ENDMDL
MODEL 6
REMARK VINA RESULT:    -5.777     14.027     15.707
REMARK INTER + INTRA:          -6.900
REMARK INTER:                  -6.673
REMARK INTRA:                  -0.227
REMARK UNBOUND:                -0.110
REMARK SMILES O=c1c(O)c(-c2ccc(O)cc2)oc2cc(O)cc(O)c12
REMARK SMILES IDX 5 1 3 2 2 3 1 4 21 5 19 6 18 7 16 8 15 9 14 10 13 11 6 12
REMARK SMILES IDX 7 13 8 14 9 15 12 16 11 17 10 18 4 20 20 22 17 24
REMARK H PARENT 10 19 4 21 20 23 17 25
REMARK Flexibility Score: inf
ROOT
ATOM      1  C   UNL     1      47.720 -28.238 -30.738  1.00  0.00     0.180 A 
ATOM      2  C   UNL     1      48.180 -27.810 -31.998  1.00  0.00     0.208 A 
ATOM      3  C   UNL     1      49.515 -28.061 -32.354  1.00  0.00     0.238 A 
ATOM      4  O   UNL     1      49.942 -27.672 -33.475  1.00  0.00    -0.285 OA
ATOM      5  C   UNL     1      50.357 -28.751 -31.458  1.00  0.00     0.111 A 
ATOM      6  C   UNL     1      51.713 -29.048 -31.741  1.00  0.00     0.134 A 
ATOM      7  C   UNL     1      52.482 -29.748 -30.800  1.00  0.00     0.093 A 
ATOM      8  C   UNL     1      51.925 -30.156 -29.585  1.00  0.00     0.123 A 
ATOM      9  C   UNL     1      50.588 -29.865 -29.300  1.00  0.00     0.094 A 
ATOM     10  C   UNL     1      49.804 -29.167 -30.223  1.00  0.00     0.146 A 
ATOM     11  O   UNL     1      48.539 -28.899 -29.925  1.00  0.00    -0.452 OA
ENDROOT
BRANCH   1  12
ATOM     12  C   UNL     1      46.333 -27.993 -30.282  1.00  0.00     0.021 A 
ATOM     13  C   UNL     1      45.286 -28.774 -30.801  1.00  0.00     0.016 A 
ATOM     14  C   UNL     1      43.972 -28.576 -30.369  1.00  0.00     0.047 A 
ATOM     15  C   UNL     1      43.689 -27.603 -29.400  1.00  0.00     0.115 A 
ATOM     16  C   UNL     1      46.043 -27.032 -29.297  1.00  0.00     0.016 A 
ATOM     17  C   UNL     1      44.728 -26.836 -28.866  1.00  0.00     0.047 A 
BRANCH  15  18
ATOM     18  O   UNL     1      42.383 -27.395 -28.963  1.00  0.00    -0.508 OA
ATOM     19  H   UNL     1      42.084 -26.501 -28.592  1.00  0.00     0.293 HD
ENDBRANCH  15  18
ENDBRANCH   1  12
BRANCH   2  20
ATOM     20  O   UNL     1      47.313 -27.171 -32.888  1.00  0.00    -0.502 OA
ATOM     21  H   UNL     1      47.570 -26.969 -33.846  1.00  0.00     0.293 HD
ENDBRANCH   2  20
BRANCH   6  22
ATOM     22  O   UNL     1      52.297 -28.655 -32.946  1.00  0.00    -0.507 OA
ATOM     23  H   UNL     1      53.298 -28.698 -33.092  1.00  0.00     0.293 HD
ENDBRANCH   6  22
BRANCH   8  24
ATOM     24  O   UNL     1      52.689 -30.851 -28.650  1.00  0.00    -0.508 OA
ATOM     25  H   UNL     1      52.844 -30.487 -27.717  1.00  0.00     0.293 HD
ENDBRANCH   8  24
TORSDOF 5
ENDMDL
MODEL 7
REMARK VINA RESULT:    -5.771      4.931      6.148
REMARK INTER + INTRA:          -6.893
REMARK INTER:                  -6.605
REMARK INTRA:                  -0.288
REMARK UNBOUND:                -0.110
REMARK SMILES O=c1c(O)c(-c2ccc(O)cc2)oc2cc(O)cc(O)c12
REMARK SMILES IDX 5 1 3 2 2 3 1 4 21 5 19 6 18 7 16 8 15 9 14 10 13 11 6 12
REMARK SMILES IDX 7 13 8 14 9 15 12 16 11 17 10 18 4 20 20 22 17 24
REMARK H PARENT 10 19 4 21 20 23 17 25
REMARK Flexibility Score: inf
ROOT
ATOM      1  C   UNL     1      52.072 -41.865 -29.376  1.00  0.00     0.180 A 
ATOM      2  C   UNL     1      53.231 -41.852 -28.577  1.00  0.00     0.208 A 
ATOM      3  C   UNL     1      54.453 -41.483 -29.160  1.00  0.00     0.238 A 
ATOM      4  O   UNL     1      55.500 -41.479 -28.458  1.00  0.00    -0.285 OA
ATOM      5  C   UNL     1      54.493 -41.114 -30.522  1.00  0.00     0.111 A 
ATOM      6  C   UNL     1      55.682 -40.726 -31.185  1.00  0.00     0.134 A 
ATOM      7  C   UNL     1      55.637 -40.364 -32.539  1.00  0.00     0.093 A 
ATOM      8  C   UNL     1      54.427 -40.383 -33.242  1.00  0.00     0.123 A 
ATOM      9  C   UNL     1      53.252 -40.766 -32.592  1.00  0.00     0.094 A 
ATOM     10  C   UNL     1      53.276 -41.132 -31.243  1.00  0.00     0.146 A 
ATOM     11  O   UNL     1      52.145 -41.497 -30.652  1.00  0.00    -0.452 OA
ENDROOT
BRANCH   1  12
ATOM     12  C   UNL     1      50.750 -42.262 -28.839  1.00  0.00     0.021 A 
ATOM     13  C   UNL     1      50.397 -43.622 -28.804  1.00  0.00     0.016 A 
ATOM     14  C   UNL     1      49.164 -44.020 -28.281  1.00  0.00     0.047 A 
ATOM     15  C   UNL     1      48.273 -43.065 -27.772  1.00  0.00     0.115 A 
ATOM     16  C   UNL     1      49.859 -41.311 -28.309  1.00  0.00     0.016 A 
ATOM     17  C   UNL     1      48.626 -41.712 -27.786  1.00  0.00     0.047 A 
BRANCH  15  18
ATOM     18  O   UNL     1      47.041 -43.450 -27.249  1.00  0.00    -0.508 OA
ATOM     19  H   UNL     1      46.883 -43.505 -26.250  1.00  0.00     0.293 HD
ENDBRANCH  15  18
ENDBRANCH   1  12
BRANCH   2  20
ATOM     20  O   UNL     1      53.157 -42.174 -27.220  1.00  0.00    -0.502 OA
ATOM     21  H   UNL     1      53.588 -43.005 -26.834  1.00  0.00     0.293 HD
ENDBRANCH   2  20
BRANCH   6  22
ATOM     22  O   UNL     1      56.903 -40.696 -30.509  1.00  0.00    -0.507 OA
ATOM     23  H   UNL     1      57.773 -40.936 -30.971  1.00  0.00     0.293 HD
ENDBRANCH   6  22
BRANCH   8  24
ATOM     24  O   UNL     1      54.382 -40.023 -34.587  1.00  0.00    -0.508 OA
ATOM     25  H   UNL     1      55.188 -40.129 -35.191  1.00  0.00     0.293 HD
ENDBRANCH   8  24
TORSDOF 5
ENDMDL
MODEL 8
REMARK VINA RESULT:    -5.731     12.493     14.028
REMARK INTER + INTRA:          -6.846
REMARK INTER:                  -6.548
REMARK INTRA:                  -0.298
REMARK UNBOUND:                -0.110
REMARK SMILES O=c1c(O)c(-c2ccc(O)cc2)oc2cc(O)cc(O)c12
REMARK SMILES IDX 5 1 3 2 2 3 1 4 21 5 19 6 18 7 16 8 15 9 14 10 13 11 6 12
REMARK SMILES IDX 7 13 8 14 9 15 12 16 11 17 10 18 4 20 20 22 17 24
REMARK H PARENT 10 19 4 21 20 23 17 25
REMARK Flexibility Score: inf
ROOT
ATOM      1  C   UNL     1      48.029 -30.449 -29.287  1.00  0.00     0.180 A 
ATOM      2  C   UNL     1      46.937 -29.920 -30.000  1.00  0.00     0.208 A 
ATOM      3  C   UNL     1      47.184 -29.054 -31.076  1.00  0.00     0.238 A 
ATOM      4  O   UNL     1      46.214 -28.564 -31.715  1.00  0.00    -0.285 OA
ATOM      5  C   UNL     1      48.515 -28.749 -31.434  1.00  0.00     0.111 A 
ATOM      6  C   UNL     1      48.851 -27.888 -32.507  1.00  0.00     0.134 A 
ATOM      7  C   UNL     1      50.199 -27.643 -32.805  1.00  0.00     0.093 A 
ATOM      8  C   UNL     1      51.216 -28.240 -32.053  1.00  0.00     0.123 A 
ATOM      9  C   UNL     1      50.889 -29.089 -30.993  1.00  0.00     0.094 A 
ATOM     10  C   UNL     1      49.552 -29.345 -30.678  1.00  0.00     0.146 A 
ATOM     11  O   UNL     1      49.270 -30.151 -29.663  1.00  0.00    -0.452 OA
ENDROOT
BRANCH   1  12
ATOM     12  C   UNL     1      47.849 -31.354 -28.129  1.00  0.00     0.021 A 
ATOM     13  C   UNL     1      47.919 -32.745 -28.319  1.00  0.00     0.016 A 
ATOM     14  C   UNL     1      47.774 -33.616 -27.237  1.00  0.00     0.047 A 
ATOM     15  C   UNL     1      47.572 -33.108 -25.946  1.00  0.00     0.115 A 
ATOM     16  C   UNL     1      47.665 -30.852 -26.827  1.00  0.00     0.016 A 
ATOM     17  C   UNL     1      47.521 -31.726 -25.746  1.00  0.00     0.047 A 
BRANCH  15  18
ATOM     18  O   UNL     1      47.425 -33.968 -24.860  1.00  0.00    -0.508 OA
ATOM     19  H   UNL     1      47.518 -33.638 -23.906  1.00  0.00     0.293 HD
ENDBRANCH  15  18
ENDBRANCH   1  12
BRANCH   2  20
ATOM     20  O   UNL     1      45.630 -30.275 -29.657  1.00  0.00    -0.502 OA
ATOM     21  H   UNL     1      44.987 -29.627 -29.220  1.00  0.00     0.293 HD
ENDBRANCH   2  20
BRANCH   6  22
ATOM     22  O   UNL     1      47.858 -27.279 -33.276  1.00  0.00    -0.507 OA
ATOM     23  H   UNL     1      47.999 -27.068 -34.257  1.00  0.00     0.293 HD
ENDBRANCH   6  22
BRANCH   8  24
ATOM     24  O   UNL     1      52.555 -27.997 -32.349  1.00  0.00    -0.508 OA
ATOM     25  H   UNL     1      52.828 -27.303 -33.036  1.00  0.00     0.293 HD
ENDBRANCH   8  24
TORSDOF 5
ENDMDL
MODEL 9
REMARK VINA RESULT:    -5.631     14.940     16.217
REMARK INTER + INTRA:          -6.728
REMARK INTER:                  -6.531
REMARK INTRA:                  -0.198
REMARK UNBOUND:                -0.110
REMARK SMILES O=c1c(O)c(-c2ccc(O)cc2)oc2cc(O)cc(O)c12
REMARK SMILES IDX 5 1 3 2 2 3 1 4 21 5 19 6 18 7 16 8 15 9 14 10 13 11 6 12
REMARK SMILES IDX 7 13 8 14 9 15 12 16 11 17 10 18 4 20 20 22 17 24
REMARK H PARENT 10 19 4 21 20 23 17 25
REMARK Flexibility Score: inf
ROOT
ATOM      1  C   UNL     1      45.624 -29.113 -29.967  1.00  0.00     0.180 A 
ATOM      2  C   UNL     1      46.429 -29.578 -28.910  1.00  0.00     0.208 A 
ATOM      3  C   UNL     1      47.823 -29.591 -29.074  1.00  0.00     0.238 A 
ATOM      4  O   UNL     1      48.554 -30.016 -28.138  1.00  0.00    -0.285 OA
ATOM      5  C   UNL     1      48.388 -29.121 -30.279  1.00  0.00     0.111 A 
ATOM      6  C   UNL     1      49.783 -29.097 -30.523  1.00  0.00     0.134 A 
ATOM      7  C   UNL     1      50.267 -28.606 -31.744  1.00  0.00     0.093 A 
ATOM      8  C   UNL     1      49.385 -28.139 -32.724  1.00  0.00     0.123 A 
ATOM      9  C   UNL     1      48.008 -28.162 -32.488  1.00  0.00     0.094 A 
ATOM     10  C   UNL     1      47.506 -28.649 -31.279  1.00  0.00     0.146 A 
ATOM     11  O   UNL     1      46.193 -28.664 -31.083  1.00  0.00    -0.452 OA
ENDROOT
BRANCH   1  12
ATOM     12  C   UNL     1      44.147 -29.086 -29.878  1.00  0.00     0.021 A 
ATOM     13  C   UNL     1      43.475 -27.852 -29.882  1.00  0.00     0.016 A 
ATOM     14  C   UNL     1      42.080 -27.803 -29.821  1.00  0.00     0.047 A 
ATOM     15  C   UNL     1      41.336 -28.991 -29.771  1.00  0.00     0.115 A 
ATOM     16  C   UNL     1      43.392 -30.273 -29.848  1.00  0.00     0.016 A 
ATOM     17  C   UNL     1      41.996 -30.222 -29.787  1.00  0.00     0.047 A 
BRANCH  15  18
ATOM     18  O   UNL     1      39.945 -28.955 -29.709  1.00  0.00    -0.508 OA
ATOM     19  H   UNL     1      39.372 -29.289 -30.474  1.00  0.00     0.293 HD
ENDBRANCH  15  18
ENDBRANCH   1  12
BRANCH   2  20
ATOM     20  O   UNL     1      45.849 -29.991 -27.709  1.00  0.00    -0.502 OA
ATOM     21  H   UNL     1      45.509 -29.336 -27.015  1.00  0.00     0.293 HD
ENDBRANCH   2  20
BRANCH   6  22
ATOM     22  O   UNL     1      50.687 -29.555 -29.563  1.00  0.00    -0.507 OA
ATOM     23  H   UNL     1      51.370 -28.939 -29.138  1.00  0.00     0.293 HD
ENDBRANCH   6  22
BRANCH   8  24
ATOM     24  O   UNL     1      49.865 -27.651 -33.937  1.00  0.00    -0.508 OA
ATOM     25  H   UNL     1      49.466 -26.825 -34.370  1.00  0.00     0.293 HD
ENDBRANCH   8  24
TORSDOF 5
ENDMDL
