MODEL 1
REMARK VINA RESULT:    -3.188      0.000      0.000
REMARK INTER + INTRA:          -6.489
REMARK INTER:                  -5.051
REMARK INTRA:                  -1.438
REMARK UNBOUND:                -1.438
REMARK SMILES CCCCCCCCCCCC(=O)[O-]
REMARK SMILES IDX 7 1 8 2 9 3 10 4 11 5 12 6 13 7 14 8 6 9 5 10 4 11 3 12 2 13
REMARK SMILES IDX 1 14
REMARK H PARENT
REMARK Flexibility Score: inf
ROOT
ATOM      1  C   UNL     1       2.921  -0.552  65.835  1.00  0.00     0.000 C 
ENDROOT
BRANCH   1   2
ATOM      2  C   UNL     1       3.214   0.650  66.745  1.00  0.00     0.000 C 
BRANCH   2   3
ATOM      3  C   UNL     1       2.815   0.398  68.208  1.00  0.00     0.000 C 
BRANCH   3   4
ATOM      4  C   UNL     1       3.978   0.632  69.188  1.00  0.00     0.006 C 
BRANCH   4   5
ATOM      5  C   UNL     1       5.317   0.138  68.624  1.00  0.00     0.053 C 
BRANCH   5   6
ATOM      6  C   UNL     1       6.477   0.874  69.221  1.00  0.00     0.041 C 
ATOM      7  O   UNL     1       7.232   1.567  68.489  1.00  0.00    -0.550 OA
ATOM      8  O   UNL     1       6.743   0.769  70.581  1.00  0.00    -0.550 OA
ENDBRANCH   5   6
ENDBRANCH   4   5
ENDBRANCH   3   4
ENDBRANCH   2   3
ENDBRANCH   1   2
BRANCH   1   9
ATOM      9  C   UNL     1       1.751  -1.381  66.380  1.00  0.00     0.000 C 
BRANCH   9  10
ATOM     10  C   UNL     1       2.196  -2.816  66.700  1.00  0.00    -0.000 C 
BRANCH  10  11
ATOM     11  C   UNL     1       3.693  -3.045  66.437  1.00  0.00    -0.000 C 
BRANCH  11  12
ATOM     12  C   UNL     1       4.474  -3.389  67.714  1.00  0.00    -0.000 C 
BRANCH  12  13
ATOM     13  C   UNL     1       3.617  -3.150  68.961  1.00  0.00    -0.003 C 
ATOM     14  C   UNL     1       4.404  -3.442  70.235  1.00  0.00     0.004 C 
ENDBRANCH  12  13
ENDBRANCH  11  12
ENDBRANCH  10  11
ENDBRANCH   9  10
ENDBRANCH   1   9
TORSDOF 10
ENDMDL
MODEL 2
REMARK VINA RESULT:    -3.106     11.097     13.040
REMARK INTER + INTRA:          -6.360
REMARK INTER:                  -5.323
REMARK INTRA:                  -1.037
REMARK UNBOUND:                -1.438
REMARK SMILES CCCCCCCCCCCC(=O)[O-]
REMARK SMILES IDX 7 1 8 2 9 3 10 4 11 5 12 6 13 7 14 8 6 9 5 10 4 11 3 12 2 13
REMARK SMILES IDX 1 14
REMARK H PARENT
REMARK Flexibility Score: inf
ROOT
ATOM      1  C   UNL     1      -5.024 -10.979  66.047  1.00  0.00     0.000 C 
ENDROOT
BRANCH   1   2
ATOM      2  C   UNL     1      -4.744 -10.498  64.615  1.00  0.00     0.000 C 
BRANCH   2   3
ATOM      3  C   UNL     1      -3.291 -10.034  64.419  1.00  0.00     0.000 C 
BRANCH   3   4
ATOM      4  C   UNL     1      -3.184  -8.525  64.139  1.00  0.00     0.006 C 
BRANCH   4   5
ATOM      5  C   UNL     1      -3.288  -7.689  65.422  1.00  0.00     0.053 C 
BRANCH   5   6
ATOM      6  C   UNL     1      -2.400  -6.484  65.376  1.00  0.00     0.041 C 
ATOM      7  O   UNL     1      -2.149  -5.924  64.276  1.00  0.00    -0.550 OA
ATOM      8  O   UNL     1      -1.825  -5.998  66.543  1.00  0.00    -0.550 OA
ENDBRANCH   5   6
ENDBRANCH   4   5
ENDBRANCH   3   4
ENDBRANCH   2   3
ENDBRANCH   1   2
BRANCH   1   9
ATOM      9  C   UNL     1      -3.717 -11.175  66.826  1.00  0.00     0.000 C 
BRANCH   9  10
ATOM     10  C   UNL     1      -3.326 -12.659  66.879  1.00  0.00    -0.000 C 
BRANCH  10  11
ATOM     11  C   UNL     1      -4.521 -13.596  66.641  1.00  0.00    -0.000 C 
BRANCH  11  12
ATOM     12  C   UNL     1      -4.326 -14.507  65.420  1.00  0.00    -0.000 C 
BRANCH  12  13
ATOM     13  C   UNL     1      -5.326 -14.160  64.312  1.00  0.00    -0.003 C 
ATOM     14  C   UNL     1      -4.614 -13.905  62.987  1.00  0.00     0.004 C 
ENDBRANCH  12  13
ENDBRANCH  11  12
ENDBRANCH  10  11
ENDBRANCH   9  10
ENDBRANCH   1   9
TORSDOF 10
ENDMDL
MODEL 3
REMARK VINA RESULT:    -3.055     12.026     14.028
REMARK INTER + INTRA:          -6.278
REMARK INTER:                  -5.079
REMARK INTRA:                  -1.199
REMARK UNBOUND:                -1.438
REMARK SMILES CCCCCCCCCCCC(=O)[O-]
REMARK SMILES IDX 7 1 8 2 9 3 10 4 11 5 12 6 13 7 14 8 6 9 5 10 4 11 3 12 2 13
REMARK SMILES IDX 1 14
REMARK H PARENT
REMARK Flexibility Score: inf
ROOT
ATOM      1  C   UNL     1      -4.881 -10.886  67.148  1.00  0.00     0.000 C 
ENDROOT
BRANCH   1   2
ATOM      2  C   UNL     1      -5.806 -10.711  65.934  1.00  0.00     0.000 C 
BRANCH   2   3
ATOM      3  C   UNL     1      -5.031 -10.572  64.614  1.00  0.00     0.000 C 
BRANCH   3   4
ATOM      4  C   UNL     1      -3.520 -10.383  64.831  1.00  0.00     0.006 C 
BRANCH   4   5
ATOM      5  C   UNL     1      -2.965  -9.194  64.034  1.00  0.00     0.053 C 
BRANCH   5   6
ATOM      6  C   UNL     1      -3.155  -7.899  64.761  1.00  0.00     0.041 C 
ATOM      7  O   UNL     1      -3.434  -7.896  65.988  1.00  0.00    -0.550 OA
ATOM      8  O   UNL     1      -3.053  -6.694  64.075  1.00  0.00    -0.550 OA
ENDBRANCH   5   6
ENDBRANCH   4   5
ENDBRANCH   3   4
ENDBRANCH   2   3
ENDBRANCH   1   2
BRANCH   1   9
ATOM      9  C   UNL     1      -4.966 -12.313  67.703  1.00  0.00     0.000 C 
BRANCH   9  10
ATOM     10  C   UNL     1      -3.996 -13.248  66.966  1.00  0.00    -0.000 C 
BRANCH  10  11
ATOM     11  C   UNL     1      -4.686 -14.510  66.424  1.00  0.00    -0.000 C 
BRANCH  11  12
ATOM     12  C   UNL     1      -5.352 -14.281  65.059  1.00  0.00    -0.000 C 
BRANCH  12  13
ATOM     13  C   UNL     1      -4.368 -14.549  63.916  1.00  0.00    -0.003 C 
ATOM     14  C   UNL     1      -4.900 -14.011  62.591  1.00  0.00     0.004 C 
ENDBRANCH  12  13
ENDBRANCH  11  12
ENDBRANCH  10  11
ENDBRANCH   9  10
ENDBRANCH   1   9
TORSDOF 10
ENDMDL
MODEL 4
REMARK VINA RESULT:    -2.993      1.029      3.181
REMARK INTER + INTRA:          -6.181
REMARK INTER:                  -4.806
REMARK INTRA:                  -1.374
REMARK UNBOUND:                -1.438
REMARK SMILES CCCCCCCCCCCC(=O)[O-]
REMARK SMILES IDX 7 1 8 2 9 3 10 4 11 5 12 6 13 7 14 8 6 9 5 10 4 11 3 12 2 13
REMARK SMILES IDX 1 14
REMARK H PARENT
REMARK Flexibility Score: inf
ROOT
ATOM      1  C   UNL     1       4.422  -3.136  67.348  1.00  0.00     0.000 C 
ENDROOT
BRANCH   1   2
ATOM      2  C   UNL     1       4.126  -2.998  68.850  1.00  0.00     0.000 C 
BRANCH   2   3
ATOM      3  C   UNL     1       4.049  -1.533  69.307  1.00  0.00     0.000 C 
BRANCH   3   4
ATOM      4  C   UNL     1       5.076  -0.636  68.594  1.00  0.00     0.006 C 
BRANCH   4   5
ATOM      5  C   UNL     1       5.162   0.761  69.225  1.00  0.00     0.053 C 
BRANCH   5   6
ATOM      6  C   UNL     1       6.475   1.422  68.938  1.00  0.00     0.041 C 
ATOM      7  O   UNL     1       7.544   0.759  68.995  1.00  0.00    -0.550 OA
ATOM      8  O   UNL     1       6.520   2.778  68.638  1.00  0.00    -0.550 OA
ENDBRANCH   5   6
ENDBRANCH   4   5
ENDBRANCH   3   4
ENDBRANCH   2   3
ENDBRANCH   1   2
BRANCH   1   9
ATOM      9  C   UNL     1       3.126  -3.326  66.549  1.00  0.00     0.000 C 
BRANCH   9  10
ATOM     10  C   UNL     1       3.122  -2.446  65.291  1.00  0.00    -0.000 C 
BRANCH  10  11
ATOM     11  C   UNL     1       2.953  -0.952  65.613  1.00  0.00    -0.000 C 
BRANCH  11  12
ATOM     12  C   UNL     1       1.606  -0.640  66.283  1.00  0.00    -0.000 C 
BRANCH  12  13
ATOM     13  C   UNL     1       1.747   0.510  67.286  1.00  0.00    -0.003 C 
ATOM     14  C   UNL     1       2.684   1.591  66.757  1.00  0.00     0.004 C 
ENDBRANCH  12  13
ENDBRANCH  11  12
ENDBRANCH  10  11
ENDBRANCH   9  10
ENDBRANCH   1   9
TORSDOF 10
ENDMDL
MODEL 5
REMARK VINA RESULT:    -2.991     11.370     13.264
REMARK INTER + INTRA:          -6.177
REMARK INTER:                  -5.100
REMARK INTRA:                  -1.077
REMARK UNBOUND:                -1.438
REMARK SMILES CCCCCCCCCCCC(=O)[O-]
REMARK SMILES IDX 7 1 8 2 9 3 10 4 11 5 12 6 13 7 14 8 6 9 5 10 4 11 3 12 2 13
REMARK SMILES IDX 1 14
REMARK H PARENT
REMARK Flexibility Score: inf
ROOT
ATOM      1  C   UNL     1      -5.031 -10.421  64.400  1.00  0.00     0.000 C 
ENDROOT
BRANCH   1   2
ATOM      2  C   UNL     1      -5.868  -9.949  65.598  1.00  0.00     0.000 C 
BRANCH   2   3
ATOM      3  C   UNL     1      -6.574  -8.608  65.338  1.00  0.00     0.000 C 
BRANCH   3   4
ATOM      4  C   UNL     1      -5.617  -7.531  64.797  1.00  0.00     0.006 C 
BRANCH   4   5
ATOM      5  C   UNL     1      -4.557  -7.127  65.830  1.00  0.00     0.053 C 
BRANCH   5   6
ATOM      6  C   UNL     1      -3.192  -7.035  65.220  1.00  0.00     0.041 C 
ATOM      7  O   UNL     1      -2.968  -7.537  64.088  1.00  0.00    -0.550 OA
ATOM      8  O   UNL     1      -2.158  -6.421  65.917  1.00  0.00    -0.550 OA
ENDBRANCH   5   6
ENDBRANCH   4   5
ENDBRANCH   3   4
ENDBRANCH   2   3
ENDBRANCH   1   2
BRANCH   1   9
ATOM      9  C   UNL     1      -3.683 -10.991  64.862  1.00  0.00     0.000 C 
BRANCH   9  10
ATOM     10  C   UNL     1      -3.806 -11.635  66.250  1.00  0.00    -0.000 C 
BRANCH  10  11
ATOM     11  C   UNL     1      -3.647 -13.164  66.211  1.00  0.00    -0.000 C 
BRANCH  11  12
ATOM     12  C   UNL     1      -4.751 -13.854  65.398  1.00  0.00    -0.000 C 
BRANCH  12  13
ATOM     13  C   UNL     1      -4.173 -14.524  64.146  1.00  0.00    -0.003 C 
ATOM     14  C   UNL     1      -4.864 -14.022  62.883  1.00  0.00     0.004 C 
ENDBRANCH  12  13
ENDBRANCH  11  12
ENDBRANCH  10  11
ENDBRANCH   9  10
ENDBRANCH   1   9
TORSDOF 10
ENDMDL
MODEL 6
REMARK VINA RESULT:    -2.976     15.534     16.856
REMARK INTER + INTRA:          -6.153
REMARK INTER:                  -4.884
REMARK INTRA:                  -1.269
REMARK UNBOUND:                -1.438
REMARK SMILES CCCCCCCCCCCC(=O)[O-]
REMARK SMILES IDX 7 1 8 2 9 3 10 4 11 5 12 6 13 7 14 8 6 9 5 10 4 11 3 12 2 13
REMARK SMILES IDX 1 14
REMARK H PARENT
REMARK Flexibility Score: inf
ROOT
ATOM      1  C   UNL     1       6.225 -16.355  61.438  1.00  0.00     0.000 C 
ENDROOT
BRANCH   1   2
ATOM      2  C   UNL     1       6.297 -14.868  61.061  1.00  0.00     0.000 C 
BRANCH   2   3
ATOM      3  C   UNL     1       7.543 -14.526  60.229  1.00  0.00     0.000 C 
BRANCH   3   4
ATOM      4  C   UNL     1       8.182 -15.768  59.583  1.00  0.00     0.006 C 
BRANCH   4   5
ATOM      5  C   UNL     1       9.684 -15.581  59.330  1.00  0.00     0.053 C 
BRANCH   5   6
ATOM      6  C   UNL     1       9.965 -15.189  57.912  1.00  0.00     0.041 C 
ATOM      7  O   UNL     1      11.090 -14.722  57.594  1.00  0.00    -0.550 OA
ATOM      8  O   UNL     1       8.973 -15.310  56.946  1.00  0.00    -0.550 OA
ENDBRANCH   5   6
ENDBRANCH   4   5
ENDBRANCH   3   4
ENDBRANCH   2   3
ENDBRANCH   1   2
BRANCH   1   9
ATOM      9  C   UNL     1       5.502 -16.548  62.777  1.00  0.00     0.000 C 
BRANCH   9  10
ATOM     10  C   UNL     1       5.428 -15.228  63.557  1.00  0.00    -0.000 C 
BRANCH  10  11
ATOM     11  C   UNL     1       5.883 -15.376  65.018  1.00  0.00    -0.000 C 
BRANCH  11  12
ATOM     12  C   UNL     1       7.406 -15.523  65.152  1.00  0.00    -0.000 C 
BRANCH  12  13
ATOM     13  C   UNL     1       8.135 -14.480  64.299  1.00  0.00    -0.003 C 
ATOM     14  C   UNL     1       9.255 -15.118  63.485  1.00  0.00     0.004 C 
ENDBRANCH  12  13
ENDBRANCH  11  12
ENDBRANCH  10  11
ENDBRANCH   9  10
ENDBRANCH   1   9
TORSDOF 10
ENDMDL
MODEL 7
REMARK VINA RESULT:    -2.963     12.664     14.703
REMARK INTER + INTRA:          -6.132
REMARK INTER:                  -4.479
REMARK INTRA:                  -1.653
REMARK UNBOUND:                -1.438
REMARK SMILES CCCCCCCCCCCC(=O)[O-]
REMARK SMILES IDX 7 1 8 2 9 3 10 4 11 5 12 6 13 7 14 8 6 9 5 10 4 11 3 12 2 13
REMARK SMILES IDX 1 14
REMARK H PARENT
REMARK Flexibility Score: inf
ROOT
ATOM      1  C   UNL     1      -4.914 -14.549  65.969  1.00  0.00     0.000 C 
ENDROOT
BRANCH   1   2
ATOM      2  C   UNL     1      -4.162 -14.319  64.650  1.00  0.00     0.000 C 
BRANCH   2   3
ATOM      3  C   UNL     1      -4.659 -13.077  63.893  1.00  0.00     0.000 C 
BRANCH   3   4
ATOM      4  C   UNL     1      -3.980 -11.781  64.370  1.00  0.00     0.006 C 
BRANCH   4   5
ATOM      5  C   UNL     1      -4.958 -10.600  64.420  1.00  0.00     0.053 C 
BRANCH   5   6
ATOM      6  C   UNL     1      -4.276  -9.329  64.825  1.00  0.00     0.041 C 
ATOM      7  O   UNL     1      -3.079  -9.119  64.496  1.00  0.00    -0.550 OA
ATOM      8  O   UNL     1      -4.953  -8.390  65.594  1.00  0.00    -0.550 OA
ENDBRANCH   5   6
ENDBRANCH   4   5
ENDBRANCH   3   4
ENDBRANCH   2   3
ENDBRANCH   1   2
BRANCH   1   9
ATOM      9  C   UNL     1      -6.412 -14.264  65.804  1.00  0.00     0.000 C 
BRANCH   9  10
ATOM     10  C   UNL     1      -6.906 -13.279  66.874  1.00  0.00    -0.000 C 
BRANCH  10  11
ATOM     11  C   UNL     1      -5.763 -12.719  67.736  1.00  0.00    -0.000 C 
BRANCH  11  12
ATOM     12  C   UNL     1      -5.833 -11.192  67.893  1.00  0.00    -0.000 C 
BRANCH  12  13
ATOM     13  C   UNL     1      -4.482 -10.625  68.343  1.00  0.00    -0.003 C 
ATOM     14  C   UNL     1      -3.337 -11.555  67.954  1.00  0.00     0.004 C 
ENDBRANCH  12  13
ENDBRANCH  11  12
ENDBRANCH  10  11
ENDBRANCH   9  10
ENDBRANCH   1   9
TORSDOF 10
ENDMDL
MODEL 8
REMARK VINA RESULT:    -2.954     12.847     14.842
REMARK INTER + INTRA:          -6.118
REMARK INTER:                  -4.633
REMARK INTRA:                  -1.485
REMARK UNBOUND:                -1.438
REMARK SMILES CCCCCCCCCCCC(=O)[O-]
REMARK SMILES IDX 7 1 8 2 9 3 10 4 11 5 12 6 13 7 14 8 6 9 5 10 4 11 3 12 2 13
REMARK SMILES IDX 1 14
REMARK H PARENT
REMARK Flexibility Score: inf
ROOT
ATOM      1  C   UNL     1      -4.911 -13.106  68.741  1.00  0.00     0.000 C 
ENDROOT
BRANCH   1   2
ATOM      2  C   UNL     1      -3.393 -13.063  68.511  1.00  0.00     0.000 C 
BRANCH   2   3
ATOM      3  C   UNL     1      -2.995 -12.141  67.347  1.00  0.00     0.000 C 
BRANCH   3   4
ATOM      4  C   UNL     1      -3.950 -10.945  67.186  1.00  0.00     0.006 C 
BRANCH   4   5
ATOM      5  C   UNL     1      -4.412 -10.764  65.734  1.00  0.00     0.053 C 
BRANCH   5   6
ATOM      6  C   UNL     1      -3.558  -9.781  64.996  1.00  0.00     0.041 C 
ATOM      7  O   UNL     1      -2.892 -10.148  63.992  1.00  0.00    -0.550 OA
ATOM      8  O   UNL     1      -3.473  -8.465  65.434  1.00  0.00    -0.550 OA
ENDBRANCH   5   6
ENDBRANCH   4   5
ENDBRANCH   3   4
ENDBRANCH   2   3
ENDBRANCH   1   2
BRANCH   1   9
ATOM      9  C   UNL     1      -5.560 -14.225  67.915  1.00  0.00     0.000 C 
BRANCH   9  10
ATOM     10  C   UNL     1      -6.485 -13.645  66.835  1.00  0.00    -0.000 C 
BRANCH  10  11
ATOM     11  C   UNL     1      -6.143 -14.153  65.426  1.00  0.00    -0.000 C 
BRANCH  11  12
ATOM     12  C   UNL     1      -4.661 -14.525  65.273  1.00  0.00    -0.000 C 
BRANCH  12  13
ATOM     13  C   UNL     1      -4.105 -14.027  63.934  1.00  0.00    -0.003 C 
ATOM     14  C   UNL     1      -5.229 -13.585  63.002  1.00  0.00     0.004 C 
ENDBRANCH  12  13
ENDBRANCH  11  12
ENDBRANCH  10  11
ENDBRANCH   9  10
ENDBRANCH   1   9
TORSDOF 10
ENDMDL
MODEL 9
REMARK VINA RESULT:    -2.909      2.523      3.611
REMARK INTER + INTRA:          -6.046
REMARK INTER:                  -4.594
REMARK INTRA:                  -1.452
REMARK UNBOUND:                -1.438
REMARK SMILES CCCCCCCCCCCC(=O)[O-]
REMARK SMILES IDX 7 1 8 2 9 3 10 4 11 5 12 6 13 7 14 8 6 9 5 10 4 11 3 12 2 13
REMARK SMILES IDX 1 14
REMARK H PARENT
REMARK Flexibility Score: inf
ROOT
ATOM      1  C   UNL     1       2.216   0.914  67.511  1.00  0.00     0.000 C 
ENDROOT
BRANCH   1   2
ATOM      2  C   UNL     1       2.711   0.104  68.718  1.00  0.00     0.000 C 
BRANCH   2   3
ATOM      3  C   UNL     1       4.245   0.042  68.802  1.00  0.00     0.000 C 
BRANCH   3   4
ATOM      4  C   UNL     1       4.782  -1.399  68.761  1.00  0.00     0.006 C 
BRANCH   4   5
ATOM      5  C   UNL     1       4.031  -2.324  69.729  1.00  0.00     0.053 C 
BRANCH   5   6
ATOM      6  C   UNL     1       4.502  -3.742  69.622  1.00  0.00     0.041 C 
ATOM      7  O   UNL     1       4.876  -4.204  68.512  1.00  0.00    -0.550 OA
ATOM      8  O   UNL     1       4.500  -4.562  70.744  1.00  0.00    -0.550 OA
ENDBRANCH   5   6
ENDBRANCH   4   5
ENDBRANCH   3   4
ENDBRANCH   2   3
ENDBRANCH   1   2
BRANCH   1   9
ATOM      9  C   UNL     1       3.019   0.568  66.251  1.00  0.00     0.000 C 
BRANCH   9  10
ATOM     10  C   UNL     1       2.413  -0.644  65.528  1.00  0.00    -0.000 C 
BRANCH  10  11
ATOM     11  C   UNL     1       3.362  -1.853  65.502  1.00  0.00    -0.000 C 
BRANCH  11  12
ATOM     12  C   UNL     1       2.683  -3.149  65.970  1.00  0.00    -0.000 C 
BRANCH  12  13
ATOM     13  C   UNL     1       1.559  -2.849  66.968  1.00  0.00    -0.003 C 
ATOM     14  C   UNL     1       0.293  -3.627  66.623  1.00  0.00     0.004 C 
ENDBRANCH  12  13
ENDBRANCH  11  12
ENDBRANCH  10  11
ENDBRANCH   9  10
ENDBRANCH   1   9
TORSDOF 10
ENDMDL
