MODEL 1
REMARK VINA RESULT:    -7.385      0.000      0.000
REMARK INTER + INTRA:         -11.462
REMARK INTER:                 -10.191
REMARK INTRA:                  -1.271
REMARK UNBOUND:                -1.271
REMARK SMILES O=C([O-])[C@@H]1O[C@H](Oc2cc3oc(-c4ccccc4)cc(=O)c3c(O)c2O)[C@@H](O)[C@@H](O)[C@H]1O
REMARK SMILES IDX 7 1 6 2 4 3 31 4 5 5 29 6 27 7 2 8 1 9 3 10 32 11 30 13
REMARK SMILES IDX 28 15 8 17 25 18 9 19 23 20 10 21 22 22 11 23 20 24 12 25
REMARK SMILES IDX 19 26 21 27 26 28 24 30 13 32 14 33 18 34 15 35 17 36 16 37
REMARK H PARENT 32 12 30 14 28 16 26 29 24 31
REMARK Flexibility Score: inf
ROOT
ATOM      1  O   UNL     1      13.311  48.265  46.046  1.00  0.00    -0.458 OA
ENDROOT
BRANCH   1   2
ATOM      2  C   UNL     1      13.294  46.973  46.662  1.00  0.00     0.339 C 
ATOM      3  C   UNL     1      10.932  46.932  47.007  1.00  0.00     0.199 C 
ATOM      4  C   UNL     1      10.729  45.822  45.948  1.00  0.00     0.180 C 
ATOM      5  O   UNL     1      12.226  46.882  47.599  1.00  0.00    -0.328 OA
ATOM      6  C   UNL     1      11.858  45.859  44.905  1.00  0.00     0.181 C 
ATOM      7  C   UNL     1      13.231  45.857  45.595  1.00  0.00     0.214 C 
BRANCH   3   8
ATOM      8  C   UNL     1      10.577  48.323  46.535  1.00  0.00     0.073 C 
ATOM      9  O   UNL     1      10.566  49.276  47.360  1.00  0.00    -0.547 OA
ATOM     10  O   UNL     1      10.202  48.564  45.217  1.00  0.00    -0.547 OA
ENDBRANCH   3   8
BRANCH   4  11
ATOM     11  O   UNL     1      10.705  44.575  46.598  1.00  0.00    -0.387 OA
ATOM     12  H   UNL     1       9.935  44.065  46.232  1.00  0.00     0.211 HD
ENDBRANCH   4  11
BRANCH   6  13
ATOM     13  O   UNL     1      11.742  44.759  44.038  1.00  0.00    -0.387 OA
ATOM     14  H   UNL     1      12.649  44.358  43.958  1.00  0.00     0.211 HD
ENDBRANCH   6  13
BRANCH   7  15
ATOM     15  O   UNL     1      13.469  44.606  46.191  1.00  0.00    -0.384 OA
ATOM     16  H   UNL     1      12.579  44.192  46.350  1.00  0.00     0.211 HD
ENDBRANCH   7  15
ENDBRANCH   1   2
BRANCH   1  17
ATOM     17  C   UNL     1      14.216  48.719  45.069  1.00  0.00     0.172 A 
ATOM     18  C   UNL     1      13.849  49.052  43.746  1.00  0.00     0.201 A 
ATOM     19  C   UNL     1      15.546  48.850  45.462  1.00  0.00     0.098 A 
ATOM     20  C   UNL     1      14.830  49.458  42.816  1.00  0.00     0.176 A 
ATOM     21  C   UNL     1      16.523  49.289  44.571  1.00  0.00     0.146 A 
ATOM     22  C   UNL     1      16.184  49.620  43.237  1.00  0.00     0.111 A 
ATOM     23  O   UNL     1      17.776  49.391  45.004  1.00  0.00    -0.456 OA
ATOM     24  C   UNL     1      17.226  50.125  42.421  1.00  0.00     0.197 A 
ATOM     25  C   UNL     1      18.780  49.820  44.248  1.00  0.00     0.138 A 
ATOM     26  C   UNL     1      18.526  50.202  42.924  1.00  0.00     0.100 A 
ATOM     27  O   UNL     1      17.019  50.539  41.251  1.00  0.00    -0.289 OA
BRANCH  18  28
ATOM     28  O   UNL     1      12.511  48.990  43.356  1.00  0.00    -0.502 OA
ATOM     29  H   UNL     1      11.881  48.259  43.660  1.00  0.00     0.293 HD
ENDBRANCH  18  28
BRANCH  20  30
ATOM     30  O   UNL     1      14.412  49.661  41.497  1.00  0.00    -0.504 OA
ATOM     31  H   UNL     1      13.476  49.502  41.159  1.00  0.00     0.293 HD
ENDBRANCH  20  30
BRANCH  25  32
ATOM     32  C   UNL     1      20.143  49.875  44.839  1.00  0.00     0.017 A 
ATOM     33  C   UNL     1      20.350  50.090  46.218  1.00  0.00     0.012 A 
ATOM     34  C   UNL     1      21.264  49.674  44.009  1.00  0.00     0.012 A 
ATOM     35  C   UNL     1      21.645  50.124  46.744  1.00  0.00     0.001 A 
ATOM     36  C   UNL     1      22.556  49.705  44.541  1.00  0.00     0.001 A 
ATOM     37  C   UNL     1      22.748  49.933  45.906  1.00  0.00     0.000 A 
ENDBRANCH  25  32
ENDBRANCH   1  17
TORSDOF 9
ENDMDL
MODEL 2
REMARK VINA RESULT:    -7.193      1.015      2.322
REMARK INTER + INTRA:         -11.198
REMARK INTER:                  -9.971
REMARK INTRA:                  -1.227
REMARK UNBOUND:                -1.271
REMARK SMILES O=C([O-])[C@@H]1O[C@H](Oc2cc3oc(-c4ccccc4)cc(=O)c3c(O)c2O)[C@@H](O)[C@@H](O)[C@H]1O
REMARK SMILES IDX 7 1 6 2 4 3 31 4 5 5 29 6 27 7 2 8 1 9 3 10 32 11 30 13
REMARK SMILES IDX 28 15 8 17 25 18 9 19 23 20 10 21 22 22 11 23 20 24 12 25
REMARK SMILES IDX 19 26 21 27 26 28 24 30 13 32 14 33 18 34 15 35 17 36 16 37
REMARK H PARENT 32 12 30 14 28 16 26 29 24 31
REMARK Flexibility Score: inf
ROOT
ATOM      1  O   UNL     1      13.383  47.821  45.981  1.00  0.00    -0.458 OA
ENDROOT
BRANCH   1   2
ATOM      2  C   UNL     1      12.242  48.444  46.580  1.00  0.00     0.339 C 
ATOM      3  C   UNL     1      10.791  46.574  46.269  1.00  0.00     0.199 C 
ATOM      4  C   UNL     1      10.737  46.278  47.786  1.00  0.00     0.180 C 
ATOM      5  O   UNL     1      11.041  47.949  45.996  1.00  0.00    -0.328 OA
ATOM      6  C   UNL     1      12.006  46.796  48.482  1.00  0.00     0.181 C 
ATOM      7  C   UNL     1      12.261  48.266  48.114  1.00  0.00     0.214 C 
BRANCH   3   8
ATOM      8  C   UNL     1      11.705  45.664  45.483  1.00  0.00     0.073 C 
ATOM      9  O   UNL     1      11.801  45.805  44.234  1.00  0.00    -0.547 OA
ATOM     10  O   UNL     1      12.401  44.630  46.103  1.00  0.00    -0.547 OA
ENDBRANCH   3   8
BRANCH   4  11
ATOM     11  O   UNL     1       9.595  46.896  48.328  1.00  0.00    -0.387 OA
ATOM     12  H   UNL     1       9.091  46.201  48.829  1.00  0.00     0.211 HD
ENDBRANCH   4  11
BRANCH   6  13
ATOM     13  O   UNL     1      11.879  46.653  49.875  1.00  0.00    -0.387 OA
ATOM     14  H   UNL     1      11.148  45.996  50.031  1.00  0.00     0.211 HD
ENDBRANCH   6  13
BRANCH   7  15
ATOM     15  O   UNL     1      11.287  49.088  48.707  1.00  0.00    -0.384 OA
ATOM     16  H   UNL     1      10.532  48.494  48.966  1.00  0.00     0.211 HD
ENDBRANCH   7  15
ENDBRANCH   1   2
BRANCH   1  17
ATOM     17  C   UNL     1      14.249  48.389  45.028  1.00  0.00     0.172 A 
ATOM     18  C   UNL     1      13.842  48.808  43.742  1.00  0.00     0.201 A 
ATOM     19  C   UNL     1      15.580  48.547  45.409  1.00  0.00     0.098 A 
ATOM     20  C   UNL     1      14.786  49.328  42.831  1.00  0.00     0.176 A 
ATOM     21  C   UNL     1      16.519  49.097  44.539  1.00  0.00     0.146 A 
ATOM     22  C   UNL     1      16.140  49.516  43.241  1.00  0.00     0.111 A 
ATOM     23  O   UNL     1      17.775  49.220  44.958  1.00  0.00    -0.456 OA
ATOM     24  C   UNL     1      17.144  50.128  42.451  1.00  0.00     0.197 A 
ATOM     25  C   UNL     1      18.745  49.750  44.222  1.00  0.00     0.138 A 
ATOM     26  C   UNL     1      18.449  50.223  42.936  1.00  0.00     0.100 A 
ATOM     27  O   UNL     1      16.896  50.623  41.321  1.00  0.00    -0.289 OA
BRANCH  18  28
ATOM     28  O   UNL     1      12.501  48.718  43.370  1.00  0.00    -0.502 OA
ATOM     29  H   UNL     1      11.835  49.465  43.524  1.00  0.00     0.293 HD
ENDBRANCH  18  28
BRANCH  20  30
ATOM     30  O   UNL     1      14.334  49.615  41.539  1.00  0.00    -0.504 OA
ATOM     31  H   UNL     1      14.904  49.579  40.708  1.00  0.00     0.293 HD
ENDBRANCH  20  30
BRANCH  25  32
ATOM     32  C   UNL     1      20.116  49.818  44.793  1.00  0.00     0.017 A 
ATOM     33  C   UNL     1      20.340  50.024  46.171  1.00  0.00     0.012 A 
ATOM     34  C   UNL     1      21.227  49.640  43.945  1.00  0.00     0.012 A 
ATOM     35  C   UNL     1      21.643  50.071  46.678  1.00  0.00     0.001 A 
ATOM     36  C   UNL     1      22.526  49.684  44.458  1.00  0.00     0.001 A 
ATOM     37  C   UNL     1      22.735  49.903  45.822  1.00  0.00     0.000 A 
ENDBRANCH  25  32
ENDBRANCH   1  17
TORSDOF 9
ENDMDL
MODEL 3
REMARK VINA RESULT:    -7.177      2.330      4.278
REMARK INTER + INTRA:         -11.176
REMARK INTER:                  -9.962
REMARK INTRA:                  -1.213
REMARK UNBOUND:                -1.271
REMARK SMILES O=C([O-])[C@@H]1O[C@H](Oc2cc3oc(-c4ccccc4)cc(=O)c3c(O)c2O)[C@@H](O)[C@@H](O)[C@H]1O
REMARK SMILES IDX 7 1 6 2 4 3 31 4 5 5 29 6 27 7 2 8 1 9 3 10 32 11 30 13
REMARK SMILES IDX 28 15 8 17 25 18 9 19 23 20 10 21 22 22 11 23 20 24 12 25
REMARK SMILES IDX 19 26 21 27 26 28 24 30 13 32 14 33 18 34 15 35 17 36 16 37
REMARK H PARENT 32 12 30 14 28 16 26 29 24 31
REMARK Flexibility Score: inf
ROOT
ATOM      1  O   UNL     1      16.182  47.574  45.441  1.00  0.00    -0.458 OA
ENDROOT
BRANCH   1   2
ATOM      2  C   UNL     1      15.333  48.470  46.166  1.00  0.00     0.339 C 
ATOM      3  C   UNL     1      13.608  48.513  44.517  1.00  0.00     0.199 C 
ATOM      4  C   UNL     1      12.629  47.729  45.422  1.00  0.00     0.180 C 
ATOM      5  O   UNL     1      14.559  49.260  45.269  1.00  0.00    -0.328 OA
ATOM      6  C   UNL     1      13.403  46.858  46.425  1.00  0.00     0.181 C 
ATOM      7  C   UNL     1      14.451  47.697  47.172  1.00  0.00     0.214 C 
BRANCH   3   8
ATOM      8  C   UNL     1      14.263  47.687  43.434  1.00  0.00     0.073 C 
ATOM      9  O   UNL     1      14.932  48.259  42.533  1.00  0.00    -0.547 OA
ATOM     10  O   UNL     1      14.095  46.306  43.379  1.00  0.00    -0.547 OA
ENDBRANCH   3   8
BRANCH   4  11
ATOM     11  O   UNL     1      11.808  48.646  46.103  1.00  0.00    -0.387 OA
ATOM     12  H   UNL     1      12.252  49.534  46.053  1.00  0.00     0.211 HD
ENDBRANCH   4  11
BRANCH   6  13
ATOM     13  O   UNL     1      12.508  46.267  47.333  1.00  0.00    -0.387 OA
ATOM     14  H   UNL     1      12.482  46.854  48.135  1.00  0.00     0.211 HD
ENDBRANCH   6  13
BRANCH   7  15
ATOM     15  O   UNL     1      13.816  48.596  48.047  1.00  0.00    -0.384 OA
ATOM     16  H   UNL     1      12.849  48.360  48.046  1.00  0.00     0.211 HD
ENDBRANCH   7  15
ENDBRANCH   1   2
BRANCH   1  17
ATOM     17  C   UNL     1      17.520  47.799  45.070  1.00  0.00     0.172 A 
ATOM     18  C   UNL     1      18.093  47.342  43.862  1.00  0.00     0.201 A 
ATOM     19  C   UNL     1      18.302  48.531  45.962  1.00  0.00     0.098 A 
ATOM     20  C   UNL     1      19.458  47.574  43.588  1.00  0.00     0.176 A 
ATOM     21  C   UNL     1      19.640  48.806  45.691  1.00  0.00     0.146 A 
ATOM     22  C   UNL     1      20.242  48.351  44.493  1.00  0.00     0.111 A 
ATOM     23  O   UNL     1      20.336  49.506  46.582  1.00  0.00    -0.456 OA
ATOM     24  C   UNL     1      21.585  48.738  44.268  1.00  0.00     0.197 A 
ATOM     25  C   UNL     1      21.610  49.845  46.416  1.00  0.00     0.138 A 
ATOM     26  C   UNL     1      22.272  49.465  45.241  1.00  0.00     0.100 A 
ATOM     27  O   UNL     1      22.187  48.470  43.195  1.00  0.00    -0.289 OA
BRANCH  18  28
ATOM     28  O   UNL     1      17.307  46.666  42.928  1.00  0.00    -0.502 OA
ATOM     29  H   UNL     1      16.321  46.483  43.067  1.00  0.00     0.293 HD
ENDBRANCH  18  28
BRANCH  20  30
ATOM     30  O   UNL     1      19.983  46.994  42.429  1.00  0.00    -0.504 OA
ATOM     31  H   UNL     1      19.440  46.508  41.732  1.00  0.00     0.293 HD
ENDBRANCH  20  30
BRANCH  25  32
ATOM     32  C   UNL     1      22.287  50.615  47.492  1.00  0.00     0.017 A 
ATOM     33  C   UNL     1      23.656  50.947  47.423  1.00  0.00     0.012 A 
ATOM     34  C   UNL     1      21.537  51.059  48.600  1.00  0.00     0.012 A 
ATOM     35  C   UNL     1      24.260  51.685  48.447  1.00  0.00     0.001 A 
ATOM     36  C   UNL     1      22.144  51.800  49.618  1.00  0.00     0.001 A 
ATOM     37  C   UNL     1      23.505  52.109  49.545  1.00  0.00     0.000 A 
ENDBRANCH  25  32
ENDBRANCH   1  17
TORSDOF 9
ENDMDL
MODEL 4
REMARK VINA RESULT:    -6.983      2.132      4.156
REMARK INTER + INTRA:         -10.907
REMARK INTER:                  -9.630
REMARK INTRA:                  -1.277
REMARK UNBOUND:                -1.271
REMARK SMILES O=C([O-])[C@@H]1O[C@H](Oc2cc3oc(-c4ccccc4)cc(=O)c3c(O)c2O)[C@@H](O)[C@@H](O)[C@H]1O
REMARK SMILES IDX 7 1 6 2 4 3 31 4 5 5 29 6 27 7 2 8 1 9 3 10 32 11 30 13
REMARK SMILES IDX 28 15 8 17 25 18 9 19 23 20 10 21 22 22 11 23 20 24 12 25
REMARK SMILES IDX 19 26 21 27 26 28 24 30 13 32 14 33 18 34 15 35 17 36 16 37
REMARK H PARENT 32 12 30 14 28 16 26 29 24 31
REMARK Flexibility Score: inf
ROOT
ATOM      1  O   UNL     1      14.012  46.874  45.895  1.00  0.00    -0.458 OA
ENDROOT
BRANCH   1   2
ATOM      2  C   UNL     1      13.548  47.206  44.582  1.00  0.00     0.339 C 
ATOM      3  C   UNL     1      11.475  46.041  44.789  1.00  0.00     0.199 C 
ATOM      4  C   UNL     1      10.661  47.356  44.810  1.00  0.00     0.180 C 
ATOM      5  O   UNL     1      12.702  46.177  44.079  1.00  0.00    -0.328 OA
ATOM      6  C   UNL     1      11.522  48.515  45.338  1.00  0.00     0.181 C 
ATOM      7  C   UNL     1      12.855  48.586  44.577  1.00  0.00     0.214 C 
BRANCH   3   8
ATOM      8  C   UNL     1      11.670  45.400  46.143  1.00  0.00     0.073 C 
ATOM      9  O   UNL     1      12.229  44.274  46.224  1.00  0.00    -0.547 OA
ATOM     10  O   UNL     1      11.192  46.005  47.303  1.00  0.00    -0.547 OA
ENDBRANCH   3   8
BRANCH   4  11
ATOM     11  O   UNL     1      10.214  47.634  43.505  1.00  0.00    -0.387 OA
ATOM     12  H   UNL     1       9.645  46.872  43.219  1.00  0.00     0.211 HD
ENDBRANCH   4  11
BRANCH   6  13
ATOM     13  O   UNL     1      10.820  49.726  45.215  1.00  0.00    -0.387 OA
ATOM     14  H   UNL     1      11.056  50.278  46.008  1.00  0.00     0.211 HD
ENDBRANCH   6  13
BRANCH   7  15
ATOM     15  O   UNL     1      12.634  49.010  43.255  1.00  0.00    -0.384 OA
ATOM     16  H   UNL     1      12.325  49.954  43.306  1.00  0.00     0.211 HD
ENDBRANCH   7  15
ENDBRANCH   1   2
BRANCH   1  17
ATOM     17  C   UNL     1      14.827  47.667  46.724  1.00  0.00     0.172 A 
ATOM     18  C   UNL     1      14.386  48.267  47.925  1.00  0.00     0.201 A 
ATOM     19  C   UNL     1      16.147  47.846  46.317  1.00  0.00     0.098 A 
ATOM     20  C   UNL     1      15.257  49.085  48.675  1.00  0.00     0.176 A 
ATOM     21  C   UNL     1      17.035  48.616  47.065  1.00  0.00     0.146 A 
ATOM     22  C   UNL     1      16.617  49.235  48.267  1.00  0.00     0.111 A 
ATOM     23  O   UNL     1      18.282  48.752  46.623  1.00  0.00    -0.456 OA
ATOM     24  C   UNL     1      17.604  49.940  48.998  1.00  0.00     0.197 A 
ATOM     25  C   UNL     1      19.217  49.444  47.267  1.00  0.00     0.138 A 
ATOM     26  C   UNL     1      18.896  50.060  48.484  1.00  0.00     0.100 A 
ATOM     27  O   UNL     1      17.366  50.448  50.125  1.00  0.00    -0.289 OA
BRANCH  18  28
ATOM     28  O   UNL     1      13.086  48.043  48.381  1.00  0.00    -0.502 OA
ATOM     29  H   UNL     1      12.294  48.598  48.083  1.00  0.00     0.293 HD
ENDBRANCH  18  28
BRANCH  20  30
ATOM     30  O   UNL     1      14.719  49.736  49.790  1.00  0.00    -0.504 OA
ATOM     31  H   UNL     1      15.152  49.774  50.699  1.00  0.00     0.293 HD
ENDBRANCH  20  30
BRANCH  25  32
ATOM     32  C   UNL     1      20.572  49.539  46.665  1.00  0.00     0.017 A 
ATOM     33  C   UNL     1      20.879  48.950  45.421  1.00  0.00     0.012 A 
ATOM     34  C   UNL     1      21.576  50.265  47.337  1.00  0.00     0.012 A 
ATOM     35  C   UNL     1      22.162  49.069  44.877  1.00  0.00     0.001 A 
ATOM     36  C   UNL     1      22.856  50.384  46.787  1.00  0.00     0.001 A 
ATOM     37  C   UNL     1      23.150  49.783  45.560  1.00  0.00     0.000 A 
ENDBRANCH  25  32
ENDBRANCH   1  17
TORSDOF 9
ENDMDL
MODEL 5
REMARK VINA RESULT:    -6.910      2.338      8.693
REMARK INTER + INTRA:         -10.806
REMARK INTER:                  -9.621
REMARK INTRA:                  -1.185
REMARK UNBOUND:                -1.271
REMARK SMILES O=C([O-])[C@@H]1O[C@H](Oc2cc3oc(-c4ccccc4)cc(=O)c3c(O)c2O)[C@@H](O)[C@@H](O)[C@H]1O
REMARK SMILES IDX 7 1 6 2 4 3 31 4 5 5 29 6 27 7 2 8 1 9 3 10 32 11 30 13
REMARK SMILES IDX 28 15 8 17 25 18 9 19 23 20 10 21 22 22 11 23 20 24 12 25
REMARK SMILES IDX 19 26 21 27 26 28 24 30 13 32 14 33 18 34 15 35 17 36 16 37
REMARK H PARENT 32 12 30 14 28 16 26 29 24 31
REMARK Flexibility Score: inf
ROOT
ATOM      1  O   UNL     1      16.378  48.374  44.519  1.00  0.00    -0.458 OA
ENDROOT
BRANCH   1   2
ATOM      2  C   UNL     1      17.385  47.443  44.108  1.00  0.00     0.339 C 
ATOM      3  C   UNL     1      18.742  49.068  43.006  1.00  0.00     0.199 C 
ATOM      4  C   UNL     1      19.857  48.959  44.073  1.00  0.00     0.180 C 
ATOM      5  O   UNL     1      17.988  47.866  42.889  1.00  0.00    -0.328 OA
ATOM      6  C   UNL     1      19.273  48.496  45.418  1.00  0.00     0.181 C 
ATOM      7  C   UNL     1      18.425  47.228  45.230  1.00  0.00     0.214 C 
BRANCH   3   8
ATOM      8  C   UNL     1      17.856  50.284  43.144  1.00  0.00     0.073 C 
ATOM      9  O   UNL     1      17.008  50.541  42.249  1.00  0.00    -0.547 OA
ATOM     10  O   UNL     1      17.998  51.161  44.216  1.00  0.00    -0.547 OA
ENDBRANCH   3   8
BRANCH   4  11
ATOM     11  O   UNL     1      20.828  48.046  43.622  1.00  0.00    -0.387 OA
ATOM     12  H   UNL     1      20.347  47.286  43.200  1.00  0.00     0.211 HD
ENDBRANCH   4  11
BRANCH   6  13
ATOM     13  O   UNL     1      20.313  48.261  46.334  1.00  0.00    -0.387 OA
ATOM     14  H   UNL     1      21.104  47.973  45.804  1.00  0.00     0.211 HD
ENDBRANCH   6  13
BRANCH   7  15
ATOM     15  O   UNL     1      19.253  46.136  44.917  1.00  0.00    -0.384 OA
ATOM     16  H   UNL     1      18.833  45.671  44.145  1.00  0.00     0.211 HD
ENDBRANCH   7  15
ENDBRANCH   1   2
BRANCH   1  17
ATOM     17  C   UNL     1      15.581  48.296  45.675  1.00  0.00     0.172 A 
ATOM     18  C   UNL     1      15.755  49.116  46.812  1.00  0.00     0.201 A 
ATOM     19  C   UNL     1      14.559  47.349  45.667  1.00  0.00     0.098 A 
ATOM     20  C   UNL     1      14.938  48.941  47.949  1.00  0.00     0.176 A 
ATOM     21  C   UNL     1      13.715  47.188  46.763  1.00  0.00     0.146 A 
ATOM     22  C   UNL     1      13.873  47.991  47.919  1.00  0.00     0.111 A 
ATOM     23  O   UNL     1      12.760  46.266  46.697  1.00  0.00    -0.456 OA
ATOM     24  C   UNL     1      12.927  47.808  48.956  1.00  0.00     0.197 A 
ATOM     25  C   UNL     1      11.886  46.043  47.673  1.00  0.00     0.138 A 
ATOM     26  C   UNL     1      11.950  46.818  48.839  1.00  0.00     0.100 A 
ATOM     27  O   UNL     1      12.915  48.532  49.986  1.00  0.00    -0.289 OA
BRANCH  18  28
ATOM     28  O   UNL     1      16.731  50.114  46.810  1.00  0.00    -0.502 OA
ATOM     29  H   UNL     1      16.710  50.906  47.440  1.00  0.00     0.293 HD
ENDBRANCH  18  28
BRANCH  20  30
ATOM     30  O   UNL     1      15.241  49.711  49.077  1.00  0.00    -0.504 OA
ATOM     31  H   UNL     1      16.030  49.555  49.684  1.00  0.00     0.293 HD
ENDBRANCH  20  30
BRANCH  25  32
ATOM     32  C   UNL     1      10.872  44.972  47.490  1.00  0.00     0.017 A 
ATOM     33  C   UNL     1       9.772  44.829  48.362  1.00  0.00     0.012 A 
ATOM     34  C   UNL     1      10.989  44.090  46.397  1.00  0.00     0.012 A 
ATOM     35  C   UNL     1       8.829  43.817  48.153  1.00  0.00     0.001 A 
ATOM     36  C   UNL     1      10.042  43.084  46.191  1.00  0.00     0.001 A 
ATOM     37  C   UNL     1       8.965  42.944  47.071  1.00  0.00     0.000 A 
ENDBRANCH  25  32
ENDBRANCH   1  17
TORSDOF 9
ENDMDL
MODEL 6
REMARK VINA RESULT:    -6.886      4.792      8.393
REMARK INTER + INTRA:         -10.774
REMARK INTER:                  -9.618
REMARK INTRA:                  -1.156
REMARK UNBOUND:                -1.271
REMARK SMILES O=C([O-])[C@@H]1O[C@H](Oc2cc3oc(-c4ccccc4)cc(=O)c3c(O)c2O)[C@@H](O)[C@@H](O)[C@H]1O
REMARK SMILES IDX 7 1 6 2 4 3 31 4 5 5 29 6 27 7 2 8 1 9 3 10 32 11 30 13
REMARK SMILES IDX 28 15 8 17 25 18 9 19 23 20 10 21 22 22 11 23 20 24 12 25
REMARK SMILES IDX 19 26 21 27 26 28 24 30 13 32 14 33 18 34 15 35 17 36 16 37
REMARK H PARENT 32 12 30 14 28 16 26 29 24 31
REMARK Flexibility Score: inf
ROOT
ATOM      1  O   UNL     1      16.428  48.614  43.512  1.00  0.00    -0.458 OA
ENDROOT
BRANCH   1   2
ATOM      2  C   UNL     1      16.687  50.007  43.310  1.00  0.00     0.339 C 
ATOM      3  C   UNL     1      16.985  50.507  45.625  1.00  0.00     0.199 C 
ATOM      4  C   UNL     1      18.500  50.763  45.444  1.00  0.00     0.180 C 
ATOM      5  O   UNL     1      16.248  50.763  44.434  1.00  0.00    -0.328 OA
ATOM      6  C   UNL     1      19.039  49.979  44.236  1.00  0.00     0.181 C 
ATOM      7  C   UNL     1      18.179  50.248  42.991  1.00  0.00     0.214 C 
BRANCH   3   8
ATOM      8  C   UNL     1      16.643  49.164  46.227  1.00  0.00     0.073 C 
ATOM      9  O   UNL     1      15.450  48.910  46.546  1.00  0.00    -0.547 OA
ATOM     10  O   UNL     1      17.630  48.219  46.491  1.00  0.00    -0.547 OA
ENDBRANCH   3   8
BRANCH   4  11
ATOM     11  O   UNL     1      18.707  52.143  45.263  1.00  0.00    -0.387 OA
ATOM     12  H   UNL     1      19.637  52.262  44.931  1.00  0.00     0.211 HD
ENDBRANCH   4  11
BRANCH   6  13
ATOM     13  O   UNL     1      20.377  50.334  43.995  1.00  0.00    -0.387 OA
ATOM     14  H   UNL     1      20.888  50.108  44.818  1.00  0.00     0.211 HD
ENDBRANCH   6  13
BRANCH   7  15
ATOM     15  O   UNL     1      18.370  51.569  42.548  1.00  0.00    -0.384 OA
ATOM     16  H   UNL     1      17.578  51.802  41.995  1.00  0.00     0.211 HD
ENDBRANCH   7  15
ENDBRANCH   1   2
BRANCH   1  17
ATOM     17  C   UNL     1      16.792  47.558  42.656  1.00  0.00     0.172 A 
ATOM     18  C   UNL     1      17.857  46.665  42.911  1.00  0.00     0.201 A 
ATOM     19  C   UNL     1      16.031  47.401  41.499  1.00  0.00     0.098 A 
ATOM     20  C   UNL     1      18.182  45.659  41.976  1.00  0.00     0.176 A 
ATOM     21  C   UNL     1      16.310  46.389  40.584  1.00  0.00     0.146 A 
ATOM     22  C   UNL     1      17.378  45.486  40.810  1.00  0.00     0.111 A 
ATOM     23  O   UNL     1      15.551  46.291  39.497  1.00  0.00    -0.456 OA
ATOM     24  C   UNL     1      17.544  44.446  39.864  1.00  0.00     0.197 A 
ATOM     25  C   UNL     1      15.713  45.351  38.571  1.00  0.00     0.138 A 
ATOM     26  C   UNL     1      16.725  44.396  38.735  1.00  0.00     0.100 A 
ATOM     27  O   UNL     1      18.399  43.534  40.016  1.00  0.00    -0.289 OA
BRANCH  18  28
ATOM     28  O   UNL     1      18.586  46.768  44.096  1.00  0.00    -0.502 OA
ATOM     29  H   UNL     1      18.938  45.963  44.598  1.00  0.00     0.293 HD
ENDBRANCH  18  28
BRANCH  20  30
ATOM     30  O   UNL     1      19.318  44.887  42.241  1.00  0.00    -0.504 OA
ATOM     31  H   UNL     1      19.849  44.387  41.545  1.00  0.00     0.293 HD
ENDBRANCH  20  30
BRANCH  25  32
ATOM     32  C   UNL     1      14.811  45.354  37.390  1.00  0.00     0.017 A 
ATOM     33  C   UNL     1      15.186  44.765  36.164  1.00  0.00     0.012 A 
ATOM     34  C   UNL     1      13.530  45.931  37.500  1.00  0.00     0.012 A 
ATOM     35  C   UNL     1      14.308  44.774  35.075  1.00  0.00     0.001 A 
ATOM     36  C   UNL     1      12.655  45.933  36.410  1.00  0.00     0.001 A 
ATOM     37  C   UNL     1      13.045  45.359  35.197  1.00  0.00     0.000 A 
ENDBRANCH  25  32
ENDBRANCH   1  17
TORSDOF 9
ENDMDL
MODEL 7
REMARK VINA RESULT:    -6.850      3.819      6.028
REMARK INTER + INTRA:         -10.724
REMARK INTER:                  -9.765
REMARK INTRA:                  -0.959
REMARK UNBOUND:                -1.271
REMARK SMILES O=C([O-])[C@@H]1O[C@H](Oc2cc3oc(-c4ccccc4)cc(=O)c3c(O)c2O)[C@@H](O)[C@@H](O)[C@H]1O
REMARK SMILES IDX 7 1 6 2 4 3 31 4 5 5 29 6 27 7 2 8 1 9 3 10 32 11 30 13
REMARK SMILES IDX 28 15 8 17 25 18 9 19 23 20 10 21 22 22 11 23 20 24 12 25
REMARK SMILES IDX 19 26 21 27 26 28 24 30 13 32 14 33 18 34 15 35 17 36 16 37
REMARK H PARENT 32 12 30 14 28 16 26 29 24 31
REMARK Flexibility Score: inf
ROOT
ATOM      1  O   UNL     1      16.211  46.140  41.559  1.00  0.00    -0.458 OA
ENDROOT
BRANCH   1   2
ATOM      2  C   UNL     1      15.749  46.532  40.262  1.00  0.00     0.339 C 
ATOM      3  C   UNL     1      17.389  45.279  39.064  1.00  0.00     0.199 C 
ATOM      4  C   UNL     1      16.335  44.279  38.532  1.00  0.00     0.180 C 
ATOM      5  O   UNL     1      16.830  46.560  39.336  1.00  0.00    -0.328 OA
ATOM      6  C   UNL     1      15.131  44.207  39.486  1.00  0.00     0.181 C 
ATOM      7  C   UNL     1      14.598  45.616  39.789  1.00  0.00     0.214 C 
BRANCH   3   8
ATOM      8  C   UNL     1      18.218  44.764  40.218  1.00  0.00     0.073 C 
ATOM      9  O   UNL     1      19.123  45.491  40.708  1.00  0.00    -0.547 OA
ATOM     10  O   UNL     1      18.040  43.476  40.716  1.00  0.00    -0.547 OA
ENDBRANCH   3   8
BRANCH   4  11
ATOM     11  O   UNL     1      15.922  44.695  37.253  1.00  0.00    -0.387 OA
ATOM     12  H   UNL     1      14.971  44.975  37.326  1.00  0.00     0.211 HD
ENDBRANCH   4  11
BRANCH   6  13
ATOM     13  O   UNL     1      14.122  43.410  38.919  1.00  0.00    -0.387 OA
ATOM     14  H   UNL     1      13.664  43.969  38.235  1.00  0.00     0.211 HD
ENDBRANCH   6  13
BRANCH   7  15
ATOM     15  O   UNL     1      13.989  46.158  38.644  1.00  0.00    -0.384 OA
ATOM     16  H   UNL     1      13.566  47.014  38.925  1.00  0.00     0.211 HD
ENDBRANCH   7  15
ENDBRANCH   1   2
BRANCH   1  17
ATOM     17  C   UNL     1      16.261  46.945  42.713  1.00  0.00     0.172 A 
ATOM     18  C   UNL     1      15.123  47.341  43.449  1.00  0.00     0.201 A 
ATOM     19  C   UNL     1      17.525  47.351  43.137  1.00  0.00     0.098 A 
ATOM     20  C   UNL     1      15.260  48.187  44.571  1.00  0.00     0.176 A 
ATOM     21  C   UNL     1      17.685  48.152  44.265  1.00  0.00     0.146 A 
ATOM     22  C   UNL     1      16.560  48.571  45.016  1.00  0.00     0.111 A 
ATOM     23  O   UNL     1      18.915  48.510  44.619  1.00  0.00    -0.456 OA
ATOM     24  C   UNL     1      16.821  49.323  46.188  1.00  0.00     0.197 A 
ATOM     25  C   UNL     1      19.185  49.251  45.688  1.00  0.00     0.138 A 
ATOM     26  C   UNL     1      18.132  49.680  46.507  1.00  0.00     0.100 A 
ATOM     27  O   UNL     1      15.905  49.666  46.980  1.00  0.00    -0.289 OA
BRANCH  18  28
ATOM     28  O   UNL     1      13.857  46.888  43.077  1.00  0.00    -0.502 OA
ATOM     29  H   UNL     1      13.611  46.663  42.121  1.00  0.00     0.293 HD
ENDBRANCH  18  28
BRANCH  20  30
ATOM     30  O   UNL     1      14.083  48.630  45.182  1.00  0.00    -0.504 OA
ATOM     31  H   UNL     1      13.842  49.597  45.335  1.00  0.00     0.293 HD
ENDBRANCH  20  30
BRANCH  25  32
ATOM     32  C   UNL     1      20.601  49.601  45.972  1.00  0.00     0.017 A 
ATOM     33  C   UNL     1      21.623  49.408  45.019  1.00  0.00     0.012 A 
ATOM     34  C   UNL     1      20.935  50.173  47.216  1.00  0.00     0.012 A 
ATOM     35  C   UNL     1      22.944  49.761  45.314  1.00  0.00     0.001 A 
ATOM     36  C   UNL     1      22.256  50.527  47.504  1.00  0.00     0.001 A 
ATOM     37  C   UNL     1      23.261  50.317  46.556  1.00  0.00     0.000 A 
ENDBRANCH  25  32
ENDBRANCH   1  17
TORSDOF 9
ENDMDL
MODEL 8
REMARK VINA RESULT:    -6.820      2.570      8.967
REMARK INTER + INTRA:         -10.683
REMARK INTER:                  -9.485
REMARK INTRA:                  -1.198
REMARK UNBOUND:                -1.271
REMARK SMILES O=C([O-])[C@@H]1O[C@H](Oc2cc3oc(-c4ccccc4)cc(=O)c3c(O)c2O)[C@@H](O)[C@@H](O)[C@H]1O
REMARK SMILES IDX 7 1 6 2 4 3 31 4 5 5 29 6 27 7 2 8 1 9 3 10 32 11 30 13
REMARK SMILES IDX 28 15 8 17 25 18 9 19 23 20 10 21 22 22 11 23 20 24 12 25
REMARK SMILES IDX 19 26 21 27 26 28 24 30 13 32 14 33 18 34 15 35 17 36 16 37
REMARK H PARENT 32 12 30 14 28 16 26 29 24 31
REMARK Flexibility Score: inf
ROOT
ATOM      1  O   UNL     1      17.136  47.943  45.709  1.00  0.00    -0.458 OA
ENDROOT
BRANCH   1   2
ATOM      2  C   UNL     1      17.661  48.979  44.871  1.00  0.00     0.339 C 
ATOM      3  C   UNL     1      19.901  48.787  45.671  1.00  0.00     0.199 C 
ATOM      4  C   UNL     1      20.403  48.207  44.328  1.00  0.00     0.180 C 
ATOM      5  O   UNL     1      18.760  49.623  45.506  1.00  0.00    -0.328 OA
ATOM      6  C   UNL     1      19.257  47.501  43.584  1.00  0.00     0.181 C 
ATOM      7  C   UNL     1      18.033  48.425  43.479  1.00  0.00     0.214 C 
BRANCH   3   8
ATOM      8  C   UNL     1      19.700  47.762  46.764  1.00  0.00     0.073 C 
ATOM      9  O   UNL     1      19.456  48.145  47.939  1.00  0.00    -0.547 OA
ATOM     10  O   UNL     1      19.838  46.401  46.509  1.00  0.00    -0.547 OA
ENDBRANCH   3   8
BRANCH   4  11
ATOM     11  O   UNL     1      20.920  49.256  43.546  1.00  0.00    -0.387 OA
ATOM     12  H   UNL     1      20.735  49.035  42.595  1.00  0.00     0.211 HD
ENDBRANCH   4  11
BRANCH   6  13
ATOM     13  O   UNL     1      19.688  47.108  42.306  1.00  0.00    -0.387 OA
ATOM     14  H   UNL     1      20.255  47.845  41.954  1.00  0.00     0.211 HD
ENDBRANCH   6  13
BRANCH   7  15
ATOM     15  O   UNL     1      18.303  49.483  42.594  1.00  0.00    -0.384 OA
ATOM     16  H   UNL     1      17.786  50.267  42.922  1.00  0.00     0.211 HD
ENDBRANCH   7  15
ENDBRANCH   1   2
BRANCH   1  17
ATOM     17  C   UNL     1      16.084  48.062  46.635  1.00  0.00     0.172 A 
ATOM     18  C   UNL     1      16.040  49.031  47.661  1.00  0.00     0.201 A 
ATOM     19  C   UNL     1      15.028  47.162  46.500  1.00  0.00     0.098 A 
ATOM     20  C   UNL     1      14.966  49.052  48.576  1.00  0.00     0.176 A 
ATOM     21  C   UNL     1      13.939  47.192  47.368  1.00  0.00     0.146 A 
ATOM     22  C   UNL     1      13.874  48.148  48.411  1.00  0.00     0.111 A 
ATOM     23  O   UNL     1      12.964  46.306  47.191  1.00  0.00    -0.456 OA
ATOM     24  C   UNL     1      12.698  48.151  49.199  1.00  0.00     0.197 A 
ATOM     25  C   UNL     1      11.870  46.259  47.944  1.00  0.00     0.138 A 
ATOM     26  C   UNL     1      11.709  47.191  48.977  1.00  0.00     0.100 A 
ATOM     27  O   UNL     1      12.493  49.016  50.090  1.00  0.00    -0.289 OA
BRANCH  18  28
ATOM     28  O   UNL     1      17.056  49.982  47.768  1.00  0.00    -0.502 OA
ATOM     29  H   UNL     1      16.906  50.910  48.142  1.00  0.00     0.293 HD
ENDBRANCH  18  28
BRANCH  20  30
ATOM     30  O   UNL     1      15.046  49.965  49.633  1.00  0.00    -0.504 OA
ATOM     31  H   UNL     1      15.038  50.967  49.529  1.00  0.00     0.293 HD
ENDBRANCH  20  30
BRANCH  25  32
ATOM     32  C   UNL     1      10.855  45.210  47.660  1.00  0.00     0.017 A 
ATOM     33  C   UNL     1      10.973  44.337  46.558  1.00  0.00     0.012 A 
ATOM     34  C   UNL     1       9.759  45.057  48.532  1.00  0.00     0.012 A 
ATOM     35  C   UNL     1      10.006  43.353  46.327  1.00  0.00     0.001 A 
ATOM     36  C   UNL     1       8.798  44.069  48.298  1.00  0.00     0.001 A 
ATOM     37  C   UNL     1       8.919  43.220  47.195  1.00  0.00     0.000 A 
ENDBRANCH  25  32
ENDBRANCH   1  17
TORSDOF 9
ENDMDL
MODEL 9
REMARK VINA RESULT:    -6.638      3.464      5.331
REMARK INTER + INTRA:         -10.431
REMARK INTER:                  -9.223
REMARK INTRA:                  -1.209
REMARK UNBOUND:                -1.271
REMARK SMILES O=C([O-])[C@@H]1O[C@H](Oc2cc3oc(-c4ccccc4)cc(=O)c3c(O)c2O)[C@@H](O)[C@@H](O)[C@H]1O
REMARK SMILES IDX 7 1 6 2 4 3 31 4 5 5 29 6 27 7 2 8 1 9 3 10 32 11 30 13
REMARK SMILES IDX 28 15 8 17 25 18 9 19 23 20 10 21 22 22 11 23 20 24 12 25
REMARK SMILES IDX 19 26 21 27 26 28 24 30 13 32 14 33 18 34 15 35 17 36 16 37
REMARK H PARENT 32 12 30 14 28 16 26 29 24 31
REMARK Flexibility Score: inf
ROOT
ATOM      1  O   UNL     1      15.847  46.904  41.521  1.00  0.00    -0.458 OA
ENDROOT
BRANCH   1   2
ATOM      2  C   UNL     1      16.858  46.174  40.817  1.00  0.00     0.339 C 
ATOM      3  C   UNL     1      15.660  44.110  40.802  1.00  0.00     0.199 C 
ATOM      4  C   UNL     1      15.423  44.180  39.274  1.00  0.00     0.180 C 
ATOM      5  O   UNL     1      16.838  44.803  41.198  1.00  0.00    -0.328 OA
ATOM      6  C   UNL     1      15.440  45.640  38.793  1.00  0.00     0.181 C 
ATOM      7  C   UNL     1      16.705  46.357  39.290  1.00  0.00     0.214 C 
BRANCH   3   8
ATOM      8  C   UNL     1      14.464  44.498  41.641  1.00  0.00     0.073 C 
ATOM      9  O   UNL     1      14.505  44.346  42.891  1.00  0.00    -0.547 OA
ATOM     10  O   UNL     1      13.292  44.966  41.054  1.00  0.00    -0.547 OA
ENDBRANCH   3   8
BRANCH   4  11
ATOM     11  O   UNL     1      16.429  43.440  38.627  1.00  0.00    -0.387 OA
ATOM     12  H   UNL     1      15.978  42.774  38.043  1.00  0.00     0.211 HD
ENDBRANCH   4  11
BRANCH   6  13
ATOM     13  O   UNL     1      15.372  45.680  37.390  1.00  0.00    -0.387 OA
ATOM     14  H   UNL     1      16.236  45.323  37.049  1.00  0.00     0.211 HD
ENDBRANCH   6  13
BRANCH   7  15
ATOM     15  O   UNL     1      17.838  45.853  38.628  1.00  0.00    -0.384 OA
ATOM     16  H   UNL     1      17.504  45.308  37.866  1.00  0.00     0.211 HD
ENDBRANCH   7  15
ENDBRANCH   1   2
BRANCH   1  17
ATOM     17  C   UNL     1      15.981  47.530  42.773  1.00  0.00     0.172 A 
ATOM     18  C   UNL     1      14.899  47.803  43.639  1.00  0.00     0.201 A 
ATOM     19  C   UNL     1      17.272  47.882  43.162  1.00  0.00     0.098 A 
ATOM     20  C   UNL     1      15.116  48.476  44.861  1.00  0.00     0.176 A 
ATOM     21  C   UNL     1      17.513  48.510  44.382  1.00  0.00     0.146 A 
ATOM     22  C   UNL     1      16.445  48.803  45.265  1.00  0.00     0.111 A 
ATOM     23  O   UNL     1      18.766  48.823  44.696  1.00  0.00    -0.456 OA
ATOM     24  C   UNL     1      16.790  49.377  46.513  1.00  0.00     0.197 A 
ATOM     25  C   UNL     1      19.112  49.402  45.841  1.00  0.00     0.138 A 
ATOM     26  C   UNL     1      18.121  49.695  46.788  1.00  0.00     0.100 A 
ATOM     27  O   UNL     1      15.933  49.591  47.410  1.00  0.00    -0.289 OA
BRANCH  18  28
ATOM     28  O   UNL     1      13.609  47.398  43.295  1.00  0.00    -0.502 OA
ATOM     29  H   UNL     1      12.883  47.227  43.980  1.00  0.00     0.293 HD
ENDBRANCH  18  28
BRANCH  20  30
ATOM     30  O   UNL     1      13.986  48.813  45.613  1.00  0.00    -0.504 OA
ATOM     31  H   UNL     1      13.033  48.653  45.324  1.00  0.00     0.293 HD
ENDBRANCH  20  30
BRANCH  25  32
ATOM     32  C   UNL     1      20.545  49.720  46.073  1.00  0.00     0.017 A 
ATOM     33  C   UNL     1      20.999  50.277  47.287  1.00  0.00     0.012 A 
ATOM     34  C   UNL     1      21.488  49.430  45.067  1.00  0.00     0.012 A 
ATOM     35  C   UNL     1      22.357  50.553  47.477  1.00  0.00     0.001 A 
ATOM     36  C   UNL     1      22.844  49.704  45.263  1.00  0.00     0.001 A 
ATOM     37  C   UNL     1      23.279  50.269  46.465  1.00  0.00     0.000 A 
ENDBRANCH  25  32
ENDBRANCH   1  17
TORSDOF 9
ENDMDL
