MODEL 1
REMARK VINA RESULT:    -4.439      0.000      0.000
REMARK INTER + INTRA:          -7.334
REMARK INTER:                  -6.775
REMARK INTRA:                  -0.560
REMARK UNBOUND:                -0.560
REMARK SMILES O=C([O-])CCCCCCCCC(=O)[O-]
REMARK SMILES IDX 7 1 6 2 5 3 4 4 2 5 1 6 3 7 8 8 9 9 10 10 11 11 12 12 13 13
REMARK SMILES IDX 14 14
REMARK H PARENT
REMARK Flexibility Score: inf
ROOT
ATOM      1  C   UNL     1       7.006  -2.812 -34.066  1.00  0.00     0.000 C 
ENDROOT
BRANCH   1   2
ATOM      2  C   UNL     1       7.988  -2.371 -35.158  1.00  0.00     0.000 C 
BRANCH   2   3
ATOM      3  C   UNL     1       9.420  -2.286 -34.609  1.00  0.00     0.006 C 
BRANCH   3   4
ATOM      4  C   UNL     1      10.388  -1.640 -35.608  1.00  0.00     0.053 C 
BRANCH   4   5
ATOM      5  C   UNL     1      11.818  -1.901 -35.245  1.00  0.00     0.041 C 
ATOM      6  O   UNL     1      12.244  -1.607 -34.098  1.00  0.00    -0.550 OA
ATOM      7  O   UNL     1      12.688  -2.439 -36.186  1.00  0.00    -0.550 OA
ENDBRANCH   4   5
ENDBRANCH   3   4
ENDBRANCH   2   3
ENDBRANCH   1   2
BRANCH   1   8
ATOM      8  C   UNL     1       5.828  -3.590 -34.665  1.00  0.00     0.000 C 
BRANCH   8   9
ATOM      9  C   UNL     1       6.302  -4.909 -35.293  1.00  0.00     0.000 C 
BRANCH   9  10
ATOM     10  C   UNL     1       6.970  -5.844 -34.272  1.00  0.00     0.006 C 
BRANCH  10  11
ATOM     11  C   UNL     1       5.990  -6.344 -33.202  1.00  0.00     0.053 C 
BRANCH  11  12
ATOM     12  C   UNL     1       6.630  -6.302 -31.849  1.00  0.00     0.041 C 
ATOM     13  O   UNL     1       7.390  -5.347 -31.538  1.00  0.00    -0.550 OA
ATOM     14  O   UNL     1       6.425  -7.341 -30.950  1.00  0.00    -0.550 OA
ENDBRANCH  11  12
ENDBRANCH  10  11
ENDBRANCH   9  10
ENDBRANCH   8   9
ENDBRANCH   1   8
TORSDOF 9
ENDMDL
MODEL 2
REMARK VINA RESULT:    -4.311      1.186      1.771
REMARK INTER + INTRA:          -7.138
REMARK INTER:                  -6.695
REMARK INTRA:                  -0.443
REMARK UNBOUND:                -0.560
REMARK SMILES O=C([O-])CCCCCCCCC(=O)[O-]
REMARK SMILES IDX 7 1 6 2 5 3 4 4 2 5 1 6 3 7 8 8 9 9 10 10 11 11 12 12 13 13
REMARK SMILES IDX 14 14
REMARK H PARENT
REMARK Flexibility Score: inf
ROOT
ATOM      1  C   UNL     1       7.565  -3.362 -35.546  1.00  0.00     0.000 C 
ENDROOT
BRANCH   1   2
ATOM      2  C   UNL     1       8.495  -2.403 -36.298  1.00  0.00     0.000 C 
BRANCH   2   3
ATOM      3  C   UNL     1       9.620  -1.896 -35.384  1.00  0.00     0.006 C 
BRANCH   3   4
ATOM      4  C   UNL     1      10.775  -1.270 -36.176  1.00  0.00     0.053 C 
BRANCH   4   5
ATOM      5  C   UNL     1      12.102  -1.829 -35.760  1.00  0.00     0.041 C 
ATOM      6  O   UNL     1      12.823  -2.433 -36.595  1.00  0.00    -0.550 OA
ATOM      7  O   UNL     1      12.524  -1.711 -34.442  1.00  0.00    -0.550 OA
ENDBRANCH   4   5
ENDBRANCH   3   4
ENDBRANCH   2   3
ENDBRANCH   1   2
BRANCH   1   8
ATOM      8  C   UNL     1       6.838  -2.642 -34.403  1.00  0.00     0.000 C 
BRANCH   8   9
ATOM      9  C   UNL     1       6.915  -3.456 -33.103  1.00  0.00     0.000 C 
BRANCH   9  10
ATOM     10  C   UNL     1       7.533  -4.848 -33.312  1.00  0.00     0.006 C 
BRANCH  10  11
ATOM     11  C   UNL     1       7.632  -5.651 -32.008  1.00  0.00     0.053 C 
BRANCH  11  12
ATOM     12  C   UNL     1       6.490  -6.613 -31.902  1.00  0.00     0.041 C 
ATOM     13  O   UNL     1       6.463  -7.464 -30.975  1.00  0.00    -0.550 OA
ATOM     14  O   UNL     1       5.479  -6.600 -32.855  1.00  0.00    -0.550 OA
ENDBRANCH  11  12
ENDBRANCH  10  11
ENDBRANCH   9  10
ENDBRANCH   8   9
ENDBRANCH   1   8
TORSDOF 9
ENDMDL
MODEL 3
REMARK VINA RESULT:    -4.293      1.185      6.647
REMARK INTER + INTRA:          -7.111
REMARK INTER:                  -6.795
REMARK INTRA:                  -0.316
REMARK UNBOUND:                -0.560
REMARK SMILES O=C([O-])CCCCCCCCC(=O)[O-]
REMARK SMILES IDX 7 1 6 2 5 3 4 4 2 5 1 6 3 7 8 8 9 9 10 10 11 11 12 12 13 13
REMARK SMILES IDX 14 14
REMARK H PARENT
REMARK Flexibility Score: inf
ROOT
ATOM      1  C   UNL     1       8.041  -2.717 -34.381  1.00  0.00     0.000 C 
ENDROOT
BRANCH   1   2
ATOM      2  C   UNL     1       6.820  -3.154 -33.563  1.00  0.00     0.000 C 
BRANCH   2   3
ATOM      3  C   UNL     1       6.672  -4.682 -33.569  1.00  0.00     0.006 C 
BRANCH   3   4
ATOM      4  C   UNL     1       7.109  -5.315 -32.241  1.00  0.00     0.053 C 
BRANCH   4   5
ATOM      5  C   UNL     1       6.292  -6.526 -31.907  1.00  0.00     0.041 C 
ATOM      6  O   UNL     1       6.577  -7.222 -30.898  1.00  0.00    -0.550 OA
ATOM      7  O   UNL     1       5.239  -6.904 -32.730  1.00  0.00    -0.550 OA
ENDBRANCH   4   5
ENDBRANCH   3   4
ENDBRANCH   2   3
ENDBRANCH   1   2
BRANCH   1   8
ATOM      8  C   UNL     1       7.658  -2.445 -35.841  1.00  0.00     0.000 C 
BRANCH   8   9
ATOM      9  C   UNL     1       8.904  -2.158 -36.692  1.00  0.00     0.000 C 
BRANCH   9  10
ATOM     10  C   UNL     1      10.078  -1.618 -35.859  1.00  0.00     0.006 C 
BRANCH  10  11
ATOM     11  C   UNL     1      11.398  -1.603 -36.642  1.00  0.00     0.053 C 
BRANCH  11  12
ATOM     12  C   UNL     1      12.559  -1.725 -35.705  1.00  0.00     0.041 C 
ATOM     13  O   UNL     1      13.726  -1.863 -36.158  1.00  0.00    -0.550 OA
ATOM     14  O   UNL     1      12.348  -1.735 -34.333  1.00  0.00    -0.550 OA
ENDBRANCH  11  12
ENDBRANCH  10  11
ENDBRANCH   9  10
ENDBRANCH   8   9
ENDBRANCH   1   8
TORSDOF 9
ENDMDL
MODEL 4
REMARK VINA RESULT:    -4.275      1.004      5.873
REMARK INTER + INTRA:          -7.084
REMARK INTER:                  -6.483
REMARK INTRA:                  -0.601
REMARK UNBOUND:                -0.560
REMARK SMILES O=C([O-])CCCCCCCCC(=O)[O-]
REMARK SMILES IDX 7 1 6 2 5 3 4 4 2 5 1 6 3 7 8 8 9 9 10 10 11 11 12 12 13 13
REMARK SMILES IDX 14 14
REMARK H PARENT
REMARK Flexibility Score: inf
ROOT
ATOM      1  C   UNL     1       6.541  -3.034 -36.163  1.00  0.00     0.000 C 
ENDROOT
BRANCH   1   2
ATOM      2  C   UNL     1       6.105  -3.693 -34.849  1.00  0.00     0.000 C 
BRANCH   2   3
ATOM      3  C   UNL     1       6.104  -5.223 -34.975  1.00  0.00     0.006 C 
BRANCH   3   4
ATOM      4  C   UNL     1       6.131  -5.919 -33.608  1.00  0.00     0.053 C 
BRANCH   4   5
ATOM      5  C   UNL     1       7.421  -5.676 -32.885  1.00  0.00     0.041 C 
ATOM      6  O   UNL     1       7.415  -5.186 -31.726  1.00  0.00    -0.550 OA
ATOM      7  O   UNL     1       8.630  -5.960 -33.507  1.00  0.00    -0.550 OA
ENDBRANCH   4   5
ENDBRANCH   3   4
ENDBRANCH   2   3
ENDBRANCH   1   2
BRANCH   1   8
ATOM      8  C   UNL     1       8.024  -2.644 -36.120  1.00  0.00     0.000 C 
BRANCH   8   9
ATOM      9  C   UNL     1       8.540  -2.609 -34.674  1.00  0.00     0.000 C 
BRANCH   9  10
ATOM     10  C   UNL     1       9.710  -1.628 -34.487  1.00  0.00     0.006 C 
BRANCH  10  11
ATOM     11  C   UNL     1      10.572  -1.492 -35.750  1.00  0.00     0.053 C 
BRANCH  11  12
ATOM     12  C   UNL     1      11.988  -1.879 -35.457  1.00  0.00     0.041 C 
ATOM     13  O   UNL     1      12.686  -2.443 -36.340  1.00  0.00    -0.550 OA
ATOM     14  O   UNL     1      12.522  -1.660 -34.194  1.00  0.00    -0.550 OA
ENDBRANCH  11  12
ENDBRANCH  10  11
ENDBRANCH   9  10
ENDBRANCH   8   9
ENDBRANCH   1   8
TORSDOF 9
ENDMDL
MODEL 5
REMARK VINA RESULT:    -4.210      3.665      4.734
REMARK INTER + INTRA:          -6.985
REMARK INTER:                  -6.283
REMARK INTRA:                  -0.702
REMARK UNBOUND:                -0.560
REMARK SMILES O=C([O-])CCCCCCCCC(=O)[O-]
REMARK SMILES IDX 7 1 6 2 5 3 4 4 2 5 1 6 3 7 8 8 9 9 10 10 11 11 12 12 13 13
REMARK SMILES IDX 14 14
REMARK H PARENT
REMARK Flexibility Score: inf
ROOT
ATOM      1  C   UNL     1       8.350  -4.829 -33.692  1.00  0.00     0.000 C 
ENDROOT
BRANCH   1   2
ATOM      2  C   UNL     1       7.332  -3.749 -33.307  1.00  0.00     0.000 C 
BRANCH   2   3
ATOM      3  C   UNL     1       6.808  -3.017 -34.551  1.00  0.00     0.006 C 
BRANCH   3   4
ATOM      4  C   UNL     1       5.396  -3.473 -34.942  1.00  0.00     0.053 C 
BRANCH   4   5
ATOM      5  C   UNL     1       4.875  -2.716 -36.126  1.00  0.00     0.041 C 
ATOM      6  O   UNL     1       3.637  -2.543 -36.271  1.00  0.00    -0.550 OA
ATOM      7  O   UNL     1       5.756  -2.233 -37.084  1.00  0.00    -0.550 OA
ENDBRANCH   4   5
ENDBRANCH   3   4
ENDBRANCH   2   3
ENDBRANCH   1   2
BRANCH   1   8
ATOM      8  C   UNL     1       8.340  -5.983 -32.681  1.00  0.00     0.000 C 
BRANCH   8   9
ATOM      9  C   UNL     1       7.269  -5.758 -31.603  1.00  0.00     0.000 C 
BRANCH   9  10
ATOM     10  C   UNL     1       6.233  -6.893 -31.552  1.00  0.00     0.006 C 
BRANCH  10  11
ATOM     11  C   UNL     1       5.313  -6.907 -32.781  1.00  0.00     0.053 C 
BRANCH  11  12
ATOM     12  C   UNL     1       5.382  -8.235 -33.468  1.00  0.00     0.041 C 
ATOM     13  O   UNL     1       5.057  -9.284 -32.852  1.00  0.00    -0.550 OA
ATOM     14  O   UNL     1       5.851  -8.319 -34.773  1.00  0.00    -0.550 OA
ENDBRANCH  11  12
ENDBRANCH  10  11
ENDBRANCH   9  10
ENDBRANCH   8   9
ENDBRANCH   1   8
TORSDOF 9
ENDMDL
MODEL 6
REMARK VINA RESULT:    -4.185      3.211      5.397
REMARK INTER + INTRA:          -6.947
REMARK INTER:                  -6.016
REMARK INTRA:                  -0.931
REMARK UNBOUND:                -0.560
REMARK SMILES O=C([O-])CCCCCCCCC(=O)[O-]
REMARK SMILES IDX 7 1 6 2 5 3 4 4 2 5 1 6 3 7 8 8 9 9 10 10 11 11 12 12 13 13
REMARK SMILES IDX 14 14
REMARK H PARENT
REMARK Flexibility Score: inf
ROOT
ATOM      1  C   UNL     1       5.131  -8.352 -33.248  1.00  0.00     0.000 C 
ENDROOT
BRANCH   1   2
ATOM      2  C   UNL     1       4.991  -8.405 -34.774  1.00  0.00     0.000 C 
BRANCH   2   3
ATOM      3  C   UNL     1       6.322  -8.070 -35.461  1.00  0.00     0.006 C 
BRANCH   3   4
ATOM      4  C   UNL     1       6.124  -7.279 -36.760  1.00  0.00     0.053 C 
BRANCH   4   5
ATOM      5  C   UNL     1       6.373  -5.815 -36.564  1.00  0.00     0.041 C 
ATOM      6  O   UNL     1       5.551  -5.114 -35.917  1.00  0.00    -0.550 OA
ATOM      7  O   UNL     1       7.494  -5.218 -37.126  1.00  0.00    -0.550 OA
ENDBRANCH   4   5
ENDBRANCH   3   4
ENDBRANCH   2   3
ENDBRANCH   1   2
BRANCH   1   8
ATOM      8  C   UNL     1       5.360  -6.914 -32.765  1.00  0.00     0.000 C 
BRANCH   8   9
ATOM      9  C   UNL     1       6.175  -6.894 -31.464  1.00  0.00     0.000 C 
BRANCH   9  10
ATOM     10  C   UNL     1       7.333  -5.885 -31.506  1.00  0.00     0.006 C 
BRANCH  10  11
ATOM     11  C   UNL     1       7.144  -4.815 -32.590  1.00  0.00     0.053 C 
BRANCH  11  12
ATOM     12  C   UNL     1       8.243  -4.901 -33.603  1.00  0.00     0.041 C 
ATOM     13  O   UNL     1       8.756  -6.015 -33.888  1.00  0.00    -0.550 OA
ATOM     14  O   UNL     1       8.734  -3.745 -34.196  1.00  0.00    -0.550 OA
ENDBRANCH  11  12
ENDBRANCH  10  11
ENDBRANCH   9  10
ENDBRANCH   8   9
ENDBRANCH   1   8
TORSDOF 9
ENDMDL
MODEL 7
REMARK VINA RESULT:    -4.184      3.303      4.095
REMARK INTER + INTRA:          -6.945
REMARK INTER:                  -6.001
REMARK INTRA:                  -0.944
REMARK UNBOUND:                -0.560
REMARK SMILES O=C([O-])CCCCCCCCC(=O)[O-]
REMARK SMILES IDX 7 1 6 2 5 3 4 4 2 5 1 6 3 7 8 8 9 9 10 10 11 11 12 12 13 13
REMARK SMILES IDX 14 14
REMARK H PARENT
REMARK Flexibility Score: inf
ROOT
ATOM      1  C   UNL     1       5.865  -3.138 -34.701  1.00  0.00     0.000 C 
ENDROOT
BRANCH   1   2
ATOM      2  C   UNL     1       6.593  -2.756 -35.995  1.00  0.00     0.000 C 
BRANCH   2   3
ATOM      3  C   UNL     1       6.245  -3.730 -37.130  1.00  0.00     0.006 C 
BRANCH   3   4
ATOM      4  C   UNL     1       7.332  -4.792 -37.340  1.00  0.00     0.053 C 
BRANCH   4   5
ATOM      5  C   UNL     1       6.966  -6.097 -36.702  1.00  0.00     0.041 C 
ATOM      6  O   UNL     1       7.847  -6.973 -36.501  1.00  0.00    -0.550 OA
ATOM      7  O   UNL     1       5.645  -6.358 -36.360  1.00  0.00    -0.550 OA
ENDBRANCH   4   5
ENDBRANCH   3   4
ENDBRANCH   2   3
ENDBRANCH   1   2
BRANCH   1   8
ATOM      8  C   UNL     1       6.817  -3.093 -33.499  1.00  0.00     0.000 C 
BRANCH   8   9
ATOM      9  C   UNL     1       8.116  -3.855 -33.798  1.00  0.00     0.000 C 
BRANCH   9  10
ATOM     10  C   UNL     1       8.081  -5.307 -33.292  1.00  0.00     0.006 C 
BRANCH  10  11
ATOM     11  C   UNL     1       7.472  -5.427 -31.889  1.00  0.00     0.053 C 
BRANCH  11  12
ATOM     12  C   UNL     1       6.418  -6.490 -31.869  1.00  0.00     0.041 C 
ATOM     13  O   UNL     1       6.387  -7.333 -30.934  1.00  0.00    -0.550 OA
ATOM     14  O   UNL     1       5.499  -6.578 -32.907  1.00  0.00    -0.550 OA
ENDBRANCH  11  12
ENDBRANCH  10  11
ENDBRANCH   9  10
ENDBRANCH   8   9
ENDBRANCH   1   8
TORSDOF 9
ENDMDL
MODEL 8
REMARK VINA RESULT:    -4.157     13.529     15.120
REMARK INTER + INTRA:          -6.904
REMARK INTER:                  -6.084
REMARK INTRA:                  -0.820
REMARK UNBOUND:                -0.560
REMARK SMILES O=C([O-])CCCCCCCCC(=O)[O-]
REMARK SMILES IDX 7 1 6 2 5 3 4 4 2 5 1 6 3 7 8 8 9 9 10 10 11 11 12 12 13 13
REMARK SMILES IDX 14 14
REMARK H PARENT
REMARK Flexibility Score: inf
ROOT
ATOM      1  C   UNL     1      15.182  -3.681 -19.418  1.00  0.00     0.000 C 
ENDROOT
BRANCH   1   2
ATOM      2  C   UNL     1      15.346  -2.405 -20.252  1.00  0.00     0.000 C 
BRANCH   2   3
ATOM      3  C   UNL     1      14.294  -2.337 -21.368  1.00  0.00     0.006 C 
BRANCH   3   4
ATOM      4  C   UNL     1      12.992  -3.051 -20.984  1.00  0.00     0.053 C 
BRANCH   4   5
ATOM      5  C   UNL     1      12.015  -2.116 -20.337  1.00  0.00     0.041 C 
ATOM      6  O   UNL     1      12.002  -1.980 -19.086  1.00  0.00    -0.550 OA
ATOM      7  O   UNL     1      11.098  -1.421 -21.115  1.00  0.00    -0.550 OA
ENDBRANCH   4   5
ENDBRANCH   3   4
ENDBRANCH   2   3
ENDBRANCH   1   2
BRANCH   1   8
ATOM      8  C   UNL     1      16.512  -4.437 -19.299  1.00  0.00     0.000 C 
BRANCH   8   9
ATOM      9  C   UNL     1      16.379  -5.871 -19.833  1.00  0.00     0.000 C 
BRANCH   9  10
ATOM     10  C   UNL     1      15.442  -5.966 -21.048  1.00  0.00     0.006 C 
BRANCH  10  11
ATOM     11  C   UNL     1      16.206  -6.051 -22.376  1.00  0.00     0.053 C 
BRANCH  11  12
ATOM     12  C   UNL     1      15.251  -6.015 -23.528  1.00  0.00     0.041 C 
ATOM     13  O   UNL     1      15.304  -6.901 -24.421  1.00  0.00    -0.550 OA
ATOM     14  O   UNL     1      14.336  -4.977 -23.641  1.00  0.00    -0.550 OA
ENDBRANCH  11  12
ENDBRANCH  10  11
ENDBRANCH   9  10
ENDBRANCH   8   9
ENDBRANCH   1   8
TORSDOF 9
ENDMDL
MODEL 9
REMARK VINA RESULT:    -4.150      1.689      5.383
REMARK INTER + INTRA:          -6.893
REMARK INTER:                  -6.090
REMARK INTRA:                  -0.803
REMARK UNBOUND:                -0.560
REMARK SMILES O=C([O-])CCCCCCCCC(=O)[O-]
REMARK SMILES IDX 7 1 6 2 5 3 4 4 2 5 1 6 3 7 8 8 9 9 10 10 11 11 12 12 13 13
REMARK SMILES IDX 14 14
REMARK H PARENT
REMARK Flexibility Score: inf
ROOT
ATOM      1  C   UNL     1       5.794  -3.153 -35.441  1.00  0.00     0.000 C 
ENDROOT
BRANCH   1   2
ATOM      2  C   UNL     1       6.202  -2.796 -34.007  1.00  0.00     0.000 C 
BRANCH   2   3
ATOM      3  C   UNL     1       6.764  -4.023 -33.274  1.00  0.00     0.006 C 
BRANCH   3   4
ATOM      4  C   UNL     1       6.549  -5.321 -34.062  1.00  0.00     0.053 C 
BRANCH   4   5
ATOM      5  C   UNL     1       7.841  -6.033 -34.324  1.00  0.00     0.041 C 
ATOM      6  O   UNL     1       7.981  -6.727 -35.365  1.00  0.00    -0.550 OA
ATOM      7  O   UNL     1       8.877  -5.957 -33.402  1.00  0.00    -0.550 OA
ENDBRANCH   4   5
ENDBRANCH   3   4
ENDBRANCH   2   3
ENDBRANCH   1   2
BRANCH   1   8
ATOM      8  C   UNL     1       6.649  -2.392 -36.463  1.00  0.00     0.000 C 
BRANCH   8   9
ATOM      9  C   UNL     1       8.041  -3.028 -36.598  1.00  0.00     0.000 C 
BRANCH   9  10
ATOM     10  C   UNL     1       9.176  -2.040 -36.284  1.00  0.00     0.006 C 
BRANCH  10  11
ATOM     11  C   UNL     1       9.599  -2.077 -34.809  1.00  0.00     0.053 C 
BRANCH  11  12
ATOM     12  C   UNL     1      11.038  -1.690 -34.671  1.00  0.00     0.041 C 
ATOM     13  O   UNL     1      11.919  -2.275 -35.354  1.00  0.00    -0.550 OA
ATOM     14  O   UNL     1      11.412  -0.717 -33.752  1.00  0.00    -0.550 OA
ENDBRANCH  11  12
ENDBRANCH  10  11
ENDBRANCH   9  10
ENDBRANCH   8   9
ENDBRANCH   1   8
TORSDOF 9
ENDMDL
