MODEL 1
REMARK VINA RESULT:    -4.640      0.000      0.000
REMARK INTER + INTRA:          -5.067
REMARK INTER:                  -4.912
REMARK INTRA:                  -0.156
REMARK UNBOUND:                -0.156
REMARK SMILES CC1=CCC(C(C)C)=CC1
REMARK SMILES IDX 1 1 2 2 3 3 4 4 5 5 9 6 10 7 6 8 7 9 8 10
REMARK H PARENT
REMARK Flexibility Score: inf
ROOT
ATOM      1  C   UNL     1      28.000  26.890  11.854  1.00  0.00     0.039 C 
ATOM      2  C   UNL     1      28.604  25.515  11.929  1.00  0.00    -0.073 C 
ATOM      3  C   UNL     1      29.744  25.223  11.272  1.00  0.00    -0.023 C 
ATOM      4  C   UNL     1      30.317  23.827  11.300  1.00  0.00     0.058 C 
ATOM      5  C   UNL     1      29.994  23.120  12.603  1.00  0.00    -0.068 C 
ATOM      6  C   UNL     1      28.842  23.414  13.247  1.00  0.00    -0.023 C 
ATOM      7  C   UNL     1      27.877  24.426  12.686  1.00  0.00     0.057 C 
ENDROOT
BRANCH   5   8
ATOM      8  C   UNL     1      30.953  22.068  13.138  1.00  0.00     0.009 C 
ATOM      9  C   UNL     1      32.012  22.696  14.052  1.00  0.00     0.012 C 
ATOM     10  C   UNL     1      30.201  20.939  13.856  1.00  0.00     0.012 C 
ENDBRANCH   5   8
TORSDOF 1
ENDMDL
MODEL 2
REMARK VINA RESULT:    -4.600      1.233      4.585
REMARK INTER + INTRA:          -5.025
REMARK INTER:                  -4.863
REMARK INTRA:                  -0.162
REMARK UNBOUND:                -0.156
REMARK SMILES CC1=CCC(C(C)C)=CC1
REMARK SMILES IDX 1 1 2 2 3 3 4 4 5 5 9 6 10 7 6 8 7 9 8 10
REMARK H PARENT
REMARK Flexibility Score: inf
ROOT
ATOM      1  C   UNL     1      29.905  21.925  13.706  1.00  0.00     0.039 C 
ATOM      2  C   UNL     1      29.658  23.163  12.888  1.00  0.00    -0.073 C 
ATOM      3  C   UNL     1      28.506  23.852  13.007  1.00  0.00    -0.023 C 
ATOM      4  C   UNL     1      28.235  25.060  12.143  1.00  0.00     0.058 C 
ATOM      5  C   UNL     1      29.518  25.787  11.786  1.00  0.00    -0.068 C 
ATOM      6  C   UNL     1      30.664  25.083  11.659  1.00  0.00    -0.023 C 
ATOM      7  C   UNL     1      30.683  23.589  11.861  1.00  0.00     0.057 C 
ENDROOT
BRANCH   5   8
ATOM      8  C   UNL     1      29.480  27.288  11.541  1.00  0.00     0.009 C 
ATOM      9  C   UNL     1      28.052  27.833  11.656  1.00  0.00     0.012 C 
ATOM     10  C   UNL     1      30.434  28.032  12.485  1.00  0.00     0.012 C 
ENDBRANCH   5   8
TORSDOF 1
ENDMDL
MODEL 3
REMARK VINA RESULT:    -4.596      1.687      3.193
REMARK INTER + INTRA:          -5.021
REMARK INTER:                  -4.851
REMARK INTRA:                  -0.170
REMARK UNBOUND:                -0.156
REMARK SMILES CC1=CCC(C(C)C)=CC1
REMARK SMILES IDX 1 1 2 2 3 3 4 4 5 5 9 6 10 7 6 8 7 9 8 10
REMARK H PARENT
REMARK Flexibility Score: inf
ROOT
ATOM      1  C   UNL     1      30.234  29.721  11.472  1.00  0.00     0.039 C 
ATOM      2  C   UNL     1      29.772  28.300  11.302  1.00  0.00    -0.073 C 
ATOM      3  C   UNL     1      30.639  27.326  10.960  1.00  0.00    -0.023 C 
ATOM      4  C   UNL     1      30.164  25.912  10.733  1.00  0.00     0.058 C 
ATOM      5  C   UNL     1      28.962  25.583  11.599  1.00  0.00    -0.068 C 
ATOM      6  C   UNL     1      28.094  26.566  11.926  1.00  0.00    -0.023 C 
ATOM      7  C   UNL     1      28.301  27.977  11.437  1.00  0.00     0.057 C 
ENDROOT
BRANCH   5   8
ATOM      8  C   UNL     1      28.739  24.148  12.049  1.00  0.00     0.009 C 
ATOM      9  C   UNL     1      29.998  23.570  12.705  1.00  0.00     0.012 C 
ATOM     10  C   UNL     1      27.527  24.038  12.985  1.00  0.00     0.012 C 
ENDBRANCH   5   8
TORSDOF 1
ENDMDL
MODEL 4
REMARK VINA RESULT:    -4.556      1.963      3.698
REMARK INTER + INTRA:          -4.978
REMARK INTER:                  -4.836
REMARK INTRA:                  -0.143
REMARK UNBOUND:                -0.156
REMARK SMILES CC1=CCC(C(C)C)=CC1
REMARK SMILES IDX 1 1 2 2 3 3 4 4 5 5 9 6 10 7 6 8 7 9 8 10
REMARK H PARENT
REMARK Flexibility Score: inf
ROOT
ATOM      1  C   UNL     1      30.252  30.047  11.145  1.00  0.00     0.039 C 
ATOM      2  C   UNL     1      29.792  28.687  11.593  1.00  0.00    -0.073 C 
ATOM      3  C   UNL     1      28.525  28.280  11.378  1.00  0.00    -0.023 C 
ATOM      4  C   UNL     1      28.049  26.938  11.880  1.00  0.00     0.058 C 
ATOM      5  C   UNL     1      29.175  25.922  11.903  1.00  0.00    -0.068 C 
ATOM      6  C   UNL     1      30.440  26.341  12.130  1.00  0.00    -0.023 C 
ATOM      7  C   UNL     1      30.742  27.800  12.364  1.00  0.00     0.057 C 
ENDROOT
BRANCH   5   8
ATOM      8  C   UNL     1      28.853  24.448  11.710  1.00  0.00     0.009 C 
ATOM      9  C   UNL     1      29.702  23.568  12.636  1.00  0.00     0.012 C 
ATOM     10  C   UNL     1      27.357  24.172  11.904  1.00  0.00     0.012 C 
ENDBRANCH   5   8
TORSDOF 1
ENDMDL
MODEL 5
REMARK VINA RESULT:    -4.480      1.239      4.380
REMARK INTER + INTRA:          -4.898
REMARK INTER:                  -4.755
REMARK INTRA:                  -0.143
REMARK UNBOUND:                -0.156
REMARK SMILES CC1=CCC(C(C)C)=CC1
REMARK SMILES IDX 1 1 2 2 3 3 4 4 5 5 9 6 10 7 6 8 7 9 8 10
REMARK H PARENT
REMARK Flexibility Score: inf
ROOT
ATOM      1  C   UNL     1      30.033  21.584  13.546  1.00  0.00     0.039 C 
ATOM      2  C   UNL     1      29.868  23.032  13.173  1.00  0.00    -0.073 C 
ATOM      3  C   UNL     1      30.933  23.785  12.833  1.00  0.00    -0.023 C 
ATOM      4  C   UNL     1      30.773  25.252  12.516  1.00  0.00     0.058 C 
ATOM      5  C   UNL     1      29.415  25.544  11.903  1.00  0.00    -0.068 C 
ATOM      6  C   UNL     1      28.353  24.788  12.260  1.00  0.00    -0.023 C 
ATOM      7  C   UNL     1      28.499  23.668  13.259  1.00  0.00     0.057 C 
ENDROOT
BRANCH   5   8
ATOM      8  C   UNL     1      29.270  26.703  10.931  1.00  0.00     0.009 C 
ATOM      9  C   UNL     1      28.331  27.781  11.487  1.00  0.00     0.012 C 
ATOM     10  C   UNL     1      30.636  27.298  10.561  1.00  0.00     0.012 C 
ENDBRANCH   5   8
TORSDOF 1
ENDMDL
MODEL 6
REMARK VINA RESULT:    -4.228      1.879      2.653
REMARK INTER + INTRA:          -4.631
REMARK INTER:                  -4.461
REMARK INTRA:                  -0.170
REMARK UNBOUND:                -0.156
REMARK SMILES CC1=CCC(C(C)C)=CC1
REMARK SMILES IDX 1 1 2 2 3 3 4 4 5 5 9 6 10 7 6 8 7 9 8 10
REMARK H PARENT
REMARK Flexibility Score: inf
ROOT
ATOM      1  C   UNL     1      29.880  29.464  11.860  1.00  0.00     0.039 C 
ATOM      2  C   UNL     1      30.130  27.980  11.861  1.00  0.00    -0.073 C 
ATOM      3  C   UNL     1      31.239  27.466  12.427  1.00  0.00    -0.023 C 
ATOM      4  C   UNL     1      31.516  25.983  12.375  1.00  0.00     0.058 C 
ATOM      5  C   UNL     1      30.231  25.177  12.363  1.00  0.00    -0.068 C 
ATOM      6  C   UNL     1      29.128  25.700  11.783  1.00  0.00    -0.023 C 
ATOM      7  C   UNL     1      29.161  27.066  11.145  1.00  0.00     0.057 C 
ENDROOT
BRANCH   5   8
ATOM      8  C   UNL     1      30.220  23.782  12.970  1.00  0.00     0.009 C 
ATOM      9  C   UNL     1      31.218  23.673  14.129  1.00  0.00     0.012 C 
ATOM     10  C   UNL     1      28.809  23.378  13.415  1.00  0.00     0.012 C 
ENDBRANCH   5   8
TORSDOF 1
ENDMDL
MODEL 7
REMARK VINA RESULT:    -4.125      1.314      2.442
REMARK INTER + INTRA:          -4.522
REMARK INTER:                  -4.353
REMARK INTRA:                  -0.169
REMARK UNBOUND:                -0.156
REMARK SMILES CC1=CCC(C(C)C)=CC1
REMARK SMILES IDX 1 1 2 2 3 3 4 4 5 5 9 6 10 7 6 8 7 9 8 10
REMARK H PARENT
REMARK Flexibility Score: inf
ROOT
ATOM      1  C   UNL     1      27.701  25.072  12.001  1.00  0.00     0.039 C 
ATOM      2  C   UNL     1      28.894  24.229  12.361  1.00  0.00    -0.073 C 
ATOM      3  C   UNL     1      28.842  23.359  13.388  1.00  0.00    -0.023 C 
ATOM      4  C   UNL     1      30.058  22.558  13.785  1.00  0.00     0.058 C 
ATOM      5  C   UNL     1      30.944  22.262  12.590  1.00  0.00    -0.068 C 
ATOM      6  C   UNL     1      30.996  23.149  11.570  1.00  0.00    -0.023 C 
ATOM      7  C   UNL     1      30.192  24.424  11.610  1.00  0.00     0.057 C 
ENDROOT
BRANCH   5   8
ATOM      8  C   UNL     1      31.785  20.995  12.579  1.00  0.00     0.009 C 
ATOM      9  C   UNL     1      31.144  19.897  13.437  1.00  0.00     0.012 C 
ATOM     10  C   UNL     1      32.036  20.503  11.148  1.00  0.00     0.012 C 
ENDBRANCH   5   8
TORSDOF 1
ENDMDL
MODEL 8
REMARK VINA RESULT:    -3.867      2.692      5.398
REMARK INTER + INTRA:          -4.248
REMARK INTER:                  -4.096
REMARK INTRA:                  -0.153
REMARK UNBOUND:                -0.156
REMARK SMILES CC1=CCC(C(C)C)=CC1
REMARK SMILES IDX 1 1 2 2 3 3 4 4 5 5 9 6 10 7 6 8 7 9 8 10
REMARK H PARENT
REMARK Flexibility Score: inf
ROOT
ATOM      1  C   UNL     1      28.411  24.133  11.807  1.00  0.00     0.039 C 
ATOM      2  C   UNL     1      29.068  25.483  11.900  1.00  0.00    -0.073 C 
ATOM      3  C   UNL     1      30.395  25.594  12.109  1.00  0.00    -0.023 C 
ATOM      4  C   UNL     1      31.043  26.948  12.261  1.00  0.00     0.058 C 
ATOM      5  C   UNL     1      30.315  28.007  11.455  1.00  0.00    -0.068 C 
ATOM      6  C   UNL     1      28.983  27.890  11.261  1.00  0.00    -0.023 C 
ATOM      7  C   UNL     1      28.214  26.729  11.839  1.00  0.00     0.057 C 
ENDROOT
BRANCH   5   8
ATOM      8  C   UNL     1      31.091  29.197  10.913  1.00  0.00     0.009 C 
ATOM      9  C   UNL     1      31.549  28.952   9.470  1.00  0.00     0.012 C 
ATOM     10  C   UNL     1      30.277  30.493  11.023  1.00  0.00     0.012 C 
ENDBRANCH   5   8
TORSDOF 1
ENDMDL
MODEL 9
REMARK VINA RESULT:    -3.859      1.360      2.436
REMARK INTER + INTRA:          -4.241
REMARK INTER:                  -4.084
REMARK INTRA:                  -0.156
REMARK UNBOUND:                -0.156
REMARK SMILES CC1=CCC(C(C)C)=CC1
REMARK SMILES IDX 1 1 2 2 3 3 4 4 5 5 9 6 10 7 6 8 7 9 8 10
REMARK H PARENT
REMARK Flexibility Score: inf
ROOT
ATOM      1  C   UNL     1      28.323  28.245  11.192  1.00  0.00     0.039 C 
ATOM      2  C   UNL     1      28.951  27.021  11.801  1.00  0.00    -0.073 C 
ATOM      3  C   UNL     1      28.255  25.873  11.919  1.00  0.00    -0.023 C 
ATOM      4  C   UNL     1      28.867  24.664  12.584  1.00  0.00     0.058 C 
ATOM      5  C   UNL     1      30.370  24.619  12.382  1.00  0.00    -0.068 C 
ATOM      6  C   UNL     1      31.057  25.778  12.275  1.00  0.00    -0.023 C 
ATOM      7  C   UNL     1      30.353  27.108  12.360  1.00  0.00     0.057 C 
ENDROOT
BRANCH   5   8
ATOM      8  C   UNL     1      31.077  23.273  12.342  1.00  0.00     0.009 C 
ATOM      9  C   UNL     1      30.291  22.210  13.119  1.00  0.00     0.012 C 
ATOM     10  C   UNL     1      31.339  22.822  10.899  1.00  0.00     0.012 C 
ENDBRANCH   5   8
TORSDOF 1
ENDMDL
