MODEL 1
REMARK VINA RESULT:     4.706      0.000      0.000
REMARK INTER + INTRA:          12.417
REMARK INTER:                  11.860
REMARK INTRA:                   0.557
REMARK UNBOUND:                 0.557
REMARK SMILES CCCCCCCCCCCCCCCCCCCCCCCCCCCC(=O)[O-]
REMARK SMILES IDX 15 1 16 2 17 3 18 4 19 5 20 6 21 7 22 8 23 9 24 10 25 11
REMARK SMILES IDX 26 12 27 13 28 14 29 15 30 16 14 17 13 18 12 19 11 20 10 21
REMARK SMILES IDX 9 22 8 23 7 24 6 25 5 26 4 27 3 28 2 29 1 30
REMARK H PARENT
REMARK Flexibility Score: inf
ROOT
ATOM      1  C   UNL     1       5.944 -33.733  22.713  1.00  0.00     0.000 C 
ENDROOT
BRANCH   1   2
ATOM      2  C   UNL     1       6.005 -34.721  23.888  1.00  0.00     0.000 C 
BRANCH   2   3
ATOM      3  C   UNL     1       5.485 -36.106  23.471  1.00  0.00     0.000 C 
BRANCH   3   4
ATOM      4  C   UNL     1       6.002 -36.535  22.086  1.00  0.00     0.000 C 
BRANCH   4   5
ATOM      5  C   UNL     1       4.876 -37.065  21.179  1.00  0.00     0.000 C 
BRANCH   5   6
ATOM      6  C   UNL     1       5.352 -38.210  20.258  1.00  0.00     0.000 C 
BRANCH   6   7
ATOM      7  C   UNL     1       5.509 -39.562  20.980  1.00  0.00     0.000 C 
BRANCH   7   8
ATOM      8  C   UNL     1       4.564 -39.771  22.176  1.00  0.00     0.000 C 
BRANCH   8   9
ATOM      9  C   UNL     1       5.316 -40.149  23.464  1.00  0.00     0.000 C 
BRANCH   9  10
ATOM     10  C   UNL     1       4.663 -39.557  24.724  1.00  0.00     0.000 C 
BRANCH  10  11
ATOM     11  C   UNL     1       5.300 -38.225  25.151  1.00  0.00     0.000 C 
BRANCH  11  12
ATOM     12  C   UNL     1       4.304 -37.376  25.957  1.00  0.00     0.006 C 
BRANCH  12  13
ATOM     13  C   UNL     1       3.564 -38.200  27.020  1.00  0.00     0.053 C 
BRANCH  13  14
ATOM     14  C   UNL     1       2.188 -37.668  27.280  1.00  0.00     0.041 C 
ATOM     15  O   UNL     1       1.174 -38.353  26.977  1.00  0.00    -0.550 OA
ATOM     16  O   UNL     1       2.026 -36.423  27.877  1.00  0.00    -0.550 OA
ENDBRANCH  13  14
ENDBRANCH  12  13
ENDBRANCH  11  12
ENDBRANCH  10  11
ENDBRANCH   9  10
ENDBRANCH   8   9
ENDBRANCH   7   8
ENDBRANCH   6   7
ENDBRANCH   5   6
ENDBRANCH   4   5
ENDBRANCH   3   4
ENDBRANCH   2   3
ENDBRANCH   1   2
BRANCH   1  17
ATOM     17  C   UNL     1       4.531 -33.174  22.477  1.00  0.00     0.000 C 
BRANCH  17  18
ATOM     18  C   UNL     1       3.627 -34.149  21.703  1.00  0.00     0.000 C 
BRANCH  18  19
ATOM     19  C   UNL     1       3.736 -33.983  20.177  1.00  0.00     0.000 C 
BRANCH  19  20
ATOM     20  C   UNL     1       4.979 -34.629  19.531  1.00  0.00     0.000 C 
BRANCH  20  21
ATOM     21  C   UNL     1       5.069 -34.491  18.001  1.00  0.00     0.000 C 
BRANCH  21  22
ATOM     22  C   UNL     1       3.814 -34.942  17.228  1.00  0.00    -0.000 C 
BRANCH  22  23
ATOM     23  C   UNL     1       4.049 -36.150  16.295  1.00  0.00    -0.000 C 
BRANCH  23  24
ATOM     24  C   UNL     1       3.538 -35.902  14.864  1.00  0.00    -0.000 C 
BRANCH  24  25
ATOM     25  C   UNL     1       2.335 -36.792  14.509  1.00  0.00    -0.000 C 
BRANCH  25  26
ATOM     26  C   UNL     1       2.752 -38.222  14.132  1.00  0.00    -0.000 C 
BRANCH  26  27
ATOM     27  C   UNL     1       4.226 -38.473  14.482  1.00  0.00    -0.000 C 
BRANCH  27  28
ATOM     28  C   UNL     1       4.776 -39.778  13.875  1.00  0.00    -0.000 C 
BRANCH  28  29
ATOM     29  C   UNL     1       4.873 -40.957  14.858  1.00  0.00    -0.003 C 
ATOM     30  C   UNL     1       5.382 -42.242  14.204  1.00  0.00     0.004 C 
ENDBRANCH  28  29
ENDBRANCH  27  28
ENDBRANCH  26  27
ENDBRANCH  25  26
ENDBRANCH  24  25
ENDBRANCH  23  24
ENDBRANCH  22  23
ENDBRANCH  21  22
ENDBRANCH  20  21
ENDBRANCH  19  20
ENDBRANCH  18  19
ENDBRANCH  17  18
ENDBRANCH   1  17
TORSDOF 26
ENDMDL
