MODEL 1
REMARK VINA RESULT:    -4.466      0.000      0.000
REMARK INTER + INTRA:          -7.662
REMARK INTER:                  -6.293
REMARK INTRA:                  -1.368
REMARK UNBOUND:                -1.368
REMARK SMILES C=CC(=C)CCC=C(C)CCC=C(C)C
REMARK SMILES IDX 8 1 7 2 9 3 10 4 11 5 12 6 14 7 13 8 15 9 6 10 5 11 3 12
REMARK SMILES IDX 4 13 2 14 1 15
REMARK H PARENT
REMARK Flexibility Score: inf
ROOT
ATOM      1  C   UNL     1      31.686   8.397  33.519  1.00  0.00    -0.077 C 
ATOM      2  C   UNL     1      32.453   9.245  32.796  1.00  0.00    -0.028 C 
ATOM      3  C   UNL     1      31.259   8.715  34.933  1.00  0.00     0.039 C 
ENDROOT
BRANCH   1   4
ATOM      4  C   UNL     1      31.260   7.083  32.900  1.00  0.00     0.034 C 
BRANCH   4   5
ATOM      5  C   UNL     1      30.468   7.320  31.611  1.00  0.00     0.032 C 
BRANCH   5   6
ATOM      6  C   UNL     1      31.208   6.766  30.419  1.00  0.00    -0.028 C 
ATOM      7  C   UNL     1      31.888   6.581  28.064  1.00  0.00     0.039 C 
ATOM      8  C   UNL     1      31.049   7.205  29.151  1.00  0.00    -0.080 C 
ATOM      9  C   UNL     1      30.051   8.282  28.794  1.00  0.00     0.039 C 
ENDBRANCH   5   6
ENDBRANCH   4   5
ENDBRANCH   1   4
BRANCH   2  10
ATOM     10  C   UNL     1      32.914  10.599  33.276  1.00  0.00     0.032 C 
BRANCH  10  11
ATOM     11  C   UNL     1      31.824  11.654  33.056  1.00  0.00     0.039 C 
BRANCH  11  12
ATOM     12  C   UNL     1      31.672  11.969  31.584  1.00  0.00    -0.055 C 
ATOM     13  C   UNL     1      32.689  12.547  30.936  1.00  0.00     0.012 C 
BRANCH  12  14
ATOM     14  C   UNL     1      30.448  11.616  30.820  1.00  0.00    -0.005 C 
ATOM     15  C   UNL     1      29.418  10.940  31.331  1.00  0.00     0.009 C 
ENDBRANCH  12  14
ENDBRANCH  11  12
ENDBRANCH  10  11
ENDBRANCH   2  10
TORSDOF 7
ENDMDL
MODEL 2
REMARK VINA RESULT:    -4.434      0.953      3.530
REMARK INTER + INTRA:          -7.617
REMARK INTER:                  -6.256
REMARK INTRA:                  -1.361
REMARK UNBOUND:                -1.368
REMARK SMILES C=CC(=C)CCC=C(C)CCC=C(C)C
REMARK SMILES IDX 8 1 7 2 9 3 10 4 11 5 12 6 14 7 13 8 15 9 6 10 5 11 3 12
REMARK SMILES IDX 4 13 2 14 1 15
REMARK H PARENT
REMARK Flexibility Score: inf
ROOT
ATOM      1  C   UNL     1      30.342  11.478  31.068  1.00  0.00    -0.077 C 
ATOM      2  C   UNL     1      31.638  11.676  31.402  1.00  0.00    -0.028 C 
ATOM      3  C   UNL     1      29.272  11.267  32.113  1.00  0.00     0.039 C 
ENDROOT
BRANCH   1   4
ATOM      4  C   UNL     1      29.957  11.448  29.605  1.00  0.00     0.034 C 
BRANCH   4   5
ATOM      5  C   UNL     1      29.266  10.127  29.251  1.00  0.00     0.032 C 
BRANCH   5   6
ATOM      6  C   UNL     1      30.117   8.951  29.661  1.00  0.00    -0.028 C 
ATOM      7  C   UNL     1      31.284   6.804  29.401  1.00  0.00     0.039 C 
ATOM      8  C   UNL     1      30.381   7.888  28.870  1.00  0.00    -0.080 C 
ATOM      9  C   UNL     1      29.789   7.751  27.486  1.00  0.00     0.039 C 
ENDBRANCH   5   6
ENDBRANCH   4   5
ENDBRANCH   1   4
BRANCH   2  10
ATOM     10  C   UNL     1      32.150  11.765  32.818  1.00  0.00     0.032 C 
BRANCH  10  11
ATOM     11  C   UNL     1      32.936  10.503  33.192  1.00  0.00     0.039 C 
BRANCH  11  12
ATOM     12  C   UNL     1      32.003   9.415  33.676  1.00  0.00    -0.055 C 
ATOM     13  C   UNL     1      31.416   9.546  34.871  1.00  0.00     0.012 C 
BRANCH  12  14
ATOM     14  C   UNL     1      31.677   8.224  32.849  1.00  0.00    -0.005 C 
ATOM     15  C   UNL     1      31.851   6.965  33.253  1.00  0.00     0.009 C 
ENDBRANCH  12  14
ENDBRANCH  11  12
ENDBRANCH  10  11
ENDBRANCH   2  10
TORSDOF 7
ENDMDL
MODEL 3
REMARK VINA RESULT:    -4.432      1.527      4.570
REMARK INTER + INTRA:          -7.615
REMARK INTER:                  -6.448
REMARK INTRA:                  -1.167
REMARK UNBOUND:                -1.368
REMARK SMILES C=CC(=C)CCC=C(C)CCC=C(C)C
REMARK SMILES IDX 8 1 7 2 9 3 10 4 11 5 12 6 14 7 13 8 15 9 6 10 5 11 3 12
REMARK SMILES IDX 4 13 2 14 1 15
REMARK H PARENT
REMARK Flexibility Score: inf
ROOT
ATOM      1  C   UNL     1      31.857   9.926  32.555  1.00  0.00    -0.077 C 
ATOM      2  C   UNL     1      31.387   8.658  32.572  1.00  0.00    -0.028 C 
ATOM      3  C   UNL     1      33.081  10.334  33.342  1.00  0.00     0.039 C 
ENDROOT
BRANCH   1   4
ATOM      4  C   UNL     1      31.125  10.970  31.741  1.00  0.00     0.034 C 
BRANCH   4   5
ATOM      5  C   UNL     1      29.749  10.455  31.306  1.00  0.00     0.032 C 
BRANCH   5   6
ATOM      6  C   UNL     1      29.546  10.657  29.825  1.00  0.00    -0.028 C 
ATOM      7  C   UNL     1      29.367  10.018  27.458  1.00  0.00     0.039 C 
ATOM      8  C   UNL     1      29.636   9.675  28.902  1.00  0.00    -0.080 C 
ATOM      9  C   UNL     1      30.010   8.258  29.272  1.00  0.00     0.039 C 
ENDBRANCH   5   6
ENDBRANCH   4   5
ENDBRANCH   1   4
BRANCH   2  10
ATOM     10  C   UNL     1      32.040   7.515  33.309  1.00  0.00     0.032 C 
BRANCH  10  11
ATOM     11  C   UNL     1      31.029   6.804  34.215  1.00  0.00     0.039 C 
BRANCH  11  12
ATOM     12  C   UNL     1      31.254   7.174  35.664  1.00  0.00    -0.055 C 
ATOM     13  C   UNL     1      31.703   6.242  36.511  1.00  0.00     0.012 C 
BRANCH  12  14
ATOM     14  C   UNL     1      31.038   8.554  36.173  1.00  0.00    -0.005 C 
ATOM     15  C   UNL     1      31.801   9.136  37.098  1.00  0.00     0.009 C 
ENDBRANCH  12  14
ENDBRANCH  11  12
ENDBRANCH  10  11
ENDBRANCH   2  10
TORSDOF 7
ENDMDL
MODEL 4
REMARK VINA RESULT:    -4.418      2.669      5.549
REMARK INTER + INTRA:          -7.594
REMARK INTER:                  -5.530
REMARK INTRA:                  -2.065
REMARK UNBOUND:                -1.368
REMARK SMILES C=CC(=C)CCC=C(C)CCC=C(C)C
REMARK SMILES IDX 8 1 7 2 9 3 10 4 11 5 12 6 14 7 13 8 15 9 6 10 5 11 3 12
REMARK SMILES IDX 4 13 2 14 1 15
REMARK H PARENT
REMARK Flexibility Score: inf
ROOT
ATOM      1  C   UNL     1      31.028   6.659  35.234  1.00  0.00    -0.077 C 
ATOM      2  C   UNL     1      29.767   7.137  35.341  1.00  0.00    -0.028 C 
ATOM      3  C   UNL     1      31.800   6.167  36.436  1.00  0.00     0.039 C 
ENDROOT
BRANCH   1   4
ATOM      4  C   UNL     1      31.691   6.632  33.874  1.00  0.00     0.034 C 
BRANCH   4   5
ATOM      5  C   UNL     1      31.126   7.734  32.971  1.00  0.00     0.032 C 
BRANCH   5   6
ATOM      6  C   UNL     1      32.073   8.905  32.899  1.00  0.00    -0.028 C 
ATOM      7  C   UNL     1      32.844  11.216  33.227  1.00  0.00     0.039 C 
ATOM      8  C   UNL     1      31.780  10.152  33.327  1.00  0.00    -0.080 C 
ATOM      9  C   UNL     1      30.421  10.509  33.884  1.00  0.00     0.039 C 
ENDBRANCH   5   6
ENDBRANCH   4   5
ENDBRANCH   1   4
BRANCH   2  10
ATOM     10  C   UNL     1      28.978   7.184  36.626  1.00  0.00     0.032 C 
BRANCH  10  11
ATOM     11  C   UNL     1      28.842   8.626  37.127  1.00  0.00     0.039 C 
BRANCH  11  12
ATOM     12  C   UNL     1      30.023   9.007  37.994  1.00  0.00    -0.055 C 
ATOM     13  C   UNL     1      30.247   8.324  39.122  1.00  0.00     0.012 C 
BRANCH  12  14
ATOM     14  C   UNL     1      30.972  10.084  37.612  1.00  0.00    -0.005 C 
ATOM     15  C   UNL     1      32.156   9.866  37.038  1.00  0.00     0.009 C 
ENDBRANCH  12  14
ENDBRANCH  11  12
ENDBRANCH  10  11
ENDBRANCH   2  10
TORSDOF 7
ENDMDL
MODEL 5
REMARK VINA RESULT:    -4.375      1.782      5.658
REMARK INTER + INTRA:          -7.534
REMARK INTER:                  -6.204
REMARK INTRA:                  -1.329
REMARK UNBOUND:                -1.368
REMARK SMILES C=CC(=C)CCC=C(C)CCC=C(C)C
REMARK SMILES IDX 8 1 7 2 9 3 10 4 11 5 12 6 14 7 13 8 15 9 6 10 5 11 3 12
REMARK SMILES IDX 4 13 2 14 1 15
REMARK H PARENT
REMARK Flexibility Score: inf
ROOT
ATOM      1  C   UNL     1      30.917   7.138  30.564  1.00  0.00    -0.077 C 
ATOM      2  C   UNL     1      31.562   6.312  29.708  1.00  0.00    -0.028 C 
ATOM      3  C   UNL     1      30.504   8.535  30.165  1.00  0.00     0.039 C 
ENDROOT
BRANCH   1   4
ATOM      4  C   UNL     1      30.617   6.654  31.965  1.00  0.00     0.034 C 
BRANCH   4   5
ATOM      5  C   UNL     1      31.752   7.028  32.924  1.00  0.00     0.032 C 
BRANCH   5   6
ATOM      6  C   UNL     1      31.272   8.007  33.966  1.00  0.00    -0.028 C 
ATOM      7  C   UNL     1      31.019  10.185  35.077  1.00  0.00     0.039 C 
ATOM      8  C   UNL     1      31.610   9.315  33.996  1.00  0.00    -0.080 C 
ATOM      9  C   UNL     1      32.566   9.920  32.994  1.00  0.00     0.039 C 
ENDBRANCH   5   6
ENDBRANCH   4   5
ENDBRANCH   1   4
BRANCH   2  10
ATOM     10  C   UNL     1      31.888   6.653  28.275  1.00  0.00     0.032 C 
BRANCH  10  11
ATOM     11  C   UNL     1      30.969   5.893  27.313  1.00  0.00     0.039 C 
BRANCH  11  12
ATOM     12  C   UNL     1      29.881   6.799  26.780  1.00  0.00    -0.055 C 
ATOM     13  C   UNL     1      28.622   6.351  26.741  1.00  0.00     0.012 C 
BRANCH  12  14
ATOM     14  C   UNL     1      30.155   8.193  26.341  1.00  0.00    -0.005 C 
ATOM     15  C   UNL     1      29.426   9.247  26.709  1.00  0.00     0.009 C 
ENDBRANCH  12  14
ENDBRANCH  11  12
ENDBRANCH  10  11
ENDBRANCH   2  10
TORSDOF 7
ENDMDL
MODEL 6
REMARK VINA RESULT:    -4.322      2.299      4.362
REMARK INTER + INTRA:          -7.459
REMARK INTER:                  -5.257
REMARK INTRA:                  -2.202
REMARK UNBOUND:                -1.368
REMARK SMILES C=CC(=C)CCC=C(C)CCC=C(C)C
REMARK SMILES IDX 8 1 7 2 9 3 10 4 11 5 12 6 14 7 13 8 15 9 6 10 5 11 3 12
REMARK SMILES IDX 4 13 2 14 1 15
REMARK H PARENT
REMARK Flexibility Score: inf
ROOT
ATOM      1  C   UNL     1      30.510   7.010  35.480  1.00  0.00    -0.077 C 
ATOM      2  C   UNL     1      31.510   7.693  36.080  1.00  0.00    -0.028 C 
ATOM      3  C   UNL     1      29.143   6.879  36.110  1.00  0.00     0.039 C 
ENDROOT
BRANCH   1   4
ATOM      4  C   UNL     1      30.772   6.341  34.149  1.00  0.00     0.034 C 
BRANCH   4   5
ATOM      5  C   UNL     1      31.825   7.114  33.349  1.00  0.00     0.032 C 
BRANCH   5   6
ATOM      6  C   UNL     1      31.173   8.143  32.459  1.00  0.00    -0.028 C 
ATOM      7  C   UNL     1      30.838  10.341  31.412  1.00  0.00     0.039 C 
ATOM      8  C   UNL     1      31.559   9.435  32.377  1.00  0.00    -0.080 C 
ATOM      9  C   UNL     1      32.674   9.995  33.231  1.00  0.00     0.039 C 
ENDBRANCH   5   6
ENDBRANCH   4   5
ENDBRANCH   1   4
BRANCH   2  10
ATOM     10  C   UNL     1      31.374   8.437  37.386  1.00  0.00     0.032 C 
BRANCH  10  11
ATOM     11  C   UNL     1      31.501   9.948  37.166  1.00  0.00     0.039 C 
BRANCH  11  12
ATOM     12  C   UNL     1      30.165  10.550  36.788  1.00  0.00    -0.055 C 
ATOM     13  C   UNL     1      29.280  10.824  37.752  1.00  0.00     0.012 C 
BRANCH  12  14
ATOM     14  C   UNL     1      29.818  10.891  35.384  1.00  0.00    -0.005 C 
ATOM     15  C   UNL     1      28.836  10.309  34.696  1.00  0.00     0.009 C 
ENDBRANCH  12  14
ENDBRANCH  11  12
ENDBRANCH  10  11
ENDBRANCH   2  10
TORSDOF 7
ENDMDL
MODEL 7
REMARK VINA RESULT:    -4.307      1.775      4.526
REMARK INTER + INTRA:          -7.439
REMARK INTER:                  -6.552
REMARK INTRA:                  -0.887
REMARK UNBOUND:                -1.368
REMARK SMILES C=CC(=C)CCC=C(C)CCC=C(C)C
REMARK SMILES IDX 8 1 7 2 9 3 10 4 11 5 12 6 14 7 13 8 15 9 6 10 5 11 3 12
REMARK SMILES IDX 4 13 2 14 1 15
REMARK H PARENT
REMARK Flexibility Score: inf
ROOT
ATOM      1  C   UNL     1      31.249   8.815  31.916  1.00  0.00    -0.077 C 
ATOM      2  C   UNL     1      31.266   7.503  32.245  1.00  0.00    -0.028 C 
ATOM      3  C   UNL     1      31.891   9.865  32.792  1.00  0.00     0.039 C 
ENDROOT
BRANCH   1   4
ATOM      4  C   UNL     1      30.552   9.244  30.644  1.00  0.00     0.034 C 
BRANCH   4   5
ATOM      5  C   UNL     1      30.045   8.028  29.863  1.00  0.00     0.032 C 
BRANCH   5   6
ATOM      6  C   UNL     1      30.063   8.299  28.379  1.00  0.00    -0.028 C 
ATOM      7  C   UNL     1      30.731   8.001  26.033  1.00  0.00     0.039 C 
ATOM      8  C   UNL     1      30.852   7.651  27.494  1.00  0.00    -0.080 C 
ATOM      9  C   UNL     1      31.853   6.606  27.928  1.00  0.00     0.039 C 
ENDBRANCH   5   6
ENDBRANCH   4   5
ENDBRANCH   1   4
BRANCH   2  10
ATOM     10  C   UNL     1      31.955   6.936  33.461  1.00  0.00     0.032 C 
BRANCH  10  11
ATOM     11  C   UNL     1      30.929   6.460  34.495  1.00  0.00     0.039 C 
BRANCH  11  12
ATOM     12  C   UNL     1      31.318   6.915  35.885  1.00  0.00    -0.055 C 
ATOM     13  C   UNL     1      31.626   5.997  36.807  1.00  0.00     0.012 C 
BRANCH  12  14
ATOM     14  C   UNL     1      31.415   8.352  36.250  1.00  0.00    -0.005 C 
ATOM     15  C   UNL     1      31.346   8.811  37.501  1.00  0.00     0.009 C 
ENDBRANCH  12  14
ENDBRANCH  11  12
ENDBRANCH  10  11
ENDBRANCH   2  10
TORSDOF 7
ENDMDL
MODEL 8
REMARK VINA RESULT:    -4.302      1.925      5.388
REMARK INTER + INTRA:          -7.431
REMARK INTER:                  -5.977
REMARK INTRA:                  -1.453
REMARK UNBOUND:                -1.368
REMARK SMILES C=CC(=C)CCC=C(C)CCC=C(C)C
REMARK SMILES IDX 8 1 7 2 9 3 10 4 11 5 12 6 14 7 13 8 15 9 6 10 5 11 3 12
REMARK SMILES IDX 4 13 2 14 1 15
REMARK H PARENT
REMARK Flexibility Score: inf
ROOT
ATOM      1  C   UNL     1      30.701   6.591  28.426  1.00  0.00    -0.077 C 
ATOM      2  C   UNL     1      31.284   7.276  27.415  1.00  0.00    -0.028 C 
ATOM      3  C   UNL     1      29.250   6.172  28.373  1.00  0.00     0.039 C 
ENDROOT
BRANCH   1   4
ATOM      4  C   UNL     1      31.520   6.250  29.651  1.00  0.00     0.034 C 
BRANCH   4   5
ATOM      5  C   UNL     1      30.758   6.605  30.932  1.00  0.00     0.032 C 
BRANCH   5   6
ATOM      6  C   UNL     1      31.237   7.921  31.492  1.00  0.00    -0.028 C 
ATOM      7  C   UNL     1      32.193   9.459  33.154  1.00  0.00     0.039 C 
ATOM      8  C   UNL     1      31.711   8.090  32.746  1.00  0.00    -0.080 C 
ATOM      9  C   UNL     1      31.757   6.956  33.745  1.00  0.00     0.039 C 
ENDBRANCH   5   6
ENDBRANCH   4   5
ENDBRANCH   1   4
BRANCH   2  10
ATOM     10  C   UNL     1      30.594   7.645  26.126  1.00  0.00     0.032 C 
BRANCH  10  11
ATOM     11  C   UNL     1      30.491   9.168  25.982  1.00  0.00     0.039 C 
BRANCH  11  12
ATOM     12  C   UNL     1      29.305   9.700  26.755  1.00  0.00    -0.055 C 
ATOM     13  C   UNL     1      28.070   9.383  26.351  1.00  0.00     0.012 C 
BRANCH  12  14
ATOM     14  C   UNL     1      29.463  10.527  27.980  1.00  0.00    -0.005 C 
ATOM     15  C   UNL     1      29.413  10.041  29.220  1.00  0.00     0.009 C 
ENDBRANCH  12  14
ENDBRANCH  11  12
ENDBRANCH  10  11
ENDBRANCH   2  10
TORSDOF 7
ENDMDL
MODEL 9
REMARK VINA RESULT:    -4.295      1.859      3.554
REMARK INTER + INTRA:          -7.421
REMARK INTER:                  -6.428
REMARK INTRA:                  -0.992
REMARK UNBOUND:                -1.368
REMARK SMILES C=CC(=C)CCC=C(C)CCC=C(C)C
REMARK SMILES IDX 8 1 7 2 9 3 10 4 11 5 12 6 14 7 13 8 15 9 6 10 5 11 3 12
REMARK SMILES IDX 4 13 2 14 1 15
REMARK H PARENT
REMARK Flexibility Score: inf
ROOT
ATOM      1  C   UNL     1      30.851   7.529  29.825  1.00  0.00    -0.077 C 
ATOM      2  C   UNL     1      31.143   7.295  31.125  1.00  0.00    -0.028 C 
ATOM      3  C   UNL     1      30.101   8.765  29.386  1.00  0.00     0.039 C 
ENDROOT
BRANCH   1   4
ATOM      4  C   UNL     1      31.272   6.516  28.783  1.00  0.00     0.034 C 
BRANCH   4   5
ATOM      5  C   UNL     1      30.048   5.919  28.079  1.00  0.00     0.032 C 
BRANCH   5   6
ATOM      6  C   UNL     1      30.258   5.876  26.586  1.00  0.00    -0.028 C 
ATOM      7  C   UNL     1      30.093   6.637  24.255  1.00  0.00     0.039 C 
ATOM      8  C   UNL     1      29.767   6.788  25.720  1.00  0.00    -0.080 C 
ATOM      9  C   UNL     1      28.894   7.936  26.173  1.00  0.00     0.039 C 
ENDBRANCH   5   6
ENDBRANCH   4   5
ENDBRANCH   1   4
BRANCH   2  10
ATOM     10  C   UNL     1      30.817   8.237  32.256  1.00  0.00     0.032 C 
BRANCH  10  11
ATOM     11  C   UNL     1      32.095   8.696  32.967  1.00  0.00     0.039 C 
BRANCH  11  12
ATOM     12  C   UNL     1      32.224  10.203  32.919  1.00  0.00    -0.055 C 
ATOM     13  C   UNL     1      33.125  10.803  33.704  1.00  0.00     0.012 C 
BRANCH  12  14
ATOM     14  C   UNL     1      31.416  11.039  31.993  1.00  0.00    -0.005 C 
ATOM     15  C   UNL     1      31.844  12.180  31.453  1.00  0.00     0.009 C 
ENDBRANCH  12  14
ENDBRANCH  11  12
ENDBRANCH  10  11
ENDBRANCH   2  10
TORSDOF 7
ENDMDL
