MODEL 1
REMARK VINA RESULT:    -5.886      0.000      0.000
REMARK INTER + INTRA:          -7.613
REMARK INTER:                  -7.262
REMARK INTRA:                  -0.351
REMARK UNBOUND:                -0.351
REMARK SMILES Oc1cc(O)c2cc(O)c(-c3cc(O)c(O)c(O)c3)[o+]c2c1
REMARK SMILES IDX 10 1 20 2 21 3 22 4 2 5 3 6 4 7 6 8 7 9 8 10 11 11 12 12
REMARK SMILES IDX 13 13 19 14 15 15 17 16 14 17 16 19 18 21 9 23 1 25 5 27
REMARK H PARENT 14 18 16 20 18 22 9 24 1 26 5 28
REMARK Flexibility Score: inf
ROOT
ATOM      1  C   UNL     1     163.324 157.449 163.626  1.00  0.00     0.402 A 
ATOM      2  O   UNL     1     162.393 156.717 164.231  1.00  0.00    -0.202 OA
ATOM      3  C   UNL     1     162.189 155.430 163.968  1.00  0.00     0.368 A 
ATOM      4  C   UNL     1     161.184 154.746 164.655  1.00  0.00     0.162 A 
ATOM      5  C   UNL     1     160.946 153.393 164.394  1.00  0.00     0.128 A 
ATOM      6  C   UNL     1     161.717 152.723 163.442  1.00  0.00     0.093 A 
ATOM      7  C   UNL     1     162.731 153.387 162.739  1.00  0.00     0.136 A 
ATOM      8  C   UNL     1     162.978 154.759 163.002  1.00  0.00     0.125 A 
ATOM      9  C   UNL     1     163.981 155.501 162.357  1.00  0.00     0.078 A 
ATOM     10  C   UNL     1     164.168 156.850 162.673  1.00  0.00     0.223 A 
ENDROOT
BRANCH   1  11
ATOM     11  C   UNL     1     163.447 158.877 164.001  1.00  0.00     0.091 A 
ATOM     12  C   UNL     1     164.430 159.314 164.900  1.00  0.00     0.068 A 
ATOM     13  C   UNL     1     164.544 160.672 165.224  1.00  0.00     0.162 A 
ATOM     14  C   UNL     1     162.601 159.822 163.402  1.00  0.00     0.068 A 
ATOM     15  C   UNL     1     163.682 161.613 164.643  1.00  0.00     0.200 A 
ATOM     16  C   UNL     1     162.703 161.182 163.716  1.00  0.00     0.162 A 
BRANCH  13  17
ATOM     17  O   UNL     1     165.519 161.098 166.124  1.00  0.00    -0.504 OA
ATOM     18  H   UNL     1     165.909 162.033 166.085  1.00  0.00     0.293 HD
ENDBRANCH  13  17
BRANCH  15  19
ATOM     19  O   UNL     1     163.834 162.954 165.005  1.00  0.00    -0.502 OA
ATOM     20  H   UNL     1     164.165 163.263 165.907  1.00  0.00     0.293 HD
ENDBRANCH  15  19
BRANCH  16  21
ATOM     21  O   UNL     1     161.818 162.062 163.090  1.00  0.00    -0.504 OA
ATOM     22  H   UNL     1     161.474 161.945 162.148  1.00  0.00     0.293 HD
ENDBRANCH  16  21
ENDBRANCH   1  11
BRANCH  10  23
ATOM     23  O   UNL     1     165.196 157.574 162.069  1.00  0.00    -0.500 OA
ATOM     24  H   UNL     1     165.838 157.142 161.413  1.00  0.00     0.294 HD
ENDBRANCH  10  23
BRANCH   5  25
ATOM     25  O   UNL     1     159.945 152.705 165.075  1.00  0.00    -0.507 OA
ATOM     26  H   UNL     1     160.160 152.073 165.838  1.00  0.00     0.293 HD
ENDBRANCH   5  25
BRANCH   7  27
ATOM     27  O   UNL     1     163.455 152.646 161.801  1.00  0.00    -0.507 OA
ATOM     28  H   UNL     1     163.272 152.649 160.809  1.00  0.00     0.293 HD
ENDBRANCH   7  27
TORSDOF 7
ENDMDL
MODEL 2
REMARK VINA RESULT:    -5.881      0.099      1.800
REMARK INTER + INTRA:          -7.607
REMARK INTER:                  -7.274
REMARK INTRA:                  -0.333
REMARK UNBOUND:                -0.351
REMARK SMILES Oc1cc(O)c2cc(O)c(-c3cc(O)c(O)c(O)c3)[o+]c2c1
REMARK SMILES IDX 10 1 20 2 21 3 22 4 2 5 3 6 4 7 6 8 7 9 8 10 11 11 12 12
REMARK SMILES IDX 13 13 19 14 15 15 17 16 14 17 16 19 18 21 9 23 1 25 5 27
REMARK H PARENT 14 18 16 20 18 22 9 24 1 26 5 28
REMARK Flexibility Score: inf
ROOT
ATOM      1  C   UNL     1     163.321 157.474 163.626  1.00  0.00     0.402 A 
ATOM      2  O   UNL     1     162.384 156.744 164.223  1.00  0.00    -0.202 OA
ATOM      3  C   UNL     1     162.200 155.450 163.979  1.00  0.00     0.368 A 
ATOM      4  C   UNL     1     161.185 154.768 164.655  1.00  0.00     0.162 A 
ATOM      5  C   UNL     1     160.968 153.408 164.414  1.00  0.00     0.128 A 
ATOM      6  C   UNL     1     161.769 152.728 163.494  1.00  0.00     0.093 A 
ATOM      7  C   UNL     1     162.792 153.390 162.803  1.00  0.00     0.136 A 
ATOM      8  C   UNL     1     163.018 154.769 163.045  1.00  0.00     0.125 A 
ATOM      9  C   UNL     1     164.029 155.510 162.410  1.00  0.00     0.078 A 
ATOM     10  C   UNL     1     164.194 156.866 162.704  1.00  0.00     0.223 A 
ENDROOT
BRANCH   1  11
ATOM     11  C   UNL     1     163.421 158.910 163.976  1.00  0.00     0.091 A 
ATOM     12  C   UNL     1     162.505 159.848 163.477  1.00  0.00     0.068 A 
ATOM     13  C   UNL     1     162.604 161.198 163.838  1.00  0.00     0.162 A 
ATOM     14  C   UNL     1     164.414 159.335 164.870  1.00  0.00     0.068 A 
ATOM     15  C   UNL     1     163.612 161.626 164.713  1.00  0.00     0.200 A 
ATOM     16  C   UNL     1     164.524 160.680 165.240  1.00  0.00     0.162 A 
BRANCH  13  17
ATOM     17  O   UNL     1     161.695 162.126 163.332  1.00  0.00    -0.504 OA
ATOM     18  H   UNL     1     161.602 163.054 163.729  1.00  0.00     0.293 HD
ENDBRANCH  13  17
BRANCH  15  19
ATOM     19  O   UNL     1     163.669 162.984 165.036  1.00  0.00    -0.502 OA
ATOM     20  H   UNL     1     162.885 163.616 164.966  1.00  0.00     0.293 HD
ENDBRANCH  15  19
BRANCH  16  21
ATOM     21  O   UNL     1     165.546 161.030 166.125  1.00  0.00    -0.504 OA
ATOM     22  H   UNL     1     165.392 161.448 167.030  1.00  0.00     0.293 HD
ENDBRANCH  16  21
ENDBRANCH   1  11
BRANCH  10  23
ATOM     23  O   UNL     1     165.229 157.590 162.111  1.00  0.00    -0.500 OA
ATOM     24  H   UNL     1     165.701 158.342 162.601  1.00  0.00     0.294 HD
ENDBRANCH  10  23
BRANCH   5  25
ATOM     25  O   UNL     1     159.958 152.722 165.085  1.00  0.00    -0.507 OA
ATOM     26  H   UNL     1     159.924 151.709 165.099  1.00  0.00     0.293 HD
ENDBRANCH   5  25
BRANCH   7  27
ATOM     27  O   UNL     1     163.545 152.639 161.896  1.00  0.00    -0.507 OA
ATOM     28  H   UNL     1     164.550 152.542 161.932  1.00  0.00     0.293 HD
ENDBRANCH   7  27
TORSDOF 7
ENDMDL
MODEL 3
REMARK VINA RESULT:    -5.814      2.786      7.534
REMARK INTER + INTRA:          -7.525
REMARK INTER:                  -7.159
REMARK INTRA:                  -0.366
REMARK UNBOUND:                -0.351
REMARK SMILES Oc1cc(O)c2cc(O)c(-c3cc(O)c(O)c(O)c3)[o+]c2c1
REMARK SMILES IDX 10 1 20 2 21 3 22 4 2 5 3 6 4 7 6 8 7 9 8 10 11 11 12 12
REMARK SMILES IDX 13 13 19 14 15 15 17 16 14 17 16 19 18 21 9 23 1 25 5 27
REMARK H PARENT 14 18 16 20 18 22 9 24 1 26 5 28
REMARK Flexibility Score: inf
ROOT
ATOM      1  C   UNL     1     164.317 154.519 162.150  1.00  0.00     0.402 A 
ATOM      2  O   UNL     1     164.404 155.727 162.702  1.00  0.00    -0.202 OA
ATOM      3  C   UNL     1     165.271 156.652 162.303  1.00  0.00     0.368 A 
ATOM      4  C   UNL     1     165.288 157.890 162.948  1.00  0.00     0.162 A 
ATOM      5  C   UNL     1     166.194 158.880 162.551  1.00  0.00     0.128 A 
ATOM      6  C   UNL     1     167.085 158.628 161.507  1.00  0.00     0.093 A 
ATOM      7  C   UNL     1     167.088 157.393 160.844  1.00  0.00     0.136 A 
ATOM      8  C   UNL     1     166.170 156.387 161.242  1.00  0.00     0.125 A 
ATOM      9  C   UNL     1     166.091 155.127 160.627  1.00  0.00     0.078 A 
ATOM     10  C   UNL     1     165.157 154.187 161.071  1.00  0.00     0.223 A 
ENDROOT
BRANCH   1  11
ATOM     11  C   UNL     1     163.314 153.572 162.689  1.00  0.00     0.091 A 
ATOM     12  C   UNL     1     161.978 153.602 162.263  1.00  0.00     0.068 A 
ATOM     13  C   UNL     1     161.050 152.682 162.769  1.00  0.00     0.162 A 
ATOM     14  C   UNL     1     163.718 152.587 163.601  1.00  0.00     0.068 A 
ATOM     15  C   UNL     1     161.450 151.713 163.700  1.00  0.00     0.200 A 
ATOM     16  C   UNL     1     162.802 151.662 164.116  1.00  0.00     0.162 A 
BRANCH  13  17
ATOM     17  O   UNL     1     159.723 152.724 162.347  1.00  0.00    -0.504 OA
ATOM     18  H   UNL     1     158.989 152.235 162.847  1.00  0.00     0.293 HD
ENDBRANCH  13  17
BRANCH  15  19
ATOM     19  O   UNL     1     160.483 150.824 164.178  1.00  0.00    -0.502 OA
ATOM     20  H   UNL     1     160.667 149.859 164.409  1.00  0.00     0.293 HD
ENDBRANCH  15  19
BRANCH  16  21
ATOM     21  O   UNL     1     163.274 150.718 165.030  1.00  0.00    -0.504 OA
ATOM     22  H   UNL     1     162.686 150.206 165.670  1.00  0.00     0.293 HD
ENDBRANCH  16  21
ENDBRANCH   1  11
BRANCH  10  23
ATOM     23  O   UNL     1     165.045 152.954 160.428  1.00  0.00    -0.500 OA
ATOM     24  H   UNL     1     164.609 152.866 159.517  1.00  0.00     0.294 HD
ENDBRANCH  10  23
BRANCH   5  25
ATOM     25  O   UNL     1     166.216 160.118 163.191  1.00  0.00    -0.507 OA
ATOM     26  H   UNL     1     165.812 160.942 162.762  1.00  0.00     0.293 HD
ENDBRANCH   5  25
BRANCH   7  27
ATOM     27  O   UNL     1     168.013 157.220 159.812  1.00  0.00    -0.507 OA
ATOM     28  H   UNL     1     168.436 157.975 159.292  1.00  0.00     0.293 HD
ENDBRANCH   7  27
TORSDOF 7
ENDMDL
MODEL 4
REMARK VINA RESULT:    -5.728      1.302      7.050
REMARK INTER + INTRA:          -7.418
REMARK INTER:                  -7.641
REMARK INTRA:                   0.223
REMARK UNBOUND:                -0.351
REMARK SMILES Oc1cc(O)c2cc(O)c(-c3cc(O)c(O)c(O)c3)[o+]c2c1
REMARK SMILES IDX 10 1 20 2 21 3 22 4 2 5 3 6 4 7 6 8 7 9 8 10 11 11 12 12
REMARK SMILES IDX 13 13 19 14 15 15 17 16 14 17 16 19 18 21 9 23 1 25 5 27
REMARK H PARENT 14 18 16 20 18 22 9 24 1 26 5 28
REMARK Flexibility Score: inf
ROOT
ATOM      1  C   UNL     1     163.351 156.237 163.630  1.00  0.00     0.402 A 
ATOM      2  O   UNL     1     162.582 157.307 163.814  1.00  0.00    -0.202 OA
ATOM      3  C   UNL     1     163.047 158.552 163.805  1.00  0.00     0.368 A 
ATOM      4  C   UNL     1     162.160 159.611 164.011  1.00  0.00     0.162 A 
ATOM      5  C   UNL     1     162.624 160.930 164.011  1.00  0.00     0.128 A 
ATOM      6  C   UNL     1     163.980 161.190 163.805  1.00  0.00     0.093 A 
ATOM      7  C   UNL     1     164.890 160.145 163.597  1.00  0.00     0.136 A 
ATOM      8  C   UNL     1     164.424 158.805 163.594  1.00  0.00     0.125 A 
ATOM      9  C   UNL     1     165.260 157.697 163.379  1.00  0.00     0.078 A 
ATOM     10  C   UNL     1     164.727 156.405 163.386  1.00  0.00     0.223 A 
ENDROOT
BRANCH   1  11
ATOM     11  C   UNL     1     162.716 154.901 163.671  1.00  0.00     0.091 A 
ATOM     12  C   UNL     1     161.595 154.649 164.477  1.00  0.00     0.068 A 
ATOM     13  C   UNL     1     160.995 153.383 164.483  1.00  0.00     0.162 A 
ATOM     14  C   UNL     1     163.205 153.878 162.845  1.00  0.00     0.068 A 
ATOM     15  C   UNL     1     161.501 152.355 163.676  1.00  0.00     0.200 A 
ATOM     16  C   UNL     1     162.616 152.609 162.842  1.00  0.00     0.162 A 
BRANCH  13  17
ATOM     17  O   UNL     1     159.886 153.139 165.293  1.00  0.00    -0.504 OA
ATOM     18  H   UNL     1     159.305 153.893 165.642  1.00  0.00     0.293 HD
ENDBRANCH  13  17
BRANCH  15  19
ATOM     19  O   UNL     1     160.869 151.110 163.726  1.00  0.00    -0.502 OA
ATOM     20  H   UNL     1     161.335 150.248 163.970  1.00  0.00     0.293 HD
ENDBRANCH  15  19
BRANCH  16  21
ATOM     21  O   UNL     1     163.167 151.638 162.003  1.00  0.00    -0.504 OA
ATOM     22  H   UNL     1     163.522 151.825 161.077  1.00  0.00     0.293 HD
ENDBRANCH  16  21
ENDBRANCH   1  11
BRANCH  10  23
ATOM     23  O   UNL     1     165.548 155.308 163.124  1.00  0.00    -0.500 OA
ATOM     24  H   UNL     1     165.403 154.413 163.579  1.00  0.00     0.294 HD
ENDBRANCH  10  23
BRANCH   5  25
ATOM     25  O   UNL     1     161.744 161.991 164.216  1.00  0.00    -0.507 OA
ATOM     26  H   UNL     1     161.655 162.438 165.121  1.00  0.00     0.293 HD
ENDBRANCH   5  25
BRANCH   7  27
ATOM     27  O   UNL     1     166.230 160.489 163.401  1.00  0.00    -0.507 OA
ATOM     28  H   UNL     1     166.925 160.516 164.133  1.00  0.00     0.293 HD
ENDBRANCH   7  27
TORSDOF 7
ENDMDL
MODEL 5
REMARK VINA RESULT:    -5.602      1.292      7.026
REMARK INTER + INTRA:          -7.263
REMARK INTER:                  -7.433
REMARK INTRA:                   0.170
REMARK UNBOUND:                -0.351
REMARK SMILES Oc1cc(O)c2cc(O)c(-c3cc(O)c(O)c(O)c3)[o+]c2c1
REMARK SMILES IDX 10 1 20 2 21 3 22 4 2 5 3 6 4 7 6 8 7 9 8 10 11 11 12 12
REMARK SMILES IDX 13 13 19 14 15 15 17 16 14 17 16 19 18 21 9 23 1 25 5 27
REMARK H PARENT 14 18 16 20 18 22 9 24 1 26 5 28
REMARK Flexibility Score: inf
ROOT
ATOM      1  C   UNL     1     163.339 156.211 163.566  1.00  0.00     0.402 A 
ATOM      2  O   UNL     1     162.578 157.284 163.763  1.00  0.00    -0.202 OA
ATOM      3  C   UNL     1     163.058 158.524 163.791  1.00  0.00     0.368 A 
ATOM      4  C   UNL     1     162.179 159.588 164.008  1.00  0.00     0.162 A 
ATOM      5  C   UNL     1     162.658 160.901 164.047  1.00  0.00     0.128 A 
ATOM      6  C   UNL     1     164.020 161.150 163.869  1.00  0.00     0.093 A 
ATOM      7  C   UNL     1     164.922 160.100 163.651  1.00  0.00     0.136 A 
ATOM      8  C   UNL     1     164.440 158.766 163.609  1.00  0.00     0.125 A 
ATOM      9  C   UNL     1     165.268 157.654 163.382  1.00  0.00     0.078 A 
ATOM     10  C   UNL     1     164.720 156.368 163.349  1.00  0.00     0.223 A 
ENDROOT
BRANCH   1  11
ATOM     11  C   UNL     1     162.687 154.881 163.564  1.00  0.00     0.091 A 
ATOM     12  C   UNL     1     163.146 153.844 162.738  1.00  0.00     0.068 A 
ATOM     13  C   UNL     1     162.529 152.586 162.769  1.00  0.00     0.162 A 
ATOM     14  C   UNL     1     161.626 154.632 164.447  1.00  0.00     0.068 A 
ATOM     15  C   UNL     1     161.453 152.346 163.634  1.00  0.00     0.200 A 
ATOM     16  C   UNL     1     161.001 153.380 164.488  1.00  0.00     0.162 A 
BRANCH  13  17
ATOM     17  O   UNL     1     162.986 151.563 161.940  1.00  0.00    -0.504 OA
ATOM     18  H   UNL     1     162.581 150.634 161.966  1.00  0.00     0.293 HD
ENDBRANCH  13  17
BRANCH  15  19
ATOM     19  O   UNL     1     160.870 151.076 163.620  1.00  0.00    -0.502 OA
ATOM     20  H   UNL     1     160.264 150.739 162.886  1.00  0.00     0.293 HD
ENDBRANCH  15  19
BRANCH  16  21
ATOM     21  O   UNL     1     159.943 153.211 165.383  1.00  0.00    -0.504 OA
ATOM     22  H   UNL     1     159.584 153.940 165.981  1.00  0.00     0.293 HD
ENDBRANCH  16  21
ENDBRANCH   1  11
BRANCH  10  23
ATOM     23  O   UNL     1     165.533 155.268 163.074  1.00  0.00    -0.500 OA
ATOM     24  H   UNL     1     165.566 154.463 163.691  1.00  0.00     0.294 HD
ENDBRANCH  10  23
BRANCH   5  25
ATOM     25  O   UNL     1     161.787 161.967 164.262  1.00  0.00    -0.507 OA
ATOM     26  H   UNL     1     161.910 162.603 165.042  1.00  0.00     0.293 HD
ENDBRANCH   5  25
BRANCH   7  27
ATOM     27  O   UNL     1     166.269 160.433 163.487  1.00  0.00    -0.507 OA
ATOM     28  H   UNL     1     166.740 160.480 162.595  1.00  0.00     0.293 HD
ENDBRANCH   7  27
TORSDOF 7
ENDMDL
MODEL 6
REMARK VINA RESULT:    -5.530      2.159      7.366
REMARK INTER + INTRA:          -7.174
REMARK INTER:                  -6.872
REMARK INTRA:                  -0.302
REMARK UNBOUND:                -0.351
REMARK SMILES Oc1cc(O)c2cc(O)c(-c3cc(O)c(O)c(O)c3)[o+]c2c1
REMARK SMILES IDX 10 1 20 2 21 3 22 4 2 5 3 6 4 7 6 8 7 9 8 10 11 11 12 12
REMARK SMILES IDX 13 13 19 14 15 15 17 16 14 17 16 19 18 21 9 23 1 25 5 27
REMARK H PARENT 14 18 16 20 18 22 9 24 1 26 5 28
REMARK Flexibility Score: inf
ROOT
ATOM      1  C   UNL     1     163.136 158.462 163.836  1.00  0.00     0.402 A 
ATOM      2  O   UNL     1     163.953 159.341 163.262  1.00  0.00    -0.202 OA
ATOM      3  C   UNL     1     163.831 160.656 163.409  1.00  0.00     0.368 A 
ATOM      4  C   UNL     1     164.738 161.499 162.763  1.00  0.00     0.162 A 
ATOM      5  C   UNL     1     164.629 162.887 162.898  1.00  0.00     0.128 A 
ATOM      6  C   UNL     1     163.609 163.432 163.680  1.00  0.00     0.093 A 
ATOM      7  C   UNL     1     162.687 162.608 164.338  1.00  0.00     0.136 A 
ATOM      8  C   UNL     1     162.794 161.199 164.206  1.00  0.00     0.125 A 
ATOM      9  C   UNL     1     161.924 160.296 164.839  1.00  0.00     0.078 A 
ATOM     10  C   UNL     1     162.096 158.920 164.666  1.00  0.00     0.223 A 
ENDROOT
BRANCH   1  11
ATOM     11  C   UNL     1     163.370 157.021 163.588  1.00  0.00     0.091 A 
ATOM     12  C   UNL     1     163.904 156.186 164.582  1.00  0.00     0.068 A 
ATOM     13  C   UNL     1     164.097 154.821 164.334  1.00  0.00     0.162 A 
ATOM     14  C   UNL     1     162.999 156.463 162.356  1.00  0.00     0.068 A 
ATOM     15  C   UNL     1     163.748 154.270 163.093  1.00  0.00     0.200 A 
ATOM     16  C   UNL     1     163.187 155.101 162.095  1.00  0.00     0.162 A 
BRANCH  13  17
ATOM     17  O   UNL     1     164.634 154.000 165.325  1.00  0.00    -0.504 OA
ATOM     18  H   UNL     1     165.096 153.126 165.099  1.00  0.00     0.293 HD
ENDBRANCH  13  17
BRANCH  15  19
ATOM     19  O   UNL     1     163.967 152.904 162.897  1.00  0.00    -0.502 OA
ATOM     20  H   UNL     1     164.798 152.415 163.197  1.00  0.00     0.293 HD
ENDBRANCH  15  19
BRANCH  16  21
ATOM     21  O   UNL     1     162.805 154.621 160.841  1.00  0.00    -0.504 OA
ATOM     22  H   UNL     1     161.849 154.451 160.566  1.00  0.00     0.293 HD
ENDBRANCH  16  21
ENDBRANCH   1  11
BRANCH  10  23
ATOM     23  O   UNL     1     161.263 158.021 165.334  1.00  0.00    -0.500 OA
ATOM     24  H   UNL     1     161.607 157.131 165.678  1.00  0.00     0.294 HD
ENDBRANCH  10  23
BRANCH   5  25
ATOM     25  O   UNL     1     165.531 163.734 162.256  1.00  0.00    -0.507 OA
ATOM     26  H   UNL     1     166.513 163.501 162.178  1.00  0.00     0.293 HD
ENDBRANCH   5  25
BRANCH   7  27
ATOM     27  O   UNL     1     161.695 163.232 165.098  1.00  0.00    -0.507 OA
ATOM     28  H   UNL     1     160.819 162.801 165.357  1.00  0.00     0.293 HD
ENDBRANCH   7  27
TORSDOF 7
ENDMDL
MODEL 7
REMARK VINA RESULT:    -5.465      1.922      2.301
REMARK INTER + INTRA:          -7.095
REMARK INTER:                  -6.743
REMARK INTRA:                  -0.351
REMARK UNBOUND:                -0.351
REMARK SMILES Oc1cc(O)c2cc(O)c(-c3cc(O)c(O)c(O)c3)[o+]c2c1
REMARK SMILES IDX 10 1 20 2 21 3 22 4 2 5 3 6 4 7 6 8 7 9 8 10 11 11 12 12
REMARK SMILES IDX 13 13 19 14 15 15 17 16 14 17 16 19 18 21 9 23 1 25 5 27
REMARK H PARENT 14 18 16 20 18 22 9 24 1 26 5 28
REMARK Flexibility Score: inf
ROOT
ATOM      1  C   UNL     1     163.095 156.354 164.247  1.00  0.00     0.402 A 
ATOM      2  O   UNL     1     162.067 155.820 163.593  1.00  0.00    -0.202 OA
ATOM      3  C   UNL     1     161.868 154.510 163.489  1.00  0.00     0.368 A 
ATOM      4  C   UNL     1     160.759 154.045 162.778  1.00  0.00     0.162 A 
ATOM      5  C   UNL     1     160.528 152.672 162.650  1.00  0.00     0.128 A 
ATOM      6  C   UNL     1     161.410 151.761 163.236  1.00  0.00     0.093 A 
ATOM      7  C   UNL     1     162.529 152.202 163.953  1.00  0.00     0.136 A 
ATOM      8  C   UNL     1     162.766 153.594 164.088  1.00  0.00     0.125 A 
ATOM      9  C   UNL     1     163.853 154.127 164.800  1.00  0.00     0.078 A 
ATOM     10  C   UNL     1     164.020 155.512 164.893  1.00  0.00     0.223 A 
ENDROOT
BRANCH   1  11
ATOM     11  C   UNL     1     163.213 157.829 164.284  1.00  0.00     0.091 A 
ATOM     12  C   UNL     1     162.470 158.599 165.191  1.00  0.00     0.068 A 
ATOM     13  C   UNL     1     162.613 159.992 165.225  1.00  0.00     0.162 A 
ATOM     14  C   UNL     1     164.127 158.469 163.435  1.00  0.00     0.068 A 
ATOM     15  C   UNL     1     163.510 160.633 164.359  1.00  0.00     0.200 A 
ATOM     16  C   UNL     1     164.280 159.860 163.457  1.00  0.00     0.162 A 
BRANCH  13  17
ATOM     17  O   UNL     1     161.866 160.751 166.125  1.00  0.00    -0.504 OA
ATOM     18  H   UNL     1     161.847 161.763 166.081  1.00  0.00     0.293 HD
ENDBRANCH  13  17
BRANCH  15  19
ATOM     19  O   UNL     1     163.609 162.025 164.429  1.00  0.00    -0.502 OA
ATOM     20  H   UNL     1     164.433 162.548 164.168  1.00  0.00     0.293 HD
ENDBRANCH  15  19
BRANCH  16  21
ATOM     21  O   UNL     1     165.201 160.428 162.574  1.00  0.00    -0.504 OA
ATOM     22  H   UNL     1     165.902 161.103 162.843  1.00  0.00     0.293 HD
ENDBRANCH  16  21
ENDBRANCH   1  11
BRANCH  10  23
ATOM     23  O   UNL     1     165.071 156.042 165.642  1.00  0.00    -0.500 OA
ATOM     24  H   UNL     1     166.022 155.706 165.537  1.00  0.00     0.294 HD
ENDBRANCH  10  23
BRANCH   5  25
ATOM     25  O   UNL     1     159.424 152.201 161.942  1.00  0.00    -0.507 OA
ATOM     26  H   UNL     1     158.490 152.553 162.122  1.00  0.00     0.293 HD
ENDBRANCH   5  25
BRANCH   7  27
ATOM     27  O   UNL     1     163.364 151.227 164.505  1.00  0.00    -0.507 OA
ATOM     28  H   UNL     1     163.522 150.316 164.100  1.00  0.00     0.293 HD
ENDBRANCH   7  27
TORSDOF 7
ENDMDL
MODEL 8
REMARK VINA RESULT:    -5.411      1.763      7.358
REMARK INTER + INTRA:          -7.027
REMARK INTER:                  -7.421
REMARK INTRA:                   0.394
REMARK UNBOUND:                -0.351
REMARK SMILES Oc1cc(O)c2cc(O)c(-c3cc(O)c(O)c(O)c3)[o+]c2c1
REMARK SMILES IDX 10 1 20 2 21 3 22 4 2 5 3 6 4 7 6 8 7 9 8 10 11 11 12 12
REMARK SMILES IDX 13 13 19 14 15 15 17 16 14 17 16 19 18 21 9 23 1 25 5 27
REMARK H PARENT 14 18 16 20 18 22 9 24 1 26 5 28
REMARK Flexibility Score: inf
ROOT
ATOM      1  C   UNL     1     163.328 156.225 163.537  1.00  0.00     0.402 A 
ATOM      2  O   UNL     1     164.440 156.362 162.821  1.00  0.00    -0.202 OA
ATOM      3  C   UNL     1     165.080 157.518 162.679  1.00  0.00     0.368 A 
ATOM      4  C   UNL     1     166.241 157.562 161.903  1.00  0.00     0.162 A 
ATOM      5  C   UNL     1     166.932 158.767 161.735  1.00  0.00     0.128 A 
ATOM      6  C   UNL     1     166.458 159.930 162.344  1.00  0.00     0.093 A 
ATOM      7  C   UNL     1     165.296 159.913 163.126  1.00  0.00     0.136 A 
ATOM      8  C   UNL     1     164.594 158.693 163.302  1.00  0.00     0.125 A 
ATOM      9  C   UNL     1     163.429 158.577 164.079  1.00  0.00     0.078 A 
ATOM     10  C   UNL     1     162.794 157.340 164.210  1.00  0.00     0.223 A 
ENDROOT
BRANCH   1  11
ATOM     11  C   UNL     1     162.702 154.885 163.612  1.00  0.00     0.091 A 
ATOM     12  C   UNL     1     161.578 154.647 164.417  1.00  0.00     0.068 A 
ATOM     13  C   UNL     1     160.988 153.377 164.455  1.00  0.00     0.162 A 
ATOM     14  C   UNL     1     163.206 153.844 162.819  1.00  0.00     0.068 A 
ATOM     15  C   UNL     1     161.507 152.331 163.680  1.00  0.00     0.200 A 
ATOM     16  C   UNL     1     162.626 152.570 162.848  1.00  0.00     0.162 A 
BRANCH  13  17
ATOM     17  O   UNL     1     159.875 153.148 165.264  1.00  0.00    -0.504 OA
ATOM     18  H   UNL     1     159.849 152.383 165.928  1.00  0.00     0.293 HD
ENDBRANCH  13  17
BRANCH  15  19
ATOM     19  O   UNL     1     160.885 151.083 163.761  1.00  0.00    -0.502 OA
ATOM     20  H   UNL     1     161.249 150.240 163.341  1.00  0.00     0.293 HD
ENDBRANCH  15  19
BRANCH  16  21
ATOM     21  O   UNL     1     163.190 151.580 162.040  1.00  0.00    -0.504 OA
ATOM     22  H   UNL     1     163.296 151.658 161.039  1.00  0.00     0.293 HD
ENDBRANCH  16  21
ENDBRANCH   1  11
BRANCH  10  23
ATOM     23  O   UNL     1     161.666 157.214 165.022  1.00  0.00    -0.500 OA
ATOM     24  H   UNL     1     161.431 157.913 165.719  1.00  0.00     0.294 HD
ENDBRANCH  10  23
BRANCH   5  25
ATOM     25  O   UNL     1     168.090 158.817 160.962  1.00  0.00    -0.507 OA
ATOM     26  H   UNL     1     168.765 158.061 160.969  1.00  0.00     0.293 HD
ENDBRANCH   5  25
BRANCH   7  27
ATOM     27  O   UNL     1     164.888 161.120 163.698  1.00  0.00    -0.507 OA
ATOM     28  H   UNL     1     165.332 161.554 164.494  1.00  0.00     0.293 HD
ENDBRANCH   7  27
TORSDOF 7
ENDMDL
MODEL 9
REMARK VINA RESULT:    -5.328      1.327      3.316
REMARK INTER + INTRA:          -6.925
REMARK INTER:                  -6.653
REMARK INTRA:                  -0.273
REMARK UNBOUND:                -0.351
REMARK SMILES Oc1cc(O)c2cc(O)c(-c3cc(O)c(O)c(O)c3)[o+]c2c1
REMARK SMILES IDX 10 1 20 2 21 3 22 4 2 5 3 6 4 7 6 8 7 9 8 10 11 11 12 12
REMARK SMILES IDX 13 13 19 14 15 15 17 16 14 17 16 19 18 21 9 23 1 25 5 27
REMARK H PARENT 14 18 16 20 18 22 9 24 1 26 5 28
REMARK Flexibility Score: inf
ROOT
ATOM      1  C   UNL     1     163.400 156.928 163.950  1.00  0.00     0.402 A 
ATOM      2  O   UNL     1     164.103 156.411 162.946  1.00  0.00    -0.202 OA
ATOM      3  C   UNL     1     164.072 155.123 162.620  1.00  0.00     0.368 A 
ATOM      4  C   UNL     1     164.848 154.674 161.549  1.00  0.00     0.162 A 
ATOM      5  C   UNL     1     164.837 153.322 161.188  1.00  0.00     0.128 A 
ATOM      6  C   UNL     1     164.047 152.419 161.900  1.00  0.00     0.093 A 
ATOM      7  C   UNL     1     163.260 152.844 162.979  1.00  0.00     0.136 A 
ATOM      8  C   UNL     1     163.266 154.214 163.347  1.00  0.00     0.125 A 
ATOM      9  C   UNL     1     162.499 154.733 164.404  1.00  0.00     0.078 A 
ATOM     10  C   UNL     1     162.553 156.096 164.706  1.00  0.00     0.223 A 
ENDROOT
BRANCH   1  11
ATOM     11  C   UNL     1     163.526 158.379 164.220  1.00  0.00     0.091 A 
ATOM     12  C   UNL     1     162.471 159.265 163.958  1.00  0.00     0.068 A 
ATOM     13  C   UNL     1     162.603 160.631 164.242  1.00  0.00     0.162 A 
ATOM     14  C   UNL     1     164.702 158.872 164.803  1.00  0.00     0.068 A 
ATOM     15  C   UNL     1     163.789 161.126 164.802  1.00  0.00     0.200 A 
ATOM     16  C   UNL     1     164.848 160.234 165.091  1.00  0.00     0.162 A 
BRANCH  13  17
ATOM     17  O   UNL     1     161.552 161.506 163.972  1.00  0.00    -0.504 OA
ATOM     18  H   UNL     1     160.670 161.449 164.468  1.00  0.00     0.293 HD
ENDBRANCH  13  17
BRANCH  15  19
ATOM     19  O   UNL     1     163.870 162.497 165.060  1.00  0.00    -0.502 OA
ATOM     20  H   UNL     1     163.258 163.188 164.650  1.00  0.00     0.293 HD
ENDBRANCH  15  19
BRANCH  16  21
ATOM     21  O   UNL     1     166.053 160.653 165.660  1.00  0.00    -0.504 OA
ATOM     22  H   UNL     1     166.389 160.350 166.563  1.00  0.00     0.293 HD
ENDBRANCH  16  21
ENDBRANCH   1  11
BRANCH  10  23
ATOM     23  O   UNL     1     161.754 156.621 165.722  1.00  0.00    -0.500 OA
ATOM     24  H   UNL     1     161.515 157.605 165.757  1.00  0.00     0.294 HD
ENDBRANCH  10  23
BRANCH   5  25
ATOM     25  O   UNL     1     165.609 152.868 160.121  1.00  0.00    -0.507 OA
ATOM     26  H   UNL     1     166.581 153.136 160.018  1.00  0.00     0.293 HD
ENDBRANCH   5  25
BRANCH   7  27
ATOM     27  O   UNL     1     162.501 151.877 163.642  1.00  0.00    -0.507 OA
ATOM     28  H   UNL     1     161.688 151.423 163.251  1.00  0.00     0.293 HD
ENDBRANCH   7  27
TORSDOF 7
ENDMDL
