MODEL 1
REMARK VINA RESULT:    -6.447      0.000      0.000
REMARK INTER + INTRA:          -7.224
REMARK INTER:                  -6.823
REMARK INTRA:                  -0.401
REMARK UNBOUND:                -0.401
REMARK SMILES C=C(C)[C@@H]1CC[C@H](C)[C@@]12CC=C(C)CC2
REMARK SMILES IDX 8 1 7 2 6 3 5 4 4 5 9 6 15 7 14 8 12 9 11 10 10 11 13 12
REMARK SMILES IDX 2 13 1 14 3 15
REMARK H PARENT
REMARK Flexibility Score: inf
ROOT
ATOM      1  C   UNL     1       7.533  30.791  21.207  1.00  0.00     0.008 C 
ATOM      2  C   UNL     1       7.401  31.589  22.515  1.00  0.00    -0.007 C 
ATOM      3  C   UNL     1       7.276  30.699  23.753  1.00  0.00     0.004 C 
ATOM      4  C   UNL     1       7.710  31.562  24.940  1.00  0.00     0.009 C 
ATOM      5  C   UNL     1       8.196  32.894  24.342  1.00  0.00     0.021 C 
ATOM      6  C   UNL     1       8.534  32.604  22.848  1.00  0.00    -0.017 C 
ATOM      7  C   UNL     1       9.965  31.956  22.687  1.00  0.00     0.012 C 
ATOM      8  C   UNL     1      11.027  32.982  22.272  1.00  0.00     0.031 C 
ATOM      9  C   UNL     1      10.604  33.595  20.960  1.00  0.00    -0.077 C 
ATOM     10  C   UNL     1       9.323  33.977  20.817  1.00  0.00    -0.027 C 
ATOM     11  C   UNL     1       8.381  33.915  21.992  1.00  0.00     0.035 C 
ATOM     12  C   UNL     1      11.549  33.673  19.795  1.00  0.00     0.039 C 
ENDROOT
BRANCH   5  13
ATOM     13  C   UNL     1       9.245  33.653  25.166  1.00  0.00    -0.077 C 
ATOM     14  C   UNL     1       9.482  34.970  25.029  1.00  0.00     0.008 C 
ATOM     15  C   UNL     1      10.096  32.894  26.155  1.00  0.00     0.039 C 
ENDBRANCH   5  13
TORSDOF 1
ENDMDL
MODEL 2
REMARK VINA RESULT:    -6.098      1.338      3.563
REMARK INTER + INTRA:          -6.856
REMARK INTER:                  -6.482
REMARK INTRA:                  -0.373
REMARK UNBOUND:                -0.401
REMARK SMILES C=C(C)[C@@H]1CC[C@H](C)[C@@]12CC=C(C)CC2
REMARK SMILES IDX 8 1 7 2 6 3 5 4 4 5 9 6 15 7 14 8 12 9 11 10 10 11 13 12
REMARK SMILES IDX 2 13 1 14 3 15
REMARK H PARENT
REMARK Flexibility Score: inf
ROOT
ATOM      1  C   UNL     1       7.393  33.209  24.907  1.00  0.00     0.008 C 
ATOM      2  C   UNL     1       8.872  33.499  24.597  1.00  0.00    -0.007 C 
ATOM      3  C   UNL     1       9.837  32.773  25.536  1.00  0.00     0.004 C 
ATOM      4  C   UNL     1      11.174  32.700  24.794  1.00  0.00     0.009 C 
ATOM      5  C   UNL     1      10.913  33.277  23.391  1.00  0.00     0.021 C 
ATOM      6  C   UNL     1       9.375  33.180  23.159  1.00  0.00    -0.017 C 
ATOM      7  C   UNL     1       8.941  31.734  22.696  1.00  0.00     0.012 C 
ATOM      8  C   UNL     1       8.734  31.644  21.179  1.00  0.00     0.031 C 
ATOM      9  C   UNL     1       7.665  32.635  20.790  1.00  0.00    -0.077 C 
ATOM     10  C   UNL     1       7.724  33.874  21.307  1.00  0.00    -0.027 C 
ATOM     11  C   UNL     1       8.908  34.288  22.143  1.00  0.00     0.035 C 
ATOM     12  C   UNL     1       6.494  32.227  19.941  1.00  0.00     0.039 C 
ENDROOT
BRANCH   5  13
ATOM     13  C   UNL     1      11.827  32.754  22.274  1.00  0.00    -0.077 C 
ATOM     14  C   UNL     1      12.571  31.639  22.390  1.00  0.00     0.008 C 
ATOM     15  C   UNL     1      11.944  33.537  20.989  1.00  0.00     0.039 C 
ENDBRANCH   5  13
TORSDOF 1
ENDMDL
MODEL 3
REMARK VINA RESULT:    -5.929      3.662      6.779
REMARK INTER + INTRA:          -6.677
REMARK INTER:                  -6.276
REMARK INTRA:                  -0.401
REMARK UNBOUND:                -0.401
REMARK SMILES C=C(C)[C@@H]1CC[C@H](C)[C@@]12CC=C(C)CC2
REMARK SMILES IDX 8 1 7 2 6 3 5 4 4 5 9 6 15 7 14 8 12 9 11 10 10 11 13 12
REMARK SMILES IDX 2 13 1 14 3 15
REMARK H PARENT
REMARK Flexibility Score: inf
ROOT
ATOM      1  C   UNL     1      11.329  32.088  22.234  1.00  0.00     0.008 C 
ATOM      2  C   UNL     1      11.968  32.375  20.865  1.00  0.00    -0.007 C 
ATOM      3  C   UNL     1      11.730  33.806  20.379  1.00  0.00     0.004 C 
ATOM      4  C   UNL     1      12.835  34.095  19.359  1.00  0.00     0.009 C 
ATOM      5  C   UNL     1      13.759  32.865  19.374  1.00  0.00     0.021 C 
ATOM      6  C   UNL     1      13.502  32.142  20.731  1.00  0.00    -0.017 C 
ATOM      7  C   UNL     1      14.300  32.816  21.915  1.00  0.00     0.012 C 
ATOM      8  C   UNL     1      15.589  32.056  22.256  1.00  0.00     0.031 C 
ATOM      9  C   UNL     1      15.216  30.646  22.642  1.00  0.00    -0.077 C 
ATOM     10  C   UNL     1      14.325  29.989  21.880  1.00  0.00    -0.027 C 
ATOM     11  C   UNL     1      13.826  30.608  20.600  1.00  0.00     0.035 C 
ATOM     12  C   UNL     1      15.728  30.023  23.910  1.00  0.00     0.039 C 
ENDROOT
BRANCH   5  13
ATOM     13  C   UNL     1      15.221  33.124  18.982  1.00  0.00    -0.077 C 
ATOM     14  C   UNL     1      16.033  32.171  18.489  1.00  0.00     0.008 C 
ATOM     15  C   UNL     1      15.810  34.497  19.192  1.00  0.00     0.039 C 
ENDBRANCH   5  13
TORSDOF 1
ENDMDL
MODEL 4
REMARK VINA RESULT:    -5.743      1.442      4.880
REMARK INTER + INTRA:          -6.480
REMARK INTER:                  -6.138
REMARK INTRA:                  -0.343
REMARK UNBOUND:                -0.401
REMARK SMILES C=C(C)[C@@H]1CC[C@H](C)[C@@]12CC=C(C)CC2
REMARK SMILES IDX 8 1 7 2 6 3 5 4 4 5 9 6 15 7 14 8 12 9 11 10 10 11 13 12
REMARK SMILES IDX 2 13 1 14 3 15
REMARK H PARENT
REMARK Flexibility Score: inf
ROOT
ATOM      1  C   UNL     1      11.212  32.747  23.728  1.00  0.00     0.008 C 
ATOM      2  C   UNL     1      10.437  33.476  22.617  1.00  0.00    -0.007 C 
ATOM      3  C   UNL     1      11.168  33.474  21.273  1.00  0.00     0.004 C 
ATOM      4  C   UNL     1      10.093  33.707  20.207  1.00  0.00     0.009 C 
ATOM      5  C   UNL     1       8.748  33.713  20.955  1.00  0.00     0.021 C 
ATOM      6  C   UNL     1       8.996  32.976  22.306  1.00  0.00    -0.017 C 
ATOM      7  C   UNL     1       8.948  31.406  22.134  1.00  0.00     0.012 C 
ATOM      8  C   UNL     1       7.599  30.814  22.562  1.00  0.00     0.031 C 
ATOM      9  C   UNL     1       7.368  31.167  24.011  1.00  0.00    -0.077 C 
ATOM     10  C   UNL     1       7.614  32.427  24.409  1.00  0.00    -0.027 C 
ATOM     11  C   UNL     1       7.980  33.481  23.395  1.00  0.00     0.035 C 
ATOM     12  C   UNL     1       6.986  30.119  25.017  1.00  0.00     0.039 C 
ENDROOT
BRANCH   5  13
ATOM     13  C   UNL     1       7.526  33.282  20.133  1.00  0.00    -0.077 C 
ATOM     14  C   UNL     1       6.258  33.458  20.546  1.00  0.00     0.008 C 
ATOM     15  C   UNL     1       7.734  32.585  18.810  1.00  0.00     0.039 C 
ENDBRANCH   5  13
TORSDOF 1
ENDMDL
MODEL 5
REMARK VINA RESULT:    -5.737      1.564      3.175
REMARK INTER + INTRA:          -6.474
REMARK INTER:                  -6.106
REMARK INTRA:                  -0.368
REMARK UNBOUND:                -0.401
REMARK SMILES C=C(C)[C@@H]1CC[C@H](C)[C@@]12CC=C(C)CC2
REMARK SMILES IDX 8 1 7 2 6 3 5 4 4 5 9 6 15 7 14 8 12 9 11 10 10 11 13 12
REMARK SMILES IDX 2 13 1 14 3 15
REMARK H PARENT
REMARK Flexibility Score: inf
ROOT
ATOM      1  C   UNL     1       9.555  34.503  19.517  1.00  0.00     0.008 C 
ATOM      2  C   UNL     1       8.588  34.231  20.681  1.00  0.00    -0.007 C 
ATOM      3  C   UNL     1       7.214  33.741  20.219  1.00  0.00     0.004 C 
ATOM      4  C   UNL     1       6.602  33.009  21.416  1.00  0.00     0.009 C 
ATOM      5  C   UNL     1       7.691  32.987  22.503  1.00  0.00     0.021 C 
ATOM      6  C   UNL     1       9.046  33.215  21.767  1.00  0.00    -0.017 C 
ATOM      7  C   UNL     1       9.595  31.881  21.124  1.00  0.00     0.012 C 
ATOM      8  C   UNL     1      10.677  31.219  21.987  1.00  0.00     0.031 C 
ATOM      9  C   UNL     1      11.812  32.199  22.153  1.00  0.00    -0.077 C 
ATOM     10  C   UNL     1      11.516  33.475  22.450  1.00  0.00    -0.027 C 
ATOM     11  C   UNL     1      10.091  33.871  22.743  1.00  0.00     0.035 C 
ATOM     12  C   UNL     1      13.234  31.799  21.879  1.00  0.00     0.039 C 
ENDROOT
BRANCH   5  13
ATOM     13  C   UNL     1       7.618  31.820  23.498  1.00  0.00    -0.077 C 
ATOM     14  C   UNL     1       7.147  30.602  23.174  1.00  0.00     0.008 C 
ATOM     15  C   UNL     1       8.053  32.040  24.926  1.00  0.00     0.039 C 
ENDBRANCH   5  13
TORSDOF 1
ENDMDL
MODEL 6
REMARK VINA RESULT:    -5.677      1.197      3.533
REMARK INTER + INTRA:          -6.410
REMARK INTER:                  -6.015
REMARK INTRA:                  -0.395
REMARK UNBOUND:                -0.401
REMARK SMILES C=C(C)[C@@H]1CC[C@H](C)[C@@]12CC=C(C)CC2
REMARK SMILES IDX 8 1 7 2 6 3 5 4 4 5 9 6 15 7 14 8 12 9 11 10 10 11 13 12
REMARK SMILES IDX 2 13 1 14 3 15
REMARK H PARENT
REMARK Flexibility Score: inf
ROOT
ATOM      1  C   UNL     1      10.919  33.829  24.940  1.00  0.00     0.008 C 
ATOM      2  C   UNL     1       9.701  32.992  24.513  1.00  0.00    -0.007 C 
ATOM      3  C   UNL     1       8.373  33.561  25.019  1.00  0.00     0.004 C 
ATOM      4  C   UNL     1       7.291  32.995  24.096  1.00  0.00     0.009 C 
ATOM      5  C   UNL     1       8.035  32.211  23.000  1.00  0.00     0.021 C 
ATOM      6  C   UNL     1       9.496  32.758  22.988  1.00  0.00    -0.017 C 
ATOM      7  C   UNL     1       9.611  34.103  22.169  1.00  0.00     0.012 C 
ATOM      8  C   UNL     1      10.149  33.879  20.750  1.00  0.00     0.031 C 
ATOM      9  C   UNL     1      11.511  33.240  20.859  1.00  0.00    -0.077 C 
ATOM     10  C   UNL     1      11.673  32.222  21.721  1.00  0.00    -0.027 C 
ATOM     11  C   UNL     1      10.483  31.656  22.453  1.00  0.00     0.035 C 
ATOM     12  C   UNL     1      12.694  33.794  20.115  1.00  0.00     0.039 C 
ENDROOT
BRANCH   5  13
ATOM     13  C   UNL     1       7.314  32.104  21.650  1.00  0.00    -0.077 C 
ATOM     14  C   UNL     1       7.509  31.091  20.786  1.00  0.00     0.008 C 
ATOM     15  C   UNL     1       6.365  33.200  21.230  1.00  0.00     0.039 C 
ENDBRANCH   5  13
TORSDOF 1
ENDMDL
MODEL 7
REMARK VINA RESULT:    -5.664      3.196      6.376
REMARK INTER + INTRA:          -6.396
REMARK INTER:                  -6.012
REMARK INTRA:                  -0.383
REMARK UNBOUND:                -0.401
REMARK SMILES C=C(C)[C@@H]1CC[C@H](C)[C@@]12CC=C(C)CC2
REMARK SMILES IDX 8 1 7 2 6 3 5 4 4 5 9 6 15 7 14 8 12 9 11 10 10 11 13 12
REMARK SMILES IDX 2 13 1 14 3 15
REMARK H PARENT
REMARK Flexibility Score: inf
ROOT
ATOM      1  C   UNL     1      15.978  32.568  18.894  1.00  0.00     0.008 C 
ATOM      2  C   UNL     1      14.852  33.439  19.478  1.00  0.00    -0.007 C 
ATOM      3  C   UNL     1      14.050  34.181  18.407  1.00  0.00     0.004 C 
ATOM      4  C   UNL     1      12.700  34.518  19.048  1.00  0.00     0.009 C 
ATOM      5  C   UNL     1      12.710  33.851  20.434  1.00  0.00     0.021 C 
ATOM      6  C   UNL     1      13.793  32.730  20.372  1.00  0.00    -0.017 C 
ATOM      7  C   UNL     1      13.239  31.417  19.692  1.00  0.00     0.012 C 
ATOM      8  C   UNL     1      12.828  30.356  20.721  1.00  0.00     0.031 C 
ATOM      9  C   UNL     1      14.038  30.016  21.555  1.00  0.00    -0.077 C 
ATOM     10  C   UNL     1      14.801  31.022  22.014  1.00  0.00    -0.027 C 
ATOM     11  C   UNL     1      14.369  32.451  21.809  1.00  0.00     0.035 C 
ATOM     12  C   UNL     1      14.458  28.590  21.774  1.00  0.00     0.039 C 
ENDROOT
BRANCH   5  13
ATOM     13  C   UNL     1      11.336  33.469  21.001  1.00  0.00    -0.077 C 
ATOM     14  C   UNL     1      10.230  33.355  20.243  1.00  0.00     0.008 C 
ATOM     15  C   UNL     1      11.185  33.248  22.486  1.00  0.00     0.039 C 
ENDBRANCH   5  13
TORSDOF 1
ENDMDL
MODEL 8
REMARK VINA RESULT:    -5.591      2.977      6.152
REMARK INTER + INTRA:          -6.318
REMARK INTER:                  -5.945
REMARK INTRA:                  -0.373
REMARK UNBOUND:                -0.401
REMARK SMILES C=C(C)[C@@H]1CC[C@H](C)[C@@]12CC=C(C)CC2
REMARK SMILES IDX 8 1 7 2 6 3 5 4 4 5 9 6 15 7 14 8 12 9 11 10 10 11 13 12
REMARK SMILES IDX 2 13 1 14 3 15
REMARK H PARENT
REMARK Flexibility Score: inf
ROOT
ATOM      1  C   UNL     1      12.265  34.593  18.979  1.00  0.00     0.008 C 
ATOM      2  C   UNL     1      13.392  33.579  19.237  1.00  0.00    -0.007 C 
ATOM      3  C   UNL     1      14.766  34.234  19.394  1.00  0.00     0.004 C 
ATOM      4  C   UNL     1      15.626  33.232  20.169  1.00  0.00     0.009 C 
ATOM      5  C   UNL     1      14.688  32.073  20.550  1.00  0.00     0.021 C 
ATOM      6  C   UNL     1      13.238  32.640  20.469  1.00  0.00    -0.017 C 
ATOM      7  C   UNL     1      12.850  33.445  21.772  1.00  0.00     0.012 C 
ATOM      8  C   UNL     1      12.001  32.612  22.741  1.00  0.00     0.031 C 
ATOM      9  C   UNL     1      10.744  32.188  22.021  1.00  0.00    -0.077 C 
ATOM     10  C   UNL     1      10.855  31.710  20.770  1.00  0.00    -0.027 C 
ATOM     11  C   UNL     1      12.217  31.482  20.167  1.00  0.00     0.035 C 
ATOM     12  C   UNL     1       9.387  32.399  22.631  1.00  0.00     0.039 C 
ENDROOT
BRANCH   5  13
ATOM     13  C   UNL     1      15.069  31.295  21.818  1.00  0.00    -0.077 C 
ATOM     14  C   UNL     1      15.932  31.761  22.738  1.00  0.00     0.008 C 
ATOM     15  C   UNL     1      14.490  29.920  22.042  1.00  0.00     0.039 C 
ENDBRANCH   5  13
TORSDOF 1
ENDMDL
MODEL 9
REMARK VINA RESULT:    -5.543      1.957      3.733
REMARK INTER + INTRA:          -6.268
REMARK INTER:                  -5.864
REMARK INTRA:                  -0.403
REMARK UNBOUND:                -0.401
REMARK SMILES C=C(C)[C@@H]1CC[C@H](C)[C@@]12CC=C(C)CC2
REMARK SMILES IDX 8 1 7 2 6 3 5 4 4 5 9 6 15 7 14 8 12 9 11 10 10 11 13 12
REMARK SMILES IDX 2 13 1 14 3 15
REMARK H PARENT
REMARK Flexibility Score: inf
ROOT
ATOM      1  C   UNL     1      10.888  33.645  18.464  1.00  0.00     0.008 C 
ATOM      2  C   UNL     1      10.436  34.134  19.851  1.00  0.00    -0.007 C 
ATOM      3  C   UNL     1       8.923  34.336  19.954  1.00  0.00     0.004 C 
ATOM      4  C   UNL     1       8.588  34.264  21.446  1.00  0.00     0.009 C 
ATOM      5  C   UNL     1       9.901  33.897  22.159  1.00  0.00     0.021 C 
ATOM      6  C   UNL     1      10.821  33.254  21.076  1.00  0.00    -0.017 C 
ATOM      7  C   UNL     1      10.470  31.733  20.837  1.00  0.00     0.012 C 
ATOM      8  C   UNL     1      11.425  30.791  21.580  1.00  0.00     0.031 C 
ATOM      9  C   UNL     1      12.828  31.063  21.095  1.00  0.00    -0.077 C 
ATOM     10  C   UNL     1      13.227  32.341  20.981  1.00  0.00    -0.027 C 
ATOM     11  C   UNL     1      12.333  33.457  21.459  1.00  0.00     0.035 C 
ATOM     12  C   UNL     1      13.725  29.949  20.636  1.00  0.00     0.039 C 
ENDROOT
BRANCH   5  13
ATOM     13  C   UNL     1       9.750  33.146  23.489  1.00  0.00    -0.077 C 
ATOM     14  C   UNL     1      10.712  33.108  24.429  1.00  0.00     0.008 C 
ATOM     15  C   UNL     1       8.485  32.368  23.759  1.00  0.00     0.039 C 
ENDBRANCH   5  13
TORSDOF 1
ENDMDL
