MODEL 1
REMARK VINA RESULT:    -4.320      0.000      0.000
REMARK INTER + INTRA:         -13.931
REMARK INTER:                  -9.876
REMARK INTRA:                  -4.054
REMARK UNBOUND:                -4.054
REMARK SMILES CCCCCCCCCCCCCCCCCCCCCCCC(=O)[O-]
REMARK SMILES IDX 13 1 14 2 15 3 16 4 17 5 18 6 19 7 20 8 21 9 22 10 23 11
REMARK SMILES IDX 24 12 25 13 26 14 12 15 11 16 10 17 9 18 8 19 7 20 6 21 5 22
REMARK SMILES IDX 4 23 3 24 2 25 1 26
REMARK H PARENT
REMARK Flexibility Score: inf
ROOT
ATOM      1  C   UNL     1      -8.796   0.185  18.976  1.00  0.00     0.000 C 
ENDROOT
BRANCH   1   2
ATOM      2  C   UNL     1      -9.265   1.572  19.439  1.00  0.00     0.000 C 
BRANCH   2   3
ATOM      3  C   UNL     1      -8.598   2.679  18.608  1.00  0.00     0.000 C 
BRANCH   3   4
ATOM      4  C   UNL     1      -9.000   4.096  19.055  1.00  0.00     0.000 C 
BRANCH   4   5
ATOM      5  C   UNL     1      -9.692   4.953  17.980  1.00  0.00     0.000 C 
BRANCH   5   6
ATOM      6  C   UNL     1     -11.198   5.134  18.235  1.00  0.00     0.000 C 
BRANCH   6   7
ATOM      7  C   UNL     1     -12.065   4.649  17.059  1.00  0.00     0.000 C 
BRANCH   7   8
ATOM      8  C   UNL     1     -12.766   3.291  17.270  1.00  0.00     0.000 C 
BRANCH   8   9
ATOM      9  C   UNL     1     -11.973   2.062  16.793  1.00  0.00     0.000 C 
BRANCH   9  10
ATOM     10  C   UNL     1     -11.025   2.381  15.625  1.00  0.00     0.006 C 
BRANCH  10  11
ATOM     11  C   UNL     1      -9.924   1.323  15.464  1.00  0.00     0.053 C 
BRANCH  11  12
ATOM     12  C   UNL     1     -10.174   0.431  14.287  1.00  0.00     0.041 C 
ATOM     13  O   UNL     1      -9.220  -0.188  13.748  1.00  0.00    -0.550 OA
ATOM     14  O   UNL     1     -11.464   0.267  13.800  1.00  0.00    -0.550 OA
ENDBRANCH  11  12
ENDBRANCH  10  11
ENDBRANCH   9  10
ENDBRANCH   8   9
ENDBRANCH   7   8
ENDBRANCH   6   7
ENDBRANCH   5   6
ENDBRANCH   4   5
ENDBRANCH   3   4
ENDBRANCH   2   3
ENDBRANCH   1   2
BRANCH   1  15
ATOM     15  C   UNL     1      -9.094  -0.920  20.004  1.00  0.00     0.000 C 
BRANCH  15  16
ATOM     16  C   UNL     1      -9.473  -0.358  21.385  1.00  0.00     0.000 C 
BRANCH  16  17
ATOM     17  C   UNL     1      -8.542  -0.864  22.499  1.00  0.00     0.000 C 
BRANCH  17  18
ATOM     18  C   UNL     1      -8.905  -0.292  23.878  1.00  0.00    -0.000 C 
BRANCH  18  19
ATOM     19  C   UNL     1     -10.272   0.409  23.839  1.00  0.00    -0.000 C 
BRANCH  19  20
ATOM     20  C   UNL     1     -10.275   1.756  24.584  1.00  0.00    -0.000 C 
BRANCH  20  21
ATOM     21  C   UNL     1      -9.373   2.841  23.965  1.00  0.00    -0.000 C 
BRANCH  21  22
ATOM     22  C   UNL     1      -9.759   3.272  22.537  1.00  0.00    -0.000 C 
BRANCH  22  23
ATOM     23  C   UNL     1     -11.254   3.623  22.377  1.00  0.00    -0.000 C 
BRANCH  23  24
ATOM     24  C   UNL     1     -11.915   2.861  21.219  1.00  0.00    -0.000 C 
BRANCH  24  25
ATOM     25  C   UNL     1     -13.437   3.045  21.239  1.00  0.00    -0.003 C 
ATOM     26  C   UNL     1     -13.838   4.389  20.637  1.00  0.00     0.004 C 
ENDBRANCH  24  25
ENDBRANCH  23  24
ENDBRANCH  22  23
ENDBRANCH  21  22
ENDBRANCH  20  21
ENDBRANCH  19  20
ENDBRANCH  18  19
ENDBRANCH  17  18
ENDBRANCH  16  17
ENDBRANCH  15  16
ENDBRANCH   1  15
TORSDOF 22
ENDMDL
MODEL 2
REMARK VINA RESULT:    -4.150      1.575      3.315
REMARK INTER + INTRA:         -13.542
REMARK INTER:                 -10.358
REMARK INTRA:                  -3.183
REMARK UNBOUND:                -4.054
REMARK SMILES CCCCCCCCCCCCCCCCCCCCCCCC(=O)[O-]
REMARK SMILES IDX 13 1 14 2 15 3 16 4 17 5 18 6 19 7 20 8 21 9 22 10 23 11
REMARK SMILES IDX 24 12 25 13 26 14 12 15 11 16 10 17 9 18 8 19 7 20 6 21 5 22
REMARK SMILES IDX 4 23 3 24 2 25 1 26
REMARK H PARENT
REMARK Flexibility Score: inf
ROOT
ATOM      1  C   UNL     1      -9.815  -0.454  20.930  1.00  0.00     0.000 C 
ENDROOT
BRANCH   1   2
ATOM      2  C   UNL     1      -9.276   0.383  19.760  1.00  0.00     0.000 C 
BRANCH   2   3
ATOM      3  C   UNL     1     -10.098   1.668  19.585  1.00  0.00     0.000 C 
BRANCH   3   4
ATOM      4  C   UNL     1     -11.485   1.594  20.249  1.00  0.00     0.000 C 
BRANCH   4   5
ATOM      5  C   UNL     1     -12.323   2.883  20.163  1.00  0.00     0.000 C 
BRANCH   5   6
ATOM      6  C   UNL     1     -11.947   3.764  18.960  1.00  0.00     0.000 C 
BRANCH   6   7
ATOM      7  C   UNL     1     -12.836   3.506  17.730  1.00  0.00     0.000 C 
BRANCH   7   8
ATOM      8  C   UNL     1     -12.158   3.737  16.364  1.00  0.00     0.000 C 
BRANCH   8   9
ATOM      9  C   UNL     1     -10.770   3.092  16.203  1.00  0.00     0.000 C 
BRANCH   9  10
ATOM     10  C   UNL     1     -10.834   1.559  16.092  1.00  0.00     0.006 C 
BRANCH  10  11
ATOM     11  C   UNL     1     -12.063   1.085  15.305  1.00  0.00     0.053 C 
BRANCH  11  12
ATOM     12  C   UNL     1     -11.684   0.208  14.152  1.00  0.00     0.041 C 
ATOM     13  O   UNL     1     -10.474  -0.068  13.937  1.00  0.00    -0.550 OA
ATOM     14  O   UNL     1     -12.667  -0.323  13.328  1.00  0.00    -0.550 OA
ENDBRANCH  11  12
ENDBRANCH  10  11
ENDBRANCH   9  10
ENDBRANCH   8   9
ENDBRANCH   7   8
ENDBRANCH   6   7
ENDBRANCH   5   6
ENDBRANCH   4   5
ENDBRANCH   3   4
ENDBRANCH   2   3
ENDBRANCH   1   2
BRANCH   1  15
ATOM     15  C   UNL     1      -8.702  -1.162  21.721  1.00  0.00     0.000 C 
BRANCH  15  16
ATOM     16  C   UNL     1      -8.528  -0.592  23.139  1.00  0.00     0.000 C 
BRANCH  16  17
ATOM     17  C   UNL     1      -9.726   0.267  23.577  1.00  0.00     0.000 C 
BRANCH  17  18
ATOM     18  C   UNL     1      -9.371   1.242  24.710  1.00  0.00    -0.000 C 
BRANCH  18  19
ATOM     19  C   UNL     1      -8.779   2.544  24.149  1.00  0.00    -0.000 C 
BRANCH  19  20
ATOM     20  C   UNL     1      -9.530   3.055  22.906  1.00  0.00    -0.000 C 
BRANCH  20  21
ATOM     21  C   UNL     1      -9.297   4.541  22.574  1.00  0.00    -0.000 C 
BRANCH  21  22
ATOM     22  C   UNL     1      -8.124   4.819  21.613  1.00  0.00    -0.000 C 
BRANCH  22  23
ATOM     23  C   UNL     1      -8.506   4.715  20.121  1.00  0.00    -0.000 C 
BRANCH  23  24
ATOM     24  C   UNL     1      -7.309   4.347  19.233  1.00  0.00    -0.000 C 
BRANCH  24  25
ATOM     25  C   UNL     1      -6.060   5.138  19.639  1.00  0.00    -0.003 C 
ATOM     26  C   UNL     1      -4.791   4.474  19.112  1.00  0.00     0.004 C 
ENDBRANCH  24  25
ENDBRANCH  23  24
ENDBRANCH  22  23
ENDBRANCH  21  22
ENDBRANCH  20  21
ENDBRANCH  19  20
ENDBRANCH  18  19
ENDBRANCH  17  18
ENDBRANCH  16  17
ENDBRANCH  15  16
ENDBRANCH   1  15
TORSDOF 22
ENDMDL
MODEL 3
REMARK VINA RESULT:    -4.112      2.883      6.520
REMARK INTER + INTRA:         -13.454
REMARK INTER:                  -9.499
REMARK INTRA:                  -3.955
REMARK UNBOUND:                -4.054
REMARK SMILES CCCCCCCCCCCCCCCCCCCCCCCC(=O)[O-]
REMARK SMILES IDX 13 1 14 2 15 3 16 4 17 5 18 6 19 7 20 8 21 9 22 10 23 11
REMARK SMILES IDX 24 12 25 13 26 14 12 15 11 16 10 17 9 18 8 19 7 20 6 21 5 22
REMARK SMILES IDX 4 23 3 24 2 25 1 26
REMARK H PARENT
REMARK Flexibility Score: inf
ROOT
ATOM      1  C   UNL     1      -9.105   0.156  19.781  1.00  0.00     0.000 C 
ENDROOT
BRANCH   1   2
ATOM      2  C   UNL     1      -9.690  -0.658  20.944  1.00  0.00     0.000 C 
BRANCH   2   3
ATOM      3  C   UNL     1      -8.583  -1.098  21.914  1.00  0.00     0.000 C 
BRANCH   3   4
ATOM      4  C   UNL     1      -8.728  -0.481  23.317  1.00  0.00     0.000 C 
BRANCH   4   5
ATOM      5  C   UNL     1      -9.738   0.676  23.424  1.00  0.00     0.000 C 
BRANCH   5   6
ATOM      6  C   UNL     1      -9.087   2.002  23.854  1.00  0.00     0.000 C 
BRANCH   6   7
ATOM      7  C   UNL     1      -9.398   3.159  22.887  1.00  0.00     0.000 C 
BRANCH   7   8
ATOM      8  C   UNL     1      -8.677   4.489  23.194  1.00  0.00     0.000 C 
BRANCH   8   9
ATOM      9  C   UNL     1      -7.973   5.145  21.994  1.00  0.00     0.000 C 
BRANCH   9  10
ATOM     10  C   UNL     1      -8.602   4.755  20.647  1.00  0.00     0.006 C 
BRANCH  10  11
ATOM     11  C   UNL     1      -7.544   4.473  19.571  1.00  0.00     0.053 C 
BRANCH  11  12
ATOM     12  C   UNL     1      -6.449   5.496  19.584  1.00  0.00     0.041 C 
ATOM     13  O   UNL     1      -6.707   6.703  19.335  1.00  0.00    -0.550 OA
ATOM     14  O   UNL     1      -5.149   5.120  19.893  1.00  0.00    -0.550 OA
ENDBRANCH  11  12
ENDBRANCH  10  11
ENDBRANCH   9  10
ENDBRANCH   8   9
ENDBRANCH   7   8
ENDBRANCH   6   7
ENDBRANCH   5   6
ENDBRANCH   4   5
ENDBRANCH   3   4
ENDBRANCH   2   3
ENDBRANCH   1   2
BRANCH   1  15
ATOM     15  C   UNL     1      -9.815   1.504  19.579  1.00  0.00     0.000 C 
BRANCH  15  16
ATOM     16  C   UNL     1     -11.347   1.388  19.672  1.00  0.00     0.000 C 
BRANCH  16  17
ATOM     17  C   UNL     1     -11.979   2.566  20.432  1.00  0.00     0.000 C 
BRANCH  17  18
ATOM     18  C   UNL     1     -12.090   3.833  19.571  1.00  0.00    -0.000 C 
BRANCH  18  19
ATOM     19  C   UNL     1     -12.699   3.512  18.198  1.00  0.00    -0.000 C 
BRANCH  19  20
ATOM     20  C   UNL     1     -12.150   4.412  17.075  1.00  0.00    -0.000 C 
BRANCH  20  21
ATOM     21  C   UNL     1     -10.673   4.819  17.235  1.00  0.00    -0.000 C 
BRANCH  21  22
ATOM     22  C   UNL     1      -9.652   3.781  16.733  1.00  0.00    -0.000 C 
BRANCH  22  23
ATOM     23  C   UNL     1     -10.150   2.950  15.532  1.00  0.00    -0.000 C 
BRANCH  23  24
ATOM     24  C   UNL     1     -10.051   1.438  15.783  1.00  0.00    -0.000 C 
BRANCH  24  25
ATOM     25  C   UNL     1     -11.009   0.666  14.868  1.00  0.00    -0.003 C 
ATOM     26  C   UNL     1     -12.459   0.862  15.297  1.00  0.00     0.004 C 
ENDBRANCH  24  25
ENDBRANCH  23  24
ENDBRANCH  22  23
ENDBRANCH  21  22
ENDBRANCH  20  21
ENDBRANCH  19  20
ENDBRANCH  18  19
ENDBRANCH  17  18
ENDBRANCH  16  17
ENDBRANCH  15  16
ENDBRANCH   1  15
TORSDOF 22
ENDMDL
MODEL 4
REMARK VINA RESULT:    -4.085      1.285      4.233
REMARK INTER + INTRA:         -13.393
REMARK INTER:                  -9.735
REMARK INTRA:                  -3.659
REMARK UNBOUND:                -4.054
REMARK SMILES CCCCCCCCCCCCCCCCCCCCCCCC(=O)[O-]
REMARK SMILES IDX 13 1 14 2 15 3 16 4 17 5 18 6 19 7 20 8 21 9 22 10 23 11
REMARK SMILES IDX 24 12 25 13 26 14 12 15 11 16 10 17 9 18 8 19 7 20 6 21 5 22
REMARK SMILES IDX 4 23 3 24 2 25 1 26
REMARK H PARENT
REMARK Flexibility Score: inf
ROOT
ATOM      1  C   UNL     1      -9.007   4.218  21.291  1.00  0.00     0.000 C 
ENDROOT
BRANCH   1   2
ATOM      2  C   UNL     1     -10.433   4.719  21.560  1.00  0.00     0.000 C 
BRANCH   2   3
ATOM      3  C   UNL     1     -11.089   3.917  22.693  1.00  0.00     0.000 C 
BRANCH   3   4
ATOM      4  C   UNL     1     -12.624   3.858  22.583  1.00  0.00     0.000 C 
BRANCH   4   5
ATOM      5  C   UNL     1     -13.165   3.154  21.325  1.00  0.00     0.000 C 
BRANCH   5   6
ATOM      6  C   UNL     1     -13.872   4.117  20.356  1.00  0.00     0.000 C 
BRANCH   6   7
ATOM      7  C   UNL     1     -13.633   3.758  18.878  1.00  0.00     0.000 C 
BRANCH   7   8
ATOM      8  C   UNL     1     -12.268   4.190  18.305  1.00  0.00     0.000 C 
BRANCH   8   9
ATOM      9  C   UNL     1     -12.195   4.263  16.769  1.00  0.00     0.000 C 
BRANCH   9  10
ATOM     10  C   UNL     1     -11.430   3.081  16.152  1.00  0.00     0.006 C 
BRANCH  10  11
ATOM     11  C   UNL     1     -12.290   1.813  16.068  1.00  0.00     0.053 C 
BRANCH  11  12
ATOM     12  C   UNL     1     -11.756   0.842  15.060  1.00  0.00     0.041 C 
ATOM     13  O   UNL     1     -12.541   0.085  14.431  1.00  0.00    -0.550 OA
ATOM     14  O   UNL     1     -10.393   0.788  14.800  1.00  0.00    -0.550 OA
ENDBRANCH  11  12
ENDBRANCH  10  11
ENDBRANCH   9  10
ENDBRANCH   8   9
ENDBRANCH   7   8
ENDBRANCH   6   7
ENDBRANCH   5   6
ENDBRANCH   4   5
ENDBRANCH   3   4
ENDBRANCH   2   3
ENDBRANCH   1   2
BRANCH   1  15
ATOM     15  C   UNL     1      -8.430   4.741  19.965  1.00  0.00     0.000 C 
BRANCH  15  16
ATOM     16  C   UNL     1      -7.802   3.627  19.111  1.00  0.00     0.000 C 
BRANCH  16  17
ATOM     17  C   UNL     1      -8.856   2.809  18.346  1.00  0.00     0.000 C 
BRANCH  17  18
ATOM     18  C   UNL     1      -9.056   1.404  18.935  1.00  0.00    -0.000 C 
BRANCH  18  19
ATOM     19  C   UNL     1     -10.422   1.290  19.629  1.00  0.00    -0.000 C 
BRANCH  19  20
ATOM     20  C   UNL     1     -10.332   0.642  21.023  1.00  0.00    -0.000 C 
BRANCH  20  21
ATOM     21  C   UNL     1      -9.363  -0.551  21.122  1.00  0.00    -0.000 C 
BRANCH  21  22
ATOM     22  C   UNL     1      -8.679  -0.724  22.492  1.00  0.00    -0.000 C 
BRANCH  22  23
ATOM     23  C   UNL     1      -9.220   0.227  23.580  1.00  0.00    -0.000 C 
BRANCH  23  24
ATOM     24  C   UNL     1      -9.422  -0.479  24.929  1.00  0.00    -0.000 C 
BRANCH  24  25
ATOM     25  C   UNL     1     -10.850  -0.272  25.449  1.00  0.00    -0.003 C 
ATOM     26  C   UNL     1     -11.646   0.644  24.524  1.00  0.00     0.004 C 
ENDBRANCH  24  25
ENDBRANCH  23  24
ENDBRANCH  22  23
ENDBRANCH  21  22
ENDBRANCH  20  21
ENDBRANCH  19  20
ENDBRANCH  18  19
ENDBRANCH  17  18
ENDBRANCH  16  17
ENDBRANCH  15  16
ENDBRANCH   1  15
TORSDOF 22
ENDMDL
MODEL 5
REMARK VINA RESULT:    -4.079      2.196      4.837
REMARK INTER + INTRA:         -13.379
REMARK INTER:                 -10.598
REMARK INTRA:                  -2.782
REMARK UNBOUND:                -4.054
REMARK SMILES CCCCCCCCCCCCCCCCCCCCCCCC(=O)[O-]
REMARK SMILES IDX 13 1 14 2 15 3 16 4 17 5 18 6 19 7 20 8 21 9 22 10 23 11
REMARK SMILES IDX 24 12 25 13 26 14 12 15 11 16 10 17 9 18 8 19 7 20 6 21 5 22
REMARK SMILES IDX 4 23 3 24 2 25 1 26
REMARK H PARENT
REMARK Flexibility Score: inf
ROOT
ATOM      1  C   UNL     1     -12.478   3.426  21.346  1.00  0.00     0.000 C 
ENDROOT
BRANCH   1   2
ATOM      2  C   UNL     1     -13.578   4.199  20.603  1.00  0.00     0.000 C 
BRANCH   2   3
ATOM      3  C   UNL     1     -13.168   4.469  19.148  1.00  0.00     0.000 C 
BRANCH   3   4
ATOM      4  C   UNL     1     -12.739   3.197  18.395  1.00  0.00     0.000 C 
BRANCH   4   5
ATOM      5  C   UNL     1     -12.682   3.329  16.862  1.00  0.00     0.000 C 
BRANCH   5   6
ATOM      6  C   UNL     1     -11.510   4.198  16.378  1.00  0.00     0.000 C 
BRANCH   6   7
ATOM      7  C   UNL     1     -10.391   3.374  15.713  1.00  0.00     0.000 C 
BRANCH   7   8
ATOM      8  C   UNL     1     -10.604   1.847  15.715  1.00  0.00     0.000 C 
BRANCH   8   9
ATOM      9  C   UNL     1      -9.550   1.037  14.940  1.00  0.00     0.000 C 
BRANCH   9  10
ATOM     10  C   UNL     1     -10.168  -0.073  14.074  1.00  0.00     0.006 C 
BRANCH  10  11
ATOM     11  C   UNL     1     -11.604   0.259  13.644  1.00  0.00     0.053 C 
BRANCH  11  12
ATOM     12  C   UNL     1     -12.529  -0.903  13.844  1.00  0.00     0.041 C 
ATOM     13  O   UNL     1     -13.297  -0.937  14.841  1.00  0.00    -0.550 OA
ATOM     14  O   UNL     1     -12.558  -1.937  12.918  1.00  0.00    -0.550 OA
ENDBRANCH  11  12
ENDBRANCH  10  11
ENDBRANCH   9  10
ENDBRANCH   8   9
ENDBRANCH   7   8
ENDBRANCH   6   7
ENDBRANCH   5   6
ENDBRANCH   4   5
ENDBRANCH   3   4
ENDBRANCH   2   3
ENDBRANCH   1   2
BRANCH   1  15
ATOM     15  C   UNL     1     -13.005   2.166  22.051  1.00  0.00     0.000 C 
BRANCH  15  16
ATOM     16  C   UNL     1     -11.946   1.055  22.152  1.00  0.00     0.000 C 
BRANCH  16  17
ATOM     17  C   UNL     1     -11.440   0.601  20.773  1.00  0.00     0.000 C 
BRANCH  17  18
ATOM     18  C   UNL     1      -9.907   0.634  20.665  1.00  0.00    -0.000 C 
BRANCH  18  19
ATOM     19  C   UNL     1      -9.465   1.207  19.310  1.00  0.00    -0.000 C 
BRANCH  19  20
ATOM     20  C   UNL     1      -9.218   2.727  19.356  1.00  0.00    -0.000 C 
BRANCH  20  21
ATOM     21  C   UNL     1      -8.020   3.214  18.520  1.00  0.00    -0.000 C 
BRANCH  21  22
ATOM     22  C   UNL     1      -7.240   4.397  19.126  1.00  0.00    -0.000 C 
BRANCH  22  23
ATOM     23  C   UNL     1      -5.754   4.440  18.708  1.00  0.00    -0.000 C 
BRANCH  23  24
ATOM     24  C   UNL     1      -4.862   5.083  19.779  1.00  0.00    -0.000 C 
BRANCH  24  25
ATOM     25  C   UNL     1      -5.695   5.915  20.761  1.00  0.00    -0.003 C 
ATOM     26  C   UNL     1      -4.912   6.210  22.037  1.00  0.00     0.004 C 
ENDBRANCH  24  25
ENDBRANCH  23  24
ENDBRANCH  22  23
ENDBRANCH  21  22
ENDBRANCH  20  21
ENDBRANCH  19  20
ENDBRANCH  18  19
ENDBRANCH  17  18
ENDBRANCH  16  17
ENDBRANCH  15  16
ENDBRANCH   1  15
TORSDOF 22
ENDMDL
MODEL 6
REMARK VINA RESULT:    -4.069      3.326      7.583
REMARK INTER + INTRA:         -13.357
REMARK INTER:                  -9.939
REMARK INTRA:                  -3.418
REMARK UNBOUND:                -4.054
REMARK SMILES CCCCCCCCCCCCCCCCCCCCCCCC(=O)[O-]
REMARK SMILES IDX 13 1 14 2 15 3 16 4 17 5 18 6 19 7 20 8 21 9 22 10 23 11
REMARK SMILES IDX 24 12 25 13 26 14 12 15 11 16 10 17 9 18 8 19 7 20 6 21 5 22
REMARK SMILES IDX 4 23 3 24 2 25 1 26
REMARK H PARENT
REMARK Flexibility Score: inf
ROOT
ATOM      1  C   UNL     1     -11.938   2.814  21.144  1.00  0.00     0.000 C 
ENDROOT
BRANCH   1   2
ATOM      2  C   UNL     1     -11.398   1.698  20.238  1.00  0.00     0.000 C 
BRANCH   2   3
ATOM      3  C   UNL     1      -9.892   1.876  19.992  1.00  0.00     0.000 C 
BRANCH   3   4
ATOM      4  C   UNL     1      -9.310   0.832  19.022  1.00  0.00     0.000 C 
BRANCH   4   5
ATOM      5  C   UNL     1      -8.706  -0.418  19.687  1.00  0.00     0.000 C 
BRANCH   5   6
ATOM      6  C   UNL     1      -9.412  -0.799  20.999  1.00  0.00     0.000 C 
BRANCH   6   7
ATOM      7  C   UNL     1      -8.437  -0.940  22.182  1.00  0.00     0.000 C 
BRANCH   7   8
ATOM      8  C   UNL     1      -8.996  -0.511  23.555  1.00  0.00     0.000 C 
BRANCH   8   9
ATOM      9  C   UNL     1     -10.020   0.637  23.516  1.00  0.00     0.000 C 
BRANCH   9  10
ATOM     10  C   UNL     1     -11.455   0.166  23.802  1.00  0.00     0.006 C 
BRANCH  10  11
ATOM     11  C   UNL     1     -12.113   0.963  24.937  1.00  0.00     0.053 C 
BRANCH  11  12
ATOM     12  C   UNL     1     -13.291   1.752  24.455  1.00  0.00     0.041 C 
ATOM     13  O   UNL     1     -14.345   1.163  24.097  1.00  0.00    -0.550 OA
ATOM     14  O   UNL     1     -13.234   3.139  24.421  1.00  0.00    -0.550 OA
ENDBRANCH  11  12
ENDBRANCH  10  11
ENDBRANCH   9  10
ENDBRANCH   8   9
ENDBRANCH   7   8
ENDBRANCH   6   7
ENDBRANCH   5   6
ENDBRANCH   4   5
ENDBRANCH   3   4
ENDBRANCH   2   3
ENDBRANCH   1   2
BRANCH   1  15
ATOM     15  C   UNL     1     -13.414   3.147  20.866  1.00  0.00     0.000 C 
BRANCH  15  16
ATOM     16  C   UNL     1     -13.641   4.641  20.579  1.00  0.00     0.000 C 
BRANCH  16  17
ATOM     17  C   UNL     1     -12.331   5.447  20.596  1.00  0.00     0.000 C 
BRANCH  17  18
ATOM     18  C   UNL     1     -12.027   6.110  19.244  1.00  0.00    -0.000 C 
BRANCH  18  19
ATOM     19  C   UNL     1     -11.140   5.204  18.377  1.00  0.00    -0.000 C 
BRANCH  19  20
ATOM     20  C   UNL     1     -11.784   4.855  17.022  1.00  0.00    -0.000 C 
BRANCH  20  21
ATOM     21  C   UNL     1     -12.884   3.779  17.086  1.00  0.00    -0.000 C 
BRANCH  21  22
ATOM     22  C   UNL     1     -12.415   2.347  16.766  1.00  0.00    -0.000 C 
BRANCH  22  23
ATOM     23  C   UNL     1     -11.160   2.291  15.869  1.00  0.00    -0.000 C 
BRANCH  23  24
ATOM     24  C   UNL     1     -11.068   0.983  15.069  1.00  0.00    -0.000 C 
BRANCH  24  25
ATOM     25  C   UNL     1     -12.460   0.383  14.836  1.00  0.00    -0.003 C 
ATOM     26  C   UNL     1     -12.459  -0.562  13.638  1.00  0.00     0.004 C 
ENDBRANCH  24  25
ENDBRANCH  23  24
ENDBRANCH  22  23
ENDBRANCH  21  22
ENDBRANCH  20  21
ENDBRANCH  19  20
ENDBRANCH  18  19
ENDBRANCH  17  18
ENDBRANCH  16  17
ENDBRANCH  15  16
ENDBRANCH   1  15
TORSDOF 22
ENDMDL
MODEL 7
REMARK VINA RESULT:    -4.050      1.105      2.975
REMARK INTER + INTRA:         -13.314
REMARK INTER:                  -9.388
REMARK INTRA:                  -3.927
REMARK UNBOUND:                -4.054
REMARK SMILES CCCCCCCCCCCCCCCCCCCCCCCC(=O)[O-]
REMARK SMILES IDX 13 1 14 2 15 3 16 4 17 5 18 6 19 7 20 8 21 9 22 10 23 11
REMARK SMILES IDX 24 12 25 13 26 14 12 15 11 16 10 17 9 18 8 19 7 20 6 21 5 22
REMARK SMILES IDX 4 23 3 24 2 25 1 26
REMARK H PARENT
REMARK Flexibility Score: inf
ROOT
ATOM      1  C   UNL     1     -10.930  -0.274  21.240  1.00  0.00     0.000 C 
ENDROOT
BRANCH   1   2
ATOM      2  C   UNL     1     -11.645   1.018  20.818  1.00  0.00     0.000 C 
BRANCH   2   3
ATOM      3  C   UNL     1     -12.502   1.568  21.967  1.00  0.00     0.000 C 
BRANCH   3   4
ATOM      4  C   UNL     1     -12.773   3.080  21.850  1.00  0.00     0.000 C 
BRANCH   4   5
ATOM      5  C   UNL     1     -13.674   3.496  20.674  1.00  0.00     0.000 C 
BRANCH   5   6
ATOM      6  C   UNL     1     -13.210   4.795  19.994  1.00  0.00     0.000 C 
BRANCH   6   7
ATOM      7  C   UNL     1     -12.333   4.540  18.754  1.00  0.00     0.000 C 
BRANCH   7   8
ATOM      8  C   UNL     1     -12.953   3.618  17.684  1.00  0.00     0.000 C 
BRANCH   8   9
ATOM      9  C   UNL     1     -12.048   3.314  16.477  1.00  0.00     0.000 C 
BRANCH   9  10
ATOM     10  C   UNL     1     -12.118   1.843  16.034  1.00  0.00     0.006 C 
BRANCH  10  11
ATOM     11  C   UNL     1     -10.730   1.255  15.749  1.00  0.00     0.053 C 
BRANCH  11  12
ATOM     12  C   UNL     1     -10.654   0.640  14.385  1.00  0.00     0.041 C 
ATOM     13  O   UNL     1     -11.693   0.196  13.831  1.00  0.00    -0.550 OA
ATOM     14  O   UNL     1      -9.438   0.579  13.716  1.00  0.00    -0.550 OA
ENDBRANCH  11  12
ENDBRANCH  10  11
ENDBRANCH   9  10
ENDBRANCH   8   9
ENDBRANCH   7   8
ENDBRANCH   6   7
ENDBRANCH   5   6
ENDBRANCH   4   5
ENDBRANCH   3   4
ENDBRANCH   2   3
ENDBRANCH   1   2
BRANCH   1  15
ATOM     15  C   UNL     1      -9.418  -0.080  21.446  1.00  0.00     0.000 C 
BRANCH  15  16
ATOM     16  C   UNL     1      -8.882  -0.849  22.666  1.00  0.00     0.000 C 
BRANCH  16  17
ATOM     17  C   UNL     1      -9.035  -0.055  23.974  1.00  0.00     0.000 C 
BRANCH  17  18
ATOM     18  C   UNL     1      -8.988   1.465  23.752  1.00  0.00    -0.000 C 
BRANCH  18  19
ATOM     19  C   UNL     1     -10.058   2.176  24.593  1.00  0.00    -0.000 C 
BRANCH  19  20
ATOM     20  C   UNL     1     -10.025   3.707  24.433  1.00  0.00    -0.000 C 
BRANCH  20  21
ATOM     21  C   UNL     1      -9.006   4.228  23.402  1.00  0.00    -0.000 C 
BRANCH  21  22
ATOM     22  C   UNL     1      -9.602   4.624  22.037  1.00  0.00    -0.000 C 
BRANCH  22  23
ATOM     23  C   UNL     1      -9.091   3.762  20.863  1.00  0.00    -0.000 C 
BRANCH  23  24
ATOM     24  C   UNL     1      -8.780   4.598  19.613  1.00  0.00    -0.000 C 
BRANCH  24  25
ATOM     25  C   UNL     1      -8.511   3.697  18.402  1.00  0.00    -0.003 C 
ATOM     26  C   UNL     1      -8.940   2.259  18.680  1.00  0.00     0.004 C 
ENDBRANCH  24  25
ENDBRANCH  23  24
ENDBRANCH  22  23
ENDBRANCH  21  22
ENDBRANCH  20  21
ENDBRANCH  19  20
ENDBRANCH  18  19
ENDBRANCH  17  18
ENDBRANCH  16  17
ENDBRANCH  15  16
ENDBRANCH   1  15
TORSDOF 22
ENDMDL
MODEL 8
REMARK VINA RESULT:    -4.016      1.185      3.240
REMARK INTER + INTRA:         -13.236
REMARK INTER:                  -9.316
REMARK INTRA:                  -3.920
REMARK UNBOUND:                -4.054
REMARK SMILES CCCCCCCCCCCCCCCCCCCCCCCC(=O)[O-]
REMARK SMILES IDX 13 1 14 2 15 3 16 4 17 5 18 6 19 7 20 8 21 9 22 10 23 11
REMARK SMILES IDX 24 12 25 13 26 14 12 15 11 16 10 17 9 18 8 19 7 20 6 21 5 22
REMARK SMILES IDX 4 23 3 24 2 25 1 26
REMARK H PARENT
REMARK Flexibility Score: inf
ROOT
ATOM      1  C   UNL     1      -9.525   2.154  19.449  1.00  0.00     0.000 C 
ENDROOT
BRANCH   1   2
ATOM      2  C   UNL     1      -8.552   2.844  18.481  1.00  0.00     0.000 C 
BRANCH   2   3
ATOM      3  C   UNL     1      -7.856   4.032  19.161  1.00  0.00     0.000 C 
BRANCH   3   4
ATOM      4  C   UNL     1      -8.098   5.370  18.439  1.00  0.00     0.000 C 
BRANCH   4   5
ATOM      5  C   UNL     1      -9.097   5.313  17.269  1.00  0.00     0.000 C 
BRANCH   5   6
ATOM      6  C   UNL     1     -10.423   6.029  17.576  1.00  0.00     0.000 C 
BRANCH   6   7
ATOM      7  C   UNL     1     -11.636   5.351  16.914  1.00  0.00     0.000 C 
BRANCH   7   8
ATOM      8  C   UNL     1     -11.359   3.970  16.285  1.00  0.00     0.000 C 
BRANCH   8   9
ATOM      9  C   UNL     1     -12.492   2.940  16.440  1.00  0.00     0.000 C 
BRANCH   9  10
ATOM     10  C   UNL     1     -11.996   1.488  16.342  1.00  0.00     0.006 C 
BRANCH  10  11
ATOM     11  C   UNL     1     -10.564   1.399  15.796  1.00  0.00     0.053 C 
BRANCH  11  12
ATOM     12  C   UNL     1     -10.511   0.674  14.486  1.00  0.00     0.041 C 
ATOM     13  O   UNL     1     -11.543   0.120  14.026  1.00  0.00    -0.550 OA
ATOM     14  O   UNL     1      -9.326   0.631  13.763  1.00  0.00    -0.550 OA
ENDBRANCH  11  12
ENDBRANCH  10  11
ENDBRANCH   9  10
ENDBRANCH   8   9
ENDBRANCH   7   8
ENDBRANCH   6   7
ENDBRANCH   5   6
ENDBRANCH   4   5
ENDBRANCH   3   4
ENDBRANCH   2   3
ENDBRANCH   1   2
BRANCH   1  15
ATOM     15  C   UNL     1     -10.735   3.034  19.807  1.00  0.00     0.000 C 
BRANCH  15  16
ATOM     16  C   UNL     1     -11.096   2.966  21.301  1.00  0.00     0.000 C 
BRANCH  16  17
ATOM     17  C   UNL     1     -10.284   3.962  22.146  1.00  0.00     0.000 C 
BRANCH  17  18
ATOM     18  C   UNL     1      -9.175   3.280  22.961  1.00  0.00    -0.000 C 
BRANCH  18  19
ATOM     19  C   UNL     1      -9.327   3.587  24.459  1.00  0.00    -0.000 C 
BRANCH  19  20
ATOM     20  C   UNL     1      -9.511   2.319  25.313  1.00  0.00    -0.000 C 
BRANCH  20  21
ATOM     21  C   UNL     1     -10.830   1.560  25.071  1.00  0.00    -0.000 C 
BRANCH  21  22
ATOM     22  C   UNL     1     -10.669   0.149  24.472  1.00  0.00    -0.000 C 
BRANCH  22  23
ATOM     23  C   UNL     1      -9.246  -0.430  24.619  1.00  0.00    -0.000 C 
BRANCH  23  24
ATOM     24  C   UNL     1      -8.524  -0.560  23.270  1.00  0.00    -0.000 C 
BRANCH  24  25
ATOM     25  C   UNL     1      -9.493  -0.336  22.103  1.00  0.00    -0.003 C 
ATOM     26  C   UNL     1      -9.099  -1.173  20.890  1.00  0.00     0.004 C 
ENDBRANCH  24  25
ENDBRANCH  23  24
ENDBRANCH  22  23
ENDBRANCH  21  22
ENDBRANCH  20  21
ENDBRANCH  19  20
ENDBRANCH  18  19
ENDBRANCH  17  18
ENDBRANCH  16  17
ENDBRANCH  15  16
ENDBRANCH   1  15
TORSDOF 22
ENDMDL
MODEL 9
REMARK VINA RESULT:    -4.009      2.720      4.155
REMARK INTER + INTRA:         -13.221
REMARK INTER:                  -8.402
REMARK INTRA:                  -4.818
REMARK UNBOUND:                -4.054
REMARK SMILES CCCCCCCCCCCCCCCCCCCCCCCC(=O)[O-]
REMARK SMILES IDX 13 1 14 2 15 3 16 4 17 5 18 6 19 7 20 8 21 9 22 10 23 11
REMARK SMILES IDX 24 12 25 13 26 14 12 15 11 16 10 17 9 18 8 19 7 20 6 21 5 22
REMARK SMILES IDX 4 23 3 24 2 25 1 26
REMARK H PARENT
REMARK Flexibility Score: inf
ROOT
ATOM      1  C   UNL     1      -8.906   2.139  18.557  1.00  0.00     0.000 C 
ENDROOT
BRANCH   1   2
ATOM      2  C   UNL     1      -9.897   1.760  17.446  1.00  0.00     0.000 C 
BRANCH   2   3
ATOM      3  C   UNL     1      -9.922   2.834  16.347  1.00  0.00     0.000 C 
BRANCH   3   4
ATOM      4  C   UNL     1     -11.314   3.459  16.144  1.00  0.00     0.000 C 
BRANCH   4   5
ATOM      5  C   UNL     1     -12.435   2.863  17.015  1.00  0.00     0.000 C 
BRANCH   5   6
ATOM      6  C   UNL     1     -12.865   3.797  18.159  1.00  0.00     0.000 C 
BRANCH   6   7
ATOM      7  C   UNL     1     -12.062   5.110  18.192  1.00  0.00     0.000 C 
BRANCH   7   8
ATOM      8  C   UNL     1     -11.014   5.216  19.319  1.00  0.00     0.000 C 
BRANCH   8   9
ATOM      9  C   UNL     1      -9.633   5.737  18.883  1.00  0.00     0.000 C 
BRANCH   9  10
ATOM     10  C   UNL     1      -8.740   6.126  20.073  1.00  0.00     0.006 C 
BRANCH  10  11
ATOM     11  C   UNL     1      -7.676   5.062  20.374  1.00  0.00     0.053 C 
BRANCH  11  12
ATOM     12  C   UNL     1      -6.436   5.266  19.558  1.00  0.00     0.041 C 
ATOM     13  O   UNL     1      -5.657   4.302  19.338  1.00  0.00    -0.550 OA
ATOM     14  O   UNL     1      -6.153   6.515  19.022  1.00  0.00    -0.550 OA
ENDBRANCH  11  12
ENDBRANCH  10  11
ENDBRANCH   9  10
ENDBRANCH   8   9
ENDBRANCH   7   8
ENDBRANCH   6   7
ENDBRANCH   5   6
ENDBRANCH   4   5
ENDBRANCH   3   4
ENDBRANCH   2   3
ENDBRANCH   1   2
BRANCH   1  15
ATOM     15  C   UNL     1      -9.502   1.986  19.966  1.00  0.00     0.000 C 
BRANCH  15  16
ATOM     16  C   UNL     1     -10.810   1.177  19.972  1.00  0.00     0.000 C 
BRANCH  16  17
ATOM     17  C   UNL     1     -10.777   0.016  20.980  1.00  0.00     0.000 C 
BRANCH  17  18
ATOM     18  C   UNL     1      -9.396  -0.652  21.067  1.00  0.00    -0.000 C 
BRANCH  18  19
ATOM     19  C   UNL     1      -8.882  -0.664  22.514  1.00  0.00    -0.000 C 
BRANCH  19  20
ATOM     20  C   UNL     1      -9.719   0.223  23.454  1.00  0.00    -0.000 C 
BRANCH  20  21
ATOM     21  C   UNL     1      -8.991   1.472  23.986  1.00  0.00    -0.000 C 
BRANCH  21  22
ATOM     22  C   UNL     1      -9.542   2.816  23.474  1.00  0.00    -0.000 C 
BRANCH  22  23
ATOM     23  C   UNL     1     -11.066   2.974  23.661  1.00  0.00    -0.000 C 
BRANCH  23  24
ATOM     24  C   UNL     1     -11.715   3.786  22.531  1.00  0.00    -0.000 C 
BRANCH  24  25
ATOM     25  C   UNL     1     -12.974   3.086  22.004  1.00  0.00    -0.003 C 
ATOM     26  C   UNL     1     -13.331   1.876  22.861  1.00  0.00     0.004 C 
ENDBRANCH  24  25
ENDBRANCH  23  24
ENDBRANCH  22  23
ENDBRANCH  21  22
ENDBRANCH  20  21
ENDBRANCH  19  20
ENDBRANCH  18  19
ENDBRANCH  17  18
ENDBRANCH  16  17
ENDBRANCH  15  16
ENDBRANCH   1  15
TORSDOF 22
ENDMDL
