MODEL 1
REMARK VINA RESULT:    -4.246      0.000      0.000
REMARK INTER + INTRA:          -4.622
REMARK INTER:                  -4.494
REMARK INTRA:                  -0.128
REMARK UNBOUND:                -0.128
REMARK SMILES C=C(C)[C@@H]1CC=C(C)CC1
REMARK SMILES IDX 8 1 7 2 6 3 5 4 4 5 10 6 9 7 2 8 1 9 3 10
REMARK H PARENT
REMARK Flexibility Score: inf
ROOT
ATOM      1  C   UNL     1      14.375  -2.348  11.646  1.00  0.00     0.039 C 
ATOM      2  C   UNL     1      14.114  -0.957  11.136  1.00  0.00    -0.077 C 
ATOM      3  C   UNL     1      12.895  -0.407  11.325  1.00  0.00    -0.027 C 
ATOM      4  C   UNL     1      12.552   0.999  10.899  1.00  0.00     0.035 C 
ATOM      5  C   UNL     1      13.484   1.514   9.788  1.00  0.00     0.018 C 
ATOM      6  C   UNL     1      14.948   1.242  10.167  1.00  0.00     0.013 C 
ATOM      7  C   UNL     1      15.184  -0.266  10.313  1.00  0.00     0.031 C 
ENDROOT
BRANCH   5   8
ATOM      8  C   UNL     1      13.245   2.990   9.504  1.00  0.00    -0.077 C 
ATOM      9  C   UNL     1      13.921   3.926  10.191  1.00  0.00     0.008 C 
ATOM     10  C   UNL     1      12.263   3.440   8.449  1.00  0.00     0.039 C 
ENDBRANCH   5   8
TORSDOF 1
ENDMDL
MODEL 2
REMARK VINA RESULT:    -4.074      8.577      9.972
REMARK INTER + INTRA:          -4.440
REMARK INTER:                  -4.312
REMARK INTRA:                  -0.128
REMARK UNBOUND:                -0.128
REMARK SMILES C=C(C)[C@@H]1CC=C(C)CC1
REMARK SMILES IDX 8 1 7 2 6 3 5 4 4 5 10 6 9 7 2 8 1 9 3 10
REMARK H PARENT
REMARK Flexibility Score: inf
ROOT
ATOM      1  C   UNL     1      17.496  -8.218   5.465  1.00  0.00     0.039 C 
ATOM      2  C   UNL     1      16.145  -7.650   5.122  1.00  0.00    -0.077 C 
ATOM      3  C   UNL     1      16.074  -6.576   4.307  1.00  0.00    -0.027 C 
ATOM      4  C   UNL     1      14.766  -5.966   3.863  1.00  0.00     0.035 C 
ATOM      5  C   UNL     1      13.612  -6.307   4.820  1.00  0.00     0.018 C 
ATOM      6  C   UNL     1      13.607  -7.814   5.119  1.00  0.00     0.013 C 
ATOM      7  C   UNL     1      14.917  -8.219   5.805  1.00  0.00     0.031 C 
ENDROOT
BRANCH   5   8
ATOM      8  C   UNL     1      12.273  -5.844   4.260  1.00  0.00    -0.077 C 
ATOM      9  C   UNL     1      11.829  -6.331   3.090  1.00  0.00     0.008 C 
ATOM     10  C   UNL     1      11.413  -4.848   4.999  1.00  0.00     0.039 C 
ENDBRANCH   5   8
TORSDOF 1
ENDMDL
MODEL 3
REMARK VINA RESULT:    -4.017      1.206      4.618
REMARK INTER + INTRA:          -4.380
REMARK INTER:                  -4.252
REMARK INTRA:                  -0.128
REMARK UNBOUND:                -0.128
REMARK SMILES C=C(C)[C@@H]1CC=C(C)CC1
REMARK SMILES IDX 8 1 7 2 6 3 5 4 4 5 10 6 9 7 2 8 1 9 3 10
REMARK H PARENT
REMARK Flexibility Score: inf
ROOT
ATOM      1  C   UNL     1      13.426   6.224   9.742  1.00  0.00     0.039 C 
ATOM      2  C   UNL     1      13.632   4.738   9.863  1.00  0.00    -0.077 C 
ATOM      3  C   UNL     1      12.868   3.909   9.121  1.00  0.00    -0.027 C 
ATOM      4  C   UNL     1      13.034   2.408   9.132  1.00  0.00     0.035 C 
ATOM      5  C   UNL     1      13.724   1.909  10.413  1.00  0.00     0.018 C 
ATOM      6  C   UNL     1      14.982   2.748  10.690  1.00  0.00     0.013 C 
ATOM      7  C   UNL     1      14.599   4.216  10.908  1.00  0.00     0.031 C 
ENDROOT
BRANCH   5   8
ATOM      8  C   UNL     1      14.051   0.425  10.324  1.00  0.00    -0.077 C 
ATOM      9  C   UNL     1      15.188   0.019   9.735  1.00  0.00     0.008 C 
ATOM     10  C   UNL     1      13.125  -0.621  10.898  1.00  0.00     0.039 C 
ENDBRANCH   5   8
TORSDOF 1
ENDMDL
MODEL 4
REMARK VINA RESULT:    -4.008      8.983     10.099
REMARK INTER + INTRA:          -4.371
REMARK INTER:                  -4.242
REMARK INTRA:                  -0.129
REMARK UNBOUND:                -0.128
REMARK SMILES C=C(C)[C@@H]1CC=C(C)CC1
REMARK SMILES IDX 8 1 7 2 6 3 5 4 4 5 10 6 9 7 2 8 1 9 3 10
REMARK H PARENT
REMARK Flexibility Score: inf
ROOT
ATOM      1  C   UNL     1      17.724  -8.255   5.637  1.00  0.00     0.039 C 
ATOM      2  C   UNL     1      16.390  -7.702   5.212  1.00  0.00    -0.077 C 
ATOM      3  C   UNL     1      15.268  -8.191   5.781  1.00  0.00    -0.027 C 
ATOM      4  C   UNL     1      13.889  -7.666   5.461  1.00  0.00     0.035 C 
ATOM      5  C   UNL     1      13.837  -6.962   4.095  1.00  0.00     0.018 C 
ATOM      6  C   UNL     1      15.002  -5.967   3.975  1.00  0.00     0.013 C 
ATOM      7  C   UNL     1      16.341  -6.709   4.068  1.00  0.00     0.031 C 
ENDROOT
BRANCH   5   8
ATOM      8  C   UNL     1      12.494  -6.279   3.874  1.00  0.00    -0.077 C 
ATOM      9  C   UNL     1      12.002  -5.445   4.804  1.00  0.00     0.008 C 
ATOM     10  C   UNL     1      11.693  -6.507   2.615  1.00  0.00     0.039 C 
ENDBRANCH   5   8
TORSDOF 1
ENDMDL
MODEL 5
REMARK VINA RESULT:    -3.997      2.743      5.671
REMARK INTER + INTRA:          -4.358
REMARK INTER:                  -4.230
REMARK INTRA:                  -0.128
REMARK UNBOUND:                -0.128
REMARK SMILES C=C(C)[C@@H]1CC=C(C)CC1
REMARK SMILES IDX 8 1 7 2 6 3 5 4 4 5 10 6 9 7 2 8 1 9 3 10
REMARK H PARENT
REMARK Flexibility Score: inf
ROOT
ATOM      1  C   UNL     1       7.973   3.380   5.847  1.00  0.00     0.039 C 
ATOM      2  C   UNL     1       9.226   3.353   6.681  1.00  0.00    -0.077 C 
ATOM      3  C   UNL     1       9.118   3.380   8.026  1.00  0.00    -0.027 C 
ATOM      4  C   UNL     1      10.311   3.304   8.948  1.00  0.00     0.035 C 
ATOM      5  C   UNL     1      11.611   3.741   8.253  1.00  0.00     0.018 C 
ATOM      6  C   UNL     1      11.740   3.036   6.894  1.00  0.00     0.013 C 
ATOM      7  C   UNL     1      10.570   3.429   5.984  1.00  0.00     0.031 C 
ENDROOT
BRANCH   5   8
ATOM      8  C   UNL     1      12.825   3.481   9.135  1.00  0.00    -0.077 C 
ATOM      9  C   UNL     1      13.264   2.225   9.323  1.00  0.00     0.008 C 
ATOM     10  C   UNL     1      13.568   4.611   9.805  1.00  0.00     0.039 C 
ENDBRANCH   5   8
TORSDOF 1
ENDMDL
MODEL 6
REMARK VINA RESULT:    -3.910      1.269      4.853
REMARK INTER + INTRA:          -4.266
REMARK INTER:                  -4.146
REMARK INTRA:                  -0.120
REMARK UNBOUND:                -0.128
REMARK SMILES C=C(C)[C@@H]1CC=C(C)CC1
REMARK SMILES IDX 8 1 7 2 6 3 5 4 4 5 10 6 9 7 2 8 1 9 3 10
REMARK H PARENT
REMARK Flexibility Score: inf
ROOT
ATOM      1  C   UNL     1      13.084   6.437   9.382  1.00  0.00     0.039 C 
ATOM      2  C   UNL     1      13.285   4.962   9.604  1.00  0.00    -0.077 C 
ATOM      3  C   UNL     1      14.242   4.554  10.465  1.00  0.00    -0.027 C 
ATOM      4  C   UNL     1      14.485   3.102  10.796  1.00  0.00     0.035 C 
ATOM      5  C   UNL     1      13.958   2.160   9.700  1.00  0.00     0.018 C 
ATOM      6  C   UNL     1      12.522   2.553   9.319  1.00  0.00     0.013 C 
ATOM      7  C   UNL     1      12.497   3.981   8.760  1.00  0.00     0.031 C 
ENDROOT
BRANCH   5   8
ATOM      8  C   UNL     1      14.042   0.703  10.134  1.00  0.00    -0.077 C 
ATOM      9  C   UNL     1      15.131  -0.026   9.838  1.00  0.00     0.008 C 
ATOM     10  C   UNL     1      12.925   0.047  10.909  1.00  0.00     0.039 C 
ENDBRANCH   5   8
TORSDOF 1
ENDMDL
MODEL 7
REMARK VINA RESULT:    -3.884      8.222      9.547
REMARK INTER + INTRA:          -4.239
REMARK INTER:                  -4.110
REMARK INTRA:                  -0.128
REMARK UNBOUND:                -0.128
REMARK SMILES C=C(C)[C@@H]1CC=C(C)CC1
REMARK SMILES IDX 8 1 7 2 6 3 5 4 4 5 10 6 9 7 2 8 1 9 3 10
REMARK H PARENT
REMARK Flexibility Score: inf
ROOT
ATOM      1  C   UNL     1       9.139  -6.012   7.826  1.00  0.00     0.039 C 
ATOM      2  C   UNL     1      10.229  -6.087   6.791  1.00  0.00    -0.077 C 
ATOM      3  C   UNL     1      10.914  -7.241   6.644  1.00  0.00    -0.027 C 
ATOM      4  C   UNL     1      11.988  -7.431   5.600  1.00  0.00     0.035 C 
ATOM      5  C   UNL     1      12.586  -6.094   5.130  1.00  0.00     0.018 C 
ATOM      6  C   UNL     1      11.458  -5.107   4.791  1.00  0.00     0.013 C 
ATOM      7  C   UNL     1      10.611  -4.827   6.038  1.00  0.00     0.031 C 
ENDROOT
BRANCH   5   8
ATOM      8  C   UNL     1      13.527  -6.293   3.950  1.00  0.00    -0.077 C 
ATOM      9  C   UNL     1      13.072  -6.838   2.809  1.00  0.00     0.008 C 
ATOM     10  C   UNL     1      14.977  -5.878   4.021  1.00  0.00     0.039 C 
ENDBRANCH   5   8
TORSDOF 1
ENDMDL
MODEL 8
REMARK VINA RESULT:    -3.815      0.676      4.601
REMARK INTER + INTRA:          -4.166
REMARK INTER:                  -4.034
REMARK INTRA:                  -0.132
REMARK UNBOUND:                -0.128
REMARK SMILES C=C(C)[C@@H]1CC=C(C)CC1
REMARK SMILES IDX 8 1 7 2 6 3 5 4 4 5 10 6 9 7 2 8 1 9 3 10
REMARK H PARENT
REMARK Flexibility Score: inf
ROOT
ATOM      1  C   UNL     1      13.399   3.072   9.542  1.00  0.00     0.039 C 
ATOM      2  C   UNL     1      13.632   1.681  10.066  1.00  0.00    -0.077 C 
ATOM      3  C   UNL     1      12.599   1.004  10.611  1.00  0.00    -0.027 C 
ATOM      4  C   UNL     1      12.720  -0.413  11.117  1.00  0.00     0.035 C 
ATOM      5  C   UNL     1      14.173  -0.788  11.454  1.00  0.00     0.018 C 
ATOM      6  C   UNL     1      15.099  -0.384  10.297  1.00  0.00     0.013 C 
ATOM      7  C   UNL     1      15.046   1.134  10.085  1.00  0.00     0.031 C 
ENDROOT
BRANCH   5   8
ATOM      8  C   UNL     1      14.301  -2.270  11.781  1.00  0.00    -0.077 C 
ATOM      9  C   UNL     1      13.215  -3.061  11.758  1.00  0.00     0.008 C 
ATOM     10  C   UNL     1      15.635  -2.888  12.124  1.00  0.00     0.039 C 
ENDBRANCH   5   8
TORSDOF 1
ENDMDL
MODEL 9
REMARK VINA RESULT:    -3.760      3.641      6.240
REMARK INTER + INTRA:          -4.108
REMARK INTER:                  -3.984
REMARK INTRA:                  -0.124
REMARK UNBOUND:                -0.128
REMARK SMILES C=C(C)[C@@H]1CC=C(C)CC1
REMARK SMILES IDX 8 1 7 2 6 3 5 4 4 5 10 6 9 7 2 8 1 9 3 10
REMARK H PARENT
REMARK Flexibility Score: inf
ROOT
ATOM      1  C   UNL     1      12.950   3.433   9.134  1.00  0.00     0.039 C 
ATOM      2  C   UNL     1      11.640   3.373   8.396  1.00  0.00    -0.077 C 
ATOM      3  C   UNL     1      11.648   3.379   7.046  1.00  0.00    -0.027 C 
ATOM      4  C   UNL     1      10.391   3.269   6.216  1.00  0.00     0.035 C 
ATOM      5  C   UNL     1       9.138   3.697   6.999  1.00  0.00     0.018 C 
ATOM      6  C   UNL     1       9.122   3.014   8.375  1.00  0.00     0.013 C 
ATOM      7  C   UNL     1      10.350   3.439   9.189  1.00  0.00     0.031 C 
ENDROOT
BRANCH   5   8
ATOM      8  C   UNL     1       7.867   3.403   6.214  1.00  0.00    -0.077 C 
ATOM      9  C   UNL     1       7.610   4.068   5.076  1.00  0.00     0.008 C 
ATOM     10  C   UNL     1       6.878   2.361   6.678  1.00  0.00     0.039 C 
ENDBRANCH   5   8
TORSDOF 1
ENDMDL
