MODEL 1
REMARK VINA RESULT:    -4.323      0.000      0.000
REMARK INTER + INTRA:          -5.043
REMARK INTER:                  -4.828
REMARK INTRA:                  -0.215
REMARK UNBOUND:                -0.215
REMARK SMILES CC(C)c1ccc(C(=O)[O-])cc1
REMARK SMILES IDX 7 1 6 2 11 3 5 4 12 5 4 6 8 7 9 8 10 9 2 10 1 11 3 12
REMARK H PARENT
REMARK Flexibility Score: inf
ROOT
ATOM      1  C   UNL     1      55.132  29.056  50.808  1.00  0.00    -0.003 A 
ATOM      2  C   UNL     1      55.225  27.658  50.709  1.00  0.00     0.010 A 
ATOM      3  C   UNL     1      56.313  29.813  50.885  1.00  0.00     0.010 A 
ATOM      4  C   UNL     1      56.474  27.029  50.687  1.00  0.00     0.004 A 
ATOM      5  C   UNL     1      57.561  29.184  50.863  1.00  0.00     0.004 A 
ATOM      6  C   UNL     1      57.655  27.784  50.764  1.00  0.00    -0.045 A 
ENDROOT
BRANCH   1   7
ATOM      7  C   UNL     1      53.808  29.717  50.831  1.00  0.00     0.071 C 
ATOM      8  O   UNL     1      52.875  29.309  50.089  1.00  0.00    -0.545 OA
ATOM      9  O   UNL     1      53.575  30.799  51.672  1.00  0.00    -0.545 OA
ENDBRANCH   1   7
BRANCH   6  10
ATOM     10  C   UNL     1      59.004  27.089  50.739  1.00  0.00     0.013 C 
ATOM     11  C   UNL     1      59.920  27.699  49.671  1.00  0.00     0.012 C 
ATOM     12  C   UNL     1      58.844  25.578  50.533  1.00  0.00     0.012 C 
ENDBRANCH   6  10
TORSDOF 2
ENDMDL
MODEL 2
REMARK VINA RESULT:    -4.303      0.045      1.398
REMARK INTER + INTRA:          -5.022
REMARK INTER:                  -4.806
REMARK INTRA:                  -0.215
REMARK UNBOUND:                -0.215
REMARK SMILES CC(C)c1ccc(C(=O)[O-])cc1
REMARK SMILES IDX 7 1 6 2 11 3 5 4 12 5 4 6 8 7 9 8 10 9 2 10 1 11 3 12
REMARK H PARENT
REMARK Flexibility Score: inf
ROOT
ATOM      1  C   UNL     1      55.123  29.051  50.810  1.00  0.00    -0.003 A 
ATOM      2  C   UNL     1      56.303  29.810  50.871  1.00  0.00     0.010 A 
ATOM      3  C   UNL     1      55.216  27.652  50.725  1.00  0.00     0.010 A 
ATOM      4  C   UNL     1      57.552  29.182  50.846  1.00  0.00     0.004 A 
ATOM      5  C   UNL     1      56.465  27.025  50.700  1.00  0.00     0.004 A 
ATOM      6  C   UNL     1      57.648  27.784  50.759  1.00  0.00    -0.045 A 
ENDROOT
BRANCH   1   7
ATOM      7  C   UNL     1      53.802  29.720  50.838  1.00  0.00     0.071 C 
ATOM      8  O   UNL     1      52.875  29.338  50.075  1.00  0.00    -0.545 OA
ATOM      9  O   UNL     1      53.568  30.779  51.707  1.00  0.00    -0.545 OA
ENDBRANCH   1   7
BRANCH   6  10
ATOM     10  C   UNL     1      59.010  27.115  50.733  1.00  0.00     0.013 C 
ATOM     11  C   UNL     1      59.936  27.789  49.714  1.00  0.00     0.012 C 
ATOM     12  C   UNL     1      58.884  25.613  50.456  1.00  0.00     0.012 C 
ENDBRANCH   6  10
TORSDOF 2
ENDMDL
MODEL 3
REMARK VINA RESULT:    -4.286      3.278      5.069
REMARK INTER + INTRA:          -5.002
REMARK INTER:                  -4.791
REMARK INTRA:                  -0.212
REMARK UNBOUND:                -0.215
REMARK SMILES CC(C)c1ccc(C(=O)[O-])cc1
REMARK SMILES IDX 7 1 6 2 11 3 5 4 12 5 4 6 8 7 9 8 10 9 2 10 1 11 3 12
REMARK H PARENT
REMARK Flexibility Score: inf
ROOT
ATOM      1  C   UNL     1      57.803  27.227  50.738  1.00  0.00    -0.003 A 
ATOM      2  C   UNL     1      57.130  26.018  50.499  1.00  0.00     0.010 A 
ATOM      3  C   UNL     1      57.053  28.408  50.877  1.00  0.00     0.010 A 
ATOM      4  C   UNL     1      55.736  25.989  50.400  1.00  0.00     0.004 A 
ATOM      5  C   UNL     1      55.660  28.378  50.779  1.00  0.00     0.004 A 
ATOM      6  C   UNL     1      54.985  27.168  50.538  1.00  0.00    -0.045 A 
ENDROOT
BRANCH   1   7
ATOM      7  C   UNL     1      59.279  27.253  50.841  1.00  0.00     0.071 C 
ATOM      8  O   UNL     1      59.845  27.150  51.963  1.00  0.00    -0.545 OA
ATOM      9  O   UNL     1      60.063  27.392  49.702  1.00  0.00    -0.545 OA
ENDBRANCH   1   7
BRANCH   6  10
ATOM     10  C   UNL     1      53.472  27.122  50.430  1.00  0.00     0.013 C 
ATOM     11  C   UNL     1      53.023  26.074  49.404  1.00  0.00     0.012 C 
ATOM     12  C   UNL     1      52.899  28.504  50.094  1.00  0.00     0.012 C 
ENDBRANCH   6  10
TORSDOF 2
ENDMDL
MODEL 4
REMARK VINA RESULT:    -4.279      3.557      5.206
REMARK INTER + INTRA:          -4.994
REMARK INTER:                  -4.773
REMARK INTRA:                  -0.221
REMARK UNBOUND:                -0.215
REMARK SMILES CC(C)c1ccc(C(=O)[O-])cc1
REMARK SMILES IDX 7 1 6 2 11 3 5 4 12 5 4 6 8 7 9 8 10 9 2 10 1 11 3 12
REMARK H PARENT
REMARK Flexibility Score: inf
ROOT
ATOM      1  C   UNL     1      59.287  27.869  50.445  1.00  0.00    -0.003 A 
ATOM      2  C   UNL     1      58.325  28.882  50.590  1.00  0.00     0.010 A 
ATOM      3  C   UNL     1      58.863  26.531  50.390  1.00  0.00     0.010 A 
ATOM      4  C   UNL     1      56.966  28.563  50.679  1.00  0.00     0.004 A 
ATOM      5  C   UNL     1      57.506  26.212  50.479  1.00  0.00     0.004 A 
ATOM      6  C   UNL     1      56.541  27.226  50.625  1.00  0.00    -0.045 A 
ENDROOT
BRANCH   1   7
ATOM      7  C   UNL     1      60.724  28.212  50.351  1.00  0.00     0.071 C 
ATOM      8  O   UNL     1      61.560  27.362  49.943  1.00  0.00    -0.545 OA
ATOM      9  O   UNL     1      61.171  29.477  50.713  1.00  0.00    -0.545 OA
ENDBRANCH   1   7
BRANCH   6  10
ATOM     10  C   UNL     1      55.064  26.894  50.722  1.00  0.00     0.013 C 
ATOM     11  C   UNL     1      54.717  25.665  49.873  1.00  0.00     0.012 C 
ATOM     12  C   UNL     1      54.199  28.097  50.331  1.00  0.00     0.012 C 
ENDBRANCH   6  10
TORSDOF 2
ENDMDL
MODEL 5
REMARK VINA RESULT:    -4.273      3.263      5.243
REMARK INTER + INTRA:          -4.988
REMARK INTER:                  -4.775
REMARK INTRA:                  -0.212
REMARK UNBOUND:                -0.215
REMARK SMILES CC(C)c1ccc(C(=O)[O-])cc1
REMARK SMILES IDX 7 1 6 2 11 3 5 4 12 5 4 6 8 7 9 8 10 9 2 10 1 11 3 12
REMARK H PARENT
REMARK Flexibility Score: inf
ROOT
ATOM      1  C   UNL     1      57.697  27.199  50.750  1.00  0.00    -0.003 A 
ATOM      2  C   UNL     1      56.984  28.404  50.866  1.00  0.00     0.010 A 
ATOM      3  C   UNL     1      56.988  26.010  50.511  1.00  0.00     0.010 A 
ATOM      4  C   UNL     1      55.591  28.419  50.746  1.00  0.00     0.004 A 
ATOM      5  C   UNL     1      55.596  26.025  50.391  1.00  0.00     0.004 A 
ATOM      6  C   UNL     1      54.881  27.231  50.508  1.00  0.00    -0.045 A 
ENDROOT
BRANCH   1   7
ATOM      7  C   UNL     1      59.171  27.187  50.878  1.00  0.00     0.071 C 
ATOM      8  O   UNL     1      59.716  26.963  51.991  1.00  0.00    -0.545 OA
ATOM      9  O   UNL     1      59.975  27.424  49.769  1.00  0.00    -0.545 OA
ENDBRANCH   1   7
BRANCH   6  10
ATOM     10  C   UNL     1      53.370  27.263  50.379  1.00  0.00     0.013 C 
ATOM     11  C   UNL     1      52.879  26.213  49.375  1.00  0.00     0.012 C 
ATOM     12  C   UNL     1      52.875  28.663  50.000  1.00  0.00     0.012 C 
ENDBRANCH   6  10
TORSDOF 2
ENDMDL
MODEL 6
REMARK VINA RESULT:    -4.258      2.406      3.286
REMARK INTER + INTRA:          -4.971
REMARK INTER:                  -4.766
REMARK INTRA:                  -0.205
REMARK UNBOUND:                -0.215
REMARK SMILES CC(C)c1ccc(C(=O)[O-])cc1
REMARK SMILES IDX 7 1 6 2 11 3 5 4 12 5 4 6 8 7 9 8 10 9 2 10 1 11 3 12
REMARK H PARENT
REMARK Flexibility Score: inf
ROOT
ATOM      1  C   UNL     1      54.815  26.397  50.211  1.00  0.00    -0.003 A 
ATOM      2  C   UNL     1      56.142  25.969  50.380  1.00  0.00     0.010 A 
ATOM      3  C   UNL     1      54.514  27.760  50.369  1.00  0.00     0.010 A 
ATOM      4  C   UNL     1      57.148  26.885  50.702  1.00  0.00     0.004 A 
ATOM      5  C   UNL     1      55.519  28.676  50.690  1.00  0.00     0.004 A 
ATOM      6  C   UNL     1      56.849  28.248  50.861  1.00  0.00    -0.045 A 
ENDROOT
BRANCH   1   7
ATOM      7  C   UNL     1      53.754  25.423  49.870  1.00  0.00     0.071 C 
ATOM      8  O   UNL     1      53.632  24.353  50.523  1.00  0.00    -0.545 OA
ATOM      9  O   UNL     1      52.875  25.677  48.823  1.00  0.00    -0.545 OA
ENDBRANCH   1   7
BRANCH   6  10
ATOM     10  C   UNL     1      57.950  29.232  51.210  1.00  0.00     0.013 C 
ATOM     11  C   UNL     1      59.078  29.189  50.173  1.00  0.00     0.012 C 
ATOM     12  C   UNL     1      58.489  28.981  52.623  1.00  0.00     0.012 C 
ENDBRANCH   6  10
TORSDOF 2
ENDMDL
MODEL 7
REMARK VINA RESULT:    -4.052      3.414      5.183
REMARK INTER + INTRA:          -4.741
REMARK INTER:                  -4.529
REMARK INTRA:                  -0.213
REMARK UNBOUND:                -0.215
REMARK SMILES CC(C)c1ccc(C(=O)[O-])cc1
REMARK SMILES IDX 7 1 6 2 11 3 5 4 12 5 4 6 8 7 9 8 10 9 2 10 1 11 3 12
REMARK H PARENT
REMARK Flexibility Score: inf
ROOT
ATOM      1  C   UNL     1      57.965  26.685  50.669  1.00  0.00    -0.003 A 
ATOM      2  C   UNL     1      56.752  25.981  50.599  1.00  0.00     0.010 A 
ATOM      3  C   UNL     1      57.935  28.086  50.765  1.00  0.00     0.010 A 
ATOM      4  C   UNL     1      55.533  26.664  50.624  1.00  0.00     0.004 A 
ATOM      5  C   UNL     1      56.716  28.769  50.790  1.00  0.00     0.004 A 
ATOM      6  C   UNL     1      55.500  28.065  50.718  1.00  0.00    -0.045 A 
ENDROOT
BRANCH   1   7
ATOM      7  C   UNL     1      59.254  25.957  50.644  1.00  0.00     0.071 C 
ATOM      8  O   UNL     1      60.335  26.576  50.456  1.00  0.00    -0.545 OA
ATOM      9  O   UNL     1      59.289  24.580  50.827  1.00  0.00    -0.545 OA
ENDBRANCH   1   7
BRANCH   6  10
ATOM     10  C   UNL     1      54.170  28.794  50.744  1.00  0.00     0.013 C 
ATOM     11  C   UNL     1      53.729  29.089  52.182  1.00  0.00     0.012 C 
ATOM     12  C   UNL     1      53.093  28.007  49.987  1.00  0.00     0.012 C 
ENDBRANCH   6  10
TORSDOF 2
ENDMDL
MODEL 8
REMARK VINA RESULT:    -3.712      9.520     10.439
REMARK INTER + INTRA:          -4.361
REMARK INTER:                  -4.141
REMARK INTRA:                  -0.220
REMARK UNBOUND:                -0.215
REMARK SMILES CC(C)c1ccc(C(=O)[O-])cc1
REMARK SMILES IDX 7 1 6 2 11 3 5 4 12 5 4 6 8 7 9 8 10 9 2 10 1 11 3 12
REMARK H PARENT
REMARK Flexibility Score: inf
ROOT
ATOM      1  C   UNL     1      55.900  18.891  52.645  1.00  0.00    -0.003 A 
ATOM      2  C   UNL     1      57.040  18.341  53.254  1.00  0.00     0.010 A 
ATOM      3  C   UNL     1      55.784  18.838  51.246  1.00  0.00     0.010 A 
ATOM      4  C   UNL     1      58.044  17.752  52.479  1.00  0.00     0.004 A 
ATOM      5  C   UNL     1      56.787  18.249  50.472  1.00  0.00     0.004 A 
ATOM      6  C   UNL     1      57.930  17.699  51.081  1.00  0.00    -0.045 A 
ENDROOT
BRANCH   1   7
ATOM      7  C   UNL     1      54.840  19.514  53.469  1.00  0.00     0.071 C 
ATOM      8  O   UNL     1      54.737  19.240  54.694  1.00  0.00    -0.545 OA
ATOM      9  O   UNL     1      53.943  20.410  52.901  1.00  0.00    -0.545 OA
ENDBRANCH   1   7
BRANCH   6  10
ATOM     10  C   UNL     1      59.026  17.057  50.252  1.00  0.00     0.013 C 
ATOM     11  C   UNL     1      58.500  16.623  48.879  1.00  0.00     0.012 C 
ATOM     12  C   UNL     1      59.663  15.877  50.997  1.00  0.00     0.012 C 
ENDBRANCH   6  10
TORSDOF 2
ENDMDL
