MODEL 1
REMARK VINA RESULT:    -4.015      0.000      0.000
REMARK INTER + INTRA:          -5.558
REMARK INTER:                  -5.659
REMARK INTRA:                   0.101
REMARK UNBOUND:                 0.101
REMARK SMILES CC1=CCC(=C(C)C)C(=O)CC(C)=CCC1
REMARK SMILES IDX 12 1 14 2 13 3 15 4 16 5 2 6 1 7 3 8 11 10 9 11 10 12 5 13
REMARK SMILES IDX 6 14 7 15 8 16 4 17
REMARK H PARENT
REMARK Flexibility Score: 60.00
ROOT
ATOM      1  C   UNL     1      11.432  22.945  56.404  1.00  0.00    -0.070 C 
ATOM      2  C   UNL     1      11.765  23.871  55.467  1.00  0.00    -0.027 C 
ATOM      3  C   UNL     1      10.233  22.072  56.135  1.00  0.00     0.039 C 
ENDROOT
BRANCH   2   4
ATOM      4  C   UNL     1      12.886  24.871  55.600  1.00  0.00     0.032 C 
BRANCH   4   5
ATOM      5  C   UNL     1      14.153  24.376  54.884  1.00  0.00     0.034 C 
BRANCH   5   6
ATOM      6  C   UNL     1      15.436  24.789  55.577  1.00  0.00    -0.077 C 
ATOM      7  C   UNL     1      15.952  26.188  55.341  1.00  0.00     0.039 C 
ATOM      8  C   UNL     1      16.087  24.010  56.478  1.00  0.00    -0.023 CG0
ATOM      9  G   UNL     1      15.833  22.545  56.752  1.00  0.00     0.000 G0
ENDBRANCH   5   6
ENDBRANCH   4   5
ENDBRANCH   2   4
BRANCH   1  10
ATOM     10  C   UNL     1      12.215  22.742  57.693  1.00  0.00     0.111 C 
BRANCH  10  11
ATOM     11  C   UNL     1      13.415  21.848  57.481  1.00  0.00     0.163 C 
ATOM     12  O   UNL     1      13.196  20.729  56.943  1.00  0.00    -0.294 OA
BRANCH  11  13
ATOM     13  C   UNL     1      14.825  22.229  57.866  1.00  0.00    -0.002 C 
ATOM     14  C   UNL     1      15.203  22.319  59.181  1.00  0.00    -0.069 C 
ATOM     15  C   UNL     1      14.279  21.924  60.312  1.00  0.00     0.039 C 
ATOM     16  C   UNL     1      16.602  22.752  59.575  1.00  0.00     0.039 C 
BRANCH  13  17
ATOM     17  C   UNL     1      15.843  22.523  56.767  1.00  0.00     0.066 CG0
ATOM     18  G   UNL     1      16.075  23.993  56.503  1.00  0.00     0.000 G0
ENDBRANCH  13  17
ENDBRANCH  11  13
ENDBRANCH  10  11
ENDBRANCH   1  10
TORSDOF 0
ENDMDL
MODEL 2
REMARK VINA RESULT:    -3.934      2.322      5.236
REMARK INTER + INTRA:          -5.443
REMARK INTER:                  -5.590
REMARK INTRA:                   0.147
REMARK UNBOUND:                 0.101
REMARK SMILES CC1=CCC(=C(C)C)C(=O)CC(C)=CCC1
REMARK SMILES IDX 12 1 14 2 13 3 15 4 16 5 2 6 1 7 3 8 11 10 9 11 10 12 5 13
REMARK SMILES IDX 6 14 7 15 8 16 4 17
REMARK H PARENT
REMARK Flexibility Score: 60.00
ROOT
ATOM      1  C   UNL     1      16.623  22.665  59.872  1.00  0.00    -0.070 C 
ATOM      2  C   UNL     1      15.747  22.529  60.901  1.00  0.00    -0.027 C 
ATOM      3  C   UNL     1      18.082  22.404  60.150  1.00  0.00     0.039 C 
ENDROOT
BRANCH   2   4
ATOM      4  C   UNL     1      14.269  22.815  60.823  1.00  0.00     0.032 C 
BRANCH   4   5
ATOM      5  C   UNL     1      13.509  21.629  60.205  1.00  0.00     0.034 C 
BRANCH   5   6
ATOM      6  C   UNL     1      12.412  22.049  59.247  1.00  0.00    -0.077 C 
ATOM      7  C   UNL     1      11.238  22.816  59.805  1.00  0.00     0.039 C 
ATOM      8  C   UNL     1      12.480  21.867  57.904  1.00  0.00    -0.023 CG0
ATOM      9  G   UNL     1      13.478  21.010  57.159  1.00  0.00     0.000 G0
ENDBRANCH   5   6
ENDBRANCH   4   5
ENDBRANCH   2   4
BRANCH   1  10
ATOM     10  C   UNL     1      16.201  23.052  58.462  1.00  0.00     0.111 C 
BRANCH  10  11
ATOM     11  C   UNL     1      15.908  21.835  57.614  1.00  0.00     0.163 C 
ATOM     12  O   UNL     1      16.715  20.871  57.714  1.00  0.00    -0.294 OA
BRANCH  11  13
ATOM     13  C   UNL     1      14.722  21.722  56.687  1.00  0.00    -0.002 C 
ATOM     14  C   UNL     1      14.749  22.268  55.429  1.00  0.00    -0.069 C 
ATOM     15  C   UNL     1      15.998  22.899  54.853  1.00  0.00     0.039 C 
ATOM     16  C   UNL     1      13.543  22.205  54.512  1.00  0.00     0.039 C 
BRANCH  13  17
ATOM     17  C   UNL     1      13.470  20.990  57.163  1.00  0.00     0.066 CG0
ATOM     18  G   UNL     1      12.482  21.857  57.909  1.00  0.00     0.000 G0
ENDBRANCH  13  17
ENDBRANCH  11  13
ENDBRANCH  10  11
ENDBRANCH   1  10
TORSDOF 0
ENDMDL
MODEL 3
REMARK VINA RESULT:    -3.814      2.602      4.550
REMARK INTER + INTRA:          -5.273
REMARK INTER:                  -5.548
REMARK INTRA:                   0.275
REMARK UNBOUND:                 0.101
REMARK SMILES CC1=CCC(=C(C)C)C(=O)CC(C)=CCC1
REMARK SMILES IDX 12 1 14 2 13 3 15 4 16 5 2 6 1 7 3 8 11 10 9 11 10 12 5 13
REMARK SMILES IDX 6 14 7 15 8 16 4 17
REMARK H PARENT
REMARK Flexibility Score: 60.00
ROOT
ATOM      1  C   UNL     1       9.549  22.067  57.114  1.00  0.00    -0.070 C 
ATOM      2  C   UNL     1       9.980  21.737  58.358  1.00  0.00    -0.027 C 
ATOM      3  C   UNL     1       8.144  21.675  56.729  1.00  0.00     0.039 C 
ENDROOT
BRANCH   2   4
ATOM      4  C   UNL     1      11.370  21.987  58.887  1.00  0.00     0.032 C 
BRANCH   4   5
ATOM      5  C   UNL     1      12.379  21.003  58.271  1.00  0.00     0.034 C 
BRANCH   5   6
ATOM      6  C   UNL     1      13.588  21.683  57.661  1.00  0.00    -0.077 C 
ATOM      7  C   UNL     1      14.458  22.526  58.560  1.00  0.00     0.039 C 
ATOM      8  C   UNL     1      13.989  21.491  56.378  1.00  0.00    -0.023 CG0
ATOM      9  G   UNL     1      13.202  20.815  55.279  1.00  0.00     0.000 G0
ENDBRANCH   5   6
ENDBRANCH   4   5
ENDBRANCH   2   4
BRANCH   1  10
ATOM     10  C   UNL     1      10.406  22.817  56.104  1.00  0.00     0.111 C 
BRANCH  10  11
ATOM     11  C   UNL     1      10.834  21.923  54.963  1.00  0.00     0.163 C 
ATOM     12  O   UNL     1       9.920  21.282  54.376  1.00  0.00    -0.294 OA
BRANCH  11  13
ATOM     13  C   UNL     1      12.265  21.775  54.502  1.00  0.00    -0.002 C 
ATOM     14  C   UNL     1      12.738  22.471  53.420  1.00  0.00    -0.069 C 
ATOM     15  C   UNL     1      11.904  23.513  52.706  1.00  0.00     0.039 C 
ATOM     16  C   UNL     1      14.158  22.288  52.920  1.00  0.00     0.039 C 
BRANCH  13  17
ATOM     17  C   UNL     1      13.195  20.829  55.256  1.00  0.00     0.066 CG0
ATOM     18  G   UNL     1      13.984  21.480  56.370  1.00  0.00     0.000 G0
ENDBRANCH  13  17
ENDBRANCH  11  13
ENDBRANCH  10  11
ENDBRANCH   1  10
TORSDOF 0
ENDMDL
MODEL 4
REMARK VINA RESULT:    -3.777      1.812      4.281
REMARK INTER + INTRA:          -5.221
REMARK INTER:                  -5.611
REMARK INTRA:                   0.390
REMARK UNBOUND:                 0.101
REMARK SMILES CC1=CCC(=C(C)C)C(=O)CC(C)=CCC1
REMARK SMILES IDX 12 1 14 2 13 3 15 4 16 5 2 6 1 7 3 8 11 10 9 11 10 12 5 13
REMARK SMILES IDX 6 14 7 15 8 16 4 17
REMARK H PARENT
REMARK Flexibility Score: 60.00
ROOT
ATOM      1  C   UNL     1      15.129  22.103  59.921  1.00  0.00    -0.070 C 
ATOM      2  C   UNL     1      16.372  22.395  59.456  1.00  0.00    -0.027 C 
ATOM      3  C   UNL     1      14.816  22.446  61.355  1.00  0.00     0.039 C 
ENDROOT
BRANCH   2   4
ATOM      4  C   UNL     1      16.880  22.062  58.076  1.00  0.00     0.032 C 
BRANCH   4   5
ATOM      5  C   UNL     1      16.434  23.121  57.054  1.00  0.00     0.034 C 
BRANCH   5   6
ATOM      6  C   UNL     1      15.734  22.534  55.845  1.00  0.00    -0.077 C 
ATOM      7  C   UNL     1      16.554  21.717  54.877  1.00  0.00     0.039 C 
ATOM      8  C   UNL     1      14.394  22.613  55.642  1.00  0.00    -0.023 CG0
ATOM      9  G   UNL     1      13.418  23.489  56.394  1.00  0.00     0.000 G0
ENDBRANCH   5   6
ENDBRANCH   4   5
ENDBRANCH   2   4
BRANCH   1  10
ATOM     10  C   UNL     1      14.045  21.465  59.063  1.00  0.00     0.111 C 
BRANCH  10  11
ATOM     11  C   UNL     1      12.938  22.443  58.746  1.00  0.00     0.163 C 
ATOM     12  O   UNL     1      12.398  23.022  59.728  1.00  0.00    -0.294 OA
BRANCH  11  13
ATOM     13  C   UNL     1      12.468  22.755  57.345  1.00  0.00    -0.002 C 
ATOM     14  C   UNL     1      11.221  22.382  56.914  1.00  0.00    -0.069 C 
ATOM     15  C   UNL     1      10.203  21.756  57.843  1.00  0.00     0.039 C 
ATOM     16  C   UNL     1      10.762  22.645  55.493  1.00  0.00     0.039 C 
BRANCH  13  17
ATOM     17  C   UNL     1      13.404  23.495  56.393  1.00  0.00     0.066 CG0
ATOM     18  G   UNL     1      14.382  22.608  55.658  1.00  0.00     0.000 G0
ENDBRANCH  13  17
ENDBRANCH  11  13
ENDBRANCH  10  11
ENDBRANCH   1  10
TORSDOF 0
ENDMDL
MODEL 5
REMARK VINA RESULT:    -3.724      1.818      3.753
REMARK INTER + INTRA:          -5.147
REMARK INTER:                  -5.438
REMARK INTRA:                   0.291
REMARK UNBOUND:                 0.101
REMARK SMILES CC1=CCC(=C(C)C)C(=O)CC(C)=CCC1
REMARK SMILES IDX 12 1 14 2 13 3 15 4 16 5 2 6 1 7 3 8 11 10 9 11 10 12 5 13
REMARK SMILES IDX 6 14 7 15 8 16 4 17
REMARK H PARENT
REMARK Flexibility Score: 60.00
ROOT
ATOM      1  C   UNL     1      10.879  22.438  55.420  1.00  0.00    -0.070 C 
ATOM      2  C   UNL     1       9.921  22.114  56.327  1.00  0.00    -0.027 C 
ATOM      3  C   UNL     1      10.654  22.033  53.985  1.00  0.00     0.039 C 
ENDROOT
BRANCH   2   4
ATOM      4  C   UNL     1      10.010  22.376  57.810  1.00  0.00     0.032 C 
BRANCH   4   5
ATOM      5  C   UNL     1      11.045  21.452  58.472  1.00  0.00     0.034 C 
BRANCH   5   6
ATOM      6  C   UNL     1      12.000  22.183  59.396  1.00  0.00    -0.077 C 
ATOM      7  C   UNL     1      11.413  23.008  60.514  1.00  0.00     0.039 C 
ATOM      8  C   UNL     1      13.349  22.049  59.337  1.00  0.00    -0.023 CG0
ATOM      9  G   UNL     1      14.144  21.399  58.227  1.00  0.00     0.000 G0
ENDBRANCH   5   6
ENDBRANCH   4   5
ENDBRANCH   2   4
BRANCH   1  10
ATOM     10  C   UNL     1      12.150  23.194  55.781  1.00  0.00     0.111 C 
BRANCH  10  11
ATOM     11  C   UNL     1      13.342  22.269  55.868  1.00  0.00     0.163 C 
ATOM     12  O   UNL     1      13.478  21.435  54.932  1.00  0.00    -0.294 OA
BRANCH  11  13
ATOM     13  C   UNL     1      14.354  22.305  56.989  1.00  0.00    -0.002 C 
ATOM     14  C   UNL     1      15.453  23.123  56.928  1.00  0.00    -0.069 C 
ATOM     15  C   UNL     1      15.653  24.120  55.807  1.00  0.00     0.039 C 
ATOM     16  C   UNL     1      16.500  23.126  58.025  1.00  0.00     0.039 C 
BRANCH  13  17
ATOM     17  C   UNL     1      14.146  21.411  58.208  1.00  0.00     0.066 CG0
ATOM     18  G   UNL     1      13.361  22.051  59.330  1.00  0.00     0.000 G0
ENDBRANCH  13  17
ENDBRANCH  11  13
ENDBRANCH  10  11
ENDBRANCH   1  10
TORSDOF 0
ENDMDL
MODEL 6
REMARK VINA RESULT:    -3.682      2.444      3.731
REMARK INTER + INTRA:          -5.088
REMARK INTER:                  -5.483
REMARK INTRA:                   0.395
REMARK UNBOUND:                 0.101
REMARK SMILES CC1=CCC(=C(C)C)C(=O)CC(C)=CCC1
REMARK SMILES IDX 12 1 14 2 13 3 15 4 16 5 2 6 1 7 3 8 11 10 9 11 10 12 5 13
REMARK SMILES IDX 6 14 7 15 8 16 4 17
REMARK H PARENT
REMARK Flexibility Score: 60.00
ROOT
ATOM      1  C   UNL     1      13.064  22.179  56.049  1.00  0.00    -0.070 C 
ATOM      2  C   UNL     1      13.529  21.319  55.106  1.00  0.00    -0.027 C 
ATOM      3  C   UNL     1      13.162  23.657  55.764  1.00  0.00     0.039 C 
ENDROOT
BRANCH   2   4
ATOM      4  C   UNL     1      13.574  19.819  55.250  1.00  0.00     0.032 C 
BRANCH   4   5
ATOM      5  C   UNL     1      15.004  19.289  55.057  1.00  0.00     0.034 C 
BRANCH   5   6
ATOM      6  C   UNL     1      15.620  18.742  56.330  1.00  0.00    -0.077 C 
ATOM      7  C   UNL     1      15.791  17.248  56.450  1.00  0.00     0.039 C 
ATOM      8  C   UNL     1      16.121  19.526  57.318  1.00  0.00    -0.023 CG0
ATOM      9  G   UNL     1      15.930  21.018  57.470  1.00  0.00     0.000 G0
ENDBRANCH   5   6
ENDBRANCH   4   5
ENDBRANCH   2   4
BRANCH   1  10
ATOM     10  C   UNL     1      12.441  21.723  57.361  1.00  0.00     0.111 C 
BRANCH  10  11
ATOM     11  C   UNL     1      13.437  20.981  58.222  1.00  0.00     0.163 C 
ATOM     12  O   UNL     1      13.035  19.912  58.756  1.00  0.00    -0.294 OA
BRANCH  11  13
ATOM     13  C   UNL     1      14.855  21.445  58.456  1.00  0.00    -0.002 C 
ATOM     14  C   UNL     1      15.176  22.234  59.531  1.00  0.00    -0.069 C 
ATOM     15  C   UNL     1      14.166  22.580  60.605  1.00  0.00     0.039 C 
ATOM     16  C   UNL     1      16.586  22.748  59.744  1.00  0.00     0.039 C 
BRANCH  13  17
ATOM     17  C   UNL     1      15.947  21.030  57.474  1.00  0.00     0.066 CG0
ATOM     18  G   UNL     1      16.128  19.536  57.332  1.00  0.00     0.000 G0
ENDBRANCH  13  17
ENDBRANCH  11  13
ENDBRANCH  10  11
ENDBRANCH   1  10
TORSDOF 0
ENDMDL
MODEL 7
REMARK VINA RESULT:    -3.667      1.908      2.526
REMARK INTER + INTRA:          -5.066
REMARK INTER:                  -5.747
REMARK INTRA:                   0.681
REMARK UNBOUND:                 0.101
REMARK SMILES CC1=CCC(=C(C)C)C(=O)CC(C)=CCC1
REMARK SMILES IDX 12 1 14 2 13 3 15 4 16 5 2 6 1 7 3 8 11 10 9 11 10 12 5 13
REMARK SMILES IDX 6 14 7 15 8 16 4 17
REMARK H PARENT
REMARK Flexibility Score: 60.00
ROOT
ATOM      1  C   UNL     1      11.093  22.400  57.932  1.00  0.00    -0.070 C 
ATOM      2  C   UNL     1      11.436  22.634  56.639  1.00  0.00    -0.027 C 
ATOM      3  C   UNL     1       9.698  21.901  58.211  1.00  0.00     0.039 C 
ENDROOT
BRANCH   2   4
ATOM      4  C   UNL     1      12.758  23.198  56.182  1.00  0.00     0.032 C 
BRANCH   4   5
ATOM      5  C   UNL     1      13.358  22.349  55.050  1.00  0.00     0.034 C 
BRANCH   5   6
ATOM      6  C   UNL     1      14.045  21.090  55.540  1.00  0.00    -0.077 C 
ATOM      7  C   UNL     1      13.795  19.805  54.789  1.00  0.00     0.039 C 
ATOM      8  C   UNL     1      14.952  21.076  56.549  1.00  0.00    -0.023 CG0
ATOM      9  G   UNL     1      15.241  22.200  57.518  1.00  0.00     0.000 G0
ENDBRANCH   5   6
ENDBRANCH   4   5
ENDBRANCH   2   4
BRANCH   1  10
ATOM     10  C   UNL     1      12.048  22.604  59.099  1.00  0.00     0.111 C 
BRANCH  10  11
ATOM     11  C   UNL     1      13.196  21.621  59.059  1.00  0.00     0.163 C 
ATOM     12  O   UNL     1      12.894  20.399  59.137  1.00  0.00    -0.294 OA
BRANCH  11  13
ATOM     13  C   UNL     1      14.644  22.026  58.923  1.00  0.00    -0.002 C 
ATOM     14  C   UNL     1      15.429  22.239  60.028  1.00  0.00    -0.069 C 
ATOM     15  C   UNL     1      14.934  21.962  61.431  1.00  0.00     0.039 C 
ATOM     16  C   UNL     1      16.869  22.696  59.900  1.00  0.00     0.039 C 
BRANCH  13  17
ATOM     17  C   UNL     1      15.241  22.204  57.530  1.00  0.00     0.066 CG0
ATOM     18  G   UNL     1      14.949  21.071  56.573  1.00  0.00     0.000 G0
ENDBRANCH  13  17
ENDBRANCH  11  13
ENDBRANCH  10  11
ENDBRANCH   1  10
TORSDOF 0
ENDMDL
MODEL 8
REMARK VINA RESULT:    -3.641      2.785      3.955
REMARK INTER + INTRA:          -5.030
REMARK INTER:                  -5.344
REMARK INTRA:                   0.314
REMARK UNBOUND:                 0.101
REMARK SMILES CC1=CCC(=C(C)C)C(=O)CC(C)=CCC1
REMARK SMILES IDX 12 1 14 2 13 3 15 4 16 5 2 6 1 7 3 8 11 10 9 11 10 12 5 13
REMARK SMILES IDX 6 14 7 15 8 16 4 17
REMARK H PARENT
REMARK Flexibility Score: 60.00
ROOT
ATOM      1  C   UNL     1      13.838  21.174  58.761  1.00  0.00    -0.070 C 
ATOM      2  C   UNL     1      14.515  22.331  58.977  1.00  0.00    -0.027 C 
ATOM      3  C   UNL     1      12.361  21.267  58.472  1.00  0.00     0.039 C 
ENDROOT
BRANCH   2   4
ATOM      4  C   UNL     1      15.974  22.424  59.346  1.00  0.00     0.032 C 
BRANCH   4   5
ATOM      5  C   UNL     1      16.744  23.294  58.339  1.00  0.00     0.034 C 
BRANCH   5   6
ATOM      6  C   UNL     1      16.539  22.871  56.898  1.00  0.00    -0.077 C 
ATOM      7  C   UNL     1      15.946  23.875  55.940  1.00  0.00     0.039 C 
ATOM      8  C   UNL     1      16.955  21.679  56.400  1.00  0.00    -0.023 CG0
ATOM      9  G   UNL     1      17.433  20.486  57.197  1.00  0.00     0.000 G0
ENDBRANCH   5   6
ENDBRANCH   4   5
ENDBRANCH   2   4
BRANCH   1  10
ATOM     10  C   UNL     1      14.498  19.803  58.784  1.00  0.00     0.111 C 
BRANCH  10  11
ATOM     11  C   UNL     1      15.052  19.429  57.428  1.00  0.00     0.163 C 
ATOM     12  O   UNL     1      14.212  19.259  56.503  1.00  0.00    -0.294 OA
BRANCH  11  13
ATOM     13  C   UNL     1      16.526  19.263  57.139  1.00  0.00    -0.002 C 
ATOM     14  C   UNL     1      17.057  18.035  56.839  1.00  0.00    -0.069 C 
ATOM     15  C   UNL     1      16.191  16.807  56.656  1.00  0.00     0.039 C 
ATOM     16  C   UNL     1      18.543  17.852  56.600  1.00  0.00     0.039 C 
BRANCH  13  17
ATOM     17  C   UNL     1      17.436  20.487  57.188  1.00  0.00     0.066 CG0
ATOM     18  G   UNL     1      16.939  21.671  56.391  1.00  0.00     0.000 G0
ENDBRANCH  13  17
ENDBRANCH  11  13
ENDBRANCH  10  11
ENDBRANCH   1  10
TORSDOF 0
ENDMDL
MODEL 9
REMARK VINA RESULT:    -3.637      2.533      4.319
REMARK INTER + INTRA:          -5.025
REMARK INTER:                  -5.307
REMARK INTRA:                   0.282
REMARK UNBOUND:                 0.101
REMARK SMILES CC1=CCC(=C(C)C)C(=O)CC(C)=CCC1
REMARK SMILES IDX 12 1 14 2 13 3 15 4 16 5 2 6 1 7 3 8 11 10 9 11 10 12 5 13
REMARK SMILES IDX 6 14 7 15 8 16 4 17
REMARK H PARENT
REMARK Flexibility Score: 60.00
ROOT
ATOM      1  C   UNL     1      13.860  21.397  59.601  1.00  0.00    -0.070 C 
ATOM      2  C   UNL     1      12.795  22.183  59.297  1.00  0.00    -0.027 C 
ATOM      3  C   UNL     1      14.660  21.741  60.833  1.00  0.00     0.039 C 
ENDROOT
BRANCH   2   4
ATOM      4  C   UNL     1      11.928  22.030  58.073  1.00  0.00     0.032 C 
BRANCH   4   5
ATOM      5  C   UNL     1      12.477  22.862  56.902  1.00  0.00     0.034 C 
BRANCH   5   6
ATOM      6  C   UNL     1      12.347  22.170  55.559  1.00  0.00    -0.077 C 
ATOM      7  C   UNL     1      10.980  22.101  54.925  1.00  0.00     0.039 C 
ATOM      8  C   UNL     1      13.407  21.705  54.851  1.00  0.00    -0.023 CG0
ATOM      9  G   UNL     1      14.824  21.542  55.349  1.00  0.00     0.000 G0
ENDBRANCH   5   6
ENDBRANCH   4   5
ENDBRANCH   2   4
BRANCH   1  10
ATOM     10  C   UNL     1      14.271  20.189  58.772  1.00  0.00     0.111 C 
BRANCH  10  11
ATOM     11  C   UNL     1      15.285  20.558  57.713  1.00  0.00     0.163 C 
ATOM     12  O   UNL     1      16.362  21.073  58.120  1.00  0.00    -0.294 OA
BRANCH  11  13
ATOM     13  C   UNL     1      15.074  20.337  56.234  1.00  0.00    -0.002 C 
ATOM     14  C   UNL     1      15.103  19.077  55.693  1.00  0.00    -0.069 C 
ATOM     15  C   UNL     1      15.219  17.836  56.551  1.00  0.00     0.039 C 
ATOM     16  C   UNL     1      14.945  18.852  54.202  1.00  0.00     0.039 C 
BRANCH  13  17
ATOM     17  C   UNL     1      14.830  21.541  55.328  1.00  0.00     0.066 CG0
ATOM     18  G   UNL     1      13.404  21.683  54.845  1.00  0.00     0.000 G0
ENDBRANCH  13  17
ENDBRANCH  11  13
ENDBRANCH  10  11
ENDBRANCH   1  10
TORSDOF 0
ENDMDL
