MODEL 1
REMARK VINA RESULT:    -4.086      0.000      0.000
REMARK INTER + INTRA:          -3.600
REMARK INTER:                  -4.444
REMARK INTRA:                   0.844
REMARK UNBOUND:                 0.844
REMARK SMILES CC(=O)[C@@H]1CC[C@H]2[C@@H]3CC=C4C[C@H](O)CC[C@@]4(C)[C@@H]3CC[C@@]12C
REMARK SMILES IDX 4 1 5 2 6 3 7 4 22 5 21 6 20 7 19 8 8 9 9 10 10 11 11 12
REMARK SMILES IDX 17 13 16 14 15 15 13 16 12 17 18 18 23 19 2 20 1 21 3 22
REMARK SMILES IDX 14 23
REMARK H PARENT 14 24
REMARK Flexibility Score: inf
ROOT
ATOM      1  C   UNL     1       7.263 -33.041  12.868  1.00  0.00     0.062 C 
ATOM      2  C   UNL     1       6.451 -32.078  12.006  1.00  0.00     0.012 C 
ATOM      3  C   UNL     1       6.779 -30.694  12.541  1.00  0.00     0.005 C 
ATOM      4  C   UNL     1       8.175 -30.775  13.203  1.00  0.00    -0.001 C 
ATOM      5  C   UNL     1       8.588 -32.284  13.160  1.00  0.00    -0.020 C 
ATOM      6  C   UNL     1       9.251 -32.777  14.474  1.00  0.00     0.008 C 
ATOM      7  C   UNL     1       8.556 -32.355  15.785  1.00  0.00     0.005 C 
ATOM      8  C   UNL     1       7.634 -31.102  15.697  1.00  0.00     0.003 C 
ATOM      9  C   UNL     1       8.153 -30.125  14.621  1.00  0.00     0.000 C 
ATOM     10  C   UNL     1       9.508 -29.537  15.048  1.00  0.00     0.031 C 
ATOM     11  C   UNL     1       9.436 -28.961  16.437  1.00  0.00    -0.027 C 
ATOM     12  C   UNL     1       8.542 -29.356  17.375  1.00  0.00    -0.065 C 
ATOM     13  C   UNL     1       7.421 -30.364  17.081  1.00  0.00    -0.008 C 
ATOM     14  C   UNL     1       6.079 -29.558  17.048  1.00  0.00     0.014 C 
ATOM     15  C   UNL     1       5.876 -28.624  18.264  1.00  0.00     0.033 C 
ATOM     16  C   UNL     1       7.086 -27.704  18.511  1.00  0.00     0.118 C 
ATOM     17  C   UNL     1       8.388 -28.515  18.622  1.00  0.00     0.063 C 
ATOM     18  C   UNL     1       7.324 -31.409  18.233  1.00  0.00     0.016 C 
ATOM     19  C   UNL     1       9.605 -32.491  12.005  1.00  0.00     0.012 C 
ENDROOT
BRANCH   1  20
ATOM     20  C   UNL     1       7.423 -34.440  12.284  1.00  0.00     0.133 C 
ATOM     21  C   UNL     1       8.761 -35.104  12.116  1.00  0.00     0.088 C 
ATOM     22  O   UNL     1       6.425 -35.041  11.915  1.00  0.00    -0.300 OA
ENDBRANCH   1  20
BRANCH  16  23
ATOM     23  O   UNL     1       6.875 -26.976  19.691  1.00  0.00    -0.393 OA
ATOM     24  H   UNL     1       7.771 -26.786  20.075  1.00  0.00     0.210 HD
ENDBRANCH  16  23
TORSDOF 2
ENDMDL
