MODEL 1
REMARK VINA RESULT:    -1.511      0.000      0.000
REMARK INTER + INTRA:          -1.511
REMARK INTER:                  -1.511
REMARK INTRA:                   0.000
REMARK UNBOUND:                 0.000
REMARK SMILES c1cc[nH]c1
REMARK SMILES IDX 1 1 5 2 4 3 3 4 2 5
REMARK H PARENT 4 6
REMARK Flexibility Score: inf
ROOT
ATOM      1  C   UNL     1      96.098  -0.587   0.770  1.00  0.00     0.019 A 
ATOM      2  C   UNL     1      94.758  -0.912   0.837  1.00  0.00     0.082 A 
ATOM      3  N   UNL     1      94.116  -0.437  -0.244  1.00  0.00    -0.368 N 
ATOM      4  C   UNL     1      95.031   0.191  -1.003  1.00  0.00     0.082 A 
ATOM      5  C   UNL     1      96.272   0.118  -0.404  1.00  0.00     0.019 A 
ATOM      6  H   UNL     1      93.098  -0.536  -0.453  1.00  0.00     0.165 HD
ENDROOT
TORSDOF 0
ENDMDL
MODEL 2
REMARK VINA RESULT:    -1.462      1.791      2.295
REMARK INTER + INTRA:          -1.462
REMARK INTER:                  -1.462
REMARK INTRA:                   0.000
REMARK UNBOUND:                 0.000
REMARK SMILES c1cc[nH]c1
REMARK SMILES IDX 1 1 5 2 4 3 3 4 2 5
REMARK H PARENT 4 6
REMARK Flexibility Score: inf
ROOT
ATOM      1  C   UNL     1      96.114   0.218  -1.543  1.00  0.00     0.019 A 
ATOM      2  C   UNL     1      94.825   0.203  -1.049  1.00  0.00     0.082 A 
ATOM      3  N   UNL     1      93.980   0.724  -1.956  1.00  0.00    -0.368 N 
ATOM      4  C   UNL     1      94.715   1.073  -3.027  1.00  0.00     0.082 A 
ATOM      5  C   UNL     1      96.043   0.774  -2.805  1.00  0.00     0.019 A 
ATOM      6  H   UNL     1      92.948   0.836  -1.849  1.00  0.00     0.165 HD
ENDROOT
TORSDOF 0
ENDMDL
MODEL 3
REMARK VINA RESULT:    -1.454      1.760      2.790
REMARK INTER + INTRA:          -1.454
REMARK INTER:                  -1.454
REMARK INTRA:                   0.000
REMARK UNBOUND:                 0.000
REMARK SMILES c1cc[nH]c1
REMARK SMILES IDX 1 1 5 2 4 3 3 4 2 5
REMARK H PARENT 4 6
REMARK Flexibility Score: inf
ROOT
ATOM      1  C   UNL     1      96.003   0.764  -2.840  1.00  0.00     0.019 A 
ATOM      2  C   UNL     1      94.662   1.053  -2.997  1.00  0.00     0.082 A 
ATOM      3  N   UNL     1      93.982   0.694  -1.894  1.00  0.00    -0.368 N 
ATOM      4  C   UNL     1      94.874   0.177  -1.031  1.00  0.00     0.082 A 
ATOM      5  C   UNL     1      96.138   0.204  -1.585  1.00  0.00     0.019 A 
ATOM      6  H   UNL     1      92.956   0.796  -1.738  1.00  0.00     0.165 HD
ENDROOT
TORSDOF 0
ENDMDL
MODEL 4
REMARK VINA RESULT:    -1.346      1.268      2.309
REMARK INTER + INTRA:          -1.346
REMARK INTER:                  -1.346
REMARK INTRA:                   0.000
REMARK UNBOUND:                 0.000
REMARK SMILES c1cc[nH]c1
REMARK SMILES IDX 1 1 5 2 4 3 3 4 2 5
REMARK H PARENT 4 6
REMARK Flexibility Score: inf
ROOT
ATOM      1  C   UNL     1      94.465  -0.187  -0.628  1.00  0.00     0.019 A 
ATOM      2  C   UNL     1      95.645   0.384  -1.063  1.00  0.00     0.082 A 
ATOM      3  N   UNL     1      96.617   0.173  -0.159  1.00  0.00    -0.368 N 
ATOM      4  C   UNL     1      96.073  -0.527   0.851  1.00  0.00     0.082 A 
ATOM      5  C   UNL     1      94.739  -0.768   0.594  1.00  0.00     0.019 A 
ATOM      6  H   UNL     1      97.608   0.493  -0.229  1.00  0.00     0.165 HD
ENDROOT
TORSDOF 0
ENDMDL
