MODEL 1
REMARK VINA RESULT:    -4.688      0.000      0.000
REMARK INTER + INTRA:          -4.825
REMARK INTER:                  -4.825
REMARK INTRA:                   0.000
REMARK UNBOUND:                 0.000
REMARK SMILES Nc1ncnc2nc[nH]c12
REMARK SMILES IDX 8 1 7 2 6 3 5 4 4 5 3 6 2 7 10 8 9 9 1 11
REMARK H PARENT 9 10 1 12 1 13
REMARK Flexibility Score: inf
ROOT
ATOM      1  C   UNL     1      16.682 -12.471  -6.036  1.00  0.00     0.199 A 
ATOM      2  N   UNL     1      17.401 -13.394  -6.730  1.00  0.00    -0.217 NA
ATOM      3  C   UNL     1      16.848 -13.328  -7.952  1.00  0.00     0.182 A 
ATOM      4  N   UNL     1      17.201 -14.054  -9.040  1.00  0.00    -0.215 NA
ATOM      5  C   UNL     1      16.517 -13.845 -10.205  1.00  0.00     0.226 A 
ATOM      6  N   UNL     1      15.502 -12.923 -10.262  1.00  0.00    -0.217 NA
ATOM      7  C   UNL     1      15.145 -12.190  -9.165  1.00  0.00     0.152 A 
ATOM      8  C   UNL     1      15.851 -12.414  -7.986  1.00  0.00     0.127 A 
ATOM      9  N   UNL     1      15.726 -11.854  -6.777  1.00  0.00    -0.340 N 
ATOM     10  H   UNL     1      15.056 -11.117  -6.464  1.00  0.00     0.168 HD
ENDROOT
BRANCH   7  11
ATOM     11  N   UNL     1      14.086 -11.235  -9.247  1.00  0.00    -0.382 N 
ATOM     12  H   UNL     1      13.087 -11.522  -9.155  1.00  0.00     0.158 HD
ATOM     13  H   UNL     1      14.304 -10.226  -9.405  1.00  0.00     0.158 HD
ENDBRANCH   7  11
TORSDOF 1
ENDMDL
MODEL 2
REMARK VINA RESULT:    -4.623      1.820      3.240
REMARK INTER + INTRA:          -4.758
REMARK INTER:                  -4.758
REMARK INTRA:                   0.000
REMARK UNBOUND:                 0.000
REMARK SMILES Nc1ncnc2nc[nH]c12
REMARK SMILES IDX 8 1 7 2 6 3 5 4 4 5 3 6 2 7 10 8 9 9 1 11
REMARK H PARENT 9 10 1 12 1 13
REMARK Flexibility Score: inf
ROOT
ATOM      1  C   UNL     1      19.369 -11.760  -8.664  1.00  0.00     0.199 A 
ATOM      2  N   UNL     1      18.466 -12.410  -9.447  1.00  0.00    -0.217 NA
ATOM      3  C   UNL     1      17.518 -12.757  -8.562  1.00  0.00     0.182 A 
ATOM      4  N   UNL     1      16.375 -13.435  -8.825  1.00  0.00    -0.215 NA
ATOM      5  C   UNL     1      15.525 -13.697  -7.786  1.00  0.00     0.226 A 
ATOM      6  N   UNL     1      15.830 -13.281  -6.515  1.00  0.00    -0.217 NA
ATOM      7  C   UNL     1      16.983 -12.596  -6.248  1.00  0.00     0.152 A 
ATOM      8  C   UNL     1      17.837 -12.337  -7.316  1.00  0.00     0.127 A 
ATOM      9  N   UNL     1      19.013 -11.699  -7.355  1.00  0.00    -0.340 N 
ATOM     10  H   UNL     1      19.542 -11.255  -6.573  1.00  0.00     0.168 HD
ENDROOT
BRANCH   7  11
ATOM     11  N   UNL     1      17.280 -12.171  -4.916  1.00  0.00    -0.382 N 
ATOM     12  H   UNL     1      17.082 -12.782  -4.094  1.00  0.00     0.158 HD
ATOM     13  H   UNL     1      17.702 -11.231  -4.751  1.00  0.00     0.158 HD
ENDBRANCH   7  11
TORSDOF 1
ENDMDL
MODEL 3
REMARK VINA RESULT:    -4.568      1.268      1.268
REMARK INTER + INTRA:          -4.702
REMARK INTER:                  -4.702
REMARK INTRA:                   0.000
REMARK UNBOUND:                 0.000
REMARK SMILES Nc1ncnc2nc[nH]c12
REMARK SMILES IDX 8 1 7 2 6 3 5 4 4 5 3 6 2 7 10 8 9 9 1 11
REMARK H PARENT 9 10 1 12 1 13
REMARK Flexibility Score: inf
ROOT
ATOM      1  C   UNL     1      17.011 -12.252  -5.864  1.00  0.00     0.199 A 
ATOM      2  N   UNL     1      16.920 -13.502  -6.391  1.00  0.00    -0.217 NA
ATOM      3  C   UNL     1      16.771 -13.250  -7.702  1.00  0.00     0.182 A 
ATOM      4  N   UNL     1      16.635 -14.165  -8.691  1.00  0.00    -0.215 NA
ATOM      5  C   UNL     1      16.495 -13.713  -9.974  1.00  0.00     0.226 A 
ATOM      6  N   UNL     1      16.494 -12.367 -10.242  1.00  0.00    -0.217 NA
ATOM      7  C   UNL     1      16.632 -11.442  -9.245  1.00  0.00     0.152 A 
ATOM      8  C   UNL     1      16.774 -11.919  -7.944  1.00  0.00     0.127 A 
ATOM      9  N   UNL     1      16.925 -11.261  -6.788  1.00  0.00    -0.340 N 
ATOM     10  H   UNL     1      16.967 -10.232  -6.623  1.00  0.00     0.168 HD
ENDROOT
BRANCH   7  11
ATOM     11  N   UNL     1      16.629 -10.046  -9.547  1.00  0.00    -0.382 N 
ATOM     12  H   UNL     1      15.760  -9.559  -9.857  1.00  0.00     0.158 HD
ATOM     13  H   UNL     1      17.509  -9.492  -9.461  1.00  0.00     0.158 HD
ENDBRANCH   7  11
TORSDOF 1
ENDMDL
MODEL 4
REMARK VINA RESULT:    -4.563      1.622      3.151
REMARK INTER + INTRA:          -4.696
REMARK INTER:                  -4.696
REMARK INTRA:                   0.000
REMARK UNBOUND:                 0.000
REMARK SMILES Nc1ncnc2nc[nH]c12
REMARK SMILES IDX 8 1 7 2 6 3 5 4 4 5 3 6 2 7 10 8 9 9 1 11
REMARK H PARENT 9 10 1 12 1 13
REMARK Flexibility Score: inf
ROOT
ATOM      1  C   UNL     1      15.178 -11.244  -9.822  1.00  0.00     0.199 A 
ATOM      2  N   UNL     1      16.532 -11.105  -9.815  1.00  0.00    -0.217 NA
ATOM      3  C   UNL     1      16.888 -11.839  -8.748  1.00  0.00     0.182 A 
ATOM      4  N   UNL     1      18.147 -12.039  -8.288  1.00  0.00    -0.215 NA
ATOM      5  C   UNL     1      18.312 -12.823  -7.179  1.00  0.00     0.226 A 
ATOM      6  N   UNL     1      17.227 -13.387  -6.557  1.00  0.00    -0.217 NA
ATOM      7  C   UNL     1      15.957 -13.186  -7.020  1.00  0.00     0.152 A 
ATOM      8  C   UNL     1      15.805 -12.386  -8.149  1.00  0.00     0.127 A 
ATOM      9  N   UNL     1      14.703 -12.021  -8.816  1.00  0.00    -0.340 N 
ATOM     10  H   UNL     1      13.708 -12.268  -8.619  1.00  0.00     0.168 HD
ENDROOT
BRANCH   7  11
ATOM     11  N   UNL     1      14.842 -13.784  -6.356  1.00  0.00    -0.382 N 
ATOM     12  H   UNL     1      14.622 -14.797  -6.469  1.00  0.00     0.158 HD
ATOM     13  H   UNL     1      14.227 -13.203  -5.744  1.00  0.00     0.158 HD
ENDBRANCH   7  11
TORSDOF 1
ENDMDL
MODEL 5
REMARK VINA RESULT:    -4.513      2.155      3.142
REMARK INTER + INTRA:          -4.645
REMARK INTER:                  -4.645
REMARK INTRA:                   0.000
REMARK UNBOUND:                 0.000
REMARK SMILES Nc1ncnc2nc[nH]c12
REMARK SMILES IDX 8 1 7 2 6 3 5 4 4 5 3 6 2 7 10 8 9 9 1 11
REMARK H PARENT 9 10 1 12 1 13
REMARK Flexibility Score: inf
ROOT
ATOM      1  C   UNL     1      17.938  -9.693  -9.187  1.00  0.00     0.199 A 
ATOM      2  N   UNL     1      17.826 -10.744 -10.043  1.00  0.00    -0.217 NA
ATOM      3  C   UNL     1      17.464 -11.744  -9.223  1.00  0.00     0.182 A 
ATOM      4  N   UNL     1      17.217 -13.029  -9.574  1.00  0.00    -0.215 NA
ATOM      5  C   UNL     1      16.857 -13.909  -8.592  1.00  0.00     0.226 A 
ATOM      6  N   UNL     1      16.751 -13.493  -7.288  1.00  0.00    -0.217 NA
ATOM      7  C   UNL     1      17.000 -12.197  -6.932  1.00  0.00     0.152 A 
ATOM      8  C   UNL     1      17.365 -11.313  -7.944  1.00  0.00     0.127 A 
ATOM      9  N   UNL     1      17.663 -10.009  -7.896  1.00  0.00    -0.340 N 
ATOM     10  H   UNL     1      17.683  -9.373  -7.067  1.00  0.00     0.168 HD
ENDROOT
BRANCH   7  11
ATOM     11  N   UNL     1      16.883 -11.786  -5.569  1.00  0.00    -0.382 N 
ATOM     12  H   UNL     1      17.557 -12.113  -4.843  1.00  0.00     0.158 HD
ATOM     13  H   UNL     1      16.110 -11.146  -5.282  1.00  0.00     0.158 HD
ENDBRANCH   7  11
TORSDOF 1
ENDMDL
MODEL 6
REMARK VINA RESULT:    -4.427      2.141      3.580
REMARK INTER + INTRA:          -4.556
REMARK INTER:                  -4.556
REMARK INTRA:                   0.000
REMARK UNBOUND:                 0.000
REMARK SMILES Nc1ncnc2nc[nH]c12
REMARK SMILES IDX 8 1 7 2 6 3 5 4 4 5 3 6 2 7 10 8 9 9 1 11
REMARK H PARENT 9 10 1 12 1 13
REMARK Flexibility Score: inf
ROOT
ATOM      1  C   UNL     1      16.703 -14.892 -10.072  1.00  0.00     0.199 A 
ATOM      2  N   UNL     1      17.709 -14.043 -10.413  1.00  0.00    -0.217 NA
ATOM      3  C   UNL     1      17.938 -13.392  -9.261  1.00  0.00     0.182 A 
ATOM      4  N   UNL     1      18.859 -12.421  -9.049  1.00  0.00    -0.215 NA
ATOM      5  C   UNL     1      18.944 -11.874  -7.798  1.00  0.00     0.226 A 
ATOM      6  N   UNL     1      18.115 -12.303  -6.792  1.00  0.00    -0.217 NA
ATOM      7  C   UNL     1      17.186 -13.283  -7.004  1.00  0.00     0.152 A 
ATOM      8  C   UNL     1      17.112 -13.830  -8.282  1.00  0.00     0.127 A 
ATOM      9  N   UNL     1      16.315 -14.787  -8.775  1.00  0.00    -0.340 N 
ATOM     10  H   UNL     1      15.568 -15.330  -8.289  1.00  0.00     0.168 HD
ENDROOT
BRANCH   7  11
ATOM     11  N   UNL     1      16.334 -13.714  -5.942  1.00  0.00    -0.382 N 
ATOM     12  H   UNL     1      16.513 -13.433  -4.953  1.00  0.00     0.158 HD
ATOM     13  H   UNL     1      15.513 -14.325  -6.147  1.00  0.00     0.158 HD
ENDBRANCH   7  11
TORSDOF 1
ENDMDL
MODEL 7
REMARK VINA RESULT:    -4.384      1.832      3.813
REMARK INTER + INTRA:          -4.512
REMARK INTER:                  -4.512
REMARK INTRA:                   0.000
REMARK UNBOUND:                 0.000
REMARK SMILES Nc1ncnc2nc[nH]c12
REMARK SMILES IDX 8 1 7 2 6 3 5 4 4 5 3 6 2 7 10 8 9 9 1 11
REMARK H PARENT 9 10 1 12 1 13
REMARK Flexibility Score: inf
ROOT
ATOM      1  C   UNL     1      17.721 -14.451 -10.397  1.00  0.00     0.199 A 
ATOM      2  N   UNL     1      16.546 -14.629  -9.736  1.00  0.00    -0.217 NA
ATOM      3  C   UNL     1      16.730 -13.901  -8.623  1.00  0.00     0.182 A 
ATOM      4  N   UNL     1      15.847 -13.735  -7.609  1.00  0.00    -0.215 NA
ATOM      5  C   UNL     1      16.217 -12.951  -6.551  1.00  0.00     0.226 A 
ATOM      6  N   UNL     1      17.452 -12.353  -6.527  1.00  0.00    -0.217 NA
ATOM      7  C   UNL     1      18.344 -12.519  -7.549  1.00  0.00     0.152 A 
ATOM      8  C   UNL     1      17.952 -13.319  -8.618  1.00  0.00     0.127 A 
ATOM      9  N   UNL     1      18.603 -13.655  -9.739  1.00  0.00    -0.340 N 
ATOM     10  H   UNL     1      19.561 -13.378 -10.046  1.00  0.00     0.168 HD
ENDROOT
BRANCH   7  11
ATOM     11  N   UNL     1      19.624 -11.885  -7.502  1.00  0.00    -0.382 N 
ATOM     12  H   UNL     1      19.732 -10.865  -7.690  1.00  0.00     0.158 HD
ATOM     13  H   UNL     1      20.475 -12.446  -7.279  1.00  0.00     0.158 HD
ENDBRANCH   7  11
TORSDOF 1
ENDMDL
MODEL 8
REMARK VINA RESULT:    -4.377      1.107      3.122
REMARK INTER + INTRA:          -4.505
REMARK INTER:                  -4.505
REMARK INTRA:                   0.000
REMARK UNBOUND:                 0.000
REMARK SMILES Nc1ncnc2nc[nH]c12
REMARK SMILES IDX 8 1 7 2 6 3 5 4 4 5 3 6 2 7 10 8 9 9 1 11
REMARK H PARENT 9 10 1 12 1 13
REMARK Flexibility Score: inf
ROOT
ATOM      1  C   UNL     1      14.689 -12.450 -11.135  1.00  0.00     0.199 A 
ATOM      2  N   UNL     1      15.969 -12.886 -11.286  1.00  0.00    -0.217 NA
ATOM      3  C   UNL     1      16.397 -12.960 -10.015  1.00  0.00     0.182 A 
ATOM      4  N   UNL     1      17.625 -13.350  -9.597  1.00  0.00    -0.215 NA
ATOM      5  C   UNL     1      17.877 -13.361  -8.253  1.00  0.00     0.226 A 
ATOM      6  N   UNL     1      16.905 -12.986  -7.360  1.00  0.00    -0.217 NA
ATOM      7  C   UNL     1      15.665 -12.593  -7.780  1.00  0.00     0.152 A 
ATOM      8  C   UNL     1      15.425 -12.588  -9.151  1.00  0.00     0.127 A 
ATOM      9  N   UNL     1      14.326 -12.257  -9.842  1.00  0.00    -0.340 N 
ATOM     10  H   UNL     1      13.403 -11.928  -9.482  1.00  0.00     0.168 HD
ENDROOT
BRANCH   7  11
ATOM     11  N   UNL     1      14.668 -12.208  -6.832  1.00  0.00    -0.382 N 
ATOM     12  H   UNL     1      13.713 -12.627  -6.846  1.00  0.00     0.158 HD
ATOM     13  H   UNL     1      14.889 -11.490  -6.106  1.00  0.00     0.158 HD
ENDBRANCH   7  11
TORSDOF 1
ENDMDL
MODEL 9
REMARK VINA RESULT:    -4.170      1.933      2.525
REMARK INTER + INTRA:          -4.292
REMARK INTER:                  -4.292
REMARK INTRA:                   0.000
REMARK UNBOUND:                 0.000
REMARK SMILES Nc1ncnc2nc[nH]c12
REMARK SMILES IDX 8 1 7 2 6 3 5 4 4 5 3 6 2 7 10 8 9 9 1 11
REMARK H PARENT 9 10 1 12 1 13
REMARK Flexibility Score: inf
ROOT
ATOM      1  C   UNL     1      16.247 -13.363  -6.422  1.00  0.00     0.199 A 
ATOM      2  N   UNL     1      17.183 -12.382  -6.537  1.00  0.00    -0.217 NA
ATOM      3  C   UNL     1      17.600 -12.532  -7.805  1.00  0.00     0.182 A 
ATOM      4  N   UNL     1      18.542 -11.794  -8.440  1.00  0.00    -0.215 NA
ATOM      5  C   UNL     1      18.833 -12.098  -9.741  1.00  0.00     0.226 A 
ATOM      6  N   UNL     1      18.183 -13.126 -10.378  1.00  0.00    -0.217 NA
ATOM      7  C   UNL     1      17.233 -13.872  -9.739  1.00  0.00     0.152 A 
ATOM      8  C   UNL     1      16.947 -13.549  -8.415  1.00  0.00     0.127 A 
ATOM      9  N   UNL     1      16.079 -14.094  -7.554  1.00  0.00    -0.340 N 
ATOM     10  H   UNL     1      15.424 -14.892  -7.704  1.00  0.00     0.168 HD
ENDROOT
BRANCH   7  11
ATOM     11  N   UNL     1      16.568 -14.936 -10.422  1.00  0.00    -0.382 N 
ATOM     12  H   UNL     1      15.529 -15.019 -10.418  1.00  0.00     0.158 HD
ATOM     13  H   UNL     1      17.126 -15.652 -10.939  1.00  0.00     0.158 HD
ENDBRANCH   7  11
TORSDOF 1
ENDMDL
