MODEL 1
REMARK VINA RESULT:    -4.570      0.000      0.000
REMARK INTER + INTRA:         -18.399
REMARK INTER:                 -12.050
REMARK INTRA:                  -6.349
REMARK UNBOUND:                -6.349
REMARK SMILES CCCCCCCCCCCCCCCCCCCCCCCCCCCCCC(=O)[O-]
REMARK SMILES IDX 16 1 17 2 18 3 19 4 20 5 21 6 22 7 23 8 24 9 25 10 26 11
REMARK SMILES IDX 27 12 28 13 29 14 30 15 31 16 32 17 15 18 14 19 13 20 12 21
REMARK SMILES IDX 11 22 10 23 9 24 8 25 7 26 6 27 5 28 4 29 3 30 2 31 1 32
REMARK H PARENT
REMARK Flexibility Score: inf
ROOT
ATOM      1  C   UNL     1      16.417 -44.574  28.940  1.00  0.00     0.000 C 
ENDROOT
BRANCH   1   2
ATOM      2  C   UNL     1      17.181 -45.403  27.887  1.00  0.00     0.000 C 
BRANCH   2   3
ATOM      3  C   UNL     1      17.313 -44.744  26.502  1.00  0.00     0.000 C 
BRANCH   3   4
ATOM      4  C   UNL     1      17.546 -43.222  26.524  1.00  0.00     0.000 C 
BRANCH   4   5
ATOM      5  C   UNL     1      18.774 -42.767  25.706  1.00  0.00     0.000 C 
BRANCH   5   6
ATOM      6  C   UNL     1      18.435 -41.657  24.696  1.00  0.00     0.000 C 
BRANCH   6   7
ATOM      7  C   UNL     1      17.037 -41.050  24.942  1.00  0.00     0.000 C 
BRANCH   7   8
ATOM      8  C   UNL     1      17.068 -39.579  25.404  1.00  0.00     0.000 C 
BRANCH   8   9
ATOM      9  C   UNL     1      18.371 -39.139  26.094  1.00  0.00     0.000 C 
BRANCH   9  10
ATOM     10  C   UNL     1      18.212 -38.976  27.615  1.00  0.00     0.000 C 
BRANCH  10  11
ATOM     11  C   UNL     1      18.846 -40.135  28.407  1.00  0.00     0.000 C 
BRANCH  11  12
ATOM     12  C   UNL     1      17.903 -40.841  29.403  1.00  0.00     0.000 C 
BRANCH  12  13
ATOM     13  C   UNL     1      16.487 -40.239  29.505  1.00  0.00     0.006 C 
BRANCH  13  14
ATOM     14  C   UNL     1      15.422 -40.984  28.684  1.00  0.00     0.053 C 
BRANCH  14  15
ATOM     15  C   UNL     1      14.384 -40.053  28.138  1.00  0.00     0.041 C 
ATOM     16  O   UNL     1      14.218 -38.916  28.651  1.00  0.00    -0.550 OA
ATOM     17  O   UNL     1      13.623 -40.428  27.037  1.00  0.00    -0.550 OA
ENDBRANCH  14  15
ENDBRANCH  13  14
ENDBRANCH  12  13
ENDBRANCH  11  12
ENDBRANCH  10  11
ENDBRANCH   9  10
ENDBRANCH   8   9
ENDBRANCH   7   8
ENDBRANCH   6   7
ENDBRANCH   5   6
ENDBRANCH   4   5
ENDBRANCH   3   4
ENDBRANCH   2   3
ENDBRANCH   1   2
BRANCH   1  18
ATOM     18  C   UNL     1      15.548 -45.392  29.912  1.00  0.00     0.000 C 
BRANCH  18  19
ATOM     19  C   UNL     1      14.046 -45.300  29.599  1.00  0.00     0.000 C 
BRANCH  19  20
ATOM     20  C   UNL     1      13.787 -44.331  28.438  1.00  0.00     0.000 C 
BRANCH  20  21
ATOM     21  C   UNL     1      12.421 -43.628  28.526  1.00  0.00     0.000 C 
BRANCH  21  22
ATOM     22  C   UNL     1      11.784 -43.658  29.930  1.00  0.00     0.000 C 
BRANCH  22  23
ATOM     23  C   UNL     1      11.845 -42.292  30.642  1.00  0.00     0.000 C 
BRANCH  23  24
ATOM     24  C   UNL     1      13.123 -42.120  31.479  1.00  0.00    -0.000 C 
BRANCH  24  25
ATOM     25  C   UNL     1      13.300 -43.230  32.530  1.00  0.00    -0.000 C 
BRANCH  25  26
ATOM     26  C   UNL     1      14.774 -43.476  32.893  1.00  0.00    -0.000 C 
BRANCH  26  27
ATOM     27  C   UNL     1      15.723 -42.461  32.234  1.00  0.00    -0.000 C 
BRANCH  27  28
ATOM     28  C   UNL     1      16.765 -41.895  33.214  1.00  0.00    -0.000 C 
BRANCH  28  29
ATOM     29  C   UNL     1      18.109 -42.649  33.236  1.00  0.00    -0.000 C 
BRANCH  29  30
ATOM     30  C   UNL     1      18.468 -43.314  31.890  1.00  0.00    -0.000 C 
BRANCH  30  31
ATOM     31  C   UNL     1      18.891 -44.779  32.063  1.00  0.00    -0.003 C 
ATOM     32  C   UNL     1      17.893 -45.542  32.928  1.00  0.00     0.004 C 
ENDBRANCH  30  31
ENDBRANCH  29  30
ENDBRANCH  28  29
ENDBRANCH  27  28
ENDBRANCH  26  27
ENDBRANCH  25  26
ENDBRANCH  24  25
ENDBRANCH  23  24
ENDBRANCH  22  23
ENDBRANCH  21  22
ENDBRANCH  20  21
ENDBRANCH  19  20
ENDBRANCH  18  19
ENDBRANCH   1  18
TORSDOF 28
ENDMDL
MODEL 2
REMARK VINA RESULT:    -4.524      1.348      4.753
REMARK INTER + INTRA:         -18.277
REMARK INTER:                 -12.276
REMARK INTRA:                  -6.001
REMARK UNBOUND:                -6.349
REMARK SMILES CCCCCCCCCCCCCCCCCCCCCCCCCCCCCC(=O)[O-]
REMARK SMILES IDX 16 1 17 2 18 3 19 4 20 5 21 6 22 7 23 8 24 9 25 10 26 11
REMARK SMILES IDX 27 12 28 13 29 14 30 15 31 16 32 17 15 18 14 19 13 20 12 21
REMARK SMILES IDX 11 22 10 23 9 24 8 25 7 26 6 27 5 28 4 29 3 30 2 31 1 32
REMARK H PARENT
REMARK Flexibility Score: inf
ROOT
ATOM      1  C   UNL     1      16.195 -42.477  32.885  1.00  0.00     0.000 C 
ENDROOT
BRANCH   1   2
ATOM      2  C   UNL     1      17.645 -42.981  32.742  1.00  0.00     0.000 C 
BRANCH   2   3
ATOM      3  C   UNL     1      17.866 -44.460  33.108  1.00  0.00     0.000 C 
BRANCH   3   4
ATOM      4  C   UNL     1      18.209 -45.381  31.922  1.00  0.00     0.000 C 
BRANCH   4   5
ATOM      5  C   UNL     1      18.275 -44.650  30.564  1.00  0.00     0.000 C 
BRANCH   5   6
ATOM      6  C   UNL     1      17.585 -45.433  29.434  1.00  0.00     0.000 C 
BRANCH   6   7
ATOM      7  C   UNL     1      17.092 -44.509  28.299  1.00  0.00     0.000 C 
BRANCH   7   8
ATOM      8  C   UNL     1      17.198 -45.136  26.894  1.00  0.00     0.000 C 
BRANCH   8   9
ATOM      9  C   UNL     1      17.431 -44.136  25.749  1.00  0.00     0.000 C 
BRANCH   9  10
ATOM     10  C   UNL     1      18.250 -42.910  26.187  1.00  0.00     0.000 C 
BRANCH  10  11
ATOM     11  C   UNL     1      18.409 -41.869  25.065  1.00  0.00     0.000 C 
BRANCH  11  12
ATOM     12  C   UNL     1      18.562 -40.410  25.541  1.00  0.00     0.000 C 
BRANCH  12  13
ATOM     13  C   UNL     1      17.913 -39.351  24.627  1.00  0.00     0.006 C 
BRANCH  13  14
ATOM     14  C   UNL     1      16.947 -38.398  25.348  1.00  0.00     0.053 C 
BRANCH  14  15
ATOM     15  C   UNL     1      15.579 -38.990  25.493  1.00  0.00     0.041 C 
ATOM     16  O   UNL     1      15.185 -39.879  24.694  1.00  0.00    -0.550 OA
ATOM     17  O   UNL     1      14.751 -38.584  26.534  1.00  0.00    -0.550 OA
ENDBRANCH  14  15
ENDBRANCH  13  14
ENDBRANCH  12  13
ENDBRANCH  11  12
ENDBRANCH  10  11
ENDBRANCH   9  10
ENDBRANCH   8   9
ENDBRANCH   7   8
ENDBRANCH   6   7
ENDBRANCH   5   6
ENDBRANCH   4   5
ENDBRANCH   3   4
ENDBRANCH   2   3
ENDBRANCH   1   2
BRANCH   1  18
ATOM     18  C   UNL     1      15.120 -43.578  32.929  1.00  0.00     0.000 C 
BRANCH  18  19
ATOM     19  C   UNL     1      14.203 -43.574  31.696  1.00  0.00     0.000 C 
BRANCH  19  20
ATOM     20  C   UNL     1      14.369 -44.866  30.884  1.00  0.00     0.000 C 
BRANCH  20  21
ATOM     21  C   UNL     1      13.235 -45.097  29.871  1.00  0.00     0.000 C 
BRANCH  21  22
ATOM     22  C   UNL     1      13.640 -44.855  28.403  1.00  0.00     0.000 C 
BRANCH  22  23
ATOM     23  C   UNL     1      12.676 -43.906  27.665  1.00  0.00     0.000 C 
BRANCH  23  24
ATOM     24  C   UNL     1      13.397 -43.010  26.645  1.00  0.00    -0.000 C 
BRANCH  24  25
ATOM     25  C   UNL     1      14.576 -42.237  27.260  1.00  0.00    -0.000 C 
BRANCH  25  26
ATOM     26  C   UNL     1      14.152 -41.340  28.435  1.00  0.00    -0.000 C 
BRANCH  26  27
ATOM     27  C   UNL     1      15.304 -41.070  29.418  1.00  0.00    -0.000 C 
BRANCH  27  28
ATOM     28  C   UNL     1      16.651 -40.844  28.710  1.00  0.00    -0.000 C 
BRANCH  28  29
ATOM     29  C   UNL     1      17.893 -41.041  29.601  1.00  0.00    -0.000 C 
BRANCH  29  30
ATOM     30  C   UNL     1      19.124 -40.236  29.134  1.00  0.00    -0.000 C 
BRANCH  30  31
ATOM     31  C   UNL     1      18.789 -38.759  28.883  1.00  0.00    -0.003 C 
ATOM     32  C   UNL     1      20.057 -37.927  28.716  1.00  0.00     0.004 C 
ENDBRANCH  30  31
ENDBRANCH  29  30
ENDBRANCH  28  29
ENDBRANCH  27  28
ENDBRANCH  26  27
ENDBRANCH  25  26
ENDBRANCH  24  25
ENDBRANCH  23  24
ENDBRANCH  22  23
ENDBRANCH  21  22
ENDBRANCH  20  21
ENDBRANCH  19  20
ENDBRANCH  18  19
ENDBRANCH   1  18
TORSDOF 28
ENDMDL
MODEL 3
REMARK VINA RESULT:    -4.476      2.213      6.084
REMARK INTER + INTRA:         -18.151
REMARK INTER:                 -11.522
REMARK INTRA:                  -6.629
REMARK UNBOUND:                -6.349
REMARK SMILES CCCCCCCCCCCCCCCCCCCCCCCCCCCCCC(=O)[O-]
REMARK SMILES IDX 16 1 17 2 18 3 19 4 20 5 21 6 22 7 23 8 24 9 25 10 26 11
REMARK SMILES IDX 27 12 28 13 29 14 30 15 31 16 32 17 15 18 14 19 13 20 12 21
REMARK SMILES IDX 11 22 10 23 9 24 8 25 7 26 6 27 5 28 4 29 3 30 2 31 1 32
REMARK H PARENT
REMARK Flexibility Score: inf
ROOT
ATOM      1  C   UNL     1      15.724 -40.126  28.612  1.00  0.00     0.000 C 
ENDROOT
BRANCH   1   2
ATOM      2  C   UNL     1      14.321 -39.494  28.717  1.00  0.00     0.000 C 
BRANCH   2   3
ATOM      3  C   UNL     1      13.924 -38.577  27.547  1.00  0.00     0.000 C 
BRANCH   3   4
ATOM      4  C   UNL     1      14.918 -38.553  26.371  1.00  0.00     0.000 C 
BRANCH   4   5
ATOM      5  C   UNL     1      14.242 -38.473  24.985  1.00  0.00     0.000 C 
BRANCH   5   6
ATOM      6  C   UNL     1      13.791 -39.848  24.464  1.00  0.00     0.000 C 
BRANCH   6   7
ATOM      7  C   UNL     1      14.833 -40.951  24.750  1.00  0.00     0.000 C 
BRANCH   7   8
ATOM      8  C   UNL     1      14.298 -42.102  25.628  1.00  0.00     0.000 C 
BRANCH   8   9
ATOM      9  C   UNL     1      12.841 -41.943  26.096  1.00  0.00     0.000 C 
BRANCH   9  10
ATOM     10  C   UNL     1      12.598 -42.540  27.493  1.00  0.00     0.000 C 
BRANCH  10  11
ATOM     11  C   UNL     1      13.825 -43.291  28.041  1.00  0.00     0.000 C 
BRANCH  11  12
ATOM     12  C   UNL     1      13.537 -44.701  28.596  1.00  0.00     0.000 C 
BRANCH  12  13
ATOM     13  C   UNL     1      13.223 -44.760  30.104  1.00  0.00     0.006 C 
BRANCH  13  14
ATOM     14  C   UNL     1      14.463 -44.859  31.007  1.00  0.00     0.053 C 
BRANCH  14  15
ATOM     15  C   UNL     1      14.642 -43.635  31.851  1.00  0.00     0.041 C 
ATOM     16  O   UNL     1      14.750 -42.502  31.311  1.00  0.00    -0.550 OA
ATOM     17  O   UNL     1      14.652 -43.740  33.237  1.00  0.00    -0.550 OA
ENDBRANCH  14  15
ENDBRANCH  13  14
ENDBRANCH  12  13
ENDBRANCH  11  12
ENDBRANCH  10  11
ENDBRANCH   9  10
ENDBRANCH   8   9
ENDBRANCH   7   8
ENDBRANCH   6   7
ENDBRANCH   5   6
ENDBRANCH   4   5
ENDBRANCH   3   4
ENDBRANCH   2   3
ENDBRANCH   1   2
BRANCH   1  18
ATOM     18  C   UNL     1      16.764 -39.580  29.606  1.00  0.00     0.000 C 
BRANCH  18  19
ATOM     19  C   UNL     1      17.920 -38.835  28.921  1.00  0.00     0.000 C 
BRANCH  19  20
ATOM     20  C   UNL     1      18.596 -39.723  27.867  1.00  0.00     0.000 C 
BRANCH  20  21
ATOM     21  C   UNL     1      18.465 -39.175  26.436  1.00  0.00     0.000 C 
BRANCH  21  22
ATOM     22  C   UNL     1      18.388 -40.264  25.346  1.00  0.00     0.000 C 
BRANCH  22  23
ATOM     23  C   UNL     1      18.046 -41.655  25.915  1.00  0.00     0.000 C 
BRANCH  23  24
ATOM     24  C   UNL     1      18.810 -42.784  25.206  1.00  0.00    -0.000 C 
BRANCH  24  25
ATOM     25  C   UNL     1      18.158 -44.163  25.408  1.00  0.00    -0.000 C 
BRANCH  25  26
ATOM     26  C   UNL     1      17.047 -44.146  26.471  1.00  0.00    -0.000 C 
BRANCH  26  27
ATOM     27  C   UNL     1      17.086 -45.382  27.387  1.00  0.00    -0.000 C 
BRANCH  27  28
ATOM     28  C   UNL     1      17.364 -45.026  28.857  1.00  0.00    -0.000 C 
BRANCH  28  29
ATOM     29  C   UNL     1      17.383 -43.516  29.165  1.00  0.00    -0.000 C 
BRANCH  29  30
ATOM     30  C   UNL     1      18.478 -43.104  30.172  1.00  0.00    -0.000 C 
BRANCH  30  31
ATOM     31  C   UNL     1      19.675 -42.434  29.484  1.00  0.00    -0.003 C 
ATOM     32  C   UNL     1      20.450 -41.555  30.460  1.00  0.00     0.004 C 
ENDBRANCH  30  31
ENDBRANCH  29  30
ENDBRANCH  28  29
ENDBRANCH  27  28
ENDBRANCH  26  27
ENDBRANCH  25  26
ENDBRANCH  24  25
ENDBRANCH  23  24
ENDBRANCH  22  23
ENDBRANCH  21  22
ENDBRANCH  20  21
ENDBRANCH  19  20
ENDBRANCH  18  19
ENDBRANCH   1  18
TORSDOF 28
ENDMDL
MODEL 4
REMARK VINA RESULT:    -4.443      2.418      6.382
REMARK INTER + INTRA:         -18.065
REMARK INTER:                 -11.882
REMARK INTRA:                  -6.183
REMARK UNBOUND:                -6.349
REMARK SMILES CCCCCCCCCCCCCCCCCCCCCCCCCCCCCC(=O)[O-]
REMARK SMILES IDX 16 1 17 2 18 3 19 4 20 5 21 6 22 7 23 8 24 9 25 10 26 11
REMARK SMILES IDX 27 12 28 13 29 14 30 15 31 16 32 17 15 18 14 19 13 20 12 21
REMARK SMILES IDX 11 22 10 23 9 24 8 25 7 26 6 27 5 28 4 29 3 30 2 31 1 32
REMARK H PARENT
REMARK Flexibility Score: inf
ROOT
ATOM      1  C   UNL     1      17.494 -44.808  26.153  1.00  0.00     0.000 C 
ENDROOT
BRANCH   1   2
ATOM      2  C   UNL     1      17.160 -45.532  27.473  1.00  0.00     0.000 C 
BRANCH   2   3
ATOM      3  C   UNL     1      16.569 -44.640  28.580  1.00  0.00     0.000 C 
BRANCH   3   4
ATOM      4  C   UNL     1      15.276 -45.173  29.225  1.00  0.00     0.000 C 
BRANCH   4   5
ATOM      5  C   UNL     1      13.992 -44.496  28.698  1.00  0.00     0.000 C 
BRANCH   5   6
ATOM      6  C   UNL     1      12.711 -45.127  29.271  1.00  0.00     0.000 C 
BRANCH   6   7
ATOM      7  C   UNL     1      11.963 -44.167  30.221  1.00  0.00     0.000 C 
BRANCH   7   8
ATOM      8  C   UNL     1      12.496 -42.721  30.194  1.00  0.00     0.000 C 
BRANCH   8   9
ATOM      9  C   UNL     1      13.303 -42.299  31.435  1.00  0.00     0.000 C 
BRANCH   9  10
ATOM     10  C   UNL     1      13.367 -43.402  32.505  1.00  0.00     0.000 C 
BRANCH  10  11
ATOM     11  C   UNL     1      14.811 -43.781  32.883  1.00  0.00     0.000 C 
BRANCH  11  12
ATOM     12  C   UNL     1      15.859 -42.671  32.666  1.00  0.00     0.000 C 
BRANCH  12  13
ATOM     13  C   UNL     1      17.307 -43.057  33.027  1.00  0.00     0.006 C 
BRANCH  13  14
ATOM     14  C   UNL     1      17.659 -44.527  32.749  1.00  0.00     0.053 C 
BRANCH  14  15
ATOM     15  C   UNL     1      19.099 -44.698  32.374  1.00  0.00     0.041 C 
ATOM     16  O   UNL     1      19.454 -44.612  31.169  1.00  0.00    -0.550 OA
ATOM     17  O   UNL     1      20.054 -44.916  33.359  1.00  0.00    -0.550 OA
ENDBRANCH  14  15
ENDBRANCH  13  14
ENDBRANCH  12  13
ENDBRANCH  11  12
ENDBRANCH  10  11
ENDBRANCH   9  10
ENDBRANCH   8   9
ENDBRANCH   7   8
ENDBRANCH   6   7
ENDBRANCH   5   6
ENDBRANCH   4   5
ENDBRANCH   3   4
ENDBRANCH   2   3
ENDBRANCH   1   2
BRANCH   1  18
ATOM     18  C   UNL     1      16.786 -43.456  25.951  1.00  0.00     0.000 C 
BRANCH  18  19
ATOM     19  C   UNL     1      17.762 -42.298  25.693  1.00  0.00     0.000 C 
BRANCH  19  20
ATOM     20  C   UNL     1      17.135 -41.249  24.765  1.00  0.00     0.000 C 
BRANCH  20  21
ATOM     21  C   UNL     1      17.863 -39.894  24.799  1.00  0.00     0.000 C 
BRANCH  21  22
ATOM     22  C   UNL     1      18.493 -39.548  26.164  1.00  0.00     0.000 C 
BRANCH  22  23
ATOM     23  C   UNL     1      17.602 -38.621  27.014  1.00  0.00     0.000 C 
BRANCH  23  24
ATOM     24  C   UNL     1      16.304 -38.228  26.293  1.00  0.00    -0.000 C 
BRANCH  24  25
ATOM     25  C   UNL     1      15.044 -38.556  27.113  1.00  0.00    -0.000 C 
BRANCH  25  26
ATOM     26  C   UNL     1      14.351 -39.848  26.650  1.00  0.00    -0.000 C 
BRANCH  26  27
ATOM     27  C   UNL     1      14.495 -40.994  27.666  1.00  0.00    -0.000 C 
BRANCH  27  28
ATOM     28  C   UNL     1      15.240 -40.567  28.943  1.00  0.00    -0.000 C 
BRANCH  28  29
ATOM     29  C   UNL     1      16.578 -41.292  29.185  1.00  0.00    -0.000 C 
BRANCH  29  30
ATOM     30  C   UNL     1      17.491 -40.581  30.207  1.00  0.00    -0.000 C 
BRANCH  30  31
ATOM     31  C   UNL     1      18.970 -40.945  30.014  1.00  0.00    -0.003 C 
ATOM     32  C   UNL     1      19.131 -42.075  29.002  1.00  0.00     0.004 C 
ENDBRANCH  30  31
ENDBRANCH  29  30
ENDBRANCH  28  29
ENDBRANCH  27  28
ENDBRANCH  26  27
ENDBRANCH  25  26
ENDBRANCH  24  25
ENDBRANCH  23  24
ENDBRANCH  22  23
ENDBRANCH  21  22
ENDBRANCH  20  21
ENDBRANCH  19  20
ENDBRANCH  18  19
ENDBRANCH   1  18
TORSDOF 28
ENDMDL
MODEL 5
REMARK VINA RESULT:    -4.436      1.515      2.336
REMARK INTER + INTRA:         -18.047
REMARK INTER:                 -12.148
REMARK INTRA:                  -5.899
REMARK UNBOUND:                -6.349
REMARK SMILES CCCCCCCCCCCCCCCCCCCCCCCCCCCCCC(=O)[O-]
REMARK SMILES IDX 16 1 17 2 18 3 19 4 20 5 21 6 22 7 23 8 24 9 25 10 26 11
REMARK SMILES IDX 27 12 28 13 29 14 30 15 31 16 32 17 15 18 14 19 13 20 12 21
REMARK SMILES IDX 11 22 10 23 9 24 8 25 7 26 6 27 5 28 4 29 3 30 2 31 1 32
REMARK H PARENT
REMARK Flexibility Score: inf
ROOT
ATOM      1  C   UNL     1      16.056 -44.680  27.944  1.00  0.00     0.000 C 
ENDROOT
BRANCH   1   2
ATOM      2  C   UNL     1      17.187 -45.410  27.192  1.00  0.00     0.000 C 
BRANCH   2   3
ATOM      3  C   UNL     1      17.599 -44.778  25.850  1.00  0.00     0.000 C 
BRANCH   3   4
ATOM      4  C   UNL     1      17.358 -43.261  25.744  1.00  0.00     0.000 C 
BRANCH   4   5
ATOM      5  C   UNL     1      18.636 -42.446  25.448  1.00  0.00     0.000 C 
BRANCH   5   6
ATOM      6  C   UNL     1      18.356 -41.187  24.609  1.00  0.00     0.000 C 
BRANCH   6   7
ATOM      7  C   UNL     1      18.003 -39.967  25.488  1.00  0.00     0.000 C 
BRANCH   7   8
ATOM      8  C   UNL     1      16.488 -39.738  25.657  1.00  0.00     0.000 C 
BRANCH   8   9
ATOM      9  C   UNL     1      16.093 -38.807  26.817  1.00  0.00     0.000 C 
BRANCH   9  10
ATOM     10  C   UNL     1      15.134 -39.476  27.815  1.00  0.00     0.000 C 
BRANCH  10  11
ATOM     11  C   UNL     1      15.373 -40.991  27.947  1.00  0.00     0.000 C 
BRANCH  11  12
ATOM     12  C   UNL     1      16.182 -41.421  29.188  1.00  0.00     0.000 C 
BRANCH  12  13
ATOM     13  C   UNL     1      17.697 -41.595  28.954  1.00  0.00     0.006 C 
BRANCH  13  14
ATOM     14  C   UNL     1      18.581 -40.715  29.853  1.00  0.00     0.053 C 
BRANCH  14  15
ATOM     15  C   UNL     1      18.680 -39.311  29.340  1.00  0.00     0.041 C 
ATOM     16  O   UNL     1      19.521 -39.019  28.450  1.00  0.00    -0.550 OA
ATOM     17  O   UNL     1      17.817 -38.332  29.820  1.00  0.00    -0.550 OA
ENDBRANCH  14  15
ENDBRANCH  13  14
ENDBRANCH  12  13
ENDBRANCH  11  12
ENDBRANCH  10  11
ENDBRANCH   9  10
ENDBRANCH   8   9
ENDBRANCH   7   8
ENDBRANCH   6   7
ENDBRANCH   5   6
ENDBRANCH   4   5
ENDBRANCH   3   4
ENDBRANCH   2   3
ENDBRANCH   1   2
BRANCH   1  18
ATOM     18  C   UNL     1      15.345 -45.513  29.026  1.00  0.00     0.000 C 
BRANCH  18  19
ATOM     19  C   UNL     1      14.040 -44.870  29.520  1.00  0.00     0.000 C 
BRANCH  19  20
ATOM     20  C   UNL     1      13.058 -44.661  28.359  1.00  0.00     0.000 C 
BRANCH  20  21
ATOM     21  C   UNL     1      11.583 -44.763  28.783  1.00  0.00     0.000 C 
BRANCH  21  22
ATOM     22  C   UNL     1      10.985 -43.444  29.313  1.00  0.00     0.000 C 
BRANCH  22  23
ATOM     23  C   UNL     1      11.704 -42.197  28.761  1.00  0.00     0.000 C 
BRANCH  23  24
ATOM     24  C   UNL     1      12.356 -41.355  29.868  1.00  0.00    -0.000 C 
BRANCH  24  25
ATOM     25  C   UNL     1      12.305 -42.039  31.245  1.00  0.00    -0.000 C 
BRANCH  25  26
ATOM     26  C   UNL     1      13.697 -42.230  31.869  1.00  0.00    -0.000 C 
BRANCH  26  27
ATOM     27  C   UNL     1      13.781 -43.484  32.757  1.00  0.00    -0.000 C 
BRANCH  27  28
ATOM     28  C   UNL     1      15.227 -43.956  32.985  1.00  0.00    -0.000 C 
BRANCH  28  29
ATOM     29  C   UNL     1      16.238 -42.830  33.276  1.00  0.00    -0.000 C 
BRANCH  29  30
ATOM     30  C   UNL     1      17.613 -43.044  32.608  1.00  0.00    -0.000 C 
BRANCH  30  31
ATOM     31  C   UNL     1      17.851 -44.513  32.231  1.00  0.00    -0.003 C 
ATOM     32  C   UNL     1      18.496 -44.631  30.854  1.00  0.00     0.004 C 
ENDBRANCH  30  31
ENDBRANCH  29  30
ENDBRANCH  28  29
ENDBRANCH  27  28
ENDBRANCH  26  27
ENDBRANCH  25  26
ENDBRANCH  24  25
ENDBRANCH  23  24
ENDBRANCH  22  23
ENDBRANCH  21  22
ENDBRANCH  20  21
ENDBRANCH  19  20
ENDBRANCH  18  19
ENDBRANCH   1  18
TORSDOF 28
ENDMDL
MODEL 6
REMARK VINA RESULT:    -4.430      1.597      4.493
REMARK INTER + INTRA:         -18.029
REMARK INTER:                 -11.873
REMARK INTRA:                  -6.156
REMARK UNBOUND:                -6.349
REMARK SMILES CCCCCCCCCCCCCCCCCCCCCCCCCCCCCC(=O)[O-]
REMARK SMILES IDX 16 1 17 2 18 3 19 4 20 5 21 6 22 7 23 8 24 9 25 10 26 11
REMARK SMILES IDX 27 12 28 13 29 14 30 15 31 16 32 17 15 18 14 19 13 20 12 21
REMARK SMILES IDX 11 22 10 23 9 24 8 25 7 26 6 27 5 28 4 29 3 30 2 31 1 32
REMARK H PARENT
REMARK Flexibility Score: inf
ROOT
ATOM      1  C   UNL     1      16.902 -43.998  26.851  1.00  0.00     0.000 C 
ENDROOT
BRANCH   1   2
ATOM      2  C   UNL     1      17.898 -44.097  25.678  1.00  0.00     0.000 C 
BRANCH   2   3
ATOM      3  C   UNL     1      18.550 -42.768  25.256  1.00  0.00     0.000 C 
BRANCH   3   4
ATOM      4  C   UNL     1      17.702 -41.512  25.524  1.00  0.00     0.000 C 
BRANCH   4   5
ATOM      5  C   UNL     1      18.521 -40.203  25.566  1.00  0.00     0.000 C 
BRANCH   5   6
ATOM      6  C   UNL     1      18.533 -39.555  26.961  1.00  0.00     0.000 C 
BRANCH   6   7
ATOM      7  C   UNL     1      18.513 -40.605  28.093  1.00  0.00     0.000 C 
BRANCH   7   8
ATOM      8  C   UNL     1      18.367 -39.999  29.503  1.00  0.00     0.000 C 
BRANCH   8   9
ATOM      9  C   UNL     1      16.944 -40.040  30.087  1.00  0.00     0.000 C 
BRANCH   9  10
ATOM     10  C   UNL     1      15.968 -40.852  29.220  1.00  0.00     0.000 C 
BRANCH  10  11
ATOM     11  C   UNL     1      14.871 -39.980  28.582  1.00  0.00     0.000 C 
BRANCH  11  12
ATOM     12  C   UNL     1      14.670 -40.183  27.067  1.00  0.00     0.000 C 
BRANCH  12  13
ATOM     13  C   UNL     1      14.862 -38.918  26.205  1.00  0.00     0.006 C 
BRANCH  13  14
ATOM     14  C   UNL     1      14.986 -39.191  24.698  1.00  0.00     0.053 C 
BRANCH  14  15
ATOM     15  C   UNL     1      13.649 -39.256  24.027  1.00  0.00     0.041 C 
ATOM     16  O   UNL     1      12.666 -38.635  24.510  1.00  0.00    -0.550 OA
ATOM     17  O   UNL     1      13.497 -39.974  22.846  1.00  0.00    -0.550 OA
ENDBRANCH  14  15
ENDBRANCH  13  14
ENDBRANCH  12  13
ENDBRANCH  11  12
ENDBRANCH  10  11
ENDBRANCH   9  10
ENDBRANCH   8   9
ENDBRANCH   7   8
ENDBRANCH   6   7
ENDBRANCH   5   6
ENDBRANCH   4   5
ENDBRANCH   3   4
ENDBRANCH   2   3
ENDBRANCH   1   2
BRANCH   1  18
ATOM     18  C   UNL     1      16.713 -45.293  27.662  1.00  0.00     0.000 C 
BRANCH  18  19
ATOM     19  C   UNL     1      17.570 -45.336  28.937  1.00  0.00     0.000 C 
BRANCH  19  20
ATOM     20  C   UNL     1      17.782 -43.924  29.502  1.00  0.00     0.000 C 
BRANCH  20  21
ATOM     21  C   UNL     1      19.054 -43.797  30.357  1.00  0.00     0.000 C 
BRANCH  21  22
ATOM     22  C   UNL     1      19.081 -44.720  31.592  1.00  0.00     0.000 C 
BRANCH  22  23
ATOM     23  C   UNL     1      19.445 -43.972  32.890  1.00  0.00     0.000 C 
BRANCH  23  24
ATOM     24  C   UNL     1      18.449 -42.849  33.221  1.00  0.00    -0.000 C 
BRANCH  24  25
ATOM     25  C   UNL     1      16.990 -43.336  33.245  1.00  0.00    -0.000 C 
BRANCH  25  26
ATOM     26  C   UNL     1      15.999 -42.274  32.739  1.00  0.00    -0.000 C 
BRANCH  26  27
ATOM     27  C   UNL     1      14.706 -42.892  32.178  1.00  0.00    -0.000 C 
BRANCH  27  28
ATOM     28  C   UNL     1      14.774 -44.425  32.077  1.00  0.00    -0.000 C 
BRANCH  28  29
ATOM     29  C   UNL     1      14.433 -44.998  30.688  1.00  0.00    -0.000 C 
BRANCH  29  30
ATOM     30  C   UNL     1      13.961 -43.931  29.677  1.00  0.00    -0.000 C 
BRANCH  30  31
ATOM     31  C   UNL     1      13.100 -44.533  28.559  1.00  0.00    -0.003 C 
ATOM     32  C   UNL     1      13.113 -43.649  27.316  1.00  0.00     0.004 C 
ENDBRANCH  30  31
ENDBRANCH  29  30
ENDBRANCH  28  29
ENDBRANCH  27  28
ENDBRANCH  26  27
ENDBRANCH  25  26
ENDBRANCH  24  25
ENDBRANCH  23  24
ENDBRANCH  22  23
ENDBRANCH  21  22
ENDBRANCH  20  21
ENDBRANCH  19  20
ENDBRANCH  18  19
ENDBRANCH   1  18
TORSDOF 28
ENDMDL
MODEL 7
REMARK VINA RESULT:    -4.426      2.196      5.810
REMARK INTER + INTRA:         -18.019
REMARK INTER:                 -12.319
REMARK INTRA:                  -5.700
REMARK UNBOUND:                -6.349
REMARK SMILES CCCCCCCCCCCCCCCCCCCCCCCCCCCCCC(=O)[O-]
REMARK SMILES IDX 16 1 17 2 18 3 19 4 20 5 21 6 22 7 23 8 24 9 25 10 26 11
REMARK SMILES IDX 27 12 28 13 29 14 30 15 31 16 32 17 15 18 14 19 13 20 12 21
REMARK SMILES IDX 11 22 10 23 9 24 8 25 7 26 6 27 5 28 4 29 3 30 2 31 1 32
REMARK H PARENT
REMARK Flexibility Score: inf
ROOT
ATOM      1  C   UNL     1      17.969 -42.957  25.506  1.00  0.00     0.000 C 
ENDROOT
BRANCH   1   2
ATOM      2  C   UNL     1      16.473 -43.077  25.861  1.00  0.00     0.000 C 
BRANCH   2   3
ATOM      3  C   UNL     1      16.150 -44.019  27.035  1.00  0.00     0.000 C 
BRANCH   3   4
ATOM      4  C   UNL     1      17.168 -45.151  27.262  1.00  0.00     0.000 C 
BRANCH   4   5
ATOM      5  C   UNL     1      17.327 -45.559  28.743  1.00  0.00     0.000 C 
BRANCH   5   6
ATOM      6  C   UNL     1      16.100 -45.191  29.594  1.00  0.00     0.000 C 
BRANCH   6   7
ATOM      7  C   UNL     1      16.462 -44.982  31.081  1.00  0.00     0.000 C 
BRANCH   7   8
ATOM      8  C   UNL     1      15.312 -45.310  32.055  1.00  0.00     0.000 C 
BRANCH   8   9
ATOM      9  C   UNL     1      14.731 -44.101  32.809  1.00  0.00     0.000 C 
BRANCH   9  10
ATOM     10  C   UNL     1      15.129 -42.758  32.175  1.00  0.00     0.000 C 
BRANCH  10  11
ATOM     11  C   UNL     1      14.085 -42.243  31.167  1.00  0.00     0.000 C 
BRANCH  11  12
ATOM     12  C   UNL     1      12.779 -43.060  31.101  1.00  0.00     0.000 C 
BRANCH  12  13
ATOM     13  C   UNL     1      12.380 -43.545  29.693  1.00  0.00     0.006 C 
BRANCH  13  14
ATOM     14  C   UNL     1      12.496 -45.064  29.490  1.00  0.00     0.053 C 
BRANCH  14  15
ATOM     15  C   UNL     1      11.189 -45.679  29.095  1.00  0.00     0.041 C 
ATOM     16  O   UNL     1      10.144 -45.425  29.751  1.00  0.00    -0.550 OA
ATOM     17  O   UNL     1      11.116 -46.504  27.978  1.00  0.00    -0.550 OA
ENDBRANCH  14  15
ENDBRANCH  13  14
ENDBRANCH  12  13
ENDBRANCH  11  12
ENDBRANCH  10  11
ENDBRANCH   9  10
ENDBRANCH   8   9
ENDBRANCH   7   8
ENDBRANCH   6   7
ENDBRANCH   5   6
ENDBRANCH   4   5
ENDBRANCH   3   4
ENDBRANCH   2   3
ENDBRANCH   1   2
BRANCH   1  18
ATOM     18  C   UNL     1      18.552 -41.536  25.602  1.00  0.00     0.000 C 
BRANCH  18  19
ATOM     19  C   UNL     1      18.265 -40.682  24.357  1.00  0.00     0.000 C 
BRANCH  19  20
ATOM     20  C   UNL     1      18.289 -39.187  24.700  1.00  0.00     0.000 C 
BRANCH  20  21
ATOM     21  C   UNL     1      16.918 -38.641  25.133  1.00  0.00     0.000 C 
BRANCH  21  22
ATOM     22  C   UNL     1      16.709 -38.595  26.661  1.00  0.00     0.000 C 
BRANCH  22  23
ATOM     23  C   UNL     1      15.414 -39.301  27.108  1.00  0.00     0.000 C 
BRANCH  23  24
ATOM     24  C   UNL     1      15.622 -40.185  28.348  1.00  0.00    -0.000 C 
BRANCH  24  25
ATOM     25  C   UNL     1      16.401 -39.469  29.465  1.00  0.00    -0.000 C 
BRANCH  25  26
ATOM     26  C   UNL     1      17.529 -40.333  30.053  1.00  0.00    -0.000 C 
BRANCH  26  27
ATOM     27  C   UNL     1      17.565 -41.748  29.450  1.00  0.00    -0.000 C 
BRANCH  27  28
ATOM     28  C   UNL     1      18.997 -42.264  29.226  1.00  0.00    -0.000 C 
BRANCH  28  29
ATOM     29  C   UNL     1      19.849 -42.383  30.504  1.00  0.00    -0.000 C 
BRANCH  29  30
ATOM     30  C   UNL     1      19.883 -43.809  31.095  1.00  0.00    -0.000 C 
BRANCH  30  31
ATOM     31  C   UNL     1      19.842 -43.801  32.630  1.00  0.00    -0.003 C 
ATOM     32  C   UNL     1      18.653 -42.996  33.145  1.00  0.00     0.004 C 
ENDBRANCH  30  31
ENDBRANCH  29  30
ENDBRANCH  28  29
ENDBRANCH  27  28
ENDBRANCH  26  27
ENDBRANCH  25  26
ENDBRANCH  24  25
ENDBRANCH  23  24
ENDBRANCH  22  23
ENDBRANCH  21  22
ENDBRANCH  20  21
ENDBRANCH  19  20
ENDBRANCH  18  19
ENDBRANCH   1  18
TORSDOF 28
ENDMDL
MODEL 8
REMARK VINA RESULT:    -4.408      1.912      6.018
REMARK INTER + INTRA:         -17.972
REMARK INTER:                 -11.715
REMARK INTRA:                  -6.256
REMARK UNBOUND:                -6.349
REMARK SMILES CCCCCCCCCCCCCCCCCCCCCCCCCCCCCC(=O)[O-]
REMARK SMILES IDX 16 1 17 2 18 3 19 4 20 5 21 6 22 7 23 8 24 9 25 10 26 11
REMARK SMILES IDX 27 12 28 13 29 14 30 15 31 16 32 17 15 18 14 19 13 20 12 21
REMARK SMILES IDX 11 22 10 23 9 24 8 25 7 26 6 27 5 28 4 29 3 30 2 31 1 32
REMARK H PARENT
REMARK Flexibility Score: inf
ROOT
ATOM      1  C   UNL     1      17.207 -44.224  26.686  1.00  0.00     0.000 C 
ENDROOT
BRANCH   1   2
ATOM      2  C   UNL     1      16.598 -44.603  28.052  1.00  0.00     0.000 C 
BRANCH   2   3
ATOM      3  C   UNL     1      17.483 -45.495  28.941  1.00  0.00     0.000 C 
BRANCH   3   4
ATOM      4  C   UNL     1      17.840 -44.898  30.315  1.00  0.00     0.000 C 
BRANCH   4   5
ATOM      5  C   UNL     1      18.727 -43.636  30.234  1.00  0.00     0.000 C 
BRANCH   5   6
ATOM      6  C   UNL     1      19.594 -43.441  31.490  1.00  0.00     0.000 C 
BRANCH   6   7
ATOM      7  C   UNL     1      18.846 -43.828  32.783  1.00  0.00     0.000 C 
BRANCH   7   8
ATOM      8  C   UNL     1      17.908 -42.725  33.315  1.00  0.00     0.000 C 
BRANCH   8   9
ATOM      9  C   UNL     1      16.405 -43.030  33.193  1.00  0.00     0.000 C 
BRANCH   9  10
ATOM     10  C   UNL     1      15.689 -42.101  32.198  1.00  0.00     0.000 C 
BRANCH  10  11
ATOM     11  C   UNL     1      14.274 -42.590  31.840  1.00  0.00     0.000 C 
BRANCH  11  12
ATOM     12  C   UNL     1      14.210 -43.975  31.165  1.00  0.00     0.000 C 
BRANCH  12  13
ATOM     13  C   UNL     1      12.966 -44.219  30.288  1.00  0.00     0.006 C 
BRANCH  13  14
ATOM     14  C   UNL     1      13.220 -45.110  29.061  1.00  0.00     0.053 C 
BRANCH  14  15
ATOM     15  C   UNL     1      11.969 -45.350  28.273  1.00  0.00     0.041 C 
ATOM     16  O   UNL     1      11.134 -46.211  28.655  1.00  0.00    -0.550 OA
ATOM     17  O   UNL     1      11.708 -44.596  27.135  1.00  0.00    -0.550 OA
ENDBRANCH  14  15
ENDBRANCH  13  14
ENDBRANCH  12  13
ENDBRANCH  11  12
ENDBRANCH  10  11
ENDBRANCH   9  10
ENDBRANCH   8   9
ENDBRANCH   7   8
ENDBRANCH   6   7
ENDBRANCH   5   6
ENDBRANCH   4   5
ENDBRANCH   3   4
ENDBRANCH   2   3
ENDBRANCH   1   2
BRANCH   1  18
ATOM     18  C   UNL     1      17.968 -42.886  26.657  1.00  0.00     0.000 C 
BRANCH  18  19
ATOM     19  C   UNL     1      18.773 -42.680  25.365  1.00  0.00     0.000 C 
BRANCH  19  20
ATOM     20  C   UNL     1      18.327 -41.403  24.639  1.00  0.00     0.000 C 
BRANCH  20  21
ATOM     21  C   UNL     1      17.606 -40.402  25.557  1.00  0.00     0.000 C 
BRANCH  21  22
ATOM     22  C   UNL     1      16.323 -39.799  24.950  1.00  0.00     0.000 C 
BRANCH  22  23
ATOM     23  C   UNL     1      15.310 -40.873  24.506  1.00  0.00     0.000 C 
BRANCH  23  24
ATOM     24  C   UNL     1      14.110 -40.980  25.459  1.00  0.00    -0.000 C 
BRANCH  24  25
ATOM     25  C   UNL     1      14.229 -42.164  26.435  1.00  0.00    -0.000 C 
BRANCH  25  26
ATOM     26  C   UNL     1      14.359 -41.717  27.901  1.00  0.00    -0.000 C 
BRANCH  26  27
ATOM     27  C   UNL     1      14.320 -40.187  28.058  1.00  0.00    -0.000 C 
BRANCH  27  28
ATOM     28  C   UNL     1      15.591 -39.623  28.716  1.00  0.00    -0.000 C 
BRANCH  28  29
ATOM     29  C   UNL     1      16.607 -40.686  29.176  1.00  0.00    -0.000 C 
BRANCH  29  30
ATOM     30  C   UNL     1      17.871 -40.090  29.834  1.00  0.00    -0.000 C 
BRANCH  30  31
ATOM     31  C   UNL     1      19.035 -39.964  28.843  1.00  0.00    -0.003 C 
ATOM     32  C   UNL     1      19.418 -38.503  28.627  1.00  0.00     0.004 C 
ENDBRANCH  30  31
ENDBRANCH  29  30
ENDBRANCH  28  29
ENDBRANCH  27  28
ENDBRANCH  26  27
ENDBRANCH  25  26
ENDBRANCH  24  25
ENDBRANCH  23  24
ENDBRANCH  22  23
ENDBRANCH  21  22
ENDBRANCH  20  21
ENDBRANCH  19  20
ENDBRANCH  18  19
ENDBRANCH   1  18
TORSDOF 28
ENDMDL
MODEL 9
REMARK VINA RESULT:    -4.363      2.202      4.247
REMARK INTER + INTRA:         -17.853
REMARK INTER:                 -12.173
REMARK INTRA:                  -5.680
REMARK UNBOUND:                -6.349
REMARK SMILES CCCCCCCCCCCCCCCCCCCCCCCCCCCCCC(=O)[O-]
REMARK SMILES IDX 16 1 17 2 18 3 19 4 20 5 21 6 22 7 23 8 24 9 25 10 26 11
REMARK SMILES IDX 27 12 28 13 29 14 30 15 31 16 32 17 15 18 14 19 13 20 12 21
REMARK SMILES IDX 11 22 10 23 9 24 8 25 7 26 6 27 5 28 4 29 3 30 2 31 1 32
REMARK H PARENT
REMARK Flexibility Score: inf
ROOT
ATOM      1  C   UNL     1      17.123 -45.114  26.871  1.00  0.00     0.000 C 
ENDROOT
BRANCH   1   2
ATOM      2  C   UNL     1      17.592 -44.258  25.677  1.00  0.00     0.000 C 
BRANCH   2   3
ATOM      3  C   UNL     1      18.078 -42.842  26.035  1.00  0.00     0.000 C 
BRANCH   3   4
ATOM      4  C   UNL     1      18.942 -42.158  24.960  1.00  0.00     0.000 C 
BRANCH   4   5
ATOM      5  C   UNL     1      18.251 -40.958  24.275  1.00  0.00     0.000 C 
BRANCH   5   6
ATOM      6  C   UNL     1      18.457 -39.640  25.041  1.00  0.00     0.000 C 
BRANCH   6   7
ATOM      7  C   UNL     1      17.230 -38.708  24.939  1.00  0.00     0.000 C 
BRANCH   7   8
ATOM      8  C   UNL     1      16.456 -38.548  26.263  1.00  0.00     0.000 C 
BRANCH   8   9
ATOM      9  C   UNL     1      15.009 -39.069  26.241  1.00  0.00     0.000 C 
BRANCH   9  10
ATOM     10  C   UNL     1      14.678 -39.852  24.960  1.00  0.00     0.000 C 
BRANCH  10  11
ATOM     11  C   UNL     1      14.723 -41.377  25.165  1.00  0.00     0.000 C 
BRANCH  11  12
ATOM     12  C   UNL     1      14.450 -41.853  26.607  1.00  0.00     0.000 C 
BRANCH  12  13
ATOM     13  C   UNL     1      13.792 -43.242  26.725  1.00  0.00     0.006 C 
BRANCH  13  14
ATOM     14  C   UNL     1      12.384 -43.227  27.341  1.00  0.00     0.053 C 
BRANCH  14  15
ATOM     15  C   UNL     1      11.858 -44.610  27.574  1.00  0.00     0.041 C 
ATOM     16  O   UNL     1      12.262 -45.285  28.556  1.00  0.00    -0.550 OA
ATOM     17  O   UNL     1      10.893 -45.139  26.725  1.00  0.00    -0.550 OA
ENDBRANCH  14  15
ENDBRANCH  13  14
ENDBRANCH  12  13
ENDBRANCH  11  12
ENDBRANCH  10  11
ENDBRANCH   9  10
ENDBRANCH   8   9
ENDBRANCH   7   8
ENDBRANCH   6   7
ENDBRANCH   5   6
ENDBRANCH   4   5
ENDBRANCH   3   4
ENDBRANCH   2   3
ENDBRANCH   1   2
BRANCH   1  18
ATOM     18  C   UNL     1      17.207 -44.424  28.245  1.00  0.00     0.000 C 
BRANCH  18  19
ATOM     19  C   UNL     1      16.281 -45.058  29.294  1.00  0.00     0.000 C 
BRANCH  19  20
ATOM     20  C   UNL     1      15.184 -44.074  29.723  1.00  0.00     0.000 C 
BRANCH  20  21
ATOM     21  C   UNL     1      15.169 -43.803  31.237  1.00  0.00     0.000 C 
BRANCH  21  22
ATOM     22  C   UNL     1      14.892 -45.051  32.100  1.00  0.00     0.000 C 
BRANCH  22  23
ATOM     23  C   UNL     1      16.119 -45.495  32.920  1.00  0.00     0.000 C 
BRANCH  23  24
ATOM     24  C   UNL     1      17.264 -44.471  32.868  1.00  0.00    -0.000 C 
BRANCH  24  25
ATOM     25  C   UNL     1      18.611 -45.103  32.475  1.00  0.00    -0.000 C 
BRANCH  25  26
ATOM     26  C   UNL     1      19.292 -44.374  31.305  1.00  0.00    -0.000 C 
BRANCH  26  27
ATOM     27  C   UNL     1      19.749 -42.954  31.679  1.00  0.00    -0.000 C 
BRANCH  27  28
ATOM     28  C   UNL     1      19.467 -41.926  30.570  1.00  0.00    -0.000 C 
BRANCH  28  29
ATOM     29  C   UNL     1      17.985 -41.539  30.407  1.00  0.00    -0.000 C 
BRANCH  29  30
ATOM     30  C   UNL     1      17.691 -40.738  29.120  1.00  0.00    -0.000 C 
BRANCH  30  31
ATOM     31  C   UNL     1      18.971 -40.189  28.476  1.00  0.00    -0.003 C 
ATOM     32  C   UNL     1      19.131 -38.697  28.752  1.00  0.00     0.004 C 
ENDBRANCH  30  31
ENDBRANCH  29  30
ENDBRANCH  28  29
ENDBRANCH  27  28
ENDBRANCH  26  27
ENDBRANCH  25  26
ENDBRANCH  24  25
ENDBRANCH  23  24
ENDBRANCH  22  23
ENDBRANCH  21  22
ENDBRANCH  20  21
ENDBRANCH  19  20
ENDBRANCH  18  19
ENDBRANCH   1  18
TORSDOF 28
ENDMDL
