MODEL 1
REMARK VINA RESULT:    -3.363      0.000      0.000
REMARK INTER + INTRA:          -4.232
REMARK INTER:                  -4.739
REMARK INTRA:                   0.507
REMARK UNBOUND:                 0.507
REMARK SMILES CC1=CCC(=C(C)C)C(=O)CC(C)=CCC1
REMARK SMILES IDX 12 1 14 2 13 3 15 4 16 5 2 6 1 7 3 8 11 10 9 11 10 12 5 13
REMARK SMILES IDX 6 14 7 15 8 16 4 17
REMARK H PARENT
REMARK Flexibility Score: 60.00
ROOT
ATOM      1  C   UNL     1      11.294  16.076  14.648  1.00  0.00    -0.070 C 
ATOM      2  C   UNL     1      11.294  14.974  15.434  1.00  0.00    -0.027 C 
ATOM      3  C   UNL     1       9.958  16.694  14.315  1.00  0.00     0.039 C 
ENDROOT
BRANCH   2   4
ATOM      4  C   UNL     1      12.510  14.260  15.975  1.00  0.00     0.032 C 
BRANCH   4   5
ATOM      5  C   UNL     1      13.230  15.066  17.072  1.00  0.00     0.034 C 
BRANCH   5   6
ATOM      6  C   UNL     1      14.699  15.273  16.760  1.00  0.00    -0.077 C 
ATOM      7  C   UNL     1      15.574  14.055  16.598  1.00  0.00     0.039 C 
ATOM      8  C   UNL     1      15.279  16.488  16.642  1.00  0.00    -0.023 CG0
ATOM      9  G   UNL     1      14.581  17.818  16.805  1.00  0.00     0.000 G0
ENDBRANCH   5   6
ENDBRANCH   4   5
ENDBRANCH   2   4
BRANCH   1  10
ATOM     10  C   UNL     1      12.558  16.753  14.144  1.00  0.00     0.111 C 
BRANCH  10  11
ATOM     11  C   UNL     1      12.840  18.030  14.896  1.00  0.00     0.163 C 
ATOM     12  O   UNL     1      11.895  18.852  15.046  1.00  0.00    -0.294 OA
BRANCH  11  13
ATOM     13  C   UNL     1      14.205  18.360  15.413  1.00  0.00    -0.002 C 
ATOM     14  C   UNL     1      15.065  19.158  14.711  1.00  0.00    -0.069 C 
ATOM     15  C   UNL     1      14.659  19.809  13.407  1.00  0.00     0.039 C 
ATOM     16  C   UNL     1      16.458  19.456  15.223  1.00  0.00     0.039 C 
BRANCH  13  17
ATOM     17  C   UNL     1      14.567  17.834  16.788  1.00  0.00     0.066 CG0
ATOM     18  G   UNL     1      15.259  16.497  16.661  1.00  0.00     0.000 G0
ENDBRANCH  13  17
ENDBRANCH  11  13
ENDBRANCH  10  11
ENDBRANCH   1  10
TORSDOF 0
ENDMDL
MODEL 2
REMARK VINA RESULT:    -3.261      3.897      6.840
REMARK INTER + INTRA:          -4.088
REMARK INTER:                  -4.703
REMARK INTRA:                   0.615
REMARK UNBOUND:                 0.507
REMARK SMILES CC1=CCC(=C(C)C)C(=O)CC(C)=CCC1
REMARK SMILES IDX 12 1 14 2 13 3 15 4 16 5 2 6 1 7 3 8 11 10 9 11 10 12 5 13
REMARK SMILES IDX 6 14 7 15 8 16 4 17
REMARK H PARENT
REMARK Flexibility Score: 60.00
ROOT
ATOM      1  C   UNL     1       9.238  19.927  15.132  1.00  0.00    -0.070 C 
ATOM      2  C   UNL     1      10.282  19.542  14.361  1.00  0.00    -0.027 C 
ATOM      3  C   UNL     1       9.540  20.792  16.331  1.00  0.00     0.039 C 
ENDROOT
BRANCH   2   4
ATOM      4  C   UNL     1      10.200  18.771  13.065  1.00  0.00     0.032 C 
BRANCH   4   5
ATOM      5  C   UNL     1      11.038  17.479  13.092  1.00  0.00     0.034 C 
BRANCH   5   6
ATOM      6  C   UNL     1      10.602  16.537  14.197  1.00  0.00    -0.077 C 
ATOM      7  C   UNL     1      11.658  15.977  15.117  1.00  0.00     0.039 C 
ATOM      8  C   UNL     1       9.322  16.148  14.392  1.00  0.00    -0.023 CG0
ATOM      9  G   UNL     1       8.135  16.570  13.558  1.00  0.00     0.000 G0
ENDBRANCH   5   6
ENDBRANCH   4   5
ENDBRANCH   2   4
BRANCH   1  10
ATOM     10  C   UNL     1       7.788  19.594  14.819  1.00  0.00     0.111 C 
BRANCH  10  11
ATOM     11  C   UNL     1       7.402  18.238  15.354  1.00  0.00     0.163 C 
ATOM     12  O   UNL     1       7.447  18.058  16.602  1.00  0.00    -0.294 OA
BRANCH  11  13
ATOM     13  C   UNL     1       7.026  17.107  14.450  1.00  0.00    -0.002 C 
ATOM     14  C   UNL     1       5.745  16.635  14.386  1.00  0.00    -0.069 C 
ATOM     15  C   UNL     1       4.622  17.276  15.170  1.00  0.00     0.039 C 
ATOM     16  C   UNL     1       5.380  15.465  13.497  1.00  0.00     0.039 C 
BRANCH  13  17
ATOM     17  C   UNL     1       8.114  16.553  13.549  1.00  0.00     0.066 CG0
ATOM     18  G   UNL     1       9.311  16.150  14.377  1.00  0.00     0.000 G0
ENDBRANCH  13  17
ENDBRANCH  11  13
ENDBRANCH  10  11
ENDBRANCH   1  10
TORSDOF 0
ENDMDL
MODEL 3
REMARK VINA RESULT:    -3.213      6.769      9.331
REMARK INTER + INTRA:          -4.020
REMARK INTER:                  -4.549
REMARK INTRA:                   0.529
REMARK UNBOUND:                 0.507
REMARK SMILES CC1=CCC(=C(C)C)C(=O)CC(C)=CCC1
REMARK SMILES IDX 12 1 14 2 13 3 15 4 16 5 2 6 1 7 3 8 11 10 9 11 10 12 5 13
REMARK SMILES IDX 6 14 7 15 8 16 4 17
REMARK H PARENT
REMARK Flexibility Score: 60.00
ROOT
ATOM      1  C   UNL     1       7.706  19.076  15.628  1.00  0.00    -0.070 C 
ATOM      2  C   UNL     1       8.248  17.892  15.258  1.00  0.00    -0.027 C 
ATOM      3  C   UNL     1       8.652  20.226  15.877  1.00  0.00     0.039 C 
ENDROOT
BRANCH   2   4
ATOM      4  C   UNL     1       7.491  16.648  14.857  1.00  0.00     0.032 C 
BRANCH   4   5
ATOM      5  C   UNL     1       7.165  16.612  13.353  1.00  0.00     0.034 C 
BRANCH   5   6
ATOM      6  C   UNL     1       5.769  16.088  13.082  1.00  0.00    -0.077 C 
ATOM      7  C   UNL     1       5.518  14.608  13.231  1.00  0.00     0.039 C 
ATOM      8  C   UNL     1       4.737  16.868  12.687  1.00  0.00    -0.023 CG0
ATOM      9  G   UNL     1       4.798  18.358  12.449  1.00  0.00     0.000 G0
ENDBRANCH   5   6
ENDBRANCH   4   5
ENDBRANCH   2   4
BRANCH   1  10
ATOM     10  C   UNL     1       6.211  19.323  15.738  1.00  0.00     0.111 C 
BRANCH  10  11
ATOM     11  C   UNL     1       5.629  19.795  14.428  1.00  0.00     0.163 C 
ATOM     12  O   UNL     1       6.098  20.848  13.915  1.00  0.00    -0.294 OA
BRANCH  11  13
ATOM     13  C   UNL     1       4.493  19.084  13.764  1.00  0.00    -0.002 C 
ATOM     14  C   UNL     1       3.220  19.142  14.261  1.00  0.00    -0.069 C 
ATOM     15  C   UNL     1       2.877  19.986  15.468  1.00  0.00     0.039 C 
ATOM     16  C   UNL     1       2.083  18.388  13.604  1.00  0.00     0.039 C 
BRANCH  13  17
ATOM     17  C   UNL     1       4.798  18.356  12.469  1.00  0.00     0.066 CG0
ATOM     18  G   UNL     1       4.731  16.864  12.690  1.00  0.00     0.000 G0
ENDBRANCH  13  17
ENDBRANCH  11  13
ENDBRANCH  10  11
ENDBRANCH   1  10
TORSDOF 0
ENDMDL
MODEL 4
REMARK VINA RESULT:    -3.211      9.412     11.893
REMARK INTER + INTRA:          -4.018
REMARK INTER:                  -4.492
REMARK INTRA:                   0.474
REMARK UNBOUND:                 0.507
REMARK SMILES CC1=CCC(=C(C)C)C(=O)CC(C)=CCC1
REMARK SMILES IDX 12 1 14 2 13 3 15 4 16 5 2 6 1 7 3 8 11 10 9 11 10 12 5 13
REMARK SMILES IDX 6 14 7 15 8 16 4 17
REMARK H PARENT
REMARK Flexibility Score: 60.00
ROOT
ATOM      1  C   UNL     1      11.877  26.685  15.160  1.00  0.00    -0.070 C 
ATOM      2  C   UNL     1      10.777  27.077  14.474  1.00  0.00    -0.027 C 
ATOM      3  C   UNL     1      11.839  25.327  15.818  1.00  0.00     0.039 C 
ENDROOT
BRANCH   2   4
ATOM      4  C   UNL     1      10.636  28.338  13.656  1.00  0.00     0.032 C 
BRANCH   4   5
ATOM      5  C   UNL     1      11.517  28.327  12.392  1.00  0.00     0.034 C 
BRANCH   5   6
ATOM      6  C   UNL     1      12.396  29.557  12.296  1.00  0.00    -0.077 C 
ATOM      7  C   UNL     1      11.734  30.913  12.300  1.00  0.00     0.039 C 
ATOM      8  C   UNL     1      13.743  29.512  12.181  1.00  0.00    -0.023 CG0
ATOM      9  G   UNL     1      14.581  28.257  12.123  1.00  0.00     0.000 G0
ENDBRANCH   5   6
ENDBRANCH   4   5
ENDBRANCH   2   4
BRANCH   1  10
ATOM     10  C   UNL     1      13.155  27.501  15.244  1.00  0.00     0.111 C 
BRANCH  10  11
ATOM     11  C   UNL     1      14.217  26.968  14.314  1.00  0.00     0.163 C 
ATOM     12  O   UNL     1      14.390  25.719  14.266  1.00  0.00    -0.294 OA
BRANCH  11  13
ATOM     13  C   UNL     1      15.089  27.874  13.503  1.00  0.00    -0.002 C 
ATOM     14  C   UNL     1      16.310  28.289  13.955  1.00  0.00    -0.069 C 
ATOM     15  C   UNL     1      16.880  27.799  15.268  1.00  0.00     0.039 C 
ATOM     16  C   UNL     1      17.170  29.236  13.145  1.00  0.00     0.039 C 
BRANCH  13  17
ATOM     17  C   UNL     1      14.592  28.252  12.121  1.00  0.00     0.066 CG0
ATOM     18  G   UNL     1      13.737  29.494  12.205  1.00  0.00     0.000 G0
ENDBRANCH  13  17
ENDBRANCH  11  13
ENDBRANCH  10  11
ENDBRANCH   1  10
TORSDOF 0
ENDMDL
MODEL 5
REMARK VINA RESULT:    -3.206      1.730      4.400
REMARK INTER + INTRA:          -4.011
REMARK INTER:                  -4.647
REMARK INTRA:                   0.636
REMARK UNBOUND:                 0.507
REMARK SMILES CC1=CCC(=C(C)C)C(=O)CC(C)=CCC1
REMARK SMILES IDX 12 1 14 2 13 3 15 4 16 5 2 6 1 7 3 8 11 10 9 11 10 12 5 13
REMARK SMILES IDX 6 14 7 15 8 16 4 17
REMARK H PARENT
REMARK Flexibility Score: 60.00
ROOT
ATOM      1  C   UNL     1      14.698  15.259  16.636  1.00  0.00    -0.070 C 
ATOM      2  C   UNL     1      15.526  16.326  16.739  1.00  0.00    -0.027 C 
ATOM      3  C   UNL     1      15.323  13.886  16.686  1.00  0.00     0.039 C 
ENDROOT
BRANCH   2   4
ATOM      4  C   UNL     1      15.111  17.776  16.819  1.00  0.00     0.032 C 
BRANCH   4   5
ATOM      5  C   UNL     1      15.772  18.641  15.730  1.00  0.00     0.034 C 
BRANCH   5   6
ATOM      6  C   UNL     1      15.422  18.169  14.333  1.00  0.00    -0.077 C 
ATOM      7  C   UNL     1      16.544  17.962  13.345  1.00  0.00     0.039 C 
ATOM      8  C   UNL     1      14.158  17.945  13.909  1.00  0.00    -0.023 CG0
ATOM      9  G   UNL     1      12.906  18.130  14.733  1.00  0.00     0.000 G0
ENDBRANCH   5   6
ENDBRANCH   4   5
ENDBRANCH   2   4
BRANCH   1  10
ATOM     10  C   UNL     1      13.185  15.370  16.542  1.00  0.00     0.111 C 
BRANCH  10  11
ATOM     11  C   UNL     1      12.732  15.583  15.119  1.00  0.00     0.163 C 
ATOM     12  O   UNL     1      12.970  14.673  14.278  1.00  0.00    -0.294 OA
BRANCH  11  13
ATOM     13  C   UNL     1      12.065  16.848  14.680  1.00  0.00    -0.002 C 
ATOM     14  C   UNL     1      10.749  16.877  14.313  1.00  0.00    -0.069 C 
ATOM     15  C   UNL     1       9.874  15.646  14.399  1.00  0.00     0.039 C 
ATOM     16  C   UNL     1      10.092  18.154  13.834  1.00  0.00     0.039 C 
BRANCH  13  17
ATOM     17  C   UNL     1      12.894  18.118  14.733  1.00  0.00     0.066 CG0
ATOM     18  G   UNL     1      14.150  17.946  13.911  1.00  0.00     0.000 G0
ENDBRANCH  13  17
ENDBRANCH  11  13
ENDBRANCH  10  11
ENDBRANCH   1  10
TORSDOF 0
ENDMDL
MODEL 6
REMARK VINA RESULT:    -3.200      1.952      3.775
REMARK INTER + INTRA:          -4.003
REMARK INTER:                  -4.530
REMARK INTRA:                   0.528
REMARK UNBOUND:                 0.507
REMARK SMILES CC1=CCC(=C(C)C)C(=O)CC(C)=CCC1
REMARK SMILES IDX 12 1 14 2 13 3 15 4 16 5 2 6 1 7 3 8 11 10 9 11 10 12 5 13
REMARK SMILES IDX 6 14 7 15 8 16 4 17
REMARK H PARENT
REMARK Flexibility Score: 60.00
ROOT
ATOM      1  C   UNL     1      13.974  15.178  16.754  1.00  0.00    -0.070 C 
ATOM      2  C   UNL     1      12.822  14.812  16.144  1.00  0.00    -0.027 C 
ATOM      3  C   UNL     1      14.914  14.077  17.183  1.00  0.00     0.039 C 
ENDROOT
BRANCH   2   4
ATOM      4  C   UNL     1      11.794  15.741  15.543  1.00  0.00     0.032 C 
BRANCH   4   5
ATOM      5  C   UNL     1      12.191  16.233  14.138  1.00  0.00     0.034 C 
BRANCH   5   6
ATOM      6  C   UNL     1      12.226  17.745  14.050  1.00  0.00    -0.077 C 
ATOM      7  C   UNL     1      10.917  18.494  14.076  1.00  0.00     0.039 C 
ATOM      8  C   UNL     1      13.363  18.465  13.922  1.00  0.00    -0.023 CG0
ATOM      9  G   UNL     1      14.761  17.898  13.840  1.00  0.00     0.000 G0
ENDBRANCH   5   6
ENDBRANCH   4   5
ENDBRANCH   2   4
BRANCH   1  10
ATOM     10  C   UNL     1      14.396  16.622  16.966  1.00  0.00     0.111 C 
BRANCH  10  11
ATOM     11  C   UNL     1      15.571  16.990  16.094  1.00  0.00     0.163 C 
ATOM     12  O   UNL     1      16.639  16.332  16.227  1.00  0.00    -0.294 OA
BRANCH  11  13
ATOM     13  C   UNL     1      15.515  18.133  15.130  1.00  0.00    -0.002 C 
ATOM     14  C   UNL     1      16.159  19.314  15.377  1.00  0.00    -0.069 C 
ATOM     15  C   UNL     1      17.023  19.505  16.604  1.00  0.00     0.039 C 
ATOM     16  C   UNL     1      16.066  20.478  14.415  1.00  0.00     0.039 C 
BRANCH  13  17
ATOM     17  C   UNL     1      14.774  17.900  13.827  1.00  0.00     0.066 CG0
ATOM     18  G   UNL     1      13.374  18.456  13.926  1.00  0.00     0.000 G0
ENDBRANCH  13  17
ENDBRANCH  11  13
ENDBRANCH  10  11
ENDBRANCH   1  10
TORSDOF 0
ENDMDL
MODEL 7
REMARK VINA RESULT:    -3.151      9.625     11.848
REMARK INTER + INTRA:          -3.933
REMARK INTER:                  -4.259
REMARK INTRA:                   0.326
REMARK UNBOUND:                 0.507
REMARK SMILES CC1=CCC(=C(C)C)C(=O)CC(C)=CCC1
REMARK SMILES IDX 12 1 14 2 13 3 15 4 16 5 2 6 1 7 3 8 11 10 9 11 10 12 5 13
REMARK SMILES IDX 6 14 7 15 8 16 4 17
REMARK H PARENT
REMARK Flexibility Score: 60.00
ROOT
ATOM      1  C   UNL     1      14.041  26.133  14.342  1.00  0.00    -0.070 C 
ATOM      2  C   UNL     1      15.159  25.382  14.473  1.00  0.00    -0.027 C 
ATOM      3  C   UNL     1      12.878  25.814  15.250  1.00  0.00     0.039 C 
ENDROOT
BRANCH   2   4
ATOM      4  C   UNL     1      16.468  25.592  13.749  1.00  0.00     0.032 C 
BRANCH   4   5
ATOM      5  C   UNL     1      17.328  26.698  14.389  1.00  0.00     0.034 C 
BRANCH   5   6
ATOM      6  C   UNL     1      17.898  27.650  13.357  1.00  0.00    -0.077 C 
ATOM      7  C   UNL     1      18.950  27.131  12.408  1.00  0.00     0.039 C 
ATOM      8  C   UNL     1      17.537  28.949  13.252  1.00  0.00    -0.023 CG0
ATOM      9  G   UNL     1      16.533  29.658  14.129  1.00  0.00     0.000 G0
ENDBRANCH   5   6
ENDBRANCH   4   5
ENDBRANCH   2   4
BRANCH   1  10
ATOM     10  C   UNL     1      13.920  27.309  13.387  1.00  0.00     0.111 C 
BRANCH  10  11
ATOM     11  C   UNL     1      14.201  28.619  14.081  1.00  0.00     0.163 C 
ATOM     12  O   UNL     1      13.573  28.873  15.145  1.00  0.00    -0.294 OA
BRANCH  11  13
ATOM     13  C   UNL     1      15.152  29.627  13.517  1.00  0.00    -0.002 C 
ATOM     14  C   UNL     1      14.770  30.509  12.545  1.00  0.00    -0.069 C 
ATOM     15  C   UNL     1      13.346  30.563  12.037  1.00  0.00     0.039 C 
ATOM     16  C   UNL     1      15.748  31.500  11.952  1.00  0.00     0.039 C 
BRANCH  13  17
ATOM     17  C   UNL     1      16.541  29.680  14.124  1.00  0.00     0.066 CG0
ATOM     18  G   UNL     1      17.515  28.932  13.246  1.00  0.00     0.000 G0
ENDBRANCH  13  17
ENDBRANCH  11  13
ENDBRANCH  10  11
ENDBRANCH   1  10
TORSDOF 0
ENDMDL
MODEL 8
REMARK VINA RESULT:    -3.066     12.350     14.510
REMARK INTER + INTRA:          -3.814
REMARK INTER:                  -4.530
REMARK INTRA:                   0.716
REMARK UNBOUND:                 0.507
REMARK SMILES CC1=CCC(=C(C)C)C(=O)CC(C)=CCC1
REMARK SMILES IDX 12 1 14 2 13 3 15 4 16 5 2 6 1 7 3 8 11 10 9 11 10 12 5 13
REMARK SMILES IDX 6 14 7 15 8 16 4 17
REMARK H PARENT
REMARK Flexibility Score: 60.00
ROOT
ATOM      1  C   UNL     1       6.817  31.256  15.614  1.00  0.00    -0.070 C 
ATOM      2  C   UNL     1       7.924  31.676  14.958  1.00  0.00    -0.027 C 
ATOM      3  C   UNL     1       5.820  32.306  16.041  1.00  0.00     0.039 C 
ENDROOT
BRANCH   2   4
ATOM      4  C   UNL     1       8.991  30.797  14.351  1.00  0.00     0.032 C 
BRANCH   4   5
ATOM      5  C   UNL     1       8.447  29.894  13.228  1.00  0.00     0.034 C 
BRANCH   5   6
ATOM      6  C   UNL     1       8.709  28.426  13.495  1.00  0.00    -0.077 C 
ATOM      7  C   UNL     1      10.120  27.998  13.816  1.00  0.00     0.039 C 
ATOM      8  C   UNL     1       7.756  27.469  13.439  1.00  0.00    -0.023 CG0
ATOM      9  G   UNL     1       6.301  27.693  13.100  1.00  0.00     0.000 G0
ENDBRANCH   5   6
ENDBRANCH   4   5
ENDBRANCH   2   4
BRANCH   1  10
ATOM     10  C   UNL     1       6.496  29.795  15.881  1.00  0.00     0.111 C 
BRANCH  10  11
ATOM     11  C   UNL     1       5.437  29.278  14.939  1.00  0.00     0.163 C 
ATOM     12  O   UNL     1       4.465  30.035  14.666  1.00  0.00    -0.294 OA
BRANCH  11  13
ATOM     13  C   UNL     1       5.484  27.893  14.375  1.00  0.00    -0.002 C 
ATOM     14  C   UNL     1       4.775  26.866  14.932  1.00  0.00    -0.069 C 
ATOM     15  C   UNL     1       3.845  27.087  16.105  1.00  0.00     0.039 C 
ATOM     16  C   UNL     1       4.859  25.460  14.378  1.00  0.00     0.039 C 
BRANCH  13  17
ATOM     17  C   UNL     1       6.296  27.692  13.110  1.00  0.00     0.066 CG0
ATOM     18  G   UNL     1       7.747  27.465  13.461  1.00  0.00     0.000 G0
ENDBRANCH  13  17
ENDBRANCH  11  13
ENDBRANCH  10  11
ENDBRANCH   1  10
TORSDOF 0
ENDMDL
MODEL 9
REMARK VINA RESULT:    -2.998     13.585     15.829
REMARK INTER + INTRA:          -3.719
REMARK INTER:                  -4.484
REMARK INTRA:                   0.765
REMARK UNBOUND:                 0.507
REMARK SMILES CC1=CCC(=C(C)C)C(=O)CC(C)=CCC1
REMARK SMILES IDX 12 1 14 2 13 3 15 4 16 5 2 6 1 7 3 8 11 10 9 11 10 12 5 13
REMARK SMILES IDX 6 14 7 15 8 16 4 17
REMARK H PARENT
REMARK Flexibility Score: 60.00
ROOT
ATOM      1  C   UNL     1       8.510  30.521  13.652  1.00  0.00    -0.070 C 
ATOM      2  C   UNL     1       8.288  31.608  14.427  1.00  0.00    -0.027 C 
ATOM      3  C   UNL     1       9.251  30.731  12.354  1.00  0.00     0.039 C 
ENDROOT
BRANCH   2   4
ATOM      4  C   UNL     1       7.667  31.614  15.804  1.00  0.00     0.032 C 
BRANCH   4   5
ATOM      5  C   UNL     1       6.491  32.603  15.918  1.00  0.00     0.034 C 
BRANCH   5   6
ATOM      6  C   UNL     1       5.317  32.199  15.048  1.00  0.00    -0.077 C 
ATOM      7  C   UNL     1       4.616  33.271  14.251  1.00  0.00     0.039 C 
ATOM      8  C   UNL     1       4.844  30.936  14.963  1.00  0.00    -0.023 CG0
ATOM      9  G   UNL     1       5.386  29.739  15.708  1.00  0.00     0.000 G0
ENDBRANCH   5   6
ENDBRANCH   4   5
ENDBRANCH   2   4
BRANCH   1  10
ATOM     10  C   UNL     1       8.117  29.107  14.047  1.00  0.00     0.111 C 
BRANCH  10  11
ATOM     11  C   UNL     1       6.681  28.810  13.691  1.00  0.00     0.163 C 
ATOM     12  O   UNL     1       6.364  28.794  12.470  1.00  0.00    -0.294 OA
BRANCH  11  13
ATOM     13  C   UNL     1       5.634  28.592  14.736  1.00  0.00    -0.002 C 
ATOM     14  C   UNL     1       4.985  27.395  14.863  1.00  0.00    -0.069 C 
ATOM     15  C   UNL     1       5.340  26.204  14.002  1.00  0.00     0.039 C 
ATOM     16  C   UNL     1       3.899  27.194  15.899  1.00  0.00     0.039 C 
BRANCH  13  17
ATOM     17  C   UNL     1       5.375  29.732  15.702  1.00  0.00     0.066 CG0
ATOM     18  G   UNL     1       4.850  30.933  14.950  1.00  0.00     0.000 G0
ENDBRANCH  13  17
ENDBRANCH  11  13
ENDBRANCH  10  11
ENDBRANCH   1  10
TORSDOF 0
ENDMDL
