MODEL 1
REMARK VINA RESULT:    -4.020      0.000      0.000
REMARK INTER + INTRA:          -6.468
REMARK INTER:                  -5.665
REMARK INTRA:                  -0.802
REMARK UNBOUND:                -0.802
REMARK SMILES CCCCCCCCC(=O)[O-]
REMARK SMILES IDX 6 1 7 2 8 3 9 4 10 5 11 6 5 7 4 8 3 9 2 10 1 11
REMARK H PARENT
REMARK Flexibility Score: inf
ROOT
ATOM      1  C   UNL     1      63.239  29.398  12.729  1.00  0.00     0.000 C 
ENDROOT
BRANCH   1   2
ATOM      2  C   UNL     1      61.909  29.310  13.489  1.00  0.00     0.006 C 
BRANCH   2   3
ATOM      3  C   UNL     1      61.012  28.216  12.903  1.00  0.00     0.053 C 
BRANCH   3   4
ATOM      4  C   UNL     1      59.687  28.783  12.504  1.00  0.00     0.041 C 
ATOM      5  O   UNL     1      58.627  28.146  12.740  1.00  0.00    -0.550 OA
ATOM      6  O   UNL     1      59.624  29.994  11.827  1.00  0.00    -0.550 OA
ENDBRANCH   3   4
ENDBRANCH   2   3
ENDBRANCH   1   2
BRANCH   1   7
ATOM      7  C   UNL     1      63.136  30.381  11.553  1.00  0.00     0.000 C 
BRANCH   7   8
ATOM      8  C   UNL     1      64.027  29.980  10.367  1.00  0.00    -0.000 C 
BRANCH   8   9
ATOM      9  C   UNL     1      63.366  28.934   9.457  1.00  0.00    -0.000 C 
BRANCH   9  10
ATOM     10  C   UNL     1      61.892  29.275   9.209  1.00  0.00    -0.003 C 
ATOM     11  C   UNL     1      61.047  28.010   9.086  1.00  0.00     0.004 C 
ENDBRANCH   9  10
ENDBRANCH   8   9
ENDBRANCH   7   8
ENDBRANCH   1   7
TORSDOF 7
ENDMDL
MODEL 2
REMARK VINA RESULT:    -4.009      2.170      3.884
REMARK INTER + INTRA:          -6.452
REMARK INTER:                  -5.553
REMARK INTRA:                  -0.899
REMARK UNBOUND:                -0.802
REMARK SMILES CCCCCCCCC(=O)[O-]
REMARK SMILES IDX 6 1 7 2 8 3 9 4 10 5 11 6 5 7 4 8 3 9 2 10 1 11
REMARK H PARENT
REMARK Flexibility Score: inf
ROOT
ATOM      1  C   UNL     1      63.065  30.100  13.261  1.00  0.00     0.000 C 
ENDROOT
BRANCH   1   2
ATOM      2  C   UNL     1      62.281  28.959  12.601  1.00  0.00     0.006 C 
BRANCH   2   3
ATOM      3  C   UNL     1      61.018  28.626  13.399  1.00  0.00     0.053 C 
BRANCH   3   4
ATOM      4  C   UNL     1      59.800  28.800  12.550  1.00  0.00     0.041 C 
ATOM      5  O   UNL     1      59.789  29.653  11.624  1.00  0.00    -0.550 OA
ATOM      6  O   UNL     1      58.657  28.055  12.812  1.00  0.00    -0.550 OA
ENDBRANCH   3   4
ENDBRANCH   2   3
ENDBRANCH   1   2
BRANCH   1   7
ATOM      7  C   UNL     1      62.757  31.443  12.582  1.00  0.00     0.000 C 
BRANCH   7   8
ATOM      8  C   UNL     1      62.136  32.466  13.546  1.00  0.00    -0.000 C 
BRANCH   8   9
ATOM      9  C   UNL     1      60.642  32.700  13.279  1.00  0.00    -0.000 C 
BRANCH   9  10
ATOM     10  C   UNL     1      59.780  32.019  14.349  1.00  0.00    -0.003 C 
ATOM     11  C   UNL     1      60.598  31.709  15.600  1.00  0.00     0.004 C 
ENDBRANCH   9  10
ENDBRANCH   8   9
ENDBRANCH   7   8
ENDBRANCH   1   7
TORSDOF 7
ENDMDL
MODEL 3
REMARK VINA RESULT:    -4.002      2.167      3.666
REMARK INTER + INTRA:          -6.442
REMARK INTER:                  -5.704
REMARK INTRA:                  -0.738
REMARK UNBOUND:                -0.802
REMARK SMILES CCCCCCCCC(=O)[O-]
REMARK SMILES IDX 6 1 7 2 8 3 9 4 10 5 11 6 5 7 4 8 3 9 2 10 1 11
REMARK H PARENT
REMARK Flexibility Score: inf
ROOT
ATOM      1  C   UNL     1      61.087  29.000  13.749  1.00  0.00     0.000 C 
ENDROOT
BRANCH   1   2
ATOM      2  C   UNL     1      60.215  28.322  12.684  1.00  0.00     0.006 C 
BRANCH   2   3
ATOM      3  C   UNL     1      59.640  29.351  11.707  1.00  0.00     0.053 C 
BRANCH   3   4
ATOM      4  C   UNL     1      60.304  29.234  10.371  1.00  0.00     0.041 C 
ATOM      5  O   UNL     1      59.985  30.011   9.434  1.00  0.00    -0.550 OA
ATOM      6  O   UNL     1      61.240  28.232  10.146  1.00  0.00    -0.550 OA
ENDBRANCH   3   4
ENDBRANCH   2   3
ENDBRANCH   1   2
BRANCH   1   7
ATOM      7  C   UNL     1      62.573  28.935  13.366  1.00  0.00     0.000 C 
BRANCH   7   8
ATOM      8  C   UNL     1      63.282  30.290  13.512  1.00  0.00    -0.000 C 
BRANCH   8   9
ATOM      9  C   UNL     1      62.651  31.386  12.641  1.00  0.00    -0.000 C 
BRANCH   9  10
ATOM     10  C   UNL     1      62.157  32.554  13.502  1.00  0.00    -0.003 C 
ATOM     11  C   UNL     1      60.645  32.724  13.385  1.00  0.00     0.004 C 
ENDBRANCH   9  10
ENDBRANCH   8   9
ENDBRANCH   7   8
ENDBRANCH   1   7
TORSDOF 7
ENDMDL
MODEL 4
REMARK VINA RESULT:    -3.997      2.758      4.611
REMARK INTER + INTRA:          -6.435
REMARK INTER:                  -5.689
REMARK INTRA:                  -0.746
REMARK UNBOUND:                -0.802
REMARK SMILES CCCCCCCCC(=O)[O-]
REMARK SMILES IDX 6 1 7 2 8 3 9 4 10 5 11 6 5 7 4 8 3 9 2 10 1 11
REMARK H PARENT
REMARK Flexibility Score: inf
ROOT
ATOM      1  C   UNL     1      61.053  29.350  13.765  1.00  0.00     0.000 C 
ENDROOT
BRANCH   1   2
ATOM      2  C   UNL     1      62.176  28.890  12.826  1.00  0.00     0.006 C 
BRANCH   2   3
ATOM      3  C   UNL     1      62.200  29.730  11.545  1.00  0.00     0.053 C 
BRANCH   3   4
ATOM      4  C   UNL     1      62.351  28.850  10.345  1.00  0.00     0.041 C 
ATOM      5  O   UNL     1      63.431  28.837   9.700  1.00  0.00    -0.550 OA
ATOM      6  O   UNL     1      61.279  28.081   9.909  1.00  0.00    -0.550 OA
ENDBRANCH   3   4
ENDBRANCH   2   3
ENDBRANCH   1   2
BRANCH   1   7
ATOM      7  C   UNL     1      60.089  30.304  13.043  1.00  0.00     0.000 C 
BRANCH   7   8
ATOM      8  C   UNL     1      59.819  31.589  13.841  1.00  0.00    -0.000 C 
BRANCH   8   9
ATOM      9  C   UNL     1      60.712  32.759  13.400  1.00  0.00    -0.000 C 
BRANCH   9  10
ATOM     10  C   UNL     1      61.938  32.887  14.310  1.00  0.00    -0.003 C 
ATOM     11  C   UNL     1      63.233  32.760  13.512  1.00  0.00     0.004 C 
ENDBRANCH   9  10
ENDBRANCH   8   9
ENDBRANCH   7   8
ENDBRANCH   1   7
TORSDOF 7
ENDMDL
MODEL 5
REMARK VINA RESULT:    -3.996      2.392      4.111
REMARK INTER + INTRA:          -6.433
REMARK INTER:                  -5.689
REMARK INTRA:                  -0.745
REMARK UNBOUND:                -0.802
REMARK SMILES CCCCCCCCC(=O)[O-]
REMARK SMILES IDX 6 1 7 2 8 3 9 4 10 5 11 6 5 7 4 8 3 9 2 10 1 11
REMARK H PARENT
REMARK Flexibility Score: inf
ROOT
ATOM      1  C   UNL     1      60.432  28.289  12.804  1.00  0.00     0.000 C 
ENDROOT
BRANCH   1   2
ATOM      2  C   UNL     1      59.668  29.334  11.981  1.00  0.00     0.006 C 
BRANCH   2   3
ATOM      3  C   UNL     1      60.433  29.695  10.704  1.00  0.00     0.053 C 
BRANCH   3   4
ATOM      4  C   UNL     1      60.223  28.650   9.654  1.00  0.00     0.041 C 
ATOM      5  O   UNL     1      59.105  28.534   9.089  1.00  0.00    -0.550 OA
ATOM      6  O   UNL     1      61.250  27.771   9.334  1.00  0.00    -0.550 OA
ENDBRANCH   3   4
ENDBRANCH   2   3
ENDBRANCH   1   2
BRANCH   1   7
ATOM      7  C   UNL     1      61.753  28.866  13.334  1.00  0.00     0.000 C 
BRANCH   7   8
ATOM      8  C   UNL     1      61.541  30.043  14.298  1.00  0.00    -0.000 C 
BRANCH   8   9
ATOM      9  C   UNL     1      62.578  31.160  14.105  1.00  0.00    -0.000 C 
BRANCH   9  10
ATOM     10  C   UNL     1      61.951  32.377  13.415  1.00  0.00    -0.003 C 
ATOM     11  C   UNL     1      60.476  32.519  13.779  1.00  0.00     0.004 C 
ENDBRANCH   9  10
ENDBRANCH   8   9
ENDBRANCH   7   8
ENDBRANCH   1   7
TORSDOF 7
ENDMDL
MODEL 6
REMARK VINA RESULT:    -3.985      2.401      4.170
REMARK INTER + INTRA:          -6.417
REMARK INTER:                  -5.769
REMARK INTRA:                  -0.648
REMARK UNBOUND:                -0.802
REMARK SMILES CCCCCCCCC(=O)[O-]
REMARK SMILES IDX 6 1 7 2 8 3 9 4 10 5 11 6 5 7 4 8 3 9 2 10 1 11
REMARK H PARENT
REMARK Flexibility Score: inf
ROOT
ATOM      1  C   UNL     1      62.307  28.761  12.959  1.00  0.00     0.000 C 
ENDROOT
BRANCH   1   2
ATOM      2  C   UNL     1      62.081  28.968  11.456  1.00  0.00     0.006 C 
BRANCH   2   3
ATOM      3  C   UNL     1      60.589  29.096  11.136  1.00  0.00     0.053 C 
BRANCH   3   4
ATOM      4  C   UNL     1      60.340  28.834   9.684  1.00  0.00     0.041 C 
ATOM      5  O   UNL     1      59.502  29.526   9.050  1.00  0.00    -0.550 OA
ATOM      6  O   UNL     1      60.999  27.793   9.043  1.00  0.00    -0.550 OA
ENDBRANCH   3   4
ENDBRANCH   2   3
ENDBRANCH   1   2
BRANCH   1   7
ATOM      7  C   UNL     1      61.032  29.077  13.755  1.00  0.00     0.000 C 
BRANCH   7   8
ATOM      8  C   UNL     1      61.102  30.434  14.472  1.00  0.00    -0.000 C 
BRANCH   8   9
ATOM      9  C   UNL     1      60.039  31.424  13.973  1.00  0.00    -0.000 C 
BRANCH   9  10
ATOM     10  C   UNL     1      60.690  32.624  13.278  1.00  0.00    -0.003 C 
ATOM     11  C   UNL     1      62.211  32.498  13.269  1.00  0.00     0.004 C 
ENDBRANCH   9  10
ENDBRANCH   8   9
ENDBRANCH   7   8
ENDBRANCH   1   7
TORSDOF 7
ENDMDL
MODEL 7
REMARK VINA RESULT:    -3.977     12.758     13.956
REMARK INTER + INTRA:          -6.406
REMARK INTER:                  -5.677
REMARK INTRA:                  -0.729
REMARK UNBOUND:                -0.802
REMARK SMILES CCCCCCCCC(=O)[O-]
REMARK SMILES IDX 6 1 7 2 8 3 9 4 10 5 11 6 5 7 4 8 3 9 2 10 1 11
REMARK H PARENT
REMARK Flexibility Score: inf
ROOT
ATOM      1  C   UNL     1      63.543  29.622  24.944  1.00  0.00     0.000 C 
ENDROOT
BRANCH   1   2
ATOM      2  C   UNL     1      62.087  29.448  25.393  1.00  0.00     0.006 C 
BRANCH   2   3
ATOM      3  C   UNL     1      61.420  28.282  24.657  1.00  0.00     0.053 C 
BRANCH   3   4
ATOM      4  C   UNL     1      60.765  27.354  25.629  1.00  0.00     0.041 C 
ATOM      5  O   UNL     1      61.323  27.086  26.725  1.00  0.00    -0.550 OA
ATOM      6  O   UNL     1      59.559  26.745  25.305  1.00  0.00    -0.550 OA
ENDBRANCH   3   4
ENDBRANCH   2   3
ENDBRANCH   1   2
BRANCH   1   7
ATOM      7  C   UNL     1      64.502  28.877  25.885  1.00  0.00     0.000 C 
BRANCH   7   8
ATOM      8  C   UNL     1      65.254  27.736  25.183  1.00  0.00    -0.000 C 
BRANCH   8   9
ATOM      9  C   UNL     1      64.525  26.389  25.294  1.00  0.00    -0.000 C 
BRANCH   9  10
ATOM     10  C   UNL     1      64.293  25.774  23.909  1.00  0.00    -0.003 C 
ATOM     11  C   UNL     1      65.355  26.237  22.916  1.00  0.00     0.004 C 
ENDBRANCH   9  10
ENDBRANCH   8   9
ENDBRANCH   7   8
ENDBRANCH   1   7
TORSDOF 7
ENDMDL
MODEL 8
REMARK VINA RESULT:    -3.974     13.439     14.699
REMARK INTER + INTRA:          -6.402
REMARK INTER:                  -5.721
REMARK INTRA:                  -0.682
REMARK UNBOUND:                -0.802
REMARK SMILES CCCCCCCCC(=O)[O-]
REMARK SMILES IDX 6 1 7 2 8 3 9 4 10 5 11 6 5 7 4 8 3 9 2 10 1 11
REMARK H PARENT
REMARK Flexibility Score: inf
ROOT
ATOM      1  C   UNL     1      61.859  28.889  24.998  1.00  0.00     0.000 C 
ENDROOT
BRANCH   1   2
ATOM      2  C   UNL     1      60.825  27.932  25.604  1.00  0.00     0.006 C 
BRANCH   2   3
ATOM      3  C   UNL     1      61.392  27.217  26.834  1.00  0.00     0.053 C 
BRANCH   3   4
ATOM      4  C   UNL     1      61.688  28.200  27.922  1.00  0.00     0.041 C 
ATOM      5  O   UNL     1      62.876  28.416  28.277  1.00  0.00    -0.550 OA
ATOM      6  O   UNL     1      60.647  28.844  28.579  1.00  0.00    -0.550 OA
ENDBRANCH   3   4
ENDBRANCH   2   3
ENDBRANCH   1   2
BRANCH   1   7
ATOM      7  C   UNL     1      62.476  28.297  23.722  1.00  0.00     0.000 C 
BRANCH   7   8
ATOM      8  C   UNL     1      64.011  28.351  23.725  1.00  0.00    -0.000 C 
BRANCH   8   9
ATOM      9  C   UNL     1      64.615  27.957  25.081  1.00  0.00    -0.000 C 
BRANCH   9  10
ATOM     10  C   UNL     1      64.739  26.434  25.204  1.00  0.00    -0.003 C 
ATOM     11  C   UNL     1      65.221  25.812  23.896  1.00  0.00     0.004 C 
ENDBRANCH   9  10
ENDBRANCH   8   9
ENDBRANCH   7   8
ENDBRANCH   1   7
TORSDOF 7
ENDMDL
MODEL 9
REMARK VINA RESULT:    -3.906     13.889     15.364
REMARK INTER + INTRA:          -6.307
REMARK INTER:                  -5.600
REMARK INTRA:                  -0.706
REMARK UNBOUND:                -0.802
REMARK SMILES CCCCCCCCC(=O)[O-]
REMARK SMILES IDX 6 1 7 2 8 3 9 4 10 5 11 6 5 7 4 8 3 9 2 10 1 11
REMARK H PARENT
REMARK Flexibility Score: inf
ROOT
ATOM      1  C   UNL     1      63.054  29.956  25.885  1.00  0.00     0.000 C 
ENDROOT
BRANCH   1   2
ATOM      2  C   UNL     1      62.615  30.135  27.344  1.00  0.00     0.006 C 
BRANCH   2   3
ATOM      3  C   UNL     1      62.960  28.898  28.178  1.00  0.00     0.053 C 
BRANCH   3   4
ATOM      4  C   UNL     1      61.714  28.199  28.621  1.00  0.00     0.041 C 
ATOM      5  O   UNL     1      60.656  28.852  28.814  1.00  0.00    -0.550 OA
ATOM      6  O   UNL     1      61.734  26.832  28.868  1.00  0.00    -0.550 OA
ENDBRANCH   3   4
ENDBRANCH   2   3
ENDBRANCH   1   2
BRANCH   1   7
ATOM      7  C   UNL     1      61.883  29.483  25.012  1.00  0.00     0.000 C 
BRANCH   7   8
ATOM      8  C   UNL     1      62.207  28.201  24.229  1.00  0.00    -0.000 C 
BRANCH   8   9
ATOM      9  C   UNL     1      62.259  26.956  25.127  1.00  0.00    -0.000 C 
BRANCH   9  10
ATOM     10  C   UNL     1      63.437  26.052  24.745  1.00  0.00    -0.003 C 
ATOM     11  C   UNL     1      64.768  26.685  25.141  1.00  0.00     0.004 C 
ENDBRANCH   9  10
ENDBRANCH   8   9
ENDBRANCH   7   8
ENDBRANCH   1   7
TORSDOF 7
ENDMDL
