MODEL 1
REMARK VINA RESULT:    -5.405      0.000      0.000
REMARK INTER + INTRA:          -6.461
REMARK INTER:                  -6.194
REMARK INTRA:                  -0.267
REMARK UNBOUND:                -0.267
REMARK SMILES COC(=O)c1ccccc1O
REMARK SMILES IDX 5 1 6 2 7 3 8 4 9 5 10 6 3 7 4 8 2 9 1 10 11 11
REMARK H PARENT 11 12
REMARK Flexibility Score: inf
ROOT
ATOM      1  C   UNL     1      50.661  51.409  22.158  1.00  0.00     0.101 A 
ATOM      2  C   UNL     1      51.816  51.307  21.360  1.00  0.00     0.019 A 
ATOM      3  C   UNL     1      52.514  52.451  20.966  1.00  0.00     0.001 A 
ATOM      4  C   UNL     1      52.068  53.712  21.361  1.00  0.00     0.004 A 
ATOM      5  C   UNL     1      50.937  53.831  22.170  1.00  0.00     0.047 A 
ATOM      6  C   UNL     1      50.238  52.692  22.591  1.00  0.00     0.130 A 
ENDROOT
BRANCH   1   7
ATOM      7  C   UNL     1      49.910  50.178  22.480  1.00  0.00     0.341 C 
ATOM      8  O   UNL     1      48.677  50.249  22.741  1.00  0.00    -0.246 OA
BRANCH   7   9
ATOM      9  O   UNL     1      50.571  48.949  22.556  1.00  0.00    -0.465 OA
ATOM     10  C   UNL     1      50.460  48.084  23.680  1.00  0.00     0.282 C 
ENDBRANCH   7   9
ENDBRANCH   1   7
BRANCH   6  11
ATOM     11  O   UNL     1      49.161  52.874  23.462  1.00  0.00    -0.507 OA
ATOM     12  H   UNL     1      48.352  52.268  23.479  1.00  0.00     0.293 HD
ENDBRANCH   6  11
TORSDOF 3
ENDMDL
MODEL 2
REMARK VINA RESULT:    -5.283      2.385      4.357
REMARK INTER + INTRA:          -6.322
REMARK INTER:                  -6.050
REMARK INTRA:                  -0.272
REMARK UNBOUND:                -0.267
REMARK SMILES COC(=O)c1ccccc1O
REMARK SMILES IDX 5 1 6 2 7 3 8 4 9 5 10 6 3 7 4 8 2 9 1 10 11 11
REMARK H PARENT 11 12
REMARK Flexibility Score: inf
ROOT
ATOM      1  C   UNL     1      52.042  53.043  22.052  1.00  0.00     0.101 A 
ATOM      2  C   UNL     1      52.622  52.055  21.235  1.00  0.00     0.019 A 
ATOM      3  C   UNL     1      51.872  50.962  20.796  1.00  0.00     0.001 A 
ATOM      4  C   UNL     1      50.534  50.838  21.168  1.00  0.00     0.004 A 
ATOM      5  C   UNL     1      49.936  51.819  21.961  1.00  0.00     0.047 A 
ATOM      6  C   UNL     1      50.669  52.933  22.391  1.00  0.00     0.130 A 
ENDROOT
BRANCH   1   7
ATOM      7  C   UNL     1      52.896  54.137  22.559  1.00  0.00     0.341 C 
ATOM      8  O   UNL     1      53.787  53.887  23.418  1.00  0.00    -0.246 OA
BRANCH   7   9
ATOM      9  O   UNL     1      52.681  55.453  22.137  1.00  0.00    -0.465 OA
ATOM     10  C   UNL     1      52.340  55.783  20.797  1.00  0.00     0.282 C 
ENDBRANCH   7   9
ENDBRANCH   1   7
BRANCH   6  11
ATOM     11  O   UNL     1      49.992  53.917  23.116  1.00  0.00    -0.507 OA
ATOM     12  H   UNL     1      49.953  53.935  24.125  1.00  0.00     0.293 HD
ENDBRANCH   6  11
TORSDOF 3
ENDMDL
MODEL 3
REMARK VINA RESULT:    -5.188      1.191      1.771
REMARK INTER + INTRA:          -6.212
REMARK INTER:                  -5.890
REMARK INTRA:                  -0.322
REMARK UNBOUND:                -0.267
REMARK SMILES COC(=O)c1ccccc1O
REMARK SMILES IDX 5 1 6 2 7 3 8 4 9 5 10 6 3 7 4 8 2 9 1 10 11 11
REMARK H PARENT 11 12
REMARK Flexibility Score: inf
ROOT
ATOM      1  C   UNL     1      50.484  51.564  22.225  1.00  0.00     0.101 A 
ATOM      2  C   UNL     1      51.533  51.158  21.379  1.00  0.00     0.019 A 
ATOM      3  C   UNL     1      52.619  52.002  21.136  1.00  0.00     0.001 A 
ATOM      4  C   UNL     1      52.672  53.262  21.730  1.00  0.00     0.004 A 
ATOM      5  C   UNL     1      51.650  53.673  22.588  1.00  0.00     0.047 A 
ATOM      6  C   UNL     1      50.564  52.829  22.860  1.00  0.00     0.130 A 
ENDROOT
BRANCH   1   7
ATOM      7  C   UNL     1      49.316  50.671  22.387  1.00  0.00     0.341 C 
ATOM      8  O   UNL     1      49.476  49.419  22.338  1.00  0.00    -0.246 OA
BRANCH   7   9
ATOM      9  O   UNL     1      48.034  51.207  22.534  1.00  0.00    -0.465 OA
ATOM     10  C   UNL     1      47.142  50.797  23.562  1.00  0.00     0.282 C 
ENDBRANCH   7   9
ENDBRANCH   1   7
BRANCH   6  11
ATOM     11  O   UNL     1      49.616  53.267  23.787  1.00  0.00    -0.507 OA
ATOM     12  H   UNL     1      48.621  53.135  23.668  1.00  0.00     0.293 HD
ENDBRANCH   6  11
TORSDOF 3
ENDMDL
MODEL 4
REMARK VINA RESULT:    -5.174      1.912      2.830
REMARK INTER + INTRA:          -6.197
REMARK INTER:                  -5.938
REMARK INTRA:                  -0.259
REMARK UNBOUND:                -0.267
REMARK SMILES COC(=O)c1ccccc1O
REMARK SMILES IDX 5 1 6 2 7 3 8 4 9 5 10 6 3 7 4 8 2 9 1 10 11 11
REMARK H PARENT 11 12
REMARK Flexibility Score: inf
ROOT
ATOM      1  C   UNL     1      50.530  52.234  22.905  1.00  0.00     0.101 A 
ATOM      2  C   UNL     1      50.617  51.311  21.846  1.00  0.00     0.019 A 
ATOM      3  C   UNL     1      51.755  51.259  21.038  1.00  0.00     0.001 A 
ATOM      4  C   UNL     1      52.819  52.128  21.273  1.00  0.00     0.004 A 
ATOM      5  C   UNL     1      52.759  53.036  22.332  1.00  0.00     0.047 A 
ATOM      6  C   UNL     1      51.633  53.086  23.165  1.00  0.00     0.130 A 
ENDROOT
BRANCH   1   7
ATOM      7  C   UNL     1      49.273  52.309  23.681  1.00  0.00     0.341 C 
ATOM      8  O   UNL     1      48.207  51.848  23.187  1.00  0.00    -0.246 OA
BRANCH   7   9
ATOM      9  O   UNL     1      49.252  52.939  24.928  1.00  0.00    -0.465 OA
ATOM     10  C   UNL     1      48.130  52.880  25.800  1.00  0.00     0.282 C 
ENDBRANCH   7   9
ENDBRANCH   1   7
BRANCH   6  11
ATOM     11  O   UNL     1      51.668  53.961  24.253  1.00  0.00    -0.507 OA
ATOM     12  H   UNL     1      50.848  54.426  24.618  1.00  0.00     0.293 HD
ENDBRANCH   6  11
TORSDOF 3
ENDMDL
MODEL 5
REMARK VINA RESULT:    -5.161      1.874      2.963
REMARK INTER + INTRA:          -6.182
REMARK INTER:                  -5.921
REMARK INTRA:                  -0.261
REMARK UNBOUND:                -0.267
REMARK SMILES COC(=O)c1ccccc1O
REMARK SMILES IDX 5 1 6 2 7 3 8 4 9 5 10 6 3 7 4 8 2 9 1 10 11 11
REMARK H PARENT 11 12
REMARK Flexibility Score: inf
ROOT
ATOM      1  C   UNL     1      50.745  52.589  22.996  1.00  0.00     0.101 A 
ATOM      2  C   UNL     1      52.017  53.168  23.163  1.00  0.00     0.019 A 
ATOM      3  C   UNL     1      53.033  52.934  22.235  1.00  0.00     0.001 A 
ATOM      4  C   UNL     1      52.796  52.119  21.129  1.00  0.00     0.004 A 
ATOM      5  C   UNL     1      51.535  51.553  20.937  1.00  0.00     0.047 A 
ATOM      6  C   UNL     1      50.498  51.795  21.848  1.00  0.00     0.130 A 
ENDROOT
BRANCH   1   7
ATOM      7  C   UNL     1      49.726  52.798  24.047  1.00  0.00     0.341 C 
ATOM      8  O   UNL     1      49.937  53.641  24.963  1.00  0.00    -0.246 OA
BRANCH   7   9
ATOM      9  O   UNL     1      48.562  52.024  24.063  1.00  0.00    -0.465 OA
ATOM     10  C   UNL     1      47.718  51.930  25.203  1.00  0.00     0.282 C 
ENDBRANCH   7   9
ENDBRANCH   1   7
BRANCH   6  11
ATOM     11  O   UNL     1      49.239  51.265  21.557  1.00  0.00    -0.507 OA
ATOM     12  H   UNL     1      48.731  50.661  22.189  1.00  0.00     0.293 HD
ENDBRANCH   6  11
TORSDOF 3
ENDMDL
MODEL 6
REMARK VINA RESULT:    -5.152      2.206      3.893
REMARK INTER + INTRA:          -6.172
REMARK INTER:                  -5.934
REMARK INTRA:                  -0.237
REMARK UNBOUND:                -0.267
REMARK SMILES COC(=O)c1ccccc1O
REMARK SMILES IDX 5 1 6 2 7 3 8 4 9 5 10 6 3 7 4 8 2 9 1 10 11 11
REMARK H PARENT 11 12
REMARK Flexibility Score: inf
ROOT
ATOM      1  C   UNL     1      51.346  52.858  22.105  1.00  0.00     0.101 A 
ATOM      2  C   UNL     1      51.596  51.866  21.137  1.00  0.00     0.019 A 
ATOM      3  C   UNL     1      50.893  50.660  21.156  1.00  0.00     0.001 A 
ATOM      4  C   UNL     1      49.934  50.425  22.140  1.00  0.00     0.004 A 
ATOM      5  C   UNL     1      49.658  51.405  23.096  1.00  0.00     0.047 A 
ATOM      6  C   UNL     1      50.340  52.629  23.077  1.00  0.00     0.130 A 
ENDROOT
BRANCH   1   7
ATOM      7  C   UNL     1      52.172  54.084  22.094  1.00  0.00     0.341 C 
ATOM      8  O   UNL     1      52.113  54.868  21.107  1.00  0.00    -0.246 OA
BRANCH   7   9
ATOM      9  O   UNL     1      53.059  54.344  23.143  1.00  0.00    -0.465 OA
ATOM     10  C   UNL     1      53.928  53.354  23.679  1.00  0.00     0.282 C 
ENDBRANCH   7   9
ENDBRANCH   1   7
BRANCH   6  11
ATOM     11  O   UNL     1      49.963  53.598  24.011  1.00  0.00    -0.507 OA
ATOM     12  H   UNL     1      49.459  54.439  23.766  1.00  0.00     0.293 HD
ENDBRANCH   6  11
TORSDOF 3
ENDMDL
MODEL 7
REMARK VINA RESULT:    -5.089      1.871      3.993
REMARK INTER + INTRA:          -6.099
REMARK INTER:                  -5.810
REMARK INTRA:                  -0.290
REMARK UNBOUND:                -0.267
REMARK SMILES COC(=O)c1ccccc1O
REMARK SMILES IDX 5 1 6 2 7 3 8 4 9 5 10 6 3 7 4 8 2 9 1 10 11 11
REMARK H PARENT 11 12
REMARK Flexibility Score: inf
ROOT
ATOM      1  C   UNL     1      50.477  51.386  22.027  1.00  0.00     0.101 A 
ATOM      2  C   UNL     1      50.784  50.037  22.285  1.00  0.00     0.019 A 
ATOM      3  C   UNL     1      49.835  49.188  22.860  1.00  0.00     0.001 A 
ATOM      4  C   UNL     1      48.569  49.673  23.186  1.00  0.00     0.004 A 
ATOM      5  C   UNL     1      48.241  51.003  22.918  1.00  0.00     0.047 A 
ATOM      6  C   UNL     1      49.174  51.862  22.322  1.00  0.00     0.130 A 
ENDROOT
BRANCH   1   7
ATOM      7  C   UNL     1      51.538  52.267  21.494  1.00  0.00     0.341 C 
ATOM      8  O   UNL     1      52.554  51.757  20.944  1.00  0.00    -0.246 OA
BRANCH   7   9
ATOM      9  O   UNL     1      51.449  53.653  21.652  1.00  0.00    -0.465 OA
ATOM     10  C   UNL     1      52.473  54.424  22.267  1.00  0.00     0.282 C 
ENDBRANCH   7   9
ENDBRANCH   1   7
BRANCH   6  11
ATOM     11  O   UNL     1      48.758  53.158  22.008  1.00  0.00    -0.507 OA
ATOM     12  H   UNL     1      49.059  53.977  22.518  1.00  0.00     0.293 HD
ENDBRANCH   6  11
TORSDOF 3
ENDMDL
MODEL 8
REMARK VINA RESULT:    -5.063      1.673      3.018
REMARK INTER + INTRA:          -6.069
REMARK INTER:                  -5.786
REMARK INTRA:                  -0.283
REMARK UNBOUND:                -0.267
REMARK SMILES COC(=O)c1ccccc1O
REMARK SMILES IDX 5 1 6 2 7 3 8 4 9 5 10 6 3 7 4 8 2 9 1 10 11 11
REMARK H PARENT 11 12
REMARK Flexibility Score: inf
ROOT
ATOM      1  C   UNL     1      49.723  51.910  22.561  1.00  0.00     0.101 A 
ATOM      2  C   UNL     1      50.373  53.158  22.526  1.00  0.00     0.019 A 
ATOM      3  C   UNL     1      51.555  53.325  21.802  1.00  0.00     0.001 A 
ATOM      4  C   UNL     1      52.106  52.251  21.105  1.00  0.00     0.004 A 
ATOM      5  C   UNL     1      51.464  51.011  21.112  1.00  0.00     0.047 A 
ATOM      6  C   UNL     1      50.266  50.833  21.816  1.00  0.00     0.130 A 
ENDROOT
BRANCH   1   7
ATOM      7  C   UNL     1      48.520  51.759  23.408  1.00  0.00     0.341 C 
ATOM      8  O   UNL     1      47.487  51.213  22.932  1.00  0.00    -0.246 OA
BRANCH   7   9
ATOM      9  O   UNL     1      48.506  52.272  24.708  1.00  0.00    -0.465 OA
ATOM     10  C   UNL     1      47.304  52.478  25.439  1.00  0.00     0.282 C 
ENDBRANCH   7   9
ENDBRANCH   1   7
BRANCH   6  11
ATOM     11  O   UNL     1      49.633  49.591  21.719  1.00  0.00    -0.507 OA
ATOM     12  H   UNL     1      49.914  48.875  21.064  1.00  0.00     0.293 HD
ENDBRANCH   6  11
TORSDOF 3
ENDMDL
MODEL 9
REMARK VINA RESULT:    -4.979      2.128      2.752
REMARK INTER + INTRA:          -5.974
REMARK INTER:                  -5.681
REMARK INTRA:                  -0.293
REMARK UNBOUND:                -0.267
REMARK SMILES COC(=O)c1ccccc1O
REMARK SMILES IDX 5 1 6 2 7 3 8 4 9 5 10 6 3 7 4 8 2 9 1 10 11 11
REMARK H PARENT 11 12
REMARK Flexibility Score: inf
ROOT
ATOM      1  C   UNL     1      51.314  52.238  22.640  1.00  0.00     0.101 A 
ATOM      2  C   UNL     1      50.638  52.959  23.643  1.00  0.00     0.019 A 
ATOM      3  C   UNL     1      51.290  53.965  24.359  1.00  0.00     0.001 A 
ATOM      4  C   UNL     1      52.624  54.266  24.085  1.00  0.00     0.004 A 
ATOM      5  C   UNL     1      53.303  53.576  23.079  1.00  0.00     0.047 A 
ATOM      6  C   UNL     1      52.657  52.578  22.338  1.00  0.00     0.130 A 
ENDROOT
BRANCH   1   7
ATOM      7  C   UNL     1      50.609  51.127  21.967  1.00  0.00     0.341 C 
ATOM      8  O   UNL     1      50.654  51.029  20.710  1.00  0.00    -0.246 OA
BRANCH   7   9
ATOM      9  O   UNL     1      49.846  50.223  22.713  1.00  0.00    -0.465 OA
ATOM     10  C   UNL     1      50.253  48.880  22.941  1.00  0.00     0.282 C 
ENDBRANCH   7   9
ENDBRANCH   1   7
BRANCH   6  11
ATOM     11  O   UNL     1      53.367  51.980  21.294  1.00  0.00    -0.507 OA
ATOM     12  H   UNL     1      53.054  51.148  20.815  1.00  0.00     0.293 HD
ENDBRANCH   6  11
TORSDOF 3
ENDMDL
