MODEL 1
REMARK VINA RESULT:    -5.661      0.000      0.000
REMARK INTER + INTRA:          -6.239
REMARK INTER:                  -6.157
REMARK INTRA:                  -0.082
REMARK UNBOUND:                -0.082
REMARK SMILES O=C([O-])c1ccccc1O
REMARK SMILES IDX 4 1 9 2 5 3 8 4 6 5 7 6 2 7 1 8 3 9 10 10
REMARK H PARENT 10 11
REMARK Flexibility Score: inf
ROOT
ATOM      1  C   UNL     1     -30.806  -2.474 -19.924  1.00  0.00     0.039 A 
ATOM      2  C   UNL     1     -32.221  -2.485 -19.975  1.00  0.00     0.124 A 
ATOM      3  C   UNL     1     -30.166  -2.934 -18.755  1.00  0.00     0.014 A 
ATOM      4  C   UNL     1     -32.957  -2.951 -18.874  1.00  0.00     0.047 A 
ATOM      5  C   UNL     1     -30.912  -3.394 -17.668  1.00  0.00     0.001 A 
ATOM      6  C   UNL     1     -32.305  -3.402 -17.727  1.00  0.00     0.004 A 
ENDROOT
BRANCH   1   7
ATOM      7  C   UNL     1     -29.987  -1.990 -21.066  1.00  0.00     0.075 C 
ATOM      8  O   UNL     1     -30.544  -1.516 -22.091  1.00  0.00    -0.545 OA
ATOM      9  O   UNL     1     -28.599  -2.051 -21.030  1.00  0.00    -0.545 OA
ENDBRANCH   1   7
BRANCH   2  10
ATOM     10  O   UNL     1     -32.898  -2.040 -21.110  1.00  0.00    -0.507 OA
ATOM     11  H   UNL     1     -33.493  -1.220 -21.087  1.00  0.00     0.293 HD
ENDBRANCH   2  10
TORSDOF 2
ENDMDL
MODEL 2
REMARK VINA RESULT:    -5.398      1.751      3.708
REMARK INTER + INTRA:          -5.953
REMARK INTER:                  -5.736
REMARK INTRA:                  -0.217
REMARK UNBOUND:                -0.082
REMARK SMILES O=C([O-])c1ccccc1O
REMARK SMILES IDX 4 1 9 2 5 3 8 4 6 5 7 6 2 7 1 8 3 9 10 10
REMARK H PARENT 10 11
REMARK Flexibility Score: inf
ROOT
ATOM      1  C   UNL     1     -32.892  -3.093 -18.716  1.00  0.00     0.039 A 
ATOM      2  C   UNL     1     -32.283  -2.476 -19.834  1.00  0.00     0.124 A 
ATOM      3  C   UNL     1     -32.072  -3.570 -17.674  1.00  0.00     0.014 A 
ATOM      4  C   UNL     1     -30.887  -2.348 -19.888  1.00  0.00     0.047 A 
ATOM      5  C   UNL     1     -30.683  -3.436 -17.742  1.00  0.00     0.001 A 
ATOM      6  C   UNL     1     -30.091  -2.826 -18.847  1.00  0.00     0.004 A 
ENDROOT
BRANCH   1   7
ATOM      7  C   UNL     1     -34.367  -3.249 -18.616  1.00  0.00     0.075 C 
ATOM      8  O   UNL     1     -34.981  -4.008 -19.413  1.00  0.00    -0.545 OA
ATOM      9  O   UNL     1     -35.098  -2.566 -17.651  1.00  0.00    -0.545 OA
ENDBRANCH   1   7
BRANCH   2  10
ATOM     10  O   UNL     1     -33.054  -1.988 -20.889  1.00  0.00    -0.507 OA
ATOM     11  H   UNL     1     -32.901  -1.065 -21.279  1.00  0.00     0.293 HD
ENDBRANCH   2  10
TORSDOF 2
ENDMDL
MODEL 3
REMARK VINA RESULT:    -5.372     10.407     11.651
REMARK INTER + INTRA:          -5.925
REMARK INTER:                  -5.700
REMARK INTRA:                  -0.225
REMARK UNBOUND:                -0.082
REMARK SMILES O=C([O-])c1ccccc1O
REMARK SMILES IDX 4 1 9 2 5 3 8 4 6 5 7 6 2 7 1 8 3 9 10 10
REMARK H PARENT 10 11
REMARK Flexibility Score: inf
ROOT
ATOM      1  C   UNL     1     -38.523  -7.836 -13.468  1.00  0.00     0.039 A 
ATOM      2  C   UNL     1     -39.603  -8.744 -13.352  1.00  0.00     0.124 A 
ATOM      3  C   UNL     1     -38.788  -6.454 -13.393  1.00  0.00     0.014 A 
ATOM      4  C   UNL     1     -40.907  -8.259 -13.163  1.00  0.00     0.047 A 
ATOM      5  C   UNL     1     -40.090  -5.987 -13.205  1.00  0.00     0.001 A 
ATOM      6  C   UNL     1     -41.148  -6.888 -13.091  1.00  0.00     0.004 A 
ENDROOT
BRANCH   1   7
ATOM      7  C   UNL     1     -37.127  -8.305 -13.667  1.00  0.00     0.075 C 
ATOM      8  O   UNL     1     -36.238  -8.032 -12.818  1.00  0.00    -0.545 OA
ATOM      9  O   UNL     1     -36.773  -9.050 -14.787  1.00  0.00    -0.545 OA
ENDBRANCH   1   7
BRANCH   2  10
ATOM     10  O   UNL     1     -39.390 -10.121 -13.420  1.00  0.00    -0.507 OA
ATOM     11  H   UNL     1     -39.886 -10.767 -12.817  1.00  0.00     0.293 HD
ENDBRANCH   2  10
TORSDOF 2
ENDMDL
MODEL 4
REMARK VINA RESULT:    -5.274      1.725      3.379
REMARK INTER + INTRA:          -5.818
REMARK INTER:                  -5.736
REMARK INTRA:                  -0.082
REMARK UNBOUND:                -0.082
REMARK SMILES O=C([O-])c1ccccc1O
REMARK SMILES IDX 4 1 9 2 5 3 8 4 6 5 7 6 2 7 1 8 3 9 10 10
REMARK H PARENT 10 11
REMARK Flexibility Score: inf
ROOT
ATOM      1  C   UNL     1     -31.485  -2.797 -19.293  1.00  0.00     0.039 A 
ATOM      2  C   UNL     1     -31.610  -2.214 -20.576  1.00  0.00     0.124 A 
ATOM      3  C   UNL     1     -30.196  -3.065 -18.791  1.00  0.00     0.014 A 
ATOM      4  C   UNL     1     -30.459  -1.913 -21.322  1.00  0.00     0.047 A 
ATOM      5  C   UNL     1     -29.060  -2.760 -19.544  1.00  0.00     0.001 A 
ATOM      6  C   UNL     1     -29.191  -2.185 -20.807  1.00  0.00     0.004 A 
ENDROOT
BRANCH   1   7
ATOM      7  C   UNL     1     -32.676  -3.132 -18.469  1.00  0.00     0.075 C 
ATOM      8  O   UNL     1     -33.835  -2.878 -18.894  1.00  0.00    -0.545 OA
ATOM      9  O   UNL     1     -32.541  -3.728 -17.220  1.00  0.00    -0.545 OA
ENDBRANCH   1   7
BRANCH   2  10
ATOM     10  O   UNL     1     -32.865  -1.931 -21.115  1.00  0.00    -0.507 OA
ATOM     11  H   UNL     1     -33.641  -1.640 -20.531  1.00  0.00     0.293 HD
ENDBRANCH   2  10
TORSDOF 2
ENDMDL
MODEL 5
REMARK VINA RESULT:    -5.264     11.032     12.070
REMARK INTER + INTRA:          -5.807
REMARK INTER:                  -5.557
REMARK INTRA:                  -0.250
REMARK UNBOUND:                -0.082
REMARK SMILES O=C([O-])c1ccccc1O
REMARK SMILES IDX 4 1 9 2 5 3 8 4 6 5 7 6 2 7 1 8 3 9 10 10
REMARK H PARENT 10 11
REMARK Flexibility Score: inf
ROOT
ATOM      1  C   UNL     1     -39.365  -7.296 -13.117  1.00  0.00     0.039 A 
ATOM      2  C   UNL     1     -39.118  -8.653 -13.436  1.00  0.00     0.124 A 
ATOM      3  C   UNL     1     -38.312  -6.368 -13.237  1.00  0.00     0.014 A 
ATOM      4  C   UNL     1     -37.840  -9.048 -13.863  1.00  0.00     0.047 A 
ATOM      5  C   UNL     1     -37.047  -6.776 -13.663  1.00  0.00     0.001 A 
ATOM      6  C   UNL     1     -36.811  -8.114 -13.975  1.00  0.00     0.004 A 
ENDROOT
BRANCH   1   7
ATOM      7  C   UNL     1     -40.702  -6.833 -12.662  1.00  0.00     0.075 C 
ATOM      8  O   UNL     1     -41.742  -7.186 -13.280  1.00  0.00    -0.545 OA
ATOM      9  O   UNL     1     -40.836  -6.006 -11.553  1.00  0.00    -0.545 OA
ENDBRANCH   1   7
BRANCH   2  10
ATOM     10  O   UNL     1     -40.129  -9.608 -13.333  1.00  0.00    -0.507 OA
ATOM     11  H   UNL     1     -40.222 -10.359 -14.007  1.00  0.00     0.293 HD
ENDBRANCH   2  10
TORSDOF 2
ENDMDL
MODEL 6
REMARK VINA RESULT:    -5.250     10.609     11.847
REMARK INTER + INTRA:          -5.792
REMARK INTER:                  -5.566
REMARK INTRA:                  -0.226
REMARK UNBOUND:                -0.082
REMARK SMILES O=C([O-])c1ccccc1O
REMARK SMILES IDX 4 1 9 2 5 3 8 4 6 5 7 6 2 7 1 8 3 9 10 10
REMARK H PARENT 10 11
REMARK Flexibility Score: inf
ROOT
ATOM      1  C   UNL     1     -39.069  -7.556 -13.376  1.00  0.00     0.039 A 
ATOM      2  C   UNL     1     -38.182  -8.657 -13.313  1.00  0.00     0.124 A 
ATOM      3  C   UNL     1     -38.551  -6.286 -13.700  1.00  0.00     0.014 A 
ATOM      4  C   UNL     1     -36.815  -8.470 -13.572  1.00  0.00     0.047 A 
ATOM      5  C   UNL     1     -37.189  -6.116 -13.956  1.00  0.00     0.001 A 
ATOM      6  C   UNL     1     -36.322  -7.206 -13.892  1.00  0.00     0.004 A 
ENDROOT
BRANCH   1   7
ATOM      7  C   UNL     1     -40.523  -7.708 -13.109  1.00  0.00     0.075 C 
ATOM      8  O   UNL     1     -41.191  -6.740 -12.657  1.00  0.00    -0.545 OA
ATOM      9  O   UNL     1     -41.175  -8.912 -13.349  1.00  0.00    -0.545 OA
ENDBRANCH   1   7
BRANCH   2  10
ATOM     10  O   UNL     1     -38.649  -9.933 -12.996  1.00  0.00    -0.507 OA
ATOM     11  H   UNL     1     -39.622 -10.189 -13.114  1.00  0.00     0.293 HD
ENDBRANCH   2  10
TORSDOF 2
ENDMDL
MODEL 7
REMARK VINA RESULT:    -5.199     10.328     11.478
REMARK INTER + INTRA:          -5.737
REMARK INTER:                  -5.486
REMARK INTRA:                  -0.251
REMARK UNBOUND:                -0.082
REMARK SMILES O=C([O-])c1ccccc1O
REMARK SMILES IDX 4 1 9 2 5 3 8 4 6 5 7 6 2 7 1 8 3 9 10 10
REMARK H PARENT 10 11
REMARK Flexibility Score: inf
ROOT
ATOM      1  C   UNL     1     -38.550  -7.972 -13.491  1.00  0.00     0.039 A 
ATOM      2  C   UNL     1     -38.978  -6.667 -13.150  1.00  0.00     0.124 A 
ATOM      3  C   UNL     1     -39.514  -8.993 -13.617  1.00  0.00     0.014 A 
ATOM      4  C   UNL     1     -40.343  -6.411 -12.945  1.00  0.00     0.047 A 
ATOM      5  C   UNL     1     -40.868  -8.722 -13.410  1.00  0.00     0.001 A 
ATOM      6  C   UNL     1     -41.282  -7.434 -13.074  1.00  0.00     0.004 A 
ENDROOT
BRANCH   1   7
ATOM      7  C   UNL     1     -37.115  -8.289 -13.718  1.00  0.00     0.075 C 
ATOM      8  O   UNL     1     -36.250  -7.962 -12.863  1.00  0.00    -0.545 OA
ATOM      9  O   UNL     1     -36.698  -8.947 -14.869  1.00  0.00    -0.545 OA
ENDBRANCH   1   7
BRANCH   2  10
ATOM     10  O   UNL     1     -38.060  -5.626 -13.015  1.00  0.00    -0.507 OA
ATOM     11  H   UNL     1     -37.857  -5.209 -12.114  1.00  0.00     0.293 HD
ENDBRANCH   2  10
TORSDOF 2
ENDMDL
MODEL 8
REMARK VINA RESULT:    -4.966      3.143      4.487
REMARK INTER + INTRA:          -5.484
REMARK INTER:                  -5.231
REMARK INTRA:                  -0.253
REMARK UNBOUND:                -0.082
REMARK SMILES O=C([O-])c1ccccc1O
REMARK SMILES IDX 4 1 9 2 5 3 8 4 6 5 7 6 2 7 1 8 3 9 10 10
REMARK H PARENT 10 11
REMARK Flexibility Score: inf
ROOT
ATOM      1  C   UNL     1     -32.777  -3.245 -18.234  1.00  0.00     0.039 A 
ATOM      2  C   UNL     1     -31.589  -3.300 -17.468  1.00  0.00     0.124 A 
ATOM      3  C   UNL     1     -32.690  -2.904 -19.599  1.00  0.00     0.014 A 
ATOM      4  C   UNL     1     -30.354  -3.018 -18.073  1.00  0.00     0.047 A 
ATOM      5  C   UNL     1     -31.454  -2.627 -20.186  1.00  0.00     0.001 A 
ATOM      6  C   UNL     1     -30.288  -2.683 -19.425  1.00  0.00     0.004 A 
ENDROOT
BRANCH   1   7
ATOM      7  C   UNL     1     -34.106  -3.537 -17.635  1.00  0.00     0.075 C 
ATOM      8  O   UNL     1     -35.063  -2.732 -17.790  1.00  0.00    -0.545 OA
ATOM      9  O   UNL     1     -34.322  -4.694 -16.896  1.00  0.00    -0.545 OA
ENDBRANCH   1   7
BRANCH   2  10
ATOM     10  O   UNL     1     -31.626  -3.632 -16.114  1.00  0.00    -0.507 OA
ATOM     11  H   UNL     1     -30.855  -3.417 -15.491  1.00  0.00     0.293 HD
ENDBRANCH   2  10
TORSDOF 2
ENDMDL
MODEL 9
REMARK VINA RESULT:    -4.830      9.524     11.008
REMARK INTER + INTRA:          -5.335
REMARK INTER:                  -5.089
REMARK INTRA:                  -0.246
REMARK UNBOUND:                -0.082
REMARK SMILES O=C([O-])c1ccccc1O
REMARK SMILES IDX 4 1 9 2 5 3 8 4 6 5 7 6 2 7 1 8 3 9 10 10
REMARK H PARENT 10 11
REMARK Flexibility Score: inf
ROOT
ATOM      1  C   UNL     1     -38.295  -6.903 -13.341  1.00  0.00     0.039 A 
ATOM      2  C   UNL     1     -38.178  -8.248 -13.765  1.00  0.00     0.124 A 
ATOM      3  C   UNL     1     -39.555  -6.432 -12.919  1.00  0.00     0.014 A 
ATOM      4  C   UNL     1     -39.305  -9.085 -13.757  1.00  0.00     0.047 A 
ATOM      5  C   UNL     1     -40.667  -7.277 -12.915  1.00  0.00     0.001 A 
ATOM      6  C   UNL     1     -40.542  -8.601 -13.335  1.00  0.00     0.004 A 
ENDROOT
BRANCH   1   7
ATOM      7  C   UNL     1     -37.129  -5.982 -13.333  1.00  0.00     0.075 C 
ATOM      8  O   UNL     1     -37.275  -4.769 -13.639  1.00  0.00    -0.545 OA
ATOM      9  O   UNL     1     -35.859  -6.435 -12.992  1.00  0.00    -0.545 OA
ENDBRANCH   1   7
BRANCH   2  10
ATOM     10  O   UNL     1     -36.952  -8.758 -14.192  1.00  0.00    -0.507 OA
ATOM     11  H   UNL     1     -36.326  -8.219 -14.780  1.00  0.00     0.293 HD
ENDBRANCH   2  10
TORSDOF 2
ENDMDL
