MODEL 1
REMARK VINA RESULT:    -4.726      0.000      0.000
REMARK INTER + INTRA:          -7.093
REMARK INTER:                  -7.213
REMARK INTRA:                   0.119
REMARK UNBOUND:                 0.119
REMARK SMILES CC1=CCC[C@H](C)C(=O)C[C@@H](C(C)C)C(=O)C1
REMARK SMILES IDX 8 1 9 2 6 3 7 4 5 5 4 6 3 7 2 8 1 9 10 11 11 12 15 13 16 14
REMARK SMILES IDX 17 15 12 17 13 18 14 19
REMARK H PARENT
REMARK Flexibility Score: 70.00
ROOT
ATOM      1  C   UNL     1     122.244 178.575 129.457  1.00  0.00     0.136 C 
ATOM      2  O   UNL     1     122.246 179.474 130.287  1.00  0.00    -0.299 OA
ENDROOT
BRANCH   1   3
ATOM      3  C   UNL     1     122.546 177.154 129.890  1.00  0.00     0.053 C 
ATOM      4  C   UNL     1     123.989 177.043 130.404  1.00  0.00     0.016 C 
BRANCH   3   5
ATOM      5  C   UNL     1     121.538 176.698 130.969  1.00  0.00     0.015 C 
BRANCH   5   6
ATOM      6  C   UNL     1     120.241 176.136 130.352  1.00  0.00     0.028 C 
BRANCH   6   7
ATOM      7  C   UNL     1     120.523 174.957 129.458  1.00  0.00    -0.028 C 
ATOM      8  C   UNL     1     120.200 174.879 128.146  1.00  0.00    -0.070 CG0
ATOM      9  C   UNL     1     120.505 173.594 127.418  1.00  0.00     0.039 C 
ATOM     10  G   UNL     1     119.537 176.013 127.380  1.00  0.00     0.000 G0
ENDBRANCH   6   7
ENDBRANCH   5   6
ENDBRANCH   3   5
ENDBRANCH   1   3
BRANCH   1  11
ATOM     11  C   UNL     1     121.941 178.906 128.014  1.00  0.00     0.087 C 
BRANCH  11  12
ATOM     12  C   UNL     1     120.508 178.482 127.597  1.00  0.00     0.066 C 
BRANCH  12  13
ATOM     13  C   UNL     1     120.515 177.098 126.960  1.00  0.00     0.140 C 
ATOM     14  O   UNL     1     121.381 176.834 126.135  1.00  0.00    -0.299 OA
BRANCH  13  15
ATOM     15  C   UNL     1     119.534 176.021 127.367  1.00  0.00     0.106 CG0
ATOM     16  G   UNL     1     120.198 174.906 128.160  1.00  0.00     0.000 G0
ENDBRANCH  13  15
ENDBRANCH  12  13
BRANCH  12  17
ATOM     17  C   UNL     1     119.803 179.532 126.679  1.00  0.00    -0.006 C 
ATOM     18  C   UNL     1     120.719 179.950 125.513  1.00  0.00     0.008 C 
ATOM     19  C   UNL     1     118.476 179.009 126.102  1.00  0.00     0.008 C 
ENDBRANCH  12  17
ENDBRANCH  11  12
ENDBRANCH   1  11
TORSDOF 1
ENDMDL
MODEL 2
REMARK VINA RESULT:    -4.583      2.564      3.861
REMARK INTER + INTRA:          -6.874
REMARK INTER:                  -6.977
REMARK INTRA:                   0.102
REMARK UNBOUND:                 0.119
REMARK SMILES CC1=CCC[C@H](C)C(=O)C[C@@H](C(C)C)C(=O)C1
REMARK SMILES IDX 8 1 9 2 6 3 7 4 5 5 4 6 3 7 2 8 1 9 10 11 11 12 15 13 16 14
REMARK SMILES IDX 17 15 12 17 13 18 14 19
REMARK H PARENT
REMARK Flexibility Score: 70.00
ROOT
ATOM      1  C   UNL     1     119.267 177.148 127.500  1.00  0.00     0.136 C 
ATOM      2  O   UNL     1     119.148 176.142 126.815  1.00  0.00    -0.299 OA
ENDROOT
BRANCH   1   3
ATOM      3  C   UNL     1     119.681 177.021 128.953  1.00  0.00     0.053 C 
ATOM      4  C   UNL     1     118.800 175.993 129.676  1.00  0.00     0.016 C 
BRANCH   3   5
ATOM      5  C   UNL     1     121.175 176.636 129.052  1.00  0.00     0.015 C 
BRANCH   5   6
ATOM      6  C   UNL     1     122.104 177.841 128.799  1.00  0.00     0.028 C 
BRANCH   6   7
ATOM      7  C   UNL     1     122.947 177.636 127.568  1.00  0.00    -0.028 C 
ATOM      8  C   UNL     1     122.756 178.256 126.381  1.00  0.00    -0.070 CG0
ATOM      9  C   UNL     1     123.662 177.883 125.234  1.00  0.00     0.039 C 
ATOM     10  G   UNL     1     121.670 179.295 126.146  1.00  0.00     0.000 G0
ENDBRANCH   6   7
ENDBRANCH   5   6
ENDBRANCH   3   5
ENDBRANCH   1   3
BRANCH   1  11
ATOM     11  C   UNL     1     118.995 178.499 126.879  1.00  0.00     0.087 C 
BRANCH  11  12
ATOM     12  C   UNL     1     119.262 178.514 125.352  1.00  0.00     0.066 C 
BRANCH  12  13
ATOM     13  C   UNL     1     120.700 178.923 125.055  1.00  0.00     0.140 C 
ATOM     14  O   UNL     1     121.061 178.999 123.888  1.00  0.00    -0.299 OA
BRANCH  13  15
ATOM     15  C   UNL     1     121.668 179.306 126.152  1.00  0.00     0.106 CG0
ATOM     16  G   UNL     1     122.758 178.265 126.349  1.00  0.00     0.000 G0
ENDBRANCH  13  15
ENDBRANCH  12  13
BRANCH  12  17
ATOM     17  C   UNL     1     118.241 179.395 124.562  1.00  0.00    -0.006 C 
ATOM     18  C   UNL     1     117.501 178.562 123.498  1.00  0.00     0.008 C 
ATOM     19  C   UNL     1     117.200 180.056 125.483  1.00  0.00     0.008 C 
ENDBRANCH  12  17
ENDBRANCH  11  12
ENDBRANCH   1  11
TORSDOF 1
ENDMDL
MODEL 3
REMARK VINA RESULT:    -4.563      1.817      4.066
REMARK INTER + INTRA:          -6.844
REMARK INTER:                  -6.704
REMARK INTRA:                  -0.140
REMARK UNBOUND:                 0.119
REMARK SMILES CC1=CCC[C@H](C)C(=O)C[C@@H](C(C)C)C(=O)C1
REMARK SMILES IDX 8 1 9 2 6 3 7 4 5 5 4 6 3 7 2 8 1 9 10 11 11 12 15 13 16 14
REMARK SMILES IDX 17 15 12 17 13 18 14 19
REMARK H PARENT
REMARK Flexibility Score: 70.00
ROOT
ATOM      1  C   UNL     1     122.081 177.371 129.772  1.00  0.00     0.136 C 
ATOM      2  O   UNL     1     122.790 176.449 130.152  1.00  0.00    -0.299 OA
ENDROOT
BRANCH   1   3
ATOM      3  C   UNL     1     122.653 178.774 129.698  1.00  0.00     0.053 C 
ATOM      4  C   UNL     1     122.874 179.341 131.107  1.00  0.00     0.016 C 
BRANCH   3   5
ATOM      5  C   UNL     1     123.970 178.773 128.889  1.00  0.00     0.015 C 
BRANCH   5   6
ATOM      6  C   UNL     1     123.724 178.600 127.376  1.00  0.00     0.028 C 
BRANCH   6   7
ATOM      7  C   UNL     1     122.569 179.447 126.907  1.00  0.00    -0.028 C 
ATOM      8  C   UNL     1     121.464 178.980 126.282  1.00  0.00    -0.070 CG0
ATOM      9  C   UNL     1     120.433 179.981 125.826  1.00  0.00     0.039 C 
ATOM     10  G   UNL     1     121.221 177.504 126.006  1.00  0.00     0.000 G0
ENDBRANCH   6   7
ENDBRANCH   5   6
ENDBRANCH   3   5
ENDBRANCH   1   3
BRANCH   1  11
ATOM     11  C   UNL     1     120.648 177.088 129.387  1.00  0.00     0.087 C 
BRANCH  11  12
ATOM     12  C   UNL     1     120.538 176.134 128.170  1.00  0.00     0.066 C 
BRANCH  12  13
ATOM     13  C   UNL     1     120.167 176.904 126.908  1.00  0.00     0.140 C 
ATOM     14  O   UNL     1     118.983 177.093 126.661  1.00  0.00    -0.299 OA
BRANCH  13  15
ATOM     15  C   UNL     1     121.214 177.501 125.995  1.00  0.00     0.106 CG0
ATOM     16  G   UNL     1     121.454 178.975 126.278  1.00  0.00     0.000 G0
ENDBRANCH  13  15
ENDBRANCH  12  13
BRANCH  12  17
ATOM     17  C   UNL     1     119.565 174.937 128.418  1.00  0.00    -0.006 C 
ATOM     18  C   UNL     1     120.345 173.630 128.655  1.00  0.00     0.008 C 
ATOM     19  C   UNL     1     118.630 175.178 129.617  1.00  0.00     0.008 C 
ENDBRANCH  12  17
ENDBRANCH  11  12
ENDBRANCH   1  11
TORSDOF 1
ENDMDL
MODEL 4
REMARK VINA RESULT:    -4.549      2.058      5.029
REMARK INTER + INTRA:          -6.824
REMARK INTER:                  -6.702
REMARK INTRA:                  -0.121
REMARK UNBOUND:                 0.119
REMARK SMILES CC1=CCC[C@H](C)C(=O)C[C@@H](C(C)C)C(=O)C1
REMARK SMILES IDX 8 1 9 2 6 3 7 4 5 5 4 6 3 7 2 8 1 9 10 11 11 12 15 13 16 14
REMARK SMILES IDX 17 15 12 17 13 18 14 19
REMARK H PARENT
REMARK Flexibility Score: 70.00
ROOT
ATOM      1  C   UNL     1     119.511 177.177 126.580  1.00  0.00     0.136 C 
ATOM      2  O   UNL     1     118.420 176.656 126.399  1.00  0.00    -0.299 OA
ENDROOT
BRANCH   1   3
ATOM      3  C   UNL     1     119.889 178.417 125.792  1.00  0.00     0.053 C 
ATOM      4  C   UNL     1     119.583 179.684 126.603  1.00  0.00     0.016 C 
BRANCH   3   5
ATOM      5  C   UNL     1     121.380 178.363 125.392  1.00  0.00     0.015 C 
BRANCH   5   6
ATOM      6  C   UNL     1     122.213 179.452 126.100  1.00  0.00     0.028 C 
BRANCH   6   7
ATOM      7  C   UNL     1     123.287 178.846 126.966  1.00  0.00    -0.028 C 
ATOM      8  C   UNL     1     123.180 178.621 128.296  1.00  0.00    -0.070 CG0
ATOM      9  C   UNL     1     124.380 178.061 129.017  1.00  0.00     0.039 C 
ATOM     10  G   UNL     1     121.920 178.915 129.095  1.00  0.00     0.000 G0
ENDBRANCH   6   7
ENDBRANCH   5   6
ENDBRANCH   3   5
ENDBRANCH   1   3
BRANCH   1  11
ATOM     11  C   UNL     1     120.460 176.570 127.587  1.00  0.00     0.087 C 
BRANCH  11  12
ATOM     12  C   UNL     1     120.113 176.969 129.045  1.00  0.00     0.066 C 
BRANCH  12  13
ATOM     13  C   UNL     1     121.285 177.685 129.706  1.00  0.00     0.140 C 
ATOM     14  O   UNL     1     121.771 177.203 130.721  1.00  0.00    -0.299 OA
BRANCH  13  15
ATOM     15  C   UNL     1     121.908 178.926 129.108  1.00  0.00     0.106 CG0
ATOM     16  G   UNL     1     123.169 178.614 128.317  1.00  0.00     0.000 G0
ENDBRANCH  13  15
ENDBRANCH  12  13
BRANCH  12  17
ATOM     17  C   UNL     1     119.617 175.763 129.907  1.00  0.00    -0.006 C 
ATOM     18  C   UNL     1     118.080 175.747 130.001  1.00  0.00     0.008 C 
ATOM     19  C   UNL     1     120.093 174.409 129.351  1.00  0.00     0.008 C 
ENDBRANCH  12  17
ENDBRANCH  11  12
ENDBRANCH   1  11
TORSDOF 1
ENDMDL
MODEL 5
REMARK VINA RESULT:    -4.547      1.875      3.710
REMARK INTER + INTRA:          -6.821
REMARK INTER:                  -6.717
REMARK INTRA:                  -0.103
REMARK UNBOUND:                 0.119
REMARK SMILES CC1=CCC[C@H](C)C(=O)C[C@@H](C(C)C)C(=O)C1
REMARK SMILES IDX 8 1 9 2 6 3 7 4 5 5 4 6 3 7 2 8 1 9 10 11 11 12 15 13 16 14
REMARK SMILES IDX 17 15 12 17 13 18 14 19
REMARK H PARENT
REMARK Flexibility Score: 70.00
ROOT
ATOM      1  C   UNL     1     119.149 176.794 127.530  1.00  0.00     0.136 C 
ATOM      2  O   UNL     1     118.560 176.638 126.470  1.00  0.00    -0.299 OA
ENDROOT
BRANCH   1   3
ATOM      3  C   UNL     1     118.990 175.766 128.634  1.00  0.00     0.053 C 
ATOM      4  C   UNL     1     119.883 174.546 128.366  1.00  0.00     0.016 C 
BRANCH   3   5
ATOM      5  C   UNL     1     119.314 176.399 130.005  1.00  0.00     0.015 C 
BRANCH   5   6
ATOM      6  C   UNL     1     120.642 175.876 130.589  1.00  0.00     0.028 C 
BRANCH   6   7
ATOM      7  C   UNL     1     121.503 177.004 131.092  1.00  0.00    -0.028 C 
ATOM      8  C   UNL     1     122.528 177.566 130.410  1.00  0.00    -0.070 CG0
ATOM      9  C   UNL     1     123.324 178.649 131.094  1.00  0.00     0.039 C 
ATOM     10  G   UNL     1     122.921 177.151 129.000  1.00  0.00     0.000 G0
ENDBRANCH   6   7
ENDBRANCH   5   6
ENDBRANCH   3   5
ENDBRANCH   1   3
BRANCH   1  11
ATOM     11  C   UNL     1     120.023 178.012 127.715  1.00  0.00     0.087 C 
BRANCH  11  12
ATOM     12  C   UNL     1     121.382 177.885 126.978  1.00  0.00     0.066 C 
BRANCH  12  13
ATOM     13  C   UNL     1     122.543 178.137 127.932  1.00  0.00     0.140 C 
ATOM     14  O   UNL     1     123.130 179.210 127.873  1.00  0.00    -0.299 OA
BRANCH  13  15
ATOM     15  C   UNL     1     122.943 177.136 128.992  1.00  0.00     0.106 CG0
ATOM     16  G   UNL     1     122.522 177.574 130.387  1.00  0.00     0.000 G0
ENDBRANCH  13  15
ENDBRANCH  12  13
BRANCH  12  17
ATOM     17  C   UNL     1     121.475 178.791 125.709  1.00  0.00    -0.006 C 
ATOM     18  C   UNL     1     122.057 178.011 124.515  1.00  0.00     0.008 C 
ATOM     19  C   UNL     1     120.110 179.373 125.300  1.00  0.00     0.008 C 
ENDBRANCH  12  17
ENDBRANCH  11  12
ENDBRANCH   1  11
TORSDOF 1
ENDMDL
MODEL 6
REMARK VINA RESULT:    -4.398      2.292      4.578
REMARK INTER + INTRA:          -6.592
REMARK INTER:                  -6.527
REMARK INTRA:                  -0.065
REMARK UNBOUND:                 0.119
REMARK SMILES CC1=CCC[C@H](C)C(=O)C[C@@H](C(C)C)C(=O)C1
REMARK SMILES IDX 8 1 9 2 6 3 7 4 5 5 4 6 3 7 2 8 1 9 10 11 11 12 15 13 16 14
REMARK SMILES IDX 17 15 12 17 13 18 14 19
REMARK H PARENT
REMARK Flexibility Score: 70.00
ROOT
ATOM      1  C   UNL     1     119.068 178.277 126.476  1.00  0.00     0.136 C 
ATOM      2  O   UNL     1     118.178 179.089 126.691  1.00  0.00    -0.299 OA
ENDROOT
BRANCH   1   3
ATOM      3  C   UNL     1     120.254 178.676 125.620  1.00  0.00     0.053 C 
ATOM      4  C   UNL     1     119.780 179.317 124.309  1.00  0.00     0.016 C 
BRANCH   3   5
ATOM      5  C   UNL     1     121.181 179.634 126.402  1.00  0.00     0.015 C 
BRANCH   5   6
ATOM      6  C   UNL     1     122.522 178.971 126.776  1.00  0.00     0.028 C 
BRANCH   6   7
ATOM      7  C   UNL     1     122.978 178.012 125.707  1.00  0.00    -0.028 C 
ATOM      8  C   UNL     1     123.053 176.668 125.846  1.00  0.00    -0.070 CG0
ATOM      9  C   UNL     1     123.591 175.866 124.688  1.00  0.00     0.039 C 
ATOM     10  G   UNL     1     122.636 175.935 127.112  1.00  0.00     0.000 G0
ENDBRANCH   6   7
ENDBRANCH   5   6
ENDBRANCH   3   5
ENDBRANCH   1   3
BRANCH   1  11
ATOM     11  C   UNL     1     118.961 176.893 127.071  1.00  0.00     0.087 C 
BRANCH  11  12
ATOM     12  C   UNL     1     120.189 176.526 127.946  1.00  0.00     0.066 C 
BRANCH  12  13
ATOM     13  C   UNL     1     121.157 175.635 127.177  1.00  0.00     0.140 C 
ATOM     14  O   UNL     1     120.708 174.689 126.542  1.00  0.00    -0.299 OA
BRANCH  13  15
ATOM     15  C   UNL     1     122.640 175.927 127.115  1.00  0.00     0.106 CG0
ATOM     16  G   UNL     1     123.029 176.676 125.850  1.00  0.00     0.000 G0
ENDBRANCH  13  15
ENDBRANCH  12  13
BRANCH  12  17
ATOM     17  C   UNL     1     119.794 175.894 129.319  1.00  0.00    -0.006 C 
ATOM     18  C   UNL     1     120.763 176.339 130.431  1.00  0.00     0.008 C 
ATOM     19  C   UNL     1     118.359 176.254 129.741  1.00  0.00     0.008 C 
ENDBRANCH  12  17
ENDBRANCH  11  12
ENDBRANCH   1  11
TORSDOF 1
ENDMDL
MODEL 7
REMARK VINA RESULT:    -4.288      2.312      4.904
REMARK INTER + INTRA:          -6.425
REMARK INTER:                  -6.604
REMARK INTRA:                   0.179
REMARK UNBOUND:                 0.119
REMARK SMILES CC1=CCC[C@H](C)C(=O)C[C@@H](C(C)C)C(=O)C1
REMARK SMILES IDX 8 1 9 2 6 3 7 4 5 5 4 6 3 7 2 8 1 9 10 11 11 12 15 13 16 14
REMARK SMILES IDX 17 15 12 17 13 18 14 19
REMARK H PARENT
REMARK Flexibility Score: 70.00
ROOT
ATOM      1  C   UNL     1     119.748 174.165 129.933  1.00  0.00     0.136 C 
ATOM      2  O   UNL     1     119.571 173.571 130.988  1.00  0.00    -0.299 OA
ENDROOT
BRANCH   1   3
ATOM      3  C   UNL     1     119.508 175.661 129.866  1.00  0.00     0.053 C 
ATOM      4  C   UNL     1     118.099 176.002 130.371  1.00  0.00     0.016 C 
BRANCH   3   5
ATOM      5  C   UNL     1     120.585 176.412 130.680  1.00  0.00     0.015 C 
BRANCH   5   6
ATOM      6  C   UNL     1     121.596 177.143 129.772  1.00  0.00     0.028 C 
BRANCH   6   7
ATOM      7  C   UNL     1     120.949 177.610 128.494  1.00  0.00    -0.028 C 
ATOM      8  C   UNL     1     121.244 177.147 127.257  1.00  0.00    -0.070 CG0
ATOM      9  C   UNL     1     120.539 177.773 126.081  1.00  0.00     0.039 C 
ATOM     10  G   UNL     1     122.257 176.041 126.998  1.00  0.00     0.000 G0
ENDBRANCH   6   7
ENDBRANCH   5   6
ENDBRANCH   3   5
ENDBRANCH   1   3
BRANCH   1  11
ATOM     11  C   UNL     1     120.203 173.390 128.719  1.00  0.00     0.087 C 
BRANCH  11  12
ATOM     12  C   UNL     1     121.639 173.771 128.275  1.00  0.00     0.066 C 
BRANCH  12  13
ATOM     13  C   UNL     1     121.609 174.643 127.026  1.00  0.00     0.140 C 
ATOM     14  O   UNL     1     120.994 174.244 126.045  1.00  0.00    -0.299 OA
BRANCH  13  15
ATOM     15  C   UNL     1     122.250 176.012 126.987  1.00  0.00     0.106 CG0
ATOM     16  G   UNL     1     121.249 177.126 127.256  1.00  0.00     0.000 G0
ENDBRANCH  13  15
ENDBRANCH  12  13
BRANCH  12  17
ATOM     17  C   UNL     1     122.570 172.530 128.085  1.00  0.00    -0.006 C 
ATOM     18  C   UNL     1     121.771 171.218 128.198  1.00  0.00     0.008 C 
ATOM     19  C   UNL     1     123.302 172.547 126.731  1.00  0.00     0.008 C 
ENDBRANCH  12  17
ENDBRANCH  11  12
ENDBRANCH   1  11
TORSDOF 1
ENDMDL
MODEL 8
REMARK VINA RESULT:    -4.209      2.275      4.986
REMARK INTER + INTRA:          -6.304
REMARK INTER:                  -6.314
REMARK INTRA:                   0.010
REMARK UNBOUND:                 0.119
REMARK SMILES CC1=CCC[C@H](C)C(=O)C[C@@H](C(C)C)C(=O)C1
REMARK SMILES IDX 8 1 9 2 6 3 7 4 5 5 4 6 3 7 2 8 1 9 10 11 11 12 15 13 16 14
REMARK SMILES IDX 17 15 12 17 13 18 14 19
REMARK H PARENT
REMARK Flexibility Score: 70.00
ROOT
ATOM      1  C   UNL     1     121.914 173.348 127.987  1.00  0.00     0.136 C 
ATOM      2  O   UNL     1     121.795 172.263 128.541  1.00  0.00    -0.299 OA
ENDROOT
BRANCH   1   3
ATOM      3  C   UNL     1     121.981 173.413 126.474  1.00  0.00     0.053 C 
ATOM      4  C   UNL     1     120.583 173.634 125.881  1.00  0.00     0.016 C 
BRANCH   3   5
ATOM      5  C   UNL     1     122.954 174.529 126.029  1.00  0.00     0.015 C 
BRANCH   5   6
ATOM      6  C   UNL     1     122.245 175.625 125.208  1.00  0.00     0.028 C 
BRANCH   6   7
ATOM      7  C   UNL     1     122.744 176.998 125.578  1.00  0.00    -0.028 C 
ATOM      8  C   UNL     1     122.112 177.857 126.411  1.00  0.00    -0.070 CG0
ATOM      9  C   UNL     1     122.728 179.218 126.622  1.00  0.00     0.039 C 
ATOM     10  G   UNL     1     120.814 177.524 127.129  1.00  0.00     0.000 G0
ENDBRANCH   6   7
ENDBRANCH   5   6
ENDBRANCH   3   5
ENDBRANCH   1   3
BRANCH   1  11
ATOM     11  C   UNL     1     121.991 174.600 128.829  1.00  0.00     0.087 C 
BRANCH  11  12
ATOM     12  C   UNL     1     120.694 175.447 128.754  1.00  0.00     0.066 C 
BRANCH  12  13
ATOM     13  C   UNL     1     121.017 176.912 128.486  1.00  0.00     0.140 C 
ATOM     14  O   UNL     1     121.512 177.579 129.386  1.00  0.00    -0.299 OA
BRANCH  13  15
ATOM     15  C   UNL     1     120.811 177.544 127.128  1.00  0.00     0.106 CG0
ATOM     16  G   UNL     1     122.127 177.841 126.425  1.00  0.00     0.000 G0
ENDBRANCH  13  15
ENDBRANCH  12  13
BRANCH  12  17
ATOM     17  C   UNL     1     119.782 175.281 130.012  1.00  0.00    -0.006 C 
ATOM     18  C   UNL     1     118.527 176.167 129.905  1.00  0.00     0.008 C 
ATOM     19  C   UNL     1     119.341 173.823 130.229  1.00  0.00     0.008 C 
ENDBRANCH  12  17
ENDBRANCH  11  12
ENDBRANCH   1  11
TORSDOF 1
ENDMDL
MODEL 9
REMARK VINA RESULT:    -4.134      2.030      3.863
REMARK INTER + INTRA:          -6.190
REMARK INTER:                  -6.194
REMARK INTRA:                   0.005
REMARK UNBOUND:                 0.119
REMARK SMILES CC1=CCC[C@H](C)C(=O)C[C@@H](C(C)C)C(=O)C1
REMARK SMILES IDX 8 1 9 2 6 3 7 4 5 5 4 6 3 7 2 8 1 9 10 11 11 12 15 13 16 14
REMARK SMILES IDX 17 15 12 17 13 18 14 19
REMARK H PARENT
REMARK Flexibility Score: 70.00
ROOT
ATOM      1  C   UNL     1     122.852 178.067 126.005  1.00  0.00     0.136 C 
ATOM      2  O   UNL     1     123.975 178.550 125.950  1.00  0.00    -0.299 OA
ENDROOT
BRANCH   1   3
ATOM      3  C   UNL     1     122.471 176.947 125.056  1.00  0.00     0.053 C 
ATOM      4  C   UNL     1     122.948 177.262 123.632  1.00  0.00     0.016 C 
BRANCH   3   5
ATOM      5  C   UNL     1     123.054 175.605 125.552  1.00  0.00     0.015 C 
BRANCH   5   6
ATOM      6  C   UNL     1     122.035 174.452 125.445  1.00  0.00     0.028 C 
BRANCH   6   7
ATOM      7  C   UNL     1     121.600 173.976 126.807  1.00  0.00    -0.028 C 
ATOM      8  C   UNL     1     120.676 174.584 127.587  1.00  0.00    -0.070 CG0
ATOM      9  C   UNL     1     120.408 174.000 128.951  1.00  0.00     0.039 C 
ATOM     10  G   UNL     1     119.910 175.827 127.161  1.00  0.00     0.000 G0
ENDBRANCH   6   7
ENDBRANCH   5   6
ENDBRANCH   3   5
ENDBRANCH   1   3
BRANCH   1  11
ATOM     11  C   UNL     1     121.869 178.603 127.019  1.00  0.00     0.087 C 
BRANCH  11  12
ATOM     12  C   UNL     1     121.611 177.607 128.180  1.00  0.00     0.066 C 
BRANCH  12  13
ATOM     13  C   UNL     1     120.212 177.011 128.084  1.00  0.00     0.140 C 
ATOM     14  O   UNL     1     119.304 177.539 128.714  1.00  0.00    -0.299 OA
BRANCH  13  15
ATOM     15  C   UNL     1     119.899 175.837 127.184  1.00  0.00     0.106 CG0
ATOM     16  G   UNL     1     120.668 174.586 127.578  1.00  0.00     0.000 G0
ENDBRANCH  13  15
ENDBRANCH  12  13
BRANCH  12  17
ATOM     17  C   UNL     1     121.875 178.229 129.589  1.00  0.00    -0.006 C 
ATOM     18  C   UNL     1     121.885 177.141 130.679  1.00  0.00     0.008 C 
ATOM     19  C   UNL     1     123.205 179.001 129.650  1.00  0.00     0.008 C 
ENDBRANCH  12  17
ENDBRANCH  11  12
ENDBRANCH   1  11
TORSDOF 1
ENDMDL
