MODEL 1
REMARK VINA RESULT:    -8.241      0.000      0.000
REMARK INTER + INTRA:          -9.781
REMARK INTER:                  -9.928
REMARK INTRA:                   0.147
REMARK UNBOUND:                 0.147
REMARK SMILES O=c1c(O)c(-c2ccc(O)c(O)c2)oc2cc(O)cc(O)c12
REMARK SMILES IDX 5 1 3 2 2 3 1 4 22 5 20 6 19 7 17 8 16 9 15 10 14 11 6 12
REMARK SMILES IDX 7 13 8 14 9 15 13 16 11 17 10 18 12 20 4 22 21 24 18 26
REMARK H PARENT 10 19 12 21 4 23 21 25 18 27
REMARK Flexibility Score: inf
ROOT
ATOM      1  C   UNL     1      -1.504  11.126  -8.593  1.00  0.00     0.180 A 
ATOM      2  C   UNL     1      -2.422  12.180  -8.740  1.00  0.00     0.208 A 
ATOM      3  C   UNL     1      -3.677  11.917  -9.314  1.00  0.00     0.238 A 
ATOM      4  O   UNL     1      -4.473  12.875  -9.491  1.00  0.00    -0.285 OA
ATOM      5  C   UNL     1      -4.003  10.600  -9.717  1.00  0.00     0.111 A 
ATOM      6  C   UNL     1      -5.260  10.211 -10.273  1.00  0.00     0.134 A 
ATOM      7  C   UNL     1      -5.426   8.908 -10.758  1.00  0.00     0.093 A 
ATOM      8  C   UNL     1      -4.404   7.963 -10.648  1.00  0.00     0.123 A 
ATOM      9  C   UNL     1      -3.196   8.316 -10.053  1.00  0.00     0.094 A 
ATOM     10  C   UNL     1      -2.986   9.619  -9.593  1.00  0.00     0.146 A 
ATOM     11  O   UNL     1      -1.815   9.916  -9.042  1.00  0.00    -0.452 OA
ENDROOT
BRANCH   1  12
ATOM     12  C   UNL     1      -0.173  11.321  -7.975  1.00  0.00     0.025 A 
ATOM     13  C   UNL     1       0.007  12.189  -6.884  1.00  0.00     0.016 A 
ATOM     14  C   UNL     1       1.268  12.338  -6.301  1.00  0.00     0.051 A 
ATOM     15  C   UNL     1       2.365  11.614  -6.790  1.00  0.00     0.157 A 
ATOM     16  C   UNL     1       0.924  10.582  -8.448  1.00  0.00     0.062 A 
ATOM     17  C   UNL     1       2.189  10.729  -7.867  1.00  0.00     0.158 A 
BRANCH  15  18
ATOM     18  O   UNL     1       3.621  11.767  -6.208  1.00  0.00    -0.504 OA
ATOM     19  H   UNL     1       3.759  12.342  -5.385  1.00  0.00     0.293 HD
ENDBRANCH  15  18
BRANCH  17  20
ATOM     20  O   UNL     1       3.257   9.990  -8.373  1.00  0.00    -0.504 OA
ATOM     21  H   UNL     1       3.309   8.983  -8.276  1.00  0.00     0.293 HD
ENDBRANCH  17  20
ENDBRANCH   1  12
BRANCH   2  22
ATOM     22  O   UNL     1      -2.071  13.477  -8.354  1.00  0.00    -0.502 OA
ATOM     23  H   UNL     1      -2.014  14.244  -9.012  1.00  0.00     0.293 HD
ENDBRANCH   2  22
BRANCH   6  24
ATOM     24  O   UNL     1      -6.374  11.052 -10.346  1.00  0.00    -0.507 OA
ATOM     25  H   UNL     1      -6.474  11.820 -10.992  1.00  0.00     0.293 HD
ENDBRANCH   6  24
BRANCH   8  26
ATOM     26  O   UNL     1      -4.584   6.663 -11.119  1.00  0.00    -0.508 OA
ATOM     27  H   UNL     1      -5.070   6.477 -11.989  1.00  0.00     0.293 HD
ENDBRANCH   8  26
TORSDOF 6
ENDMDL
MODEL 2
REMARK VINA RESULT:    -7.614      1.687      6.759
REMARK INTER + INTRA:          -9.026
REMARK INTER:                  -8.738
REMARK INTRA:                  -0.287
REMARK UNBOUND:                 0.147
REMARK SMILES O=c1c(O)c(-c2ccc(O)c(O)c2)oc2cc(O)cc(O)c12
REMARK SMILES IDX 5 1 3 2 2 3 1 4 22 5 20 6 19 7 17 8 16 9 15 10 14 11 6 12
REMARK SMILES IDX 7 13 8 14 9 15 13 16 11 17 10 18 12 20 4 22 21 24 18 26
REMARK H PARENT 10 19 12 21 4 23 21 25 18 27
REMARK Flexibility Score: inf
ROOT
ATOM      1  C   UNL     1      -1.985  11.090  -8.204  1.00  0.00     0.180 A 
ATOM      2  C   UNL     1      -1.871  11.931  -7.084  1.00  0.00     0.208 A 
ATOM      3  C   UNL     1      -0.595  12.209  -6.567  1.00  0.00     0.238 A 
ATOM      4  O   UNL     1      -0.504  12.919  -5.533  1.00  0.00    -0.285 OA
ATOM      5  C   UNL     1       0.551  11.655  -7.187  1.00  0.00     0.111 A 
ATOM      6  C   UNL     1       1.895  11.901  -6.773  1.00  0.00     0.134 A 
ATOM      7  C   UNL     1       2.943  11.196  -7.377  1.00  0.00     0.093 A 
ATOM      8  C   UNL     1       2.702  10.303  -8.424  1.00  0.00     0.123 A 
ATOM      9  C   UNL     1       1.400  10.102  -8.875  1.00  0.00     0.094 A 
ATOM     10  C   UNL     1       0.329  10.762  -8.268  1.00  0.00     0.146 A 
ATOM     11  O   UNL     1      -0.897  10.533  -8.722  1.00  0.00    -0.452 OA
ENDROOT
BRANCH   1  12
ATOM     12  C   UNL     1      -3.294  10.771  -8.820  1.00  0.00     0.025 A 
ATOM     13  C   UNL     1      -3.716  11.396 -10.006  1.00  0.00     0.016 A 
ATOM     14  C   UNL     1      -4.944  11.062 -10.582  1.00  0.00     0.051 A 
ATOM     15  C   UNL     1      -5.763  10.090  -9.990  1.00  0.00     0.157 A 
ATOM     16  C   UNL     1      -4.108   9.783  -8.242  1.00  0.00     0.062 A 
ATOM     17  C   UNL     1      -5.340   9.446  -8.815  1.00  0.00     0.158 A 
BRANCH  15  18
ATOM     18  O   UNL     1      -6.988   9.760 -10.566  1.00  0.00    -0.504 OA
ATOM     19  H   UNL     1      -7.142   9.835 -11.565  1.00  0.00     0.293 HD
ENDBRANCH  15  18
BRANCH  17  20
ATOM     20  O   UNL     1      -6.127   8.471  -8.206  1.00  0.00    -0.504 OA
ATOM     21  H   UNL     1      -7.051   8.234  -8.545  1.00  0.00     0.293 HD
ENDBRANCH  17  20
ENDBRANCH   1  12
BRANCH   2  22
ATOM     22  O   UNL     1      -3.017  12.451  -6.474  1.00  0.00    -0.502 OA
ATOM     23  H   UNL     1      -2.993  13.266  -5.876  1.00  0.00     0.293 HD
ENDBRANCH   2  22
BRANCH   6  24
ATOM     24  O   UNL     1       2.252  12.840  -5.800  1.00  0.00    -0.507 OA
ATOM     25  H   UNL     1       2.229  12.674  -4.806  1.00  0.00     0.293 HD
ENDBRANCH   6  24
BRANCH   8  26
ATOM     26  O   UNL     1       3.753   9.619  -9.031  1.00  0.00    -0.508 OA
ATOM     27  H   UNL     1       3.749   9.414 -10.024  1.00  0.00     0.293 HD
ENDBRANCH   8  26
TORSDOF 6
ENDMDL
MODEL 3
REMARK VINA RESULT:    -7.431      1.900      6.831
REMARK INTER + INTRA:          -8.804
REMARK INTER:                  -8.482
REMARK INTRA:                  -0.322
REMARK UNBOUND:                 0.147
REMARK SMILES O=c1c(O)c(-c2ccc(O)c(O)c2)oc2cc(O)cc(O)c12
REMARK SMILES IDX 5 1 3 2 2 3 1 4 22 5 20 6 19 7 17 8 16 9 15 10 14 11 6 12
REMARK SMILES IDX 7 13 8 14 9 15 13 16 11 17 10 18 12 20 4 22 21 24 18 26
REMARK H PARENT 10 19 12 21 4 23 21 25 18 27
REMARK Flexibility Score: inf
ROOT
ATOM      1  C   UNL     1      -1.942  11.806  -7.978  1.00  0.00     0.180 A 
ATOM      2  C   UNL     1      -2.373  12.998  -7.373  1.00  0.00     0.208 A 
ATOM      3  C   UNL     1      -1.459  13.748  -6.614  1.00  0.00     0.238 A 
ATOM      4  O   UNL     1      -1.866  14.786  -6.031  1.00  0.00    -0.285 OA
ATOM      5  C   UNL     1      -0.121  13.304  -6.486  1.00  0.00     0.111 A 
ATOM      6  C   UNL     1       0.900  14.004  -5.775  1.00  0.00     0.134 A 
ATOM      7  C   UNL     1       2.154  13.406  -5.602  1.00  0.00     0.093 A 
ATOM      8  C   UNL     1       2.444  12.163  -6.169  1.00  0.00     0.123 A 
ATOM      9  C   UNL     1       1.474  11.500  -6.915  1.00  0.00     0.094 A 
ATOM     10  C   UNL     1       0.200  12.053  -7.074  1.00  0.00     0.146 A 
ATOM     11  O   UNL     1      -0.699  11.382  -7.784  1.00  0.00    -0.452 OA
ENDROOT
BRANCH   1  12
ATOM     12  C   UNL     1      -2.841  10.975  -8.812  1.00  0.00     0.025 A 
ATOM     13  C   UNL     1      -2.883  11.120 -10.210  1.00  0.00     0.016 A 
ATOM     14  C   UNL     1      -3.721  10.309 -10.979  1.00  0.00     0.051 A 
ATOM     15  C   UNL     1      -4.519   9.333 -10.366  1.00  0.00     0.157 A 
ATOM     16  C   UNL     1      -3.626   9.982  -8.205  1.00  0.00     0.062 A 
ATOM     17  C   UNL     1      -4.468   9.168  -8.972  1.00  0.00     0.158 A 
BRANCH  15  18
ATOM     18  O   UNL     1      -5.355   8.527 -11.136  1.00  0.00    -0.504 OA
ATOM     19  H   UNL     1      -5.006   7.704 -11.614  1.00  0.00     0.293 HD
ENDBRANCH  15  18
BRANCH  17  20
ATOM     20  O   UNL     1      -5.244   8.203  -8.332  1.00  0.00    -0.504 OA
ATOM     21  H   UNL     1      -5.071   7.920  -7.375  1.00  0.00     0.293 HD
ENDBRANCH  17  20
ENDBRANCH   1  12
BRANCH   2  22
ATOM     22  O   UNL     1      -3.705  13.408  -7.495  1.00  0.00    -0.502 OA
ATOM     23  H   UNL     1      -4.245  13.743  -6.708  1.00  0.00     0.293 HD
ENDBRANCH   2  22
BRANCH   6  24
ATOM     24  O   UNL     1       0.742  15.289  -5.248  1.00  0.00    -0.507 OA
ATOM     25  H   UNL     1      -0.138  15.689  -4.961  1.00  0.00     0.293 HD
ENDBRANCH   6  24
BRANCH   8  26
ATOM     26  O   UNL     1       3.701  11.583  -6.006  1.00  0.00    -0.508 OA
ATOM     27  H   UNL     1       4.273  11.778  -5.192  1.00  0.00     0.293 HD
ENDBRANCH   8  26
TORSDOF 6
ENDMDL
MODEL 4
REMARK VINA RESULT:    -7.405      2.147      7.354
REMARK INTER + INTRA:          -8.773
REMARK INTER:                  -8.474
REMARK INTRA:                  -0.299
REMARK UNBOUND:                 0.147
REMARK SMILES O=c1c(O)c(-c2ccc(O)c(O)c2)oc2cc(O)cc(O)c12
REMARK SMILES IDX 5 1 3 2 2 3 1 4 22 5 20 6 19 7 17 8 16 9 15 10 14 11 6 12
REMARK SMILES IDX 7 13 8 14 9 15 13 16 11 17 10 18 12 20 4 22 21 24 18 26
REMARK H PARENT 10 19 12 21 4 23 21 25 18 27
REMARK Flexibility Score: inf
ROOT
ATOM      1  C   UNL     1      -1.332  11.650  -7.928  1.00  0.00     0.180 A 
ATOM      2  C   UNL     1      -0.018  11.159  -8.019  1.00  0.00     0.208 A 
ATOM      3  C   UNL     1       0.996  11.784  -7.274  1.00  0.00     0.238 A 
ATOM      4  O   UNL     1       2.179  11.374  -7.401  1.00  0.00    -0.285 OA
ATOM      5  C   UNL     1       0.679  12.880  -6.435  1.00  0.00     0.111 A 
ATOM      6  C   UNL     1       1.619  13.563  -5.605  1.00  0.00     0.134 A 
ATOM      7  C   UNL     1       1.222  14.716  -4.918  1.00  0.00     0.093 A 
ATOM      8  C   UNL     1      -0.097  15.173  -4.979  1.00  0.00     0.123 A 
ATOM      9  C   UNL     1      -1.035  14.479  -5.738  1.00  0.00     0.094 A 
ATOM     10  C   UNL     1      -0.661  13.346  -6.465  1.00  0.00     0.146 A 
ATOM     11  O   UNL     1      -1.584  12.720  -7.185  1.00  0.00    -0.452 OA
ENDROOT
BRANCH   1  12
ATOM     12  C   UNL     1      -2.457  11.028  -8.664  1.00  0.00     0.025 A 
ATOM     13  C   UNL     1      -2.691  11.313 -10.020  1.00  0.00     0.016 A 
ATOM     14  C   UNL     1      -3.744  10.696 -10.700  1.00  0.00     0.051 A 
ATOM     15  C   UNL     1      -4.570   9.776 -10.040  1.00  0.00     0.157 A 
ATOM     16  C   UNL     1      -3.274  10.090  -8.012  1.00  0.00     0.062 A 
ATOM     17  C   UNL     1      -4.331   9.470  -8.690  1.00  0.00     0.158 A 
BRANCH  15  18
ATOM     18  O   UNL     1      -5.621   9.164 -10.720  1.00  0.00    -0.504 OA
ATOM     19  H   UNL     1      -5.863   9.426 -11.669  1.00  0.00     0.293 HD
ENDBRANCH  15  18
BRANCH  17  20
ATOM     20  O   UNL     1      -5.130   8.555  -8.006  1.00  0.00    -0.504 OA
ATOM     21  H   UNL     1      -5.923   8.101  -8.442  1.00  0.00     0.293 HD
ENDBRANCH  17  20
ENDBRANCH   1  12
BRANCH   2  22
ATOM     22  O   UNL     1       0.277  10.090  -8.869  1.00  0.00    -0.502 OA
ATOM     23  H   UNL     1       0.241  10.170  -9.877  1.00  0.00     0.293 HD
ENDBRANCH   2  22
BRANCH   6  24
ATOM     24  O   UNL     1       2.935  13.138  -5.403  1.00  0.00    -0.507 OA
ATOM     25  H   UNL     1       3.216  12.176  -5.282  1.00  0.00     0.293 HD
ENDBRANCH   6  24
BRANCH   8  26
ATOM     26  O   UNL     1      -0.488  16.312  -4.278  1.00  0.00    -0.508 OA
ATOM     27  H   UNL     1      -1.354  16.795  -4.491  1.00  0.00     0.293 HD
ENDBRANCH   8  26
TORSDOF 6
ENDMDL
MODEL 5
REMARK VINA RESULT:    -7.136      2.339      3.089
REMARK INTER + INTRA:          -8.449
REMARK INTER:                  -8.132
REMARK INTRA:                  -0.318
REMARK UNBOUND:                 0.147
REMARK SMILES O=c1c(O)c(-c2ccc(O)c(O)c2)oc2cc(O)cc(O)c12
REMARK SMILES IDX 5 1 3 2 2 3 1 4 22 5 20 6 19 7 17 8 16 9 15 10 14 11 6 12
REMARK SMILES IDX 7 13 8 14 9 15 13 16 11 17 10 18 12 20 4 22 21 24 18 26
REMARK H PARENT 10 19 12 21 4 23 21 25 18 27
REMARK Flexibility Score: inf
ROOT
ATOM      1  C   UNL     1      -1.352  11.674  -6.617  1.00  0.00     0.180 A 
ATOM      2  C   UNL     1      -2.067  10.820  -5.760  1.00  0.00     0.208 A 
ATOM      3  C   UNL     1      -3.145  10.083  -6.276  1.00  0.00     0.238 A 
ATOM      4  O   UNL     1      -3.814   9.362  -5.492  1.00  0.00    -0.285 OA
ATOM      5  C   UNL     1      -3.482  10.196  -7.646  1.00  0.00     0.111 A 
ATOM      6  C   UNL     1      -4.529   9.465  -8.286  1.00  0.00     0.134 A 
ATOM      7  C   UNL     1      -4.860   9.754  -9.615  1.00  0.00     0.093 A 
ATOM      8  C   UNL     1      -4.139  10.700 -10.348  1.00  0.00     0.123 A 
ATOM      9  C   UNL     1      -3.078  11.374  -9.751  1.00  0.00     0.094 A 
ATOM     10  C   UNL     1      -2.747  11.135  -8.414  1.00  0.00     0.146 A 
ATOM     11  O   UNL     1      -1.735  11.808  -7.881  1.00  0.00    -0.452 OA
ENDROOT
BRANCH   1  12
ATOM     12  C   UNL     1      -0.189  12.464  -6.152  1.00  0.00     0.025 A 
ATOM     13  C   UNL     1      -0.354  13.722  -5.546  1.00  0.00     0.016 A 
ATOM     14  C   UNL     1       0.757  14.439  -5.093  1.00  0.00     0.051 A 
ATOM     15  C   UNL     1       2.046  13.905  -5.225  1.00  0.00     0.157 A 
ATOM     16  C   UNL     1       1.103  11.924  -6.263  1.00  0.00     0.062 A 
ATOM     17  C   UNL     1       2.218  12.639  -5.811  1.00  0.00     0.158 A 
BRANCH  15  18
ATOM     18  O   UNL     1       3.152  14.623  -4.774  1.00  0.00    -0.504 OA
ATOM     19  H   UNL     1       3.562  14.447  -3.864  1.00  0.00     0.293 HD
ENDBRANCH  15  18
BRANCH  17  20
ATOM     20  O   UNL     1       3.486  12.077  -5.951  1.00  0.00    -0.504 OA
ATOM     21  H   UNL     1       4.327  12.572  -5.681  1.00  0.00     0.293 HD
ENDBRANCH  17  20
ENDBRANCH   1  12
BRANCH   2  22
ATOM     22  O   UNL     1      -1.730  10.740  -4.406  1.00  0.00    -0.502 OA
ATOM     23  H   UNL     1      -2.262  11.208  -3.683  1.00  0.00     0.293 HD
ENDBRANCH   2  22
BRANCH   6  24
ATOM     24  O   UNL     1      -5.250   8.436  -7.672  1.00  0.00    -0.507 OA
ATOM     25  H   UNL     1      -5.973   7.894  -8.119  1.00  0.00     0.293 HD
ENDBRANCH   6  24
BRANCH   8  26
ATOM     26  O   UNL     1      -4.464  10.968 -11.676  1.00  0.00    -0.508 OA
ATOM     27  H   UNL     1      -3.859  10.684 -12.438  1.00  0.00     0.293 HD
ENDBRANCH   8  26
TORSDOF 6
ENDMDL
MODEL 6
REMARK VINA RESULT:    -7.085      2.487      2.989
REMARK INTER + INTRA:          -8.388
REMARK INTER:                  -8.055
REMARK INTRA:                  -0.333
REMARK UNBOUND:                 0.147
REMARK SMILES O=c1c(O)c(-c2ccc(O)c(O)c2)oc2cc(O)cc(O)c12
REMARK SMILES IDX 5 1 3 2 2 3 1 4 22 5 20 6 19 7 17 8 16 9 15 10 14 11 6 12
REMARK SMILES IDX 7 13 8 14 9 15 13 16 11 17 10 18 12 20 4 22 21 24 18 26
REMARK H PARENT 10 19 12 21 4 23 21 25 18 27
REMARK Flexibility Score: inf
ROOT
ATOM      1  C   UNL     1      -1.431  12.180  -6.806  1.00  0.00     0.180 A 
ATOM      2  C   UNL     1      -1.923  12.509  -8.081  1.00  0.00     0.208 A 
ATOM      3  C   UNL     1      -3.082  11.870  -8.550  1.00  0.00     0.238 A 
ATOM      4  O   UNL     1      -3.487  12.129  -9.712  1.00  0.00    -0.285 OA
ATOM      5  C   UNL     1      -3.744  10.924  -7.731  1.00  0.00     0.111 A 
ATOM      6  C   UNL     1      -4.949  10.245  -8.087  1.00  0.00     0.134 A 
ATOM      7  C   UNL     1      -5.443   9.233  -7.256  1.00  0.00     0.093 A 
ATOM      8  C   UNL     1      -4.812   8.920  -6.049  1.00  0.00     0.123 A 
ATOM      9  C   UNL     1      -3.671   9.618  -5.664  1.00  0.00     0.094 A 
ATOM     10  C   UNL     1      -3.132  10.608  -6.490  1.00  0.00     0.146 A 
ATOM     11  O   UNL     1      -2.036  11.241  -6.090  1.00  0.00    -0.452 OA
ENDROOT
BRANCH   1  12
ATOM     12  C   UNL     1      -0.229  12.830  -6.234  1.00  0.00     0.025 A 
ATOM     13  C   UNL     1      -0.319  14.036  -5.519  1.00  0.00     0.016 A 
ATOM     14  C   UNL     1       0.825  14.618  -4.968  1.00  0.00     0.051 A 
ATOM     15  C   UNL     1       2.074  13.997  -5.111  1.00  0.00     0.157 A 
ATOM     16  C   UNL     1       1.021  12.200  -6.357  1.00  0.00     0.062 A 
ATOM     17  C   UNL     1       2.170  12.780  -5.807  1.00  0.00     0.158 A 
BRANCH  15  18
ATOM     18  O   UNL     1       3.214  14.581  -4.561  1.00  0.00    -0.504 OA
ATOM     19  H   UNL     1       3.254  15.571  -4.350  1.00  0.00     0.293 HD
ENDBRANCH  15  18
BRANCH  17  20
ATOM     20  O   UNL     1       3.396  12.134  -5.961  1.00  0.00    -0.504 OA
ATOM     21  H   UNL     1       3.778  11.915  -6.873  1.00  0.00     0.293 HD
ENDBRANCH  17  20
ENDBRANCH   1  12
BRANCH   2  22
ATOM     22  O   UNL     1      -1.242  13.431  -8.882  1.00  0.00    -0.502 OA
ATOM     23  H   UNL     1      -1.629  13.793  -9.744  1.00  0.00     0.293 HD
ENDBRANCH   2  22
BRANCH   6  24
ATOM     24  O   UNL     1      -5.705  10.545  -9.224  1.00  0.00    -0.507 OA
ATOM     25  H   UNL     1      -5.416  10.360 -10.173  1.00  0.00     0.293 HD
ENDBRANCH   6  24
BRANCH   8  26
ATOM     26  O   UNL     1      -5.321   7.923  -5.219  1.00  0.00    -0.508 OA
ATOM     27  H   UNL     1      -4.827   7.625  -4.385  1.00  0.00     0.293 HD
ENDBRANCH   8  26
TORSDOF 6
ENDMDL
MODEL 7
REMARK VINA RESULT:    -6.921      2.280      2.688
REMARK INTER + INTRA:          -8.190
REMARK INTER:                  -7.875
REMARK INTRA:                  -0.315
REMARK UNBOUND:                 0.147
REMARK SMILES O=c1c(O)c(-c2ccc(O)c(O)c2)oc2cc(O)cc(O)c12
REMARK SMILES IDX 5 1 3 2 2 3 1 4 22 5 20 6 19 7 17 8 16 9 15 10 14 11 6 12
REMARK SMILES IDX 7 13 8 14 9 15 13 16 11 17 10 18 12 20 4 22 21 24 18 26
REMARK H PARENT 10 19 12 21 4 23 21 25 18 27
REMARK Flexibility Score: inf
ROOT
ATOM      1  C   UNL     1      -1.754  11.570  -7.450  1.00  0.00     0.180 A 
ATOM      2  C   UNL     1      -2.335  12.462  -8.368  1.00  0.00     0.208 A 
ATOM      3  C   UNL     1      -3.704  12.345  -8.659  1.00  0.00     0.238 A 
ATOM      4  O   UNL     1      -4.206  13.111  -9.521  1.00  0.00    -0.285 OA
ATOM      5  C   UNL     1      -4.478  11.350  -8.014  1.00  0.00     0.111 A 
ATOM      6  C   UNL     1      -5.881  11.167  -8.201  1.00  0.00     0.134 A 
ATOM      7  C   UNL     1      -6.518  10.068  -7.613  1.00  0.00     0.093 A 
ATOM      8  C   UNL     1      -5.816   9.183  -6.791  1.00  0.00     0.123 A 
ATOM      9  C   UNL     1      -4.460   9.388  -6.554  1.00  0.00     0.094 A 
ATOM     10  C   UNL     1      -3.788  10.454  -7.157  1.00  0.00     0.146 A 
ATOM     11  O   UNL     1      -2.492  10.607  -6.912  1.00  0.00    -0.452 OA
ENDROOT
BRANCH   1  12
ATOM     12  C   UNL     1      -0.323  11.647  -7.075  1.00  0.00     0.025 A 
ATOM     13  C   UNL     1       0.671  11.027  -7.851  1.00  0.00     0.016 A 
ATOM     14  C   UNL     1       2.017  11.134  -7.491  1.00  0.00     0.051 A 
ATOM     15  C   UNL     1       2.391  11.871  -6.359  1.00  0.00     0.157 A 
ATOM     16  C   UNL     1       0.057  12.403  -5.953  1.00  0.00     0.062 A 
ATOM     17  C   UNL     1       1.405  12.512  -5.589  1.00  0.00     0.158 A 
BRANCH  15  18
ATOM     18  O   UNL     1       3.733  11.974  -6.001  1.00  0.00    -0.504 OA
ATOM     19  H   UNL     1       4.393  12.502  -6.562  1.00  0.00     0.293 HD
ENDBRANCH  15  18
BRANCH  17  20
ATOM     20  O   UNL     1       1.744  13.258  -4.462  1.00  0.00    -0.504 OA
ATOM     21  H   UNL     1       2.502  12.991  -3.846  1.00  0.00     0.293 HD
ENDBRANCH  17  20
ENDBRANCH   1  12
BRANCH   2  22
ATOM     22  O   UNL     1      -1.549  13.423  -9.010  1.00  0.00    -0.502 OA
ATOM     23  H   UNL     1      -1.880  14.360  -9.198  1.00  0.00     0.293 HD
ENDBRANCH   2  22
BRANCH   6  24
ATOM     24  O   UNL     1      -6.692  12.044  -8.928  1.00  0.00    -0.507 OA
ATOM     25  H   UNL     1      -6.787  13.030  -8.738  1.00  0.00     0.293 HD
ENDBRANCH   6  24
BRANCH   8  26
ATOM     26  O   UNL     1      -6.462   8.102  -6.196  1.00  0.00    -0.508 OA
ATOM     27  H   UNL     1      -7.380   7.798  -6.503  1.00  0.00     0.293 HD
ENDBRANCH   8  26
TORSDOF 6
ENDMDL
MODEL 8
REMARK VINA RESULT:    -6.318      2.117      2.751
REMARK INTER + INTRA:          -7.464
REMARK INTER:                  -7.287
REMARK INTRA:                  -0.177
REMARK UNBOUND:                 0.147
REMARK SMILES O=c1c(O)c(-c2ccc(O)c(O)c2)oc2cc(O)cc(O)c12
REMARK SMILES IDX 5 1 3 2 2 3 1 4 22 5 20 6 19 7 17 8 16 9 15 10 14 11 6 12
REMARK SMILES IDX 7 13 8 14 9 15 13 16 11 17 10 18 12 20 4 22 21 24 18 26
REMARK H PARENT 10 19 12 21 4 23 21 25 18 27
REMARK Flexibility Score: inf
ROOT
ATOM      1  C   UNL     1      -2.194  10.528  -7.634  1.00  0.00     0.180 A 
ATOM      2  C   UNL     1      -2.857  10.001  -6.513  1.00  0.00     0.208 A 
ATOM      3  C   UNL     1      -4.235   9.740  -6.596  1.00  0.00     0.238 A 
ATOM      4  O   UNL     1      -4.833   9.318  -5.572  1.00  0.00    -0.285 OA
ATOM      5  C   UNL     1      -4.927   9.993  -7.804  1.00  0.00     0.111 A 
ATOM      6  C   UNL     1      -6.315   9.729  -8.014  1.00  0.00     0.134 A 
ATOM      7  C   UNL     1      -6.923  10.141  -9.205  1.00  0.00     0.093 A 
ATOM      8  C   UNL     1      -6.181  10.750 -10.221  1.00  0.00     0.123 A 
ATOM      9  C   UNL     1      -4.815  10.958 -10.049  1.00  0.00     0.094 A 
ATOM     10  C   UNL     1      -4.186  10.591  -8.856  1.00  0.00     0.146 A 
ATOM     11  O   UNL     1      -2.884  10.817  -8.730  1.00  0.00    -0.452 OA
ENDROOT
BRANCH   1  12
ATOM     12  C   UNL     1      -0.739  10.806  -7.630  1.00  0.00     0.025 A 
ATOM     13  C   UNL     1      -0.186  11.802  -6.807  1.00  0.00     0.016 A 
ATOM     14  C   UNL     1       1.192  12.029  -6.802  1.00  0.00     0.051 A 
ATOM     15  C   UNL     1       2.040  11.258  -7.608  1.00  0.00     0.157 A 
ATOM     16  C   UNL     1       0.116  10.020  -8.420  1.00  0.00     0.062 A 
ATOM     17  C   UNL     1       1.498  10.246  -8.419  1.00  0.00     0.158 A 
BRANCH  15  18
ATOM     18  O   UNL     1       3.414  11.488  -7.602  1.00  0.00    -0.504 OA
ATOM     19  H   UNL     1       4.079  10.733  -7.722  1.00  0.00     0.293 HD
ENDBRANCH  15  18
BRANCH  17  20
ATOM     20  O   UNL     1       2.314   9.456  -9.227  1.00  0.00    -0.504 OA
ATOM     21  H   UNL     1       3.228   9.764  -9.534  1.00  0.00     0.293 HD
ENDBRANCH  17  20
ENDBRANCH   1  12
BRANCH   2  22
ATOM     22  O   UNL     1      -2.159   9.778  -5.322  1.00  0.00    -0.502 OA
ATOM     23  H   UNL     1      -2.442  10.186  -4.440  1.00  0.00     0.293 HD
ENDBRANCH   2  22
BRANCH   6  24
ATOM     24  O   UNL     1      -7.125   9.046  -7.103  1.00  0.00    -0.507 OA
ATOM     25  H   UNL     1      -6.825   8.265  -6.539  1.00  0.00     0.293 HD
ENDBRANCH   6  24
BRANCH   8  26
ATOM     26  O   UNL     1      -6.791  11.142 -11.410  1.00  0.00    -0.508 OA
ATOM     27  H   UNL     1      -6.412  10.879 -12.313  1.00  0.00     0.293 HD
ENDBRANCH   8  26
TORSDOF 6
ENDMDL
MODEL 9
REMARK VINA RESULT:    -6.259      2.779      4.022
REMARK INTER + INTRA:          -7.392
REMARK INTER:                  -7.445
REMARK INTRA:                   0.053
REMARK UNBOUND:                 0.147
REMARK SMILES O=c1c(O)c(-c2ccc(O)c(O)c2)oc2cc(O)cc(O)c12
REMARK SMILES IDX 5 1 3 2 2 3 1 4 22 5 20 6 19 7 17 8 16 9 15 10 14 11 6 12
REMARK SMILES IDX 7 13 8 14 9 15 13 16 11 17 10 18 12 20 4 22 21 24 18 26
REMARK H PARENT 10 19 12 21 4 23 21 25 18 27
REMARK Flexibility Score: inf
ROOT
ATOM      1  C   UNL     1      -1.589  11.578  -6.856  1.00  0.00     0.180 A 
ATOM      2  C   UNL     1      -2.019  11.476  -5.522  1.00  0.00     0.208 A 
ATOM      3  C   UNL     1      -3.355  11.780  -5.211  1.00  0.00     0.238 A 
ATOM      4  O   UNL     1      -3.720  11.738  -4.008  1.00  0.00    -0.285 OA
ATOM      5  C   UNL     1      -4.247  12.163  -6.241  1.00  0.00     0.111 A 
ATOM      6  C   UNL     1      -5.632  12.454  -6.047  1.00  0.00     0.134 A 
ATOM      7  C   UNL     1      -6.388  12.951  -7.115  1.00  0.00     0.093 A 
ATOM      8  C   UNL     1      -5.827  13.106  -8.385  1.00  0.00     0.123 A 
ATOM      9  C   UNL     1      -4.494  12.768  -8.598  1.00  0.00     0.094 A 
ATOM     10  C   UNL     1      -3.702  12.305  -7.544  1.00  0.00     0.146 A 
ATOM     11  O   UNL     1      -2.433  12.004  -7.788  1.00  0.00    -0.452 OA
ENDROOT
BRANCH   1  12
ATOM     12  C   UNL     1      -0.204  11.251  -7.264  1.00  0.00     0.025 A 
ATOM     13  C   UNL     1       0.058  10.425  -8.371  1.00  0.00     0.016 A 
ATOM     14  C   UNL     1       1.374  10.150  -8.752  1.00  0.00     0.051 A 
ATOM     15  C   UNL     1       2.447  10.706  -8.042  1.00  0.00     0.157 A 
ATOM     16  C   UNL     1       0.875  11.822  -6.568  1.00  0.00     0.062 A 
ATOM     17  C   UNL     1       2.195  11.549  -6.946  1.00  0.00     0.158 A 
BRANCH  15  18
ATOM     18  O   UNL     1       3.758  10.428  -8.423  1.00  0.00    -0.504 OA
ATOM     19  H   UNL     1       4.166   9.510  -8.292  1.00  0.00     0.293 HD
ENDBRANCH  15  18
BRANCH  17  20
ATOM     20  O   UNL     1       3.239  12.122  -6.224  1.00  0.00    -0.504 OA
ATOM     21  H   UNL     1       3.802  11.588  -5.573  1.00  0.00     0.293 HD
ENDBRANCH  17  20
ENDBRANCH   1  12
BRANCH   2  22
ATOM     22  O   UNL     1      -1.117  11.116  -4.517  1.00  0.00    -0.502 OA
ATOM     23  H   UNL     1      -1.082  11.586  -3.621  1.00  0.00     0.293 HD
ENDBRANCH   2  22
BRANCH   6  24
ATOM     24  O   UNL     1      -6.310  12.248  -4.843  1.00  0.00    -0.507 OA
ATOM     25  H   UNL     1      -6.180  12.798  -4.007  1.00  0.00     0.293 HD
ENDBRANCH   6  24
BRANCH   8  26
ATOM     26  O   UNL     1      -6.592  13.586  -9.446  1.00  0.00    -0.508 OA
ATOM     27  H   UNL     1      -7.200  14.390  -9.340  1.00  0.00     0.293 HD
ENDBRANCH   8  26
TORSDOF 6
ENDMDL
