MODEL 1
REMARK VINA RESULT:    -3.654      0.000      0.000
REMARK INTER + INTRA:          -5.303
REMARK INTER:                  -5.150
REMARK INTRA:                  -0.153
REMARK UNBOUND:                -0.153
REMARK SMILES CC1=CCC(=C(C)C)C(=O)CC(C)=CCC1
REMARK SMILES IDX 12 1 14 2 13 3 15 4 16 5 2 6 1 7 3 8 11 10 9 11 10 12 5 13
REMARK SMILES IDX 6 14 7 15 8 16 4 17
REMARK H PARENT
REMARK Flexibility Score: 60.00
ROOT
ATOM      1  C   UNL     1      21.893 -12.529  46.330  1.00  0.00    -0.070 C 
ATOM      2  C   UNL     1      20.886 -12.331  45.448  1.00  0.00    -0.027 C 
ATOM      3  C   UNL     1      22.637 -11.322  46.841  1.00  0.00     0.039 C 
ENDROOT
BRANCH   2   4
ATOM      4  C   UNL     1      19.948 -13.401  44.952  1.00  0.00     0.032 C 
BRANCH   4   5
ATOM      5  C   UNL     1      20.469 -13.976  43.629  1.00  0.00     0.034 C 
BRANCH   5   6
ATOM      6  C   UNL     1      20.373 -15.488  43.576  1.00  0.00    -0.077 C 
ATOM      7  C   UNL     1      19.017 -16.119  43.378  1.00  0.00     0.039 C 
ATOM      8  C   UNL     1      21.432 -16.315  43.768  1.00  0.00    -0.023 CG0
ATOM      9  G   UNL     1      22.890 -15.924  43.927  1.00  0.00     0.000 G0
ENDBRANCH   5   6
ENDBRANCH   4   5
ENDBRANCH   2   4
BRANCH   1  10
ATOM     10  C   UNL     1      22.322 -13.901  46.810  1.00  0.00     0.111 C 
BRANCH  10  11
ATOM     11  C   UNL     1      23.458 -14.456  45.984  1.00  0.00     0.163 C 
ATOM     12  O   UNL     1      24.462 -13.712  45.814  1.00  0.00    -0.294 OA
BRANCH  11  13
ATOM     13  C   UNL     1      23.442 -15.816  45.349  1.00  0.00    -0.002 C 
ATOM     14  C   UNL     1      24.042 -16.880  45.966  1.00  0.00    -0.069 C 
ATOM     15  C   UNL     1      24.487 -16.807  47.410  1.00  0.00     0.039 C 
ATOM     16  C   UNL     1      24.251 -18.202  45.263  1.00  0.00     0.039 C 
BRANCH  13  17
ATOM     17  C   UNL     1      22.902 -15.931  43.927  1.00  0.00     0.066 CG0
ATOM     18  G   UNL     1      21.436 -16.303  43.788  1.00  0.00     0.000 G0
ENDBRANCH  13  17
ENDBRANCH  11  13
ENDBRANCH  10  11
ENDBRANCH   1  10
TORSDOF 0
ENDMDL
MODEL 2
REMARK VINA RESULT:    -3.469     16.511     18.575
REMARK INTER + INTRA:          -5.042
REMARK INTER:                  -4.870
REMARK INTRA:                  -0.172
REMARK UNBOUND:                -0.153
REMARK SMILES CC1=CCC(=C(C)C)C(=O)CC(C)=CCC1
REMARK SMILES IDX 12 1 14 2 13 3 15 4 16 5 2 6 1 7 3 8 11 10 9 11 10 12 5 13
REMARK SMILES IDX 6 14 7 15 8 16 4 17
REMARK H PARENT
REMARK Flexibility Score: 60.00
ROOT
ATOM      1  C   UNL     1       7.156  -3.084  37.175  1.00  0.00    -0.070 C 
ATOM      2  C   UNL     1       7.404  -3.171  35.847  1.00  0.00    -0.027 C 
ATOM      3  C   UNL     1       6.184  -2.033  37.648  1.00  0.00     0.039 C 
ENDROOT
BRANCH   2   4
ATOM      4  C   UNL     1       8.227  -4.249  35.190  1.00  0.00     0.032 C 
BRANCH   4   5
ATOM      5  C   UNL     1       9.590  -3.682  34.774  1.00  0.00     0.034 C 
BRANCH   5   6
ATOM      6  C   UNL     1      10.732  -4.626  35.089  1.00  0.00    -0.077 C 
ATOM      7  C   UNL     1      11.086  -5.694  34.084  1.00  0.00     0.039 C 
ATOM      8  C   UNL     1      11.415  -4.613  36.262  1.00  0.00    -0.023 CG0
ATOM      9  G   UNL     1      11.285  -3.609  37.394  1.00  0.00     0.000 G0
ENDBRANCH   5   6
ENDBRANCH   4   5
ENDBRANCH   2   4
BRANCH   1  10
ATOM     10  C   UNL     1       7.822  -3.973  38.206  1.00  0.00     0.111 C 
BRANCH  10  11
ATOM     11  C   UNL     1       9.095  -3.360  38.739  1.00  0.00     0.163 C 
ATOM     12  O   UNL     1       8.999  -2.238  39.308  1.00  0.00    -0.294 OA
BRANCH  11  13
ATOM     13  C   UNL     1      10.448  -3.998  38.608  1.00  0.00    -0.002 C 
ATOM     14  C   UNL     1      10.951  -4.775  39.615  1.00  0.00    -0.069 C 
ATOM     15  C   UNL     1      10.079  -5.255  40.753  1.00  0.00     0.039 C 
ATOM     16  C   UNL     1      12.390  -5.242  39.625  1.00  0.00     0.039 C 
BRANCH  13  17
ATOM     17  C   UNL     1      11.306  -3.605  37.409  1.00  0.00     0.066 CG0
ATOM     18  G   UNL     1      11.397  -4.618  36.282  1.00  0.00     0.000 G0
ENDBRANCH  13  17
ENDBRANCH  11  13
ENDBRANCH  10  11
ENDBRANCH   1  10
TORSDOF 0
ENDMDL
MODEL 3
REMARK VINA RESULT:    -3.468      2.042      4.093
REMARK INTER + INTRA:          -5.040
REMARK INTER:                  -5.041
REMARK INTRA:                   0.001
REMARK UNBOUND:                -0.153
REMARK SMILES CC1=CCC(=C(C)C)C(=O)CC(C)=CCC1
REMARK SMILES IDX 12 1 14 2 13 3 15 4 16 5 2 6 1 7 3 8 11 10 9 11 10 12 5 13
REMARK SMILES IDX 6 14 7 15 8 16 4 17
REMARK H PARENT
REMARK Flexibility Score: 60.00
ROOT
ATOM      1  C   UNL     1      20.529 -12.207  43.936  1.00  0.00    -0.070 C 
ATOM      2  C   UNL     1      20.785 -11.226  44.834  1.00  0.00    -0.027 C 
ATOM      3  C   UNL     1      19.130 -12.318  43.385  1.00  0.00     0.039 C 
ENDROOT
BRANCH   2   4
ATOM      4  C   UNL     1      22.150 -10.880  45.371  1.00  0.00     0.032 C 
BRANCH   4   5
ATOM      5  C   UNL     1      22.250 -11.295  46.843  1.00  0.00     0.034 C 
BRANCH   5   6
ATOM      6  C   UNL     1      23.483 -12.129  47.129  1.00  0.00    -0.077 C 
ATOM      7  C   UNL     1      24.750 -11.425  47.546  1.00  0.00     0.039 C 
ATOM      8  C   UNL     1      23.534 -13.475  46.960  1.00  0.00    -0.023 CG0
ATOM      9  G   UNL     1      22.387 -14.404  46.607  1.00  0.00     0.000 G0
ENDBRANCH   5   6
ENDBRANCH   4   5
ENDBRANCH   2   4
BRANCH   1  10
ATOM     10  C   UNL     1      21.571 -13.207  43.477  1.00  0.00     0.111 C 
BRANCH  10  11
ATOM     11  C   UNL     1      21.433 -14.531  44.191  1.00  0.00     0.163 C 
ATOM     12  O   UNL     1      20.417 -15.226  43.921  1.00  0.00    -0.294 OA
BRANCH  11  13
ATOM     13  C   UNL     1      22.417 -15.038  45.205  1.00  0.00    -0.002 C 
ATOM     14  C   UNL     1      23.196 -16.130  44.933  1.00  0.00    -0.069 C 
ATOM     15  C   UNL     1      23.311 -16.688  43.532  1.00  0.00     0.039 C 
ATOM     16  C   UNL     1      24.024 -16.810  45.999  1.00  0.00     0.039 C 
BRANCH  13  17
ATOM     17  C   UNL     1      22.388 -14.417  46.598  1.00  0.00     0.066 CG0
ATOM     18  G   UNL     1      23.530 -13.479  46.944  1.00  0.00     0.000 G0
ENDBRANCH  13  17
ENDBRANCH  11  13
ENDBRANCH  10  11
ENDBRANCH   1  10
TORSDOF 0
ENDMDL
MODEL 4
REMARK VINA RESULT:    -3.390     16.313     18.645
REMARK INTER + INTRA:          -4.930
REMARK INTER:                  -5.021
REMARK INTRA:                   0.091
REMARK UNBOUND:                -0.153
REMARK SMILES CC1=CCC(=C(C)C)C(=O)CC(C)=CCC1
REMARK SMILES IDX 12 1 14 2 13 3 15 4 16 5 2 6 1 7 3 8 11 10 9 11 10 12 5 13
REMARK SMILES IDX 6 14 7 15 8 16 4 17
REMARK H PARENT
REMARK Flexibility Score: 60.00
ROOT
ATOM      1  C   UNL     1       8.912  -1.032  40.229  1.00  0.00    -0.070 C 
ATOM      2  C   UNL     1       8.113  -1.941  39.624  1.00  0.00    -0.027 C 
ATOM      3  C   UNL     1       8.306   0.289  40.630  1.00  0.00     0.039 C 
ENDROOT
BRANCH   2   4
ATOM      4  C   UNL     1       8.511  -3.357  39.292  1.00  0.00     0.032 C 
BRANCH   4   5
ATOM      5  C   UNL     1       7.942  -4.317  40.343  1.00  0.00     0.034 C 
BRANCH   5   6
ATOM      6  C   UNL     1       9.001  -4.817  41.306  1.00  0.00    -0.077 C 
ATOM      7  C   UNL     1       9.754  -6.077  40.960  1.00  0.00     0.039 C 
ATOM      8  C   UNL     1       9.264  -4.233  42.502  1.00  0.00    -0.023 CG0
ATOM      9  G   UNL     1       8.685  -2.937  43.043  1.00  0.00     0.000 G0
ENDBRANCH   5   6
ENDBRANCH   4   5
ENDBRANCH   2   4
BRANCH   1  10
ATOM     10  C   UNL     1      10.384  -1.268  40.503  1.00  0.00     0.111 C 
BRANCH  10  11
ATOM     11  C   UNL     1      10.635  -1.645  41.943  1.00  0.00     0.163 C 
ATOM     12  O   UNL     1      11.815  -1.960  42.258  1.00  0.00    -0.294 OA
BRANCH  11  13
ATOM     13  C   UNL     1       9.563  -1.686  42.994  1.00  0.00    -0.002 C 
ATOM     14  C   UNL     1       9.492  -0.713  43.953  1.00  0.00    -0.069 C 
ATOM     15  C   UNL     1      10.285   0.570  43.837  1.00  0.00     0.039 C 
ATOM     16  C   UNL     1       8.585  -0.837  45.157  1.00  0.00     0.039 C 
BRANCH  13  17
ATOM     17  C   UNL     1       8.683  -2.930  43.065  1.00  0.00     0.066 CG0
ATOM     18  G   UNL     1       9.279  -4.212  42.513  1.00  0.00     0.000 G0
ENDBRANCH  13  17
ENDBRANCH  11  13
ENDBRANCH  10  11
ENDBRANCH   1  10
TORSDOF 0
ENDMDL
MODEL 5
REMARK VINA RESULT:    -3.286     16.241     17.563
REMARK INTER + INTRA:          -4.784
REMARK INTER:                  -4.665
REMARK INTRA:                  -0.120
REMARK UNBOUND:                -0.153
REMARK SMILES CC1=CCC(=C(C)C)C(=O)CC(C)=CCC1
REMARK SMILES IDX 12 1 14 2 13 3 15 4 16 5 2 6 1 7 3 8 11 10 9 11 10 12 5 13
REMARK SMILES IDX 6 14 7 15 8 16 4 17
REMARK H PARENT
REMARK Flexibility Score: 60.00
ROOT
ATOM      1  C   UNL     1       8.226  -4.763  41.398  1.00  0.00    -0.070 C 
ATOM      2  C   UNL     1       8.143  -3.856  42.399  1.00  0.00    -0.027 C 
ATOM      3  C   UNL     1       7.628  -6.128  41.626  1.00  0.00     0.039 C 
ENDROOT
BRANCH   2   4
ATOM      4  C   UNL     1       8.553  -2.409  42.290  1.00  0.00     0.032 C 
BRANCH   4   5
ATOM      5  C   UNL     1       9.871  -2.184  43.041  1.00  0.00     0.034 C 
BRANCH   5   6
ATOM      6  C   UNL     1      10.822  -1.278  42.284  1.00  0.00    -0.077 C 
ATOM      7  C   UNL     1      10.677   0.215  42.443  1.00  0.00     0.039 C 
ATOM      8  C   UNL     1      11.756  -1.733  41.411  1.00  0.00    -0.023 CG0
ATOM      9  G   UNL     1      12.128  -3.177  41.127  1.00  0.00     0.000 G0
ENDBRANCH   5   6
ENDBRANCH   4   5
ENDBRANCH   2   4
BRANCH   1  10
ATOM     10  C   UNL     1       8.907  -4.482  40.073  1.00  0.00     0.111 C 
BRANCH  10  11
ATOM     11  C   UNL     1      10.376  -4.830  40.111  1.00  0.00     0.163 C 
ATOM     12  O   UNL     1      10.676  -6.029  40.359  1.00  0.00    -0.294 OA
BRANCH  11  13
ATOM     13  C   UNL     1      11.476  -3.832  39.893  1.00  0.00    -0.002 C 
ATOM     14  C   UNL     1      11.993  -3.627  38.643  1.00  0.00    -0.069 C 
ATOM     15  C   UNL     1      11.307  -4.167  37.407  1.00  0.00     0.039 C 
ATOM     16  C   UNL     1      13.246  -2.813  38.416  1.00  0.00     0.039 C 
BRANCH  13  17
ATOM     17  C   UNL     1      12.115  -3.197  41.124  1.00  0.00     0.066 CG0
ATOM     18  G   UNL     1      11.748  -1.752  41.407  1.00  0.00     0.000 G0
ENDBRANCH  13  17
ENDBRANCH  11  13
ENDBRANCH  10  11
ENDBRANCH   1  10
TORSDOF 0
ENDMDL
MODEL 6
REMARK VINA RESULT:    -3.271      1.999      4.296
REMARK INTER + INTRA:          -4.763
REMARK INTER:                  -4.614
REMARK INTRA:                  -0.149
REMARK UNBOUND:                -0.153
REMARK SMILES CC1=CCC(=C(C)C)C(=O)CC(C)=CCC1
REMARK SMILES IDX 12 1 14 2 13 3 15 4 16 5 2 6 1 7 3 8 11 10 9 11 10 12 5 13
REMARK SMILES IDX 6 14 7 15 8 16 4 17
REMARK H PARENT
REMARK Flexibility Score: 60.00
ROOT
ATOM      1  C   UNL     1      24.751 -12.113  46.579  1.00  0.00    -0.070 C 
ATOM      2  C   UNL     1      25.061 -13.292  47.167  1.00  0.00    -0.027 C 
ATOM      3  C   UNL     1      24.972 -10.847  47.366  1.00  0.00     0.039 C 
ENDROOT
BRANCH   2   4
ATOM      4  C   UNL     1      25.043 -14.632  46.479  1.00  0.00     0.032 C 
BRANCH   4   5
ATOM      5  C   UNL     1      23.704 -15.332  46.738  1.00  0.00     0.034 C 
BRANCH   5   6
ATOM      6  C   UNL     1      23.129 -15.967  45.488  1.00  0.00    -0.077 C 
ATOM      7  C   UNL     1      23.728 -17.260  44.993  1.00  0.00     0.039 C 
ATOM      8  C   UNL     1      22.147 -15.399  44.741  1.00  0.00    -0.023 CG0
ATOM      9  G   UNL     1      21.355 -14.144  45.060  1.00  0.00     0.000 G0
ENDBRANCH   5   6
ENDBRANCH   4   5
ENDBRANCH   2   4
BRANCH   1  10
ATOM     10  C   UNL     1      24.175 -12.006  45.181  1.00  0.00     0.111 C 
BRANCH  10  11
ATOM     11  C   UNL     1      22.666 -11.939  45.198  1.00  0.00     0.163 C 
ATOM     12  O   UNL     1      22.138 -11.072  45.947  1.00  0.00    -0.294 OA
BRANCH  11  13
ATOM     13  C   UNL     1      21.781 -12.850  44.399  1.00  0.00    -0.002 C 
ATOM     14  C   UNL     1      21.266 -12.444  43.198  1.00  0.00    -0.069 C 
ATOM     15  C   UNL     1      21.779 -11.206  42.498  1.00  0.00     0.039 C 
ATOM     16  C   UNL     1      20.193 -13.229  42.478  1.00  0.00     0.039 C 
BRANCH  13  17
ATOM     17  C   UNL     1      21.332 -14.155  45.049  1.00  0.00     0.066 CG0
ATOM     18  G   UNL     1      22.161 -15.388  44.733  1.00  0.00     0.000 G0
ENDBRANCH  13  17
ENDBRANCH  11  13
ENDBRANCH  10  11
ENDBRANCH   1  10
TORSDOF 0
ENDMDL
MODEL 7
REMARK VINA RESULT:    -3.092      1.798      4.084
REMARK INTER + INTRA:          -4.510
REMARK INTER:                  -4.555
REMARK INTRA:                   0.045
REMARK UNBOUND:                -0.153
REMARK SMILES CC1=CCC(=C(C)C)C(=O)CC(C)=CCC1
REMARK SMILES IDX 12 1 14 2 13 3 15 4 16 5 2 6 1 7 3 8 11 10 9 11 10 12 5 13
REMARK SMILES IDX 6 14 7 15 8 16 4 17
REMARK H PARENT
REMARK Flexibility Score: 60.00
ROOT
ATOM      1  C   UNL     1      22.740 -13.611  46.630  1.00  0.00    -0.070 C 
ATOM      2  C   UNL     1      23.885 -14.323  46.740  1.00  0.00    -0.027 C 
ATOM      3  C   UNL     1      22.833 -12.107  46.662  1.00  0.00     0.039 C 
ENDROOT
BRANCH   2   4
ATOM      4  C   UNL     1      23.993 -15.818  46.580  1.00  0.00     0.032 C 
BRANCH   4   5
ATOM      5  C   UNL     1      24.644 -16.151  45.232  1.00  0.00     0.034 C 
BRANCH   5   6
ATOM      6  C   UNL     1      23.654 -16.719  44.235  1.00  0.00    -0.077 C 
ATOM      7  C   UNL     1      23.499 -18.217  44.144  1.00  0.00     0.039 C 
ATOM      8  C   UNL     1      22.946 -15.957  43.363  1.00  0.00    -0.023 CG0
ATOM      9  G   UNL     1      22.888 -14.441  43.300  1.00  0.00     0.000 G0
ENDBRANCH   5   6
ENDBRANCH   4   5
ENDBRANCH   2   4
BRANCH   1  10
ATOM     10  C   UNL     1      21.372 -14.250  46.497  1.00  0.00     0.111 C 
BRANCH  10  11
ATOM     11  C   UNL     1      20.985 -14.456  45.052  1.00  0.00     0.163 C 
ATOM     12  O   UNL     1      20.056 -15.276  44.817  1.00  0.00    -0.294 OA
BRANCH  11  13
ATOM     13  C   UNL     1      21.654 -13.762  43.901  1.00  0.00    -0.002 C 
ATOM     14  C   UNL     1      21.089 -12.652  43.334  1.00  0.00    -0.069 C 
ATOM     15  C   UNL     1      19.946 -11.920  44.001  1.00  0.00     0.039 C 
ATOM     16  C   UNL     1      21.601 -12.064  42.039  1.00  0.00     0.039 C 
BRANCH  13  17
ATOM     17  C   UNL     1      22.873 -14.433  43.277  1.00  0.00     0.066 CG0
ATOM     18  G   UNL     1      22.935 -15.947  43.375  1.00  0.00     0.000 G0
ENDBRANCH  13  17
ENDBRANCH  11  13
ENDBRANCH  10  11
ENDBRANCH   1  10
TORSDOF 0
ENDMDL
MODEL 8
REMARK VINA RESULT:    -3.074      2.849      5.614
REMARK INTER + INTRA:          -4.486
REMARK INTER:                  -4.588
REMARK INTRA:                   0.102
REMARK UNBOUND:                -0.153
REMARK SMILES CC1=CCC(=C(C)C)C(=O)CC(C)=CCC1
REMARK SMILES IDX 12 1 14 2 13 3 15 4 16 5 2 6 1 7 3 8 11 10 9 11 10 12 5 13
REMARK SMILES IDX 6 14 7 15 8 16 4 17
REMARK H PARENT
REMARK Flexibility Score: 60.00
ROOT
ATOM      1  C   UNL     1      21.286 -14.462  45.159  1.00  0.00    -0.070 C 
ATOM      2  C   UNL     1      21.631 -14.186  46.438  1.00  0.00    -0.027 C 
ATOM      3  C   UNL     1      19.873 -14.909  44.885  1.00  0.00     0.039 C 
ENDROOT
BRANCH   2   4
ATOM      4  C   UNL     1      22.946 -13.590  46.870  1.00  0.00     0.032 C 
BRANCH   4   5
ATOM      5  C   UNL     1      22.747 -12.122  47.266  1.00  0.00     0.034 C 
BRANCH   5   6
ATOM      6  C   UNL     1      23.313 -11.163  46.238  1.00  0.00    -0.077 C 
ATOM      7  C   UNL     1      24.718 -10.647  46.426  1.00  0.00     0.039 C 
ATOM      8  C   UNL     1      22.599 -10.681  45.188  1.00  0.00    -0.023 CG0
ATOM      9  G   UNL     1      21.201 -11.089  44.758  1.00  0.00     0.000 G0
ENDBRANCH   5   6
ENDBRANCH   4   5
ENDBRANCH   2   4
BRANCH   1  10
ATOM     10  C   UNL     1      22.254 -14.363  43.996  1.00  0.00     0.111 C 
BRANCH  10  11
ATOM     11  C   UNL     1      22.203 -13.006  43.335  1.00  0.00     0.163 C 
ATOM     12  O   UNL     1      23.164 -12.699  42.580  1.00  0.00    -0.294 OA
BRANCH  11  13
ATOM     13  C   UNL     1      21.095 -12.016  43.548  1.00  0.00    -0.002 C 
ATOM     14  C   UNL     1      20.117 -11.853  42.605  1.00  0.00    -0.069 C 
ATOM     15  C   UNL     1      19.944 -12.836  41.468  1.00  0.00     0.039 C 
ATOM     16  C   UNL     1      19.123 -10.715  42.668  1.00  0.00     0.039 C 
BRANCH  13  17
ATOM     17  C   UNL     1      21.197 -11.080  44.748  1.00  0.00     0.066 CG0
ATOM     18  G   UNL     1      22.599 -10.707  45.197  1.00  0.00     0.000 G0
ENDBRANCH  13  17
ENDBRANCH  11  13
ENDBRANCH  10  11
ENDBRANCH   1  10
TORSDOF 0
ENDMDL
MODEL 9
REMARK VINA RESULT:    -3.044      1.951      3.730
REMARK INTER + INTRA:          -4.442
REMARK INTER:                  -4.933
REMARK INTRA:                   0.491
REMARK UNBOUND:                -0.153
REMARK SMILES CC1=CCC(=C(C)C)C(=O)CC(C)=CCC1
REMARK SMILES IDX 12 1 14 2 13 3 15 4 16 5 2 6 1 7 3 8 11 10 9 11 10 12 5 13
REMARK SMILES IDX 6 14 7 15 8 16 4 17
REMARK H PARENT
REMARK Flexibility Score: 60.00
ROOT
ATOM      1  C   UNL     1      21.053 -12.485  45.582  1.00  0.00    -0.070 C 
ATOM      2  C   UNL     1      21.904 -11.862  46.430  1.00  0.00    -0.027 C 
ATOM      3  C   UNL     1      20.203 -11.632  44.675  1.00  0.00     0.039 C 
ENDROOT
BRANCH   2   4
ATOM      4  C   UNL     1      22.925 -12.555  47.295  1.00  0.00     0.032 C 
BRANCH   4   5
ATOM      5  C   UNL     1      24.335 -12.095  46.907  1.00  0.00     0.034 C 
BRANCH   5   6
ATOM      6  C   UNL     1      24.581 -12.177  45.413  1.00  0.00    -0.077 C 
ATOM      7  C   UNL     1      24.886 -10.905  44.661  1.00  0.00     0.039 C 
ATOM      8  C   UNL     1      24.472 -13.324  44.696  1.00  0.00    -0.023 CG0
ATOM      9  G   UNL     1      24.235 -14.726  45.229  1.00  0.00     0.000 G0
ENDBRANCH   5   6
ENDBRANCH   4   5
ENDBRANCH   2   4
BRANCH   1  10
ATOM     10  C   UNL     1      20.897 -13.991  45.517  1.00  0.00     0.111 C 
BRANCH  10  11
ATOM     11  C   UNL     1      21.759 -14.599  44.436  1.00  0.00     0.163 C 
ATOM     12  O   UNL     1      21.413 -14.393  43.241  1.00  0.00    -0.294 OA
BRANCH  11  13
ATOM     13  C   UNL     1      22.972 -15.441  44.710  1.00  0.00    -0.002 C 
ATOM     14  C   UNL     1      22.896 -16.806  44.664  1.00  0.00    -0.069 C 
ATOM     15  C   UNL     1      21.698 -17.511  44.069  1.00  0.00     0.039 C 
ATOM     16  C   UNL     1      24.021 -17.689  45.156  1.00  0.00     0.039 C 
BRANCH  13  17
ATOM     17  C   UNL     1      24.227 -14.736  45.215  1.00  0.00     0.066 CG0
ATOM     18  G   UNL     1      24.469 -13.330  44.695  1.00  0.00     0.000 G0
ENDBRANCH  13  17
ENDBRANCH  11  13
ENDBRANCH  10  11
ENDBRANCH   1  10
TORSDOF 0
ENDMDL
