MODEL 1
REMARK VINA RESULT:    -4.845      0.000      0.000
REMARK INTER + INTRA:          -9.119
REMARK INTER:                  -7.394
REMARK INTRA:                  -1.725
REMARK UNBOUND:                -1.725
REMARK SMILES CC(=O)CCC=C(C)CCC=C(C)CCC=C(C)C
REMARK SMILES IDX 10 1 11 2 12 3 13 4 14 5 15 6 16 7 18 8 17 9 19 10 9 11 7 12
REMARK SMILES IDX 6 13 8 14 5 15 4 16 2 17 3 18 1 19
REMARK H PARENT
REMARK Flexibility Score: inf
ROOT
ATOM      1  C   UNL     1      39.104 -37.955  -3.310  1.00  0.00     0.032 C 
ENDROOT
BRANCH   1   2
ATOM      2  C   UNL     1      40.495 -38.502  -3.121  1.00  0.00    -0.028 C 
ATOM      3  C   UNL     1      41.586 -38.067  -3.794  1.00  0.00    -0.077 C 
ATOM      4  C   UNL     1      41.513 -36.913  -4.767  1.00  0.00     0.039 C 
BRANCH   3   5
ATOM      5  C   UNL     1      42.918 -38.741  -3.548  1.00  0.00     0.034 C 
BRANCH   5   6
ATOM      6  C   UNL     1      42.732 -40.243  -3.306  1.00  0.00     0.032 C 
BRANCH   6   7
ATOM      7  C   UNL     1      43.498 -41.060  -4.319  1.00  0.00    -0.028 C 
ATOM      8  C   UNL     1      43.787 -42.381  -6.373  1.00  0.00     0.039 C 
ATOM      9  C   UNL     1      42.930 -41.581  -5.427  1.00  0.00    -0.080 C 
ATOM     10  C   UNL     1      41.465 -41.378  -5.733  1.00  0.00     0.039 C 
ENDBRANCH   6   7
ENDBRANCH   5   6
ENDBRANCH   3   5
ENDBRANCH   1   2
BRANCH   1  11
ATOM     11  C   UNL     1      38.076 -39.091  -3.350  1.00  0.00     0.034 C 
BRANCH  11  12
ATOM     12  C   UNL     1      37.949 -39.654  -4.748  1.00  0.00    -0.077 C 
ATOM     13  C   UNL     1      38.392 -38.919  -5.794  1.00  0.00    -0.028 C 
ATOM     14  C   UNL     1      37.350 -41.028  -4.933  1.00  0.00     0.039 C 
BRANCH  13  15
ATOM     15  C   UNL     1      38.286 -39.336  -7.242  1.00  0.00     0.035 C 
BRANCH  15  16
ATOM     16  C   UNL     1      37.344 -38.417  -8.029  1.00  0.00     0.079 C 
BRANCH  16  17
ATOM     17  C   UNL     1      36.416 -39.204  -8.921  1.00  0.00     0.130 C 
ATOM     18  O   UNL     1      35.459 -38.646  -9.434  1.00  0.00    -0.300 OA
ATOM     19  C   UNL     1      36.647 -40.660  -9.193  1.00  0.00     0.087 C 
ENDBRANCH  16  17
ENDBRANCH  15  16
ENDBRANCH  13  15
ENDBRANCH  11  12
ENDBRANCH   1  11
TORSDOF 9
ENDMDL
MODEL 2
REMARK VINA RESULT:    -4.741      3.102      6.623
REMARK INTER + INTRA:          -8.960
REMARK INTER:                  -7.084
REMARK INTRA:                  -1.876
REMARK UNBOUND:                -1.725
REMARK SMILES CC(=O)CCC=C(C)CCC=C(C)CCC=C(C)C
REMARK SMILES IDX 10 1 11 2 12 3 13 4 14 5 15 6 16 7 18 8 17 9 19 10 9 11 7 12
REMARK SMILES IDX 6 13 8 14 5 15 4 16 2 17 3 18 1 19
REMARK H PARENT
REMARK Flexibility Score: inf
ROOT
ATOM      1  C   UNL     1      39.765 -40.984  -5.233  1.00  0.00     0.032 C 
ENDROOT
BRANCH   1   2
ATOM      2  C   UNL     1      39.234 -39.850  -6.072  1.00  0.00    -0.028 C 
ATOM      3  C   UNL     1      38.022 -39.273  -5.898  1.00  0.00    -0.077 C 
ATOM      4  C   UNL     1      37.102 -39.679  -4.771  1.00  0.00     0.039 C 
BRANCH   3   5
ATOM      5  C   UNL     1      37.587 -38.178  -6.847  1.00  0.00     0.034 C 
BRANCH   5   6
ATOM      6  C   UNL     1      37.797 -36.796  -6.218  1.00  0.00     0.032 C 
BRANCH   6   7
ATOM      7  C   UNL     1      39.226 -36.333  -6.374  1.00  0.00    -0.028 C 
ATOM      8  C   UNL     1      41.499 -35.788  -5.610  1.00  0.00     0.039 C 
ATOM      9  C   UNL     1      40.094 -36.264  -5.343  1.00  0.00    -0.080 C 
ATOM     10  C   UNL     1      39.688 -36.652  -3.941  1.00  0.00     0.039 C 
ENDBRANCH   6   7
ENDBRANCH   5   6
ENDBRANCH   3   5
ENDBRANCH   1   2
BRANCH   1  11
ATOM     11  C   UNL     1      41.134 -41.444  -5.749  1.00  0.00     0.034 C 
BRANCH  11  12
ATOM     12  C   UNL     1      42.251 -40.782  -4.974  1.00  0.00    -0.077 C 
ATOM     13  C   UNL     1      41.988 -39.651  -4.279  1.00  0.00    -0.028 C 
ATOM     14  C   UNL     1      43.623 -41.415  -4.981  1.00  0.00     0.039 C 
BRANCH  13  15
ATOM     15  C   UNL     1      43.016 -38.863  -3.502  1.00  0.00     0.035 C 
BRANCH  15  16
ATOM     16  C   UNL     1      42.674 -38.804  -2.008  1.00  0.00     0.079 C 
BRANCH  16  17
ATOM     17  C   UNL     1      42.564 -40.182  -1.407  1.00  0.00     0.130 C 
ATOM     18  O   UNL     1      43.552 -40.898  -1.358  1.00  0.00    -0.300 OA
ATOM     19  C   UNL     1      41.262 -40.694  -0.865  1.00  0.00     0.087 C 
ENDBRANCH  16  17
ENDBRANCH  15  16
ENDBRANCH  13  15
ENDBRANCH  11  12
ENDBRANCH   1  11
TORSDOF 9
ENDMDL
MODEL 3
REMARK VINA RESULT:    -4.722      3.620      7.000
REMARK INTER + INTRA:          -8.931
REMARK INTER:                  -7.529
REMARK INTRA:                  -1.403
REMARK UNBOUND:                -1.725
REMARK SMILES CC(=O)CCC=C(C)CCC=C(C)CCC=C(C)C
REMARK SMILES IDX 10 1 11 2 12 3 13 4 14 5 15 6 16 7 18 8 17 9 19 10 9 11 7 12
REMARK SMILES IDX 6 13 8 14 5 15 4 16 2 17 3 18 1 19
REMARK H PARENT
REMARK Flexibility Score: inf
ROOT
ATOM      1  C   UNL     1      39.584 -40.410  -5.318  1.00  0.00     0.032 C 
ENDROOT
BRANCH   1   2
ATOM      2  C   UNL     1      38.980 -39.860  -6.584  1.00  0.00    -0.028 C 
ATOM      3  C   UNL     1      38.626 -38.566  -6.763  1.00  0.00    -0.077 C 
ATOM      4  C   UNL     1      38.881 -37.518  -5.706  1.00  0.00     0.039 C 
BRANCH   3   5
ATOM      5  C   UNL     1      37.977 -38.155  -8.067  1.00  0.00     0.034 C 
BRANCH   5   6
ATOM      6  C   UNL     1      38.235 -36.674  -8.361  1.00  0.00     0.032 C 
BRANCH   6   7
ATOM      7  C   UNL     1      39.274 -36.502  -9.444  1.00  0.00    -0.028 C 
ATOM      8  C   UNL     1      41.392 -35.708 -10.408  1.00  0.00     0.039 C 
ATOM      9  C   UNL     1      40.423 -35.818  -9.260  1.00  0.00    -0.080 C 
ATOM     10  C   UNL     1      40.752 -35.168  -7.936  1.00  0.00     0.039 C 
ENDBRANCH   6   7
ENDBRANCH   5   6
ENDBRANCH   3   5
ENDBRANCH   1   2
BRANCH   1  11
ATOM     11  C   UNL     1      40.819 -41.262  -5.633  1.00  0.00     0.034 C 
BRANCH  11  12
ATOM     12  C   UNL     1      42.033 -40.742  -4.897  1.00  0.00    -0.077 C 
ATOM     13  C   UNL     1      41.875 -39.759  -3.980  1.00  0.00    -0.028 C 
ATOM     14  C   UNL     1      43.385 -41.350  -5.190  1.00  0.00     0.039 C 
BRANCH  13  15
ATOM     15  C   UNL     1      43.002 -39.116  -3.208  1.00  0.00     0.035 C 
BRANCH  15  16
ATOM     16  C   UNL     1      42.684 -39.026  -1.710  1.00  0.00     0.079 C 
BRANCH  16  17
ATOM     17  C   UNL     1      42.728 -40.380  -1.049  1.00  0.00     0.130 C 
ATOM     18  O   UNL     1      43.731 -41.069  -1.155  1.00  0.00    -0.300 OA
ATOM     19  C   UNL     1      41.563 -40.901  -0.261  1.00  0.00     0.087 C 
ENDBRANCH  16  17
ENDBRANCH  15  16
ENDBRANCH  13  15
ENDBRANCH  11  12
ENDBRANCH   1  11
TORSDOF 9
ENDMDL
MODEL 4
REMARK VINA RESULT:    -4.697      3.102      7.137
REMARK INTER + INTRA:          -8.894
REMARK INTER:                  -7.312
REMARK INTRA:                  -1.581
REMARK UNBOUND:                -1.725
REMARK SMILES CC(=O)CCC=C(C)CCC=C(C)CCC=C(C)C
REMARK SMILES IDX 10 1 11 2 12 3 13 4 14 5 15 6 16 7 18 8 17 9 19 10 9 11 7 12
REMARK SMILES IDX 6 13 8 14 5 15 4 16 2 17 3 18 1 19
REMARK H PARENT
REMARK Flexibility Score: inf
ROOT
ATOM      1  C   UNL     1      41.783 -41.461  -5.290  1.00  0.00     0.032 C 
ENDROOT
BRANCH   1   2
ATOM      2  C   UNL     1      40.543 -40.719  -5.717  1.00  0.00    -0.028 C 
ATOM      3  C   UNL     1      39.409 -40.638  -4.983  1.00  0.00    -0.077 C 
ATOM      4  C   UNL     1      39.311 -41.240  -3.601  1.00  0.00     0.039 C 
BRANCH   3   5
ATOM      5  C   UNL     1      38.215 -39.906  -5.554  1.00  0.00     0.034 C 
BRANCH   5   6
ATOM      6  C   UNL     1      38.636 -38.998  -6.716  1.00  0.00     0.032 C 
BRANCH   6   7
ATOM      7  C   UNL     1      37.714 -39.160  -7.901  1.00  0.00    -0.028 C 
ATOM      8  C   UNL     1      35.814 -38.588  -9.354  1.00  0.00     0.039 C 
ATOM      9  C   UNL     1      36.672 -38.337  -8.141  1.00  0.00    -0.080 C 
ATOM     10  C   UNL     1      36.352 -37.179  -7.224  1.00  0.00     0.039 C 
ENDBRANCH   6   7
ENDBRANCH   5   6
ENDBRANCH   3   5
ENDBRANCH   1   2
BRANCH   1  11
ATOM     11  C   UNL     1      42.945 -40.489  -5.064  1.00  0.00     0.034 C 
BRANCH  11  12
ATOM     12  C   UNL     1      42.806 -39.782  -3.734  1.00  0.00    -0.077 C 
ATOM     13  C   UNL     1      42.846 -40.512  -2.595  1.00  0.00    -0.028 C 
ATOM     14  C   UNL     1      42.648 -38.280  -3.715  1.00  0.00     0.039 C 
BRANCH  13  15
ATOM     15  C   UNL     1      42.674 -39.944  -1.206  1.00  0.00     0.035 C 
BRANCH  15  16
ATOM     16  C   UNL     1      41.226 -40.069  -0.718  1.00  0.00     0.079 C 
BRANCH  16  17
ATOM     17  C   UNL     1      40.965 -41.415  -0.089  1.00  0.00     0.130 C 
ATOM     18  O   UNL     1      39.872 -41.942  -0.228  1.00  0.00    -0.300 OA
ATOM     19  C   UNL     1      42.022 -42.120   0.706  1.00  0.00     0.087 C 
ENDBRANCH  16  17
ENDBRANCH  15  16
ENDBRANCH  13  15
ENDBRANCH  11  12
ENDBRANCH   1  11
TORSDOF 9
ENDMDL
MODEL 5
REMARK VINA RESULT:    -4.584      2.924      4.827
REMARK INTER + INTRA:          -8.721
REMARK INTER:                  -6.328
REMARK INTRA:                  -2.393
REMARK UNBOUND:                -1.725
REMARK SMILES CC(=O)CCC=C(C)CCC=C(C)CCC=C(C)C
REMARK SMILES IDX 10 1 11 2 12 3 13 4 14 5 15 6 16 7 18 8 17 9 19 10 9 11 7 12
REMARK SMILES IDX 6 13 8 14 5 15 4 16 2 17 3 18 1 19
REMARK H PARENT
REMARK Flexibility Score: inf
ROOT
ATOM      1  C   UNL     1      42.518 -40.697  -5.213  1.00  0.00     0.032 C 
ENDROOT
BRANCH   1   2
ATOM      2  C   UNL     1      42.658 -40.583  -3.717  1.00  0.00    -0.028 C 
ATOM      3  C   UNL     1      42.729 -39.411  -3.043  1.00  0.00    -0.077 C 
ATOM      4  C   UNL     1      42.598 -38.080  -3.745  1.00  0.00     0.039 C 
BRANCH   3   5
ATOM      5  C   UNL     1      42.924 -39.437  -1.543  1.00  0.00     0.034 C 
BRANCH   5   6
ATOM      6  C   UNL     1      42.988 -40.879  -1.026  1.00  0.00     0.032 C 
BRANCH   6   7
ATOM      7  C   UNL     1      42.461 -40.979   0.385  1.00  0.00    -0.028 C 
ATOM      8  C   UNL     1      40.780 -41.440   2.120  1.00  0.00     0.039 C 
ATOM      9  C   UNL     1      41.204 -41.374   0.676  1.00  0.00    -0.080 C 
ATOM     10  C   UNL     1      40.223 -41.748  -0.411  1.00  0.00     0.039 C 
ENDBRANCH   6   7
ENDBRANCH   5   6
ENDBRANCH   3   5
ENDBRANCH   1   2
BRANCH   1  11
ATOM     11  C   UNL     1      41.243 -41.464  -5.581  1.00  0.00     0.034 C 
BRANCH  11  12
ATOM     12  C   UNL     1      40.014 -40.726  -5.101  1.00  0.00    -0.077 C 
ATOM     13  C   UNL     1      39.720 -39.520  -5.640  1.00  0.00    -0.028 C 
ATOM     14  C   UNL     1      39.137 -41.366  -4.050  1.00  0.00     0.039 C 
BRANCH  13  15
ATOM     15  C   UNL     1      38.554 -38.655  -5.224  1.00  0.00     0.035 C 
BRANCH  15  16
ATOM     16  C   UNL     1      38.973 -37.590  -4.204  1.00  0.00     0.079 C 
BRANCH  16  17
ATOM     17  C   UNL     1      38.467 -37.913  -2.820  1.00  0.00     0.130 C 
ATOM     18  O   UNL     1      37.275 -37.808  -2.576  1.00  0.00    -0.300 OA
ATOM     19  C   UNL     1      39.400 -38.363  -1.735  1.00  0.00     0.087 C 
ENDBRANCH  16  17
ENDBRANCH  15  16
ENDBRANCH  13  15
ENDBRANCH  11  12
ENDBRANCH   1  11
TORSDOF 9
ENDMDL
MODEL 6
REMARK VINA RESULT:    -4.550      2.511      3.903
REMARK INTER + INTRA:          -8.669
REMARK INTER:                  -7.109
REMARK INTRA:                  -1.560
REMARK UNBOUND:                -1.725
REMARK SMILES CC(=O)CCC=C(C)CCC=C(C)CCC=C(C)C
REMARK SMILES IDX 10 1 11 2 12 3 13 4 14 5 15 6 16 7 18 8 17 9 19 10 9 11 7 12
REMARK SMILES IDX 6 13 8 14 5 15 4 16 2 17 3 18 1 19
REMARK H PARENT
REMARK Flexibility Score: inf
ROOT
ATOM      1  C   UNL     1      42.556 -40.606  -5.114  1.00  0.00     0.032 C 
ENDROOT
BRANCH   1   2
ATOM      2  C   UNL     1      42.649 -40.522  -3.612  1.00  0.00    -0.028 C 
ATOM      3  C   UNL     1      42.698 -39.364  -2.913  1.00  0.00    -0.077 C 
ATOM      4  C   UNL     1      42.587 -38.019  -3.592  1.00  0.00     0.039 C 
BRANCH   3   5
ATOM      5  C   UNL     1      42.847 -39.420  -1.409  1.00  0.00     0.034 C 
BRANCH   5   6
ATOM      6  C   UNL     1      43.063 -40.862  -0.935  1.00  0.00     0.032 C 
BRANCH   6   7
ATOM      7  C   UNL     1      42.506 -41.073   0.452  1.00  0.00    -0.028 C 
ATOM      8  C   UNL     1      40.781 -41.644   2.109  1.00  0.00     0.039 C 
ATOM      9  C   UNL     1      41.234 -41.462   0.684  1.00  0.00    -0.080 C 
ATOM     10  C   UNL     1      40.267 -41.715  -0.449  1.00  0.00     0.039 C 
ENDBRANCH   6   7
ENDBRANCH   5   6
ENDBRANCH   3   5
ENDBRANCH   1   2
BRANCH   1  11
ATOM     11  C   UNL     1      41.311 -41.394  -5.536  1.00  0.00     0.034 C 
BRANCH  11  12
ATOM     12  C   UNL     1      40.050 -40.684  -5.099  1.00  0.00    -0.077 C 
ATOM     13  C   UNL     1      39.733 -39.498  -5.668  1.00  0.00    -0.028 C 
ATOM     14  C   UNL     1      39.169 -41.330  -4.055  1.00  0.00     0.039 C 
BRANCH  13  15
ATOM     15  C   UNL     1      38.533 -38.661  -5.295  1.00  0.00     0.035 C 
BRANCH  15  16
ATOM     16  C   UNL     1      37.358 -38.896  -6.252  1.00  0.00     0.079 C 
BRANCH  16  17
ATOM     17  C   UNL     1      37.784 -38.784  -7.694  1.00  0.00     0.130 C 
ATOM     18  O   UNL     1      37.709 -39.763  -8.421  1.00  0.00    -0.300 OA
ATOM     19  C   UNL     1      38.299 -37.492  -8.256  1.00  0.00     0.087 C 
ENDBRANCH  16  17
ENDBRANCH  15  16
ENDBRANCH  13  15
ENDBRANCH  11  12
ENDBRANCH   1  11
TORSDOF 9
ENDMDL
MODEL 7
REMARK VINA RESULT:    -4.521      3.675      7.270
REMARK INTER + INTRA:          -8.624
REMARK INTER:                  -6.963
REMARK INTRA:                  -1.661
REMARK UNBOUND:                -1.725
REMARK SMILES CC(=O)CCC=C(C)CCC=C(C)CCC=C(C)C
REMARK SMILES IDX 10 1 11 2 12 3 13 4 14 5 15 6 16 7 18 8 17 9 19 10 9 11 7 12
REMARK SMILES IDX 6 13 8 14 5 15 4 16 2 17 3 18 1 19
REMARK H PARENT
REMARK Flexibility Score: inf
ROOT
ATOM      1  C   UNL     1      41.840 -40.909  -4.750  1.00  0.00     0.032 C 
ENDROOT
BRANCH   1   2
ATOM      2  C   UNL     1      40.399 -40.872  -5.189  1.00  0.00    -0.028 C 
ATOM      3  C   UNL     1      39.341 -40.989  -4.353  1.00  0.00    -0.077 C 
ATOM      4  C   UNL     1      39.519 -41.096  -2.857  1.00  0.00     0.039 C 
BRANCH   3   5
ATOM      5  C   UNL     1      37.944 -40.990  -4.932  1.00  0.00     0.034 C 
BRANCH   5   6
ATOM      6  C   UNL     1      37.402 -39.562  -5.053  1.00  0.00     0.032 C 
BRANCH   6   7
ATOM      7  C   UNL     1      37.562 -39.031  -6.457  1.00  0.00    -0.028 C 
ATOM      8  C   UNL     1      38.522 -37.606  -8.217  1.00  0.00     0.039 C 
ATOM      9  C   UNL     1      38.443 -38.062  -6.783  1.00  0.00    -0.080 C 
ATOM     10  C   UNL     1      39.343 -37.433  -5.746  1.00  0.00     0.039 C 
ENDBRANCH   6   7
ENDBRANCH   5   6
ENDBRANCH   3   5
ENDBRANCH   1   2
BRANCH   1  11
ATOM     11  C   UNL     1      42.383 -39.490  -4.552  1.00  0.00     0.034 C 
BRANCH  11  12
ATOM     12  C   UNL     1      42.554 -39.179  -3.082  1.00  0.00    -0.077 C 
ATOM     13  C   UNL     1      42.842 -40.187  -2.227  1.00  0.00    -0.028 C 
ATOM     14  C   UNL     1      42.420 -37.748  -2.615  1.00  0.00     0.039 C 
BRANCH  13  15
ATOM     15  C   UNL     1      42.994 -40.028  -0.733  1.00  0.00     0.035 C 
BRANCH  15  16
ATOM     16  C   UNL     1      43.185 -41.380  -0.035  1.00  0.00     0.079 C 
BRANCH  16  17
ATOM     17  C   UNL     1      42.030 -41.704   0.879  1.00  0.00     0.130 C 
ATOM     18  O   UNL     1      41.512 -40.812   1.533  1.00  0.00    -0.300 OA
ATOM     19  C   UNL     1      41.502 -43.102   1.001  1.00  0.00     0.087 C 
ENDBRANCH  16  17
ENDBRANCH  15  16
ENDBRANCH  13  15
ENDBRANCH  11  12
ENDBRANCH   1  11
TORSDOF 9
ENDMDL
MODEL 8
REMARK VINA RESULT:    -4.518      2.159      3.605
REMARK INTER + INTRA:          -8.620
REMARK INTER:                  -6.791
REMARK INTRA:                  -1.829
REMARK UNBOUND:                -1.725
REMARK SMILES CC(=O)CCC=C(C)CCC=C(C)CCC=C(C)C
REMARK SMILES IDX 10 1 11 2 12 3 13 4 14 5 15 6 16 7 18 8 17 9 19 10 9 11 7 12
REMARK SMILES IDX 6 13 8 14 5 15 4 16 2 17 3 18 1 19
REMARK H PARENT
REMARK Flexibility Score: inf
ROOT
ATOM      1  C   UNL     1      40.211 -40.899  -5.326  1.00  0.00     0.032 C 
ENDROOT
BRANCH   1   2
ATOM      2  C   UNL     1      41.015 -39.904  -4.529  1.00  0.00    -0.028 C 
ATOM      3  C   UNL     1      42.346 -40.005  -4.301  1.00  0.00    -0.077 C 
ATOM      4  C   UNL     1      43.175 -41.114  -4.904  1.00  0.00     0.039 C 
BRANCH   3   5
ATOM      5  C   UNL     1      43.023 -38.965  -3.436  1.00  0.00     0.034 C 
BRANCH   5   6
ATOM      6  C   UNL     1      42.284 -38.798  -2.104  1.00  0.00     0.032 C 
BRANCH   6   7
ATOM      7  C   UNL     1      42.719 -39.839  -1.101  1.00  0.00    -0.028 C 
ATOM      8  C   UNL     1      42.426 -41.781   0.379  1.00  0.00     0.039 C 
ATOM      9  C   UNL     1      41.889 -40.788  -0.619  1.00  0.00    -0.080 C 
ATOM     10  C   UNL     1      40.447 -40.873  -1.058  1.00  0.00     0.039 C 
ENDBRANCH   6   7
ENDBRANCH   5   6
ENDBRANCH   3   5
ENDBRANCH   1   2
BRANCH   1  11
ATOM     11  C   UNL     1      38.743 -40.885  -4.884  1.00  0.00     0.034 C 
BRANCH  11  12
ATOM     12  C   UNL     1      37.966 -39.823  -5.630  1.00  0.00    -0.077 C 
ATOM     13  C   UNL     1      38.221 -39.624  -6.944  1.00  0.00    -0.028 C 
ATOM     14  C   UNL     1      36.913 -39.030  -4.891  1.00  0.00     0.039 C 
BRANCH  13  15
ATOM     15  C   UNL     1      37.555 -38.570  -7.797  1.00  0.00     0.035 C 
BRANCH  15  16
ATOM     16  C   UNL     1      38.505 -37.406  -8.104  1.00  0.00     0.079 C 
BRANCH  16  17
ATOM     17  C   UNL     1      38.582 -36.432  -6.955  1.00  0.00     0.130 C 
ATOM     18  O   UNL     1      37.649 -35.673  -6.747  1.00  0.00    -0.300 OA
ATOM     19  C   UNL     1      39.784 -36.377  -6.060  1.00  0.00     0.087 C 
ENDBRANCH  16  17
ENDBRANCH  15  16
ENDBRANCH  13  15
ENDBRANCH  11  12
ENDBRANCH   1  11
TORSDOF 9
ENDMDL
MODEL 9
REMARK VINA RESULT:    -4.502      3.474      6.093
REMARK INTER + INTRA:          -8.596
REMARK INTER:                  -5.889
REMARK INTRA:                  -2.707
REMARK UNBOUND:                -1.725
REMARK SMILES CC(=O)CCC=C(C)CCC=C(C)CCC=C(C)C
REMARK SMILES IDX 10 1 11 2 12 3 13 4 14 5 15 6 16 7 18 8 17 9 19 10 9 11 7 12
REMARK SMILES IDX 6 13 8 14 5 15 4 16 2 17 3 18 1 19
REMARK H PARENT
REMARK Flexibility Score: inf
ROOT
ATOM      1  C   UNL     1      42.728 -37.651  -2.930  1.00  0.00     0.032 C 
ENDROOT
BRANCH   1   2
ATOM      2  C   UNL     1      42.643 -38.790  -3.913  1.00  0.00    -0.028 C 
ATOM      3  C   UNL     1      42.890 -40.085  -3.607  1.00  0.00    -0.077 C 
ATOM      4  C   UNL     1      43.211 -40.522  -2.197  1.00  0.00     0.039 C 
BRANCH   3   5
ATOM      5  C   UNL     1      42.822 -41.125  -4.704  1.00  0.00     0.034 C 
BRANCH   5   6
ATOM      6  C   UNL     1      41.666 -40.829  -5.664  1.00  0.00     0.032 C 
BRANCH   6   7
ATOM      7  C   UNL     1      40.346 -41.290  -5.092  1.00  0.00    -0.028 C 
ATOM      8  C   UNL     1      37.977 -41.069  -4.469  1.00  0.00     0.039 C 
ATOM      9  C   UNL     1      39.244 -40.511  -5.062  1.00  0.00    -0.080 C 
ATOM     10  C   UNL     1      39.258 -39.102  -5.609  1.00  0.00     0.039 C 
ENDBRANCH   6   7
ENDBRANCH   5   6
ENDBRANCH   3   5
ENDBRANCH   1   2
BRANCH   1  11
ATOM     11  C   UNL     1      41.329 -37.216  -2.482  1.00  0.00     0.034 C 
BRANCH  11  12
ATOM     12  C   UNL     1      40.761 -38.186  -1.470  1.00  0.00    -0.077 C 
ATOM     13  C   UNL     1      39.826 -39.079  -1.869  1.00  0.00    -0.028 C 
ATOM     14  C   UNL     1      41.270 -38.144  -0.048  1.00  0.00     0.039 C 
BRANCH  13  15
ATOM     15  C   UNL     1      39.143 -40.070  -0.957  1.00  0.00     0.035 C 
BRANCH  15  16
ATOM     16  C   UNL     1      39.708 -41.485  -1.133  1.00  0.00     0.079 C 
BRANCH  16  17
ATOM     17  C   UNL     1      40.099 -42.097   0.189  1.00  0.00     0.130 C 
ATOM     18  O   UNL     1      39.318 -42.842   0.761  1.00  0.00    -0.300 OA
ATOM     19  C   UNL     1      41.430 -41.809   0.816  1.00  0.00     0.087 C 
ENDBRANCH  16  17
ENDBRANCH  15  16
ENDBRANCH  13  15
ENDBRANCH  11  12
ENDBRANCH   1  11
TORSDOF 9
ENDMDL
