MODEL 1
REMARK VINA RESULT:    -5.711      0.000      0.000
REMARK INTER + INTRA:          -7.370
REMARK INTER:                  -7.046
REMARK INTRA:                  -0.323
REMARK UNBOUND:                -0.323
REMARK SMILES Oc1cc(O)c2cc(O)c(-c3cc(O)c(O)c(O)c3)[o+]c2c1
REMARK SMILES IDX 10 1 20 2 21 3 22 4 2 5 3 6 4 7 6 8 7 9 8 10 11 11 12 12
REMARK SMILES IDX 13 13 19 14 15 15 17 16 14 17 16 19 18 21 9 23 1 25 5 27
REMARK H PARENT 14 18 16 20 18 22 9 24 1 26 5 28
REMARK Flexibility Score: inf
ROOT
ATOM      1  C   UNL     1      -7.822 -13.805   6.241  1.00  0.00     0.402 A 
ATOM      2  O   UNL     1      -8.618 -13.049   5.487  1.00  0.00    -0.202 OA
ATOM      3  C   UNL     1      -9.283 -13.513   4.436  1.00  0.00     0.368 A 
ATOM      4  C   UNL     1     -10.092 -12.641   3.704  1.00  0.00     0.162 A 
ATOM      5  C   UNL     1     -10.800 -13.099   2.592  1.00  0.00     0.128 A 
ATOM      6  C   UNL     1     -10.701 -14.441   2.208  1.00  0.00     0.093 A 
ATOM      7  C   UNL     1      -9.896 -15.336   2.925  1.00  0.00     0.136 A 
ATOM      8  C   UNL     1      -9.177 -14.874   4.057  1.00  0.00     0.125 A 
ATOM      9  C   UNL     1      -8.358 -15.701   4.842  1.00  0.00     0.078 A 
ATOM     10  C   UNL     1      -7.683 -15.174   5.948  1.00  0.00     0.223 A 
ENDROOT
BRANCH   1  11
ATOM     11  C   UNL     1      -7.125 -13.168   7.382  1.00  0.00     0.091 A 
ATOM     12  C   UNL     1      -7.556 -13.365   8.705  1.00  0.00     0.068 A 
ATOM     13  C   UNL     1      -6.869 -12.772   9.774  1.00  0.00     0.162 A 
ATOM     14  C   UNL     1      -5.977 -12.397   7.145  1.00  0.00     0.068 A 
ATOM     15  C   UNL     1      -5.734 -11.983   9.524  1.00  0.00     0.200 A 
ATOM     16  C   UNL     1      -5.287 -11.800   8.209  1.00  0.00     0.162 A 
BRANCH  13  17
ATOM     17  O   UNL     1      -7.308 -12.967  11.082  1.00  0.00    -0.504 OA
ATOM     18  H   UNL     1      -7.389 -12.196  11.736  1.00  0.00     0.293 HD
ENDBRANCH  13  17
BRANCH  15  19
ATOM     19  O   UNL     1      -5.036 -11.378  10.570  1.00  0.00    -0.502 OA
ATOM     20  H   UNL     1      -4.872 -10.379  10.602  1.00  0.00     0.293 HD
ENDBRANCH  15  19
BRANCH  16  21
ATOM     21  O   UNL     1      -4.155 -11.024   7.967  1.00  0.00    -0.504 OA
ATOM     22  H   UNL     1      -3.614 -11.125   7.116  1.00  0.00     0.293 HD
ENDBRANCH  16  21
ENDBRANCH   1  11
BRANCH  10  23
ATOM     23  O   UNL     1      -6.909 -16.006   6.757  1.00  0.00    -0.500 OA
ATOM     24  H   UNL     1      -7.062 -17.006   6.792  1.00  0.00     0.294 HD
ENDBRANCH  10  23
BRANCH   5  25
ATOM     25  O   UNL     1     -11.602 -12.213   1.876  1.00  0.00    -0.507 OA
ATOM     26  H   UNL     1     -11.234 -11.676   1.099  1.00  0.00     0.293 HD
ENDBRANCH   5  25
BRANCH   7  27
ATOM     27  O   UNL     1      -9.847 -16.658   2.476  1.00  0.00    -0.507 OA
ATOM     28  H   UNL     1      -9.158 -17.016   1.830  1.00  0.00     0.293 HD
ENDBRANCH   7  27
TORSDOF 7
ENDMDL
MODEL 2
REMARK VINA RESULT:    -5.589      1.988      2.675
REMARK INTER + INTRA:          -7.220
REMARK INTER:                  -7.094
REMARK INTRA:                  -0.126
REMARK UNBOUND:                -0.323
REMARK SMILES Oc1cc(O)c2cc(O)c(-c3cc(O)c(O)c(O)c3)[o+]c2c1
REMARK SMILES IDX 10 1 20 2 21 3 22 4 2 5 3 6 4 7 6 8 7 9 8 10 11 11 12 12
REMARK SMILES IDX 13 13 19 14 15 15 17 16 14 17 16 19 18 21 9 23 1 25 5 27
REMARK H PARENT 14 18 16 20 18 22 9 24 1 26 5 28
REMARK Flexibility Score: inf
ROOT
ATOM      1  C   UNL     1      -8.648 -14.963   4.086  1.00  0.00     0.402 A 
ATOM      2  O   UNL     1      -9.093 -14.065   3.211  1.00  0.00    -0.202 OA
ATOM      3  C   UNL     1      -9.598 -14.388   2.026  1.00  0.00     0.368 A 
ATOM      4  C   UNL     1     -10.038 -13.372   1.174  1.00  0.00     0.162 A 
ATOM      5  C   UNL     1     -10.571 -13.681  -0.079  1.00  0.00     0.128 A 
ATOM      6  C   UNL     1     -10.666 -15.018  -0.484  1.00  0.00     0.093 A 
ATOM      7  C   UNL     1     -10.232 -16.055   0.352  1.00  0.00     0.136 A 
ATOM      8  C   UNL     1      -9.693 -15.744   1.626  1.00  0.00     0.125 A 
ATOM      9  C   UNL     1      -9.245 -16.717   2.534  1.00  0.00     0.078 A 
ATOM     10  C   UNL     1      -8.729 -16.334   3.776  1.00  0.00     0.223 A 
ENDROOT
BRANCH   1  11
ATOM     11  C   UNL     1      -8.096 -14.477   5.371  1.00  0.00     0.091 A 
ATOM     12  C   UNL     1      -8.618 -14.909   6.602  1.00  0.00     0.068 A 
ATOM     13  C   UNL     1      -8.068 -14.454   7.808  1.00  0.00     0.162 A 
ATOM     14  C   UNL     1      -6.993 -13.610   5.364  1.00  0.00     0.068 A 
ATOM     15  C   UNL     1      -6.978 -13.568   7.790  1.00  0.00     0.200 A 
ATOM     16  C   UNL     1      -6.439 -13.151   6.567  1.00  0.00     0.162 A 
BRANCH  13  17
ATOM     17  O   UNL     1      -8.597 -14.884   9.025  1.00  0.00    -0.504 OA
ATOM     18  H   UNL     1      -8.083 -15.509   9.637  1.00  0.00     0.293 HD
ENDBRANCH  13  17
BRANCH  15  19
ATOM     19  O   UNL     1      -6.415 -13.099   8.978  1.00  0.00    -0.502 OA
ATOM     20  H   UNL     1      -6.688 -12.214   9.389  1.00  0.00     0.293 HD
ENDBRANCH  15  19
BRANCH  16  21
ATOM     21  O   UNL     1      -5.353 -12.279   6.554  1.00  0.00    -0.504 OA
ATOM     22  H   UNL     1      -5.280 -11.511   7.212  1.00  0.00     0.293 HD
ENDBRANCH  16  21
ENDBRANCH   1  11
BRANCH  10  23
ATOM     23  O   UNL     1      -8.331 -17.302   4.698  1.00  0.00    -0.500 OA
ATOM     24  H   UNL     1      -7.393 -17.683   4.698  1.00  0.00     0.294 HD
ENDBRANCH  10  23
BRANCH   5  25
ATOM     25  O   UNL     1     -11.004 -12.654  -0.914  1.00  0.00    -0.507 OA
ATOM     26  H   UNL     1     -11.526 -11.864  -0.553  1.00  0.00     0.293 HD
ENDBRANCH   5  25
BRANCH   7  27
ATOM     27  O   UNL     1     -10.356 -17.362  -0.127  1.00  0.00    -0.507 OA
ATOM     28  H   UNL     1     -10.921 -18.077   0.308  1.00  0.00     0.293 HD
ENDBRANCH   7  27
TORSDOF 7
ENDMDL
MODEL 3
REMARK VINA RESULT:    -5.566      1.126      3.085
REMARK INTER + INTRA:          -7.191
REMARK INTER:                  -6.847
REMARK INTRA:                  -0.344
REMARK UNBOUND:                -0.323
REMARK SMILES Oc1cc(O)c2cc(O)c(-c3cc(O)c(O)c(O)c3)[o+]c2c1
REMARK SMILES IDX 10 1 20 2 21 3 22 4 2 5 3 6 4 7 6 8 7 9 8 10 11 11 12 12
REMARK SMILES IDX 13 13 19 14 15 15 17 16 14 17 16 19 18 21 9 23 1 25 5 27
REMARK H PARENT 14 18 16 20 18 22 9 24 1 26 5 28
REMARK Flexibility Score: inf
ROOT
ATOM      1  C   UNL     1      -8.378 -13.377   6.028  1.00  0.00     0.402 A 
ATOM      2  O   UNL     1      -8.100 -14.471   5.322  1.00  0.00    -0.202 OA
ATOM      3  C   UNL     1      -8.854 -14.900   4.316  1.00  0.00     0.368 A 
ATOM      4  C   UNL     1      -8.482 -16.062   3.636  1.00  0.00     0.162 A 
ATOM      5  C   UNL     1      -9.255 -16.539   2.576  1.00  0.00     0.128 A 
ATOM      6  C   UNL     1     -10.410 -15.848   2.192  1.00  0.00     0.093 A 
ATOM      7  C   UNL     1     -10.805 -14.681   2.858  1.00  0.00     0.136 A 
ATOM      8  C   UNL     1     -10.020 -14.192   3.933  1.00  0.00     0.125 A 
ATOM      9  C   UNL     1     -10.331 -13.025   4.649  1.00  0.00     0.078 A 
ATOM     10  C   UNL     1      -9.505 -12.603   5.696  1.00  0.00     0.223 A 
ENDROOT
BRANCH   1  11
ATOM     11  C   UNL     1      -7.466 -13.007   7.135  1.00  0.00     0.091 A 
ATOM     12  C   UNL     1      -6.247 -12.351   6.891  1.00  0.00     0.068 A 
ATOM     13  C   UNL     1      -5.408 -11.989   7.954  1.00  0.00     0.162 A 
ATOM     14  C   UNL     1      -7.850 -13.265   8.460  1.00  0.00     0.068 A 
ATOM     15  C   UNL     1      -5.791 -12.272   9.276  1.00  0.00     0.200 A 
ATOM     16  C   UNL     1      -7.014 -12.907   9.527  1.00  0.00     0.162 A 
BRANCH  13  17
ATOM     17  O   UNL     1      -4.198 -11.345   7.702  1.00  0.00    -0.504 OA
ATOM     18  H   UNL     1      -3.379 -11.856   7.391  1.00  0.00     0.293 HD
ENDBRANCH  13  17
BRANCH  15  19
ATOM     19  O   UNL     1      -4.971 -11.926  10.350  1.00  0.00    -0.502 OA
ATOM     20  H   UNL     1      -4.429 -12.615  10.858  1.00  0.00     0.293 HD
ENDBRANCH  15  19
BRANCH  16  21
ATOM     21  O   UNL     1      -7.393 -13.178  10.840  1.00  0.00    -0.504 OA
ATOM     22  H   UNL     1      -7.517 -14.128  11.172  1.00  0.00     0.293 HD
ENDBRANCH  16  21
ENDBRANCH   1  11
BRANCH  10  23
ATOM     23  O   UNL     1      -9.786 -11.416   6.374  1.00  0.00    -0.500 OA
ATOM     24  H   UNL     1      -9.713 -11.349   7.382  1.00  0.00     0.294 HD
ENDBRANCH  10  23
BRANCH   5  25
ATOM     25  O   UNL     1      -8.867 -17.699   1.911  1.00  0.00    -0.507 OA
ATOM     26  H   UNL     1      -8.615 -18.540   2.416  1.00  0.00     0.293 HD
ENDBRANCH   5  25
BRANCH   7  27
ATOM     27  O   UNL     1     -11.973 -14.052   2.417  1.00  0.00    -0.507 OA
ATOM     28  H   UNL     1     -12.741 -14.527   1.965  1.00  0.00     0.293 HD
ENDBRANCH   7  27
TORSDOF 7
ENDMDL
MODEL 4
REMARK VINA RESULT:    -5.559     17.630     19.939
REMARK INTER + INTRA:          -7.182
REMARK INTER:                  -6.821
REMARK INTRA:                  -0.361
REMARK UNBOUND:                -0.323
REMARK SMILES Oc1cc(O)c2cc(O)c(-c3cc(O)c(O)c(O)c3)[o+]c2c1
REMARK SMILES IDX 10 1 20 2 21 3 22 4 2 5 3 6 4 7 6 8 7 9 8 10 11 11 12 12
REMARK SMILES IDX 13 13 19 14 15 15 17 16 14 17 16 19 18 21 9 23 1 25 5 27
REMARK H PARENT 14 18 16 20 18 22 9 24 1 26 5 28
REMARK Flexibility Score: inf
ROOT
ATOM      1  C   UNL     1       2.072 -25.846  -4.989  1.00  0.00     0.402 A 
ATOM      2  O   UNL     1       0.855 -26.012  -5.504  1.00  0.00    -0.202 OA
ATOM      3  C   UNL     1       0.045 -25.003  -5.803  1.00  0.00     0.368 A 
ATOM      4  C   UNL     1      -1.215 -25.279  -6.339  1.00  0.00     0.162 A 
ATOM      5  C   UNL     1      -2.089 -24.239  -6.660  1.00  0.00     0.128 A 
ATOM      6  C   UNL     1      -1.700 -22.912  -6.446  1.00  0.00     0.093 A 
ATOM      7  C   UNL     1      -0.442 -22.608  -5.911  1.00  0.00     0.136 A 
ATOM      8  C   UNL     1       0.450 -23.663  -5.586  1.00  0.00     0.125 A 
ATOM      9  C   UNL     1       1.734 -23.454  -5.057  1.00  0.00     0.078 A 
ATOM     10  C   UNL     1       2.559 -24.544  -4.765  1.00  0.00     0.223 A 
ENDROOT
BRANCH   1  11
ATOM     11  C   UNL     1       2.876 -27.052  -4.687  1.00  0.00     0.091 A 
ATOM     12  C   UNL     1       3.848 -27.526  -5.584  1.00  0.00     0.068 A 
ATOM     13  C   UNL     1       4.616 -28.656  -5.270  1.00  0.00     0.162 A 
ATOM     14  C   UNL     1       2.706 -27.703  -3.456  1.00  0.00     0.068 A 
ATOM     15  C   UNL     1       4.422 -29.316  -4.045  1.00  0.00     0.200 A 
ATOM     16  C   UNL     1       3.470 -28.835  -3.137  1.00  0.00     0.162 A 
BRANCH  13  17
ATOM     17  O   UNL     1       5.573 -29.124  -6.169  1.00  0.00    -0.504 OA
ATOM     18  H   UNL     1       6.450 -28.635  -6.314  1.00  0.00     0.293 HD
ENDBRANCH  13  17
BRANCH  15  19
ATOM     19  O   UNL     1       5.171 -30.445  -3.711  1.00  0.00    -0.502 OA
ATOM     20  H   UNL     1       4.981 -30.990  -2.879  1.00  0.00     0.293 HD
ENDBRANCH  15  19
BRANCH  16  21
ATOM     21  O   UNL     1       3.288 -29.487  -1.919  1.00  0.00    -0.504 OA
ATOM     22  H   UNL     1       3.881 -30.259  -1.636  1.00  0.00     0.293 HD
ENDBRANCH  16  21
ENDBRANCH   1  11
BRANCH  10  23
ATOM     23  O   UNL     1       3.853 -24.335  -4.288  1.00  0.00    -0.500 OA
ATOM     24  H   UNL     1       4.025 -23.885  -3.397  1.00  0.00     0.294 HD
ENDBRANCH  10  23
BRANCH   5  25
ATOM     25  O   UNL     1      -3.342 -24.535  -7.193  1.00  0.00    -0.507 OA
ATOM     26  H   UNL     1      -3.440 -25.066  -8.050  1.00  0.00     0.293 HD
ENDBRANCH   5  25
BRANCH   7  27
ATOM     27  O   UNL     1      -0.130 -21.259  -5.724  1.00  0.00    -0.507 OA
ATOM     28  H   UNL     1      -0.134 -20.566  -6.457  1.00  0.00     0.293 HD
ENDBRANCH   7  27
TORSDOF 7
ENDMDL
MODEL 5
REMARK VINA RESULT:    -5.421     17.973     20.685
REMARK INTER + INTRA:          -7.013
REMARK INTER:                  -6.640
REMARK INTRA:                  -0.373
REMARK UNBOUND:                -0.323
REMARK SMILES Oc1cc(O)c2cc(O)c(-c3cc(O)c(O)c(O)c3)[o+]c2c1
REMARK SMILES IDX 10 1 20 2 21 3 22 4 2 5 3 6 4 7 6 8 7 9 8 10 11 11 12 12
REMARK SMILES IDX 13 13 19 14 15 15 17 16 14 17 16 19 18 21 9 23 1 25 5 27
REMARK H PARENT 14 18 16 20 18 22 9 24 1 26 5 28
REMARK Flexibility Score: inf
ROOT
ATOM      1  C   UNL     1       1.874 -26.247  -5.637  1.00  0.00     0.402 A 
ATOM      2  O   UNL     1       2.149 -26.741  -4.432  1.00  0.00    -0.202 OA
ATOM      3  C   UNL     1       3.031 -27.712  -4.225  1.00  0.00     0.368 A 
ATOM      4  C   UNL     1       3.250 -28.166  -2.922  1.00  0.00     0.162 A 
ATOM      5  C   UNL     1       4.169 -29.186  -2.675  1.00  0.00     0.128 A 
ATOM      6  C   UNL     1       4.877 -29.759  -3.738  1.00  0.00     0.093 A 
ATOM      7  C   UNL     1       4.676 -29.321  -5.054  1.00  0.00     0.136 A 
ATOM      8  C   UNL     1       3.744 -28.282  -5.308  1.00  0.00     0.125 A 
ATOM      9  C   UNL     1       3.487 -27.772  -6.591  1.00  0.00     0.078 A 
ATOM     10  C   UNL     1       2.558 -26.742  -6.763  1.00  0.00     0.223 A 
ENDROOT
BRANCH   1  11
ATOM     11  C   UNL     1       0.861 -25.172  -5.740  1.00  0.00     0.091 A 
ATOM     12  C   UNL     1       1.207 -23.821  -5.562  1.00  0.00     0.068 A 
ATOM     13  C   UNL     1       0.237 -22.816  -5.685  1.00  0.00     0.162 A 
ATOM     14  C   UNL     1      -0.461 -25.500  -6.077  1.00  0.00     0.068 A 
ATOM     15  C   UNL     1      -1.089 -23.157  -6.001  1.00  0.00     0.200 A 
ATOM     16  C   UNL     1      -1.435 -24.499  -6.201  1.00  0.00     0.162 A 
BRANCH  13  17
ATOM     17  O   UNL     1       0.588 -21.480  -5.500  1.00  0.00    -0.504 OA
ATOM     18  H   UNL     1       0.229 -20.747  -6.103  1.00  0.00     0.293 HD
ENDBRANCH  13  17
BRANCH  15  19
ATOM     19  O   UNL     1      -2.072 -22.174  -6.125  1.00  0.00    -0.502 OA
ATOM     20  H   UNL     1      -2.674 -22.115  -6.938  1.00  0.00     0.293 HD
ENDBRANCH  15  19
BRANCH  16  21
ATOM     21  O   UNL     1      -2.749 -24.831  -6.522  1.00  0.00    -0.504 OA
ATOM     22  H   UNL     1      -3.526 -24.559  -5.930  1.00  0.00     0.293 HD
ENDBRANCH  16  21
ENDBRANCH   1  11
BRANCH  10  23
ATOM     23  O   UNL     1       2.339 -26.201  -8.030  1.00  0.00    -0.500 OA
ATOM     24  H   UNL     1       1.418 -26.185  -8.450  1.00  0.00     0.294 HD
ENDBRANCH  10  23
BRANCH   5  25
ATOM     25  O   UNL     1       4.373 -29.625  -1.368  1.00  0.00    -0.507 OA
ATOM     26  H   UNL     1       3.956 -29.147  -0.579  1.00  0.00     0.293 HD
ENDBRANCH   5  25
BRANCH   7  27
ATOM     27  O   UNL     1       5.418 -29.946  -6.060  1.00  0.00    -0.507 OA
ATOM     28  H   UNL     1       5.850 -29.463  -6.833  1.00  0.00     0.293 HD
ENDBRANCH   7  27
TORSDOF 7
ENDMDL
MODEL 6
REMARK VINA RESULT:    -5.394      2.203      7.730
REMARK INTER + INTRA:          -6.979
REMARK INTER:                  -6.820
REMARK INTRA:                  -0.158
REMARK UNBOUND:                -0.323
REMARK SMILES Oc1cc(O)c2cc(O)c(-c3cc(O)c(O)c(O)c3)[o+]c2c1
REMARK SMILES IDX 10 1 20 2 21 3 22 4 2 5 3 6 4 7 6 8 7 9 8 10 11 11 12 12
REMARK SMILES IDX 13 13 19 14 15 15 17 16 14 17 16 19 18 21 9 23 1 25 5 27
REMARK H PARENT 14 18 16 20 18 22 9 24 1 26 5 28
REMARK Flexibility Score: inf
ROOT
ATOM      1  C   UNL     1      -8.026 -14.567   3.664  1.00  0.00     0.402 A 
ATOM      2  O   UNL     1      -8.253 -15.005   4.900  1.00  0.00    -0.202 OA
ATOM      3  C   UNL     1      -7.803 -14.388   5.987  1.00  0.00     0.368 A 
ATOM      4  C   UNL     1      -8.092 -14.927   7.243  1.00  0.00     0.162 A 
ATOM      5  C   UNL     1      -7.630 -14.303   8.403  1.00  0.00     0.128 A 
ATOM      6  C   UNL     1      -6.874 -13.130   8.307  1.00  0.00     0.093 A 
ATOM      7  C   UNL     1      -6.571 -12.568   7.060  1.00  0.00     0.136 A 
ATOM      8  C   UNL     1      -7.041 -13.199   5.879  1.00  0.00     0.125 A 
ATOM      9  C   UNL     1      -6.797 -12.703   4.589  1.00  0.00     0.078 A 
ATOM     10  C   UNL     1      -7.298 -13.378   3.471  1.00  0.00     0.223 A 
ENDROOT
BRANCH   1  11
ATOM     11  C   UNL     1      -8.572 -15.349   2.531  1.00  0.00     0.091 A 
ATOM     12  C   UNL     1      -7.743 -15.816   1.497  1.00  0.00     0.068 A 
ATOM     13  C   UNL     1      -8.276 -16.574   0.445  1.00  0.00     0.162 A 
ATOM     14  C   UNL     1      -9.936 -15.680   2.516  1.00  0.00     0.068 A 
ATOM     15  C   UNL     1      -9.647 -16.881   0.427  1.00  0.00     0.200 A 
ATOM     16  C   UNL     1     -10.474 -16.437   1.466  1.00  0.00     0.162 A 
BRANCH  13  17
ATOM     17  O   UNL     1      -7.447 -17.027  -0.580  1.00  0.00    -0.504 OA
ATOM     18  H   UNL     1      -6.460 -17.205  -0.426  1.00  0.00     0.293 HD
ENDBRANCH  13  17
BRANCH  15  19
ATOM     19  O   UNL     1     -10.201 -17.631  -0.611  1.00  0.00    -0.502 OA
ATOM     20  H   UNL     1     -11.159 -17.505  -0.914  1.00  0.00     0.293 HD
ENDBRANCH  15  19
BRANCH  16  21
ATOM     21  O   UNL     1     -11.831 -16.752   1.449  1.00  0.00    -0.504 OA
ATOM     22  H   UNL     1     -12.203 -17.468   0.834  1.00  0.00     0.293 HD
ENDBRANCH  16  21
ENDBRANCH   1  11
BRANCH  10  23
ATOM     23  O   UNL     1      -7.099 -12.857   2.192  1.00  0.00    -0.500 OA
ATOM     24  H   UNL     1      -7.053 -11.860   2.025  1.00  0.00     0.294 HD
ENDBRANCH  10  23
BRANCH   5  25
ATOM     25  O   UNL     1      -7.928 -14.857   9.646  1.00  0.00    -0.507 OA
ATOM     26  H   UNL     1      -7.342 -14.687  10.454  1.00  0.00     0.293 HD
ENDBRANCH   5  25
BRANCH   7  27
ATOM     27  O   UNL     1      -5.807 -11.398   7.049  1.00  0.00    -0.507 OA
ATOM     28  H   UNL     1      -5.127 -11.154   7.753  1.00  0.00     0.293 HD
ENDBRANCH   7  27
TORSDOF 7
ENDMDL
MODEL 7
REMARK VINA RESULT:    -5.260      2.203      3.432
REMARK INTER + INTRA:          -6.813
REMARK INTER:                  -6.531
REMARK INTRA:                  -0.282
REMARK UNBOUND:                -0.323
REMARK SMILES Oc1cc(O)c2cc(O)c(-c3cc(O)c(O)c(O)c3)[o+]c2c1
REMARK SMILES IDX 10 1 20 2 21 3 22 4 2 5 3 6 4 7 6 8 7 9 8 10 11 11 12 12
REMARK SMILES IDX 13 13 19 14 15 15 17 16 14 17 16 19 18 21 9 23 1 25 5 27
REMARK H PARENT 14 18 16 20 18 22 9 24 1 26 5 28
REMARK Flexibility Score: inf
ROOT
ATOM      1  C   UNL     1      -8.815 -14.533   4.243  1.00  0.00     0.402 A 
ATOM      2  O   UNL     1      -8.094 -15.134   3.299  1.00  0.00    -0.202 OA
ATOM      3  C   UNL     1      -8.599 -15.523   2.133  1.00  0.00     0.368 A 
ATOM      4  C   UNL     1      -7.762 -16.149   1.205  1.00  0.00     0.162 A 
ATOM      5  C   UNL     1      -8.264 -16.571  -0.026  1.00  0.00     0.128 A 
ATOM      6  C   UNL     1      -9.614 -16.365  -0.335  1.00  0.00     0.093 A 
ATOM      7  C   UNL     1     -10.474 -15.740   0.578  1.00  0.00     0.136 A 
ATOM      8  C   UNL     1      -9.965 -15.308   1.830  1.00  0.00     0.125 A 
ATOM      9  C   UNL     1     -10.748 -14.662   2.800  1.00  0.00     0.078 A 
ATOM     10  C   UNL     1     -10.175 -14.259   4.010  1.00  0.00     0.223 A 
ENDROOT
BRANCH   1  11
ATOM     11  C   UNL     1      -8.140 -14.156   5.506  1.00  0.00     0.091 A 
ATOM     12  C   UNL     1      -8.466 -14.778   6.723  1.00  0.00     0.068 A 
ATOM     13  C   UNL     1      -7.800 -14.423   7.905  1.00  0.00     0.162 A 
ATOM     14  C   UNL     1      -7.113 -13.199   5.481  1.00  0.00     0.068 A 
ATOM     15  C   UNL     1      -6.789 -13.447   7.873  1.00  0.00     0.200 A 
ATOM     16  C   UNL     1      -6.445 -12.840   6.660  1.00  0.00     0.162 A 
BRANCH  13  17
ATOM     17  O   UNL     1      -8.135 -15.040   9.109  1.00  0.00    -0.504 OA
ATOM     18  H   UNL     1      -8.628 -14.541   9.843  1.00  0.00     0.293 HD
ENDBRANCH  13  17
BRANCH  15  19
ATOM     19  O   UNL     1      -6.115 -13.075   9.037  1.00  0.00    -0.502 OA
ATOM     20  H   UNL     1      -6.032 -12.107   9.324  1.00  0.00     0.293 HD
ENDBRANCH  15  19
BRANCH  16  21
ATOM     21  O   UNL     1      -5.436 -11.879   6.631  1.00  0.00    -0.504 OA
ATOM     22  H   UNL     1      -5.192 -11.341   7.455  1.00  0.00     0.293 HD
ENDBRANCH  16  21
ENDBRANCH   1  11
BRANCH  10  23
ATOM     23  O   UNL     1     -10.941 -13.573   4.953  1.00  0.00    -0.500 OA
ATOM     24  H   UNL     1     -11.527 -12.789   4.693  1.00  0.00     0.294 HD
ENDBRANCH  10  23
BRANCH   5  25
ATOM     25  O   UNL     1      -7.415 -17.193  -0.938  1.00  0.00    -0.507 OA
ATOM     26  H   UNL     1      -7.657 -17.272  -1.918  1.00  0.00     0.293 HD
ENDBRANCH   5  25
BRANCH   7  27
ATOM     27  O   UNL     1     -11.808 -15.576   0.197  1.00  0.00    -0.507 OA
ATOM     28  H   UNL     1     -12.120 -14.954  -0.535  1.00  0.00     0.293 HD
ENDBRANCH   7  27
TORSDOF 7
ENDMDL
MODEL 8
REMARK VINA RESULT:    -5.249     10.296     11.795
REMARK INTER + INTRA:          -6.800
REMARK INTER:                  -6.431
REMARK INTRA:                  -0.369
REMARK UNBOUND:                -0.323
REMARK SMILES Oc1cc(O)c2cc(O)c(-c3cc(O)c(O)c(O)c3)[o+]c2c1
REMARK SMILES IDX 10 1 20 2 21 3 22 4 2 5 3 6 4 7 6 8 7 9 8 10 11 11 12 12
REMARK SMILES IDX 13 13 19 14 15 15 17 16 14 17 16 19 18 21 9 23 1 25 5 27
REMARK H PARENT 14 18 16 20 18 22 9 24 1 26 5 28
REMARK Flexibility Score: inf
ROOT
ATOM      1  C   UNL     1      -0.770 -18.347  -0.552  1.00  0.00     0.402 A 
ATOM      2  O   UNL     1      -1.223 -18.440  -1.800  1.00  0.00    -0.202 OA
ATOM      3  C   UNL     1      -2.215 -17.695  -2.274  1.00  0.00     0.368 A 
ATOM      4  C   UNL     1      -2.622 -17.868  -3.599  1.00  0.00     0.162 A 
ATOM      5  C   UNL     1      -3.663 -17.102  -4.125  1.00  0.00     0.128 A 
ATOM      6  C   UNL     1      -4.303 -16.153  -3.320  1.00  0.00     0.093 A 
ATOM      7  C   UNL     1      -3.914 -15.959  -1.988  1.00  0.00     0.136 A 
ATOM      8  C   UNL     1      -2.854 -16.735  -1.452  1.00  0.00     0.125 A 
ATOM      9  C   UNL     1      -2.388 -16.602  -0.134  1.00  0.00     0.078 A 
ATOM     10  C   UNL     1      -1.335 -17.399   0.322  1.00  0.00     0.223 A 
ENDROOT
BRANCH   1  11
ATOM     11  C   UNL     1       0.335 -19.242  -0.138  1.00  0.00     0.091 A 
ATOM     12  C   UNL     1       0.089 -20.555   0.296  1.00  0.00     0.068 A 
ATOM     13  C   UNL     1       1.151 -21.394   0.662  1.00  0.00     0.162 A 
ATOM     14  C   UNL     1       1.660 -18.790  -0.233  1.00  0.00     0.068 A 
ATOM     15  C   UNL     1       2.473 -20.925   0.585  1.00  0.00     0.200 A 
ATOM     16  C   UNL     1       2.725 -19.624   0.133  1.00  0.00     0.162 A 
BRANCH  13  17
ATOM     17  O   UNL     1       0.896 -22.694   1.098  1.00  0.00    -0.504 OA
ATOM     18  H   UNL     1       1.543 -23.187   1.705  1.00  0.00     0.293 HD
ENDBRANCH  13  17
BRANCH  15  19
ATOM     19  O   UNL     1       3.545 -21.740   0.948  1.00  0.00    -0.502 OA
ATOM     20  H   UNL     1       3.644 -22.115   1.884  1.00  0.00     0.293 HD
ENDBRANCH  15  19
BRANCH  16  21
ATOM     21  O   UNL     1       4.039 -19.166   0.050  1.00  0.00    -0.504 OA
ATOM     22  H   UNL     1       4.417 -18.792  -0.813  1.00  0.00     0.293 HD
ENDBRANCH  16  21
ENDBRANCH   1  11
BRANCH  10  23
ATOM     23  O   UNL     1      -0.839 -17.232   1.616  1.00  0.00    -0.500 OA
ATOM     24  H   UNL     1      -1.029 -17.903   2.350  1.00  0.00     0.294 HD
ENDBRANCH  10  23
BRANCH   5  25
ATOM     25  O   UNL     1      -4.054 -17.290  -5.448  1.00  0.00    -0.507 OA
ATOM     26  H   UNL     1      -4.336 -18.200  -5.792  1.00  0.00     0.293 HD
ENDBRANCH   5  25
BRANCH   7  27
ATOM     27  O   UNL     1      -4.605 -14.995  -1.249  1.00  0.00    -0.507 OA
ATOM     28  H   UNL     1      -4.694 -15.003  -0.243  1.00  0.00     0.293 HD
ENDBRANCH   7  27
TORSDOF 7
ENDMDL
MODEL 9
REMARK VINA RESULT:    -5.238      2.222      3.094
REMARK INTER + INTRA:          -6.786
REMARK INTER:                  -6.496
REMARK INTRA:                  -0.290
REMARK UNBOUND:                -0.323
REMARK SMILES Oc1cc(O)c2cc(O)c(-c3cc(O)c(O)c(O)c3)[o+]c2c1
REMARK SMILES IDX 10 1 20 2 21 3 22 4 2 5 3 6 4 7 6 8 7 9 8 10 11 11 12 12
REMARK SMILES IDX 13 13 19 14 15 15 17 16 14 17 16 19 18 21 9 23 1 25 5 27
REMARK H PARENT 14 18 16 20 18 22 9 24 1 26 5 28
REMARK Flexibility Score: inf
ROOT
ATOM      1  C   UNL     1      -7.582 -13.436   4.991  1.00  0.00     0.402 A 
ATOM      2  O   UNL     1      -8.293 -14.529   4.723  1.00  0.00    -0.202 OA
ATOM      3  C   UNL     1      -8.363 -15.075   3.514  1.00  0.00     0.368 A 
ATOM      4  C   UNL     1      -9.138 -16.223   3.330  1.00  0.00     0.162 A 
ATOM      5  C   UNL     1      -9.234 -16.817   2.071  1.00  0.00     0.128 A 
ATOM      6  C   UNL     1      -8.549 -16.259   0.985  1.00  0.00     0.093 A 
ATOM      7  C   UNL     1      -7.765 -15.109   1.142  1.00  0.00     0.136 A 
ATOM      8  C   UNL     1      -7.664 -14.505   2.422  1.00  0.00     0.125 A 
ATOM      9  C   UNL     1      -6.894 -13.359   2.677  1.00  0.00     0.078 A 
ATOM     10  C   UNL     1      -6.838 -12.822   3.967  1.00  0.00     0.223 A 
ENDROOT
BRANCH   1  11
ATOM     11  C   UNL     1      -7.592 -12.917   6.378  1.00  0.00     0.091 A 
ATOM     12  C   UNL     1      -8.732 -12.302   6.922  1.00  0.00     0.068 A 
ATOM     13  C   UNL     1      -8.728 -11.837   8.245  1.00  0.00     0.162 A 
ATOM     14  C   UNL     1      -6.458 -13.092   7.187  1.00  0.00     0.068 A 
ATOM     15  C   UNL     1      -7.581 -11.997   9.039  1.00  0.00     0.200 A 
ATOM     16  C   UNL     1      -6.449 -12.629   8.510  1.00  0.00     0.162 A 
BRANCH  13  17
ATOM     17  O   UNL     1      -9.862 -11.222   8.773  1.00  0.00    -0.504 OA
ATOM     18  H   UNL     1     -10.534 -11.736   9.333  1.00  0.00     0.293 HD
ENDBRANCH  13  17
BRANCH  15  19
ATOM     19  O   UNL     1      -7.551 -11.539  10.357  1.00  0.00    -0.502 OA
ATOM     20  H   UNL     1      -7.608 -10.554  10.586  1.00  0.00     0.293 HD
ENDBRANCH  15  19
BRANCH  16  21
ATOM     21  O   UNL     1      -5.316 -12.793   9.305  1.00  0.00    -0.504 OA
ATOM     22  H   UNL     1      -5.064 -13.696   9.691  1.00  0.00     0.293 HD
ENDBRANCH  16  21
ENDBRANCH   1  11
BRANCH  10  23
ATOM     23  O   UNL     1      -6.033 -11.714   4.230  1.00  0.00    -0.500 OA
ATOM     24  H   UNL     1      -6.369 -10.929   4.774  1.00  0.00     0.294 HD
ENDBRANCH  10  23
BRANCH   5  25
ATOM     25  O   UNL     1     -10.011 -17.961   1.908  1.00  0.00    -0.507 OA
ATOM     26  H   UNL     1     -10.666 -18.261   2.621  1.00  0.00     0.293 HD
ENDBRANCH   5  25
BRANCH   7  27
ATOM     27  O   UNL     1      -7.117 -14.611   0.009  1.00  0.00    -0.507 OA
ATOM     28  H   UNL     1      -7.263 -14.955  -0.929  1.00  0.00     0.293 HD
ENDBRANCH   7  27
TORSDOF 7
ENDMDL
