MODEL 1
REMARK VINA RESULT:    -5.506      0.000      0.000
REMARK INTER + INTRA:          -9.857
REMARK INTER:                  -8.242
REMARK INTRA:                  -1.616
REMARK UNBOUND:                -1.616
REMARK SMILES COC(=O)C1=CO[C@H](O[C@@H]2O[C@H](CO)[C@H](O)[C@@H](O)[C@@H]2O)[C@@H]2C(CO)=CC[C@@H]12
REMARK SMILES IDX 9 1 8 2 5 3 6 4 27 5 7 6 21 7 26 8 22 9 25 10 3 11 4 12 2 13
REMARK SMILES IDX 1 14 23 15 24 16 10 18 19 19 11 20 17 21 12 22 15 23 20 24
REMARK SMILES IDX 18 26 13 28 14 29 16 31
REMARK H PARENT 24 17 20 25 18 27 14 30 16 32
REMARK Flexibility Score: inf
ROOT
ATOM      1  O   UNL     1       1.961 -17.523 -37.617  1.00  0.00    -0.310 OA
ENDROOT
BRANCH   1   2
ATOM      2  C   UNL     1       2.570 -17.641 -38.890  1.00  0.00     0.316 C 
ATOM      3  C   UNL     1       4.649 -15.577 -39.010  1.00  0.00     0.076 C 
ATOM      4  C   UNL     1       3.486 -15.423 -39.681  1.00  0.00     0.202 C 
ATOM      5  C   UNL     1       4.737 -16.758 -38.081  1.00  0.00     0.047 C 
ATOM      6  O   UNL     1       2.465 -16.401 -39.625  1.00  0.00    -0.471 OA
ATOM      7  C   UNL     1       4.059 -17.957 -38.732  1.00  0.00     0.094 C 
ATOM      8  C   UNL     1       6.083 -17.329 -37.644  1.00  0.00     0.037 C 
ATOM      9  C   UNL     1       4.527 -19.078 -37.871  1.00  0.00    -0.039 C 
ATOM     10  C   UNL     1       5.700 -18.745 -37.319  1.00  0.00    -0.024 C 
BRANCH   3  11
ATOM     11  C   UNL     1       5.686 -14.526 -39.050  1.00  0.00     0.337 C 
ATOM     12  O   UNL     1       5.523 -13.446 -38.420  1.00  0.00    -0.246 OA
BRANCH  11  13
ATOM     13  O   UNL     1       6.860 -14.737 -39.784  1.00  0.00    -0.466 OA
ATOM     14  C   UNL     1       6.920 -15.604 -40.912  1.00  0.00     0.282 C 
ENDBRANCH  11  13
ENDBRANCH   3  11
BRANCH   9  15
ATOM     15  C   UNL     1       3.929 -20.458 -37.832  1.00  0.00     0.187 C 
BRANCH  15  16
ATOM     16  O   UNL     1       2.744 -20.468 -37.075  1.00  0.00    -0.392 OA
ATOM     17  H   UNL     1       2.071 -20.990 -37.591  1.00  0.00     0.211 HD
ENDBRANCH  15  16
ENDBRANCH   9  15
ENDBRANCH   1   2
BRANCH   1  18
ATOM     18  C   UNL     1       0.624 -17.050 -37.705  1.00  0.00     0.286 C 
ATOM     19  C   UNL     1      -0.368 -18.091 -37.144  1.00  0.00     0.202 C 
ATOM     20  O   UNL     1       0.503 -15.789 -37.053  1.00  0.00    -0.341 OA
ATOM     21  C   UNL     1      -0.225 -18.232 -35.619  1.00  0.00     0.179 C 
ATOM     22  C   UNL     1       0.637 -15.842 -35.634  1.00  0.00     0.178 C 
ATOM     23  C   UNL     1      -0.350 -16.844 -34.985  1.00  0.00     0.177 C 
BRANCH  19  24
ATOM     24  O   UNL     1      -0.220 -19.328 -37.797  1.00  0.00    -0.385 OA
ATOM     25  H   UNL     1      -1.048 -19.855 -37.644  1.00  0.00     0.211 HD
ENDBRANCH  19  24
BRANCH  21  26
ATOM     26  O   UNL     1      -1.247 -19.062 -35.122  1.00  0.00    -0.387 OA
ATOM     27  H   UNL     1      -2.094 -18.761 -35.544  1.00  0.00     0.211 HD
ENDBRANCH  21  26
BRANCH  22  28
ATOM     28  C   UNL     1       2.110 -16.004 -35.192  1.00  0.00     0.191 C 
BRANCH  28  29
ATOM     29  O   UNL     1       2.321 -15.390 -33.946  1.00  0.00    -0.394 OA
ATOM     30  H   UNL     1       2.585 -14.449 -34.122  1.00  0.00     0.210 HD
ENDBRANCH  28  29
ENDBRANCH  22  28
BRANCH  23  31
ATOM     31  O   UNL     1      -0.124 -16.929 -33.601  1.00  0.00    -0.387 OA
ATOM     32  H   UNL     1       0.044 -16.011 -33.267  1.00  0.00     0.211 HD
ENDBRANCH  23  31
ENDBRANCH   1  18
TORSDOF 11
ENDMDL
MODEL 2
REMARK VINA RESULT:    -5.197      2.004      3.338
REMARK INTER + INTRA:          -9.396
REMARK INTER:                  -8.035
REMARK INTRA:                  -1.360
REMARK UNBOUND:                -1.616
REMARK SMILES COC(=O)C1=CO[C@H](O[C@@H]2O[C@H](CO)[C@H](O)[C@@H](O)[C@@H]2O)[C@@H]2C(CO)=CC[C@@H]12
REMARK SMILES IDX 9 1 8 2 5 3 6 4 27 5 7 6 21 7 26 8 22 9 25 10 3 11 4 12 2 13
REMARK SMILES IDX 1 14 23 15 24 16 10 18 19 19 11 20 17 21 12 22 15 23 20 24
REMARK SMILES IDX 18 26 13 28 14 29 16 31
REMARK H PARENT 24 17 20 25 18 27 14 30 16 32
REMARK Flexibility Score: inf
ROOT
ATOM      1  O   UNL     1       2.053 -15.538 -36.614  1.00  0.00    -0.310 OA
ENDROOT
BRANCH   1   2
ATOM      2  C   UNL     1       1.983 -15.960 -37.964  1.00  0.00     0.316 C 
ATOM      3  C   UNL     1       4.711 -16.696 -38.746  1.00  0.00     0.076 C 
ATOM      4  C   UNL     1       4.161 -15.539 -39.173  1.00  0.00     0.202 C 
ATOM      5  C   UNL     1       3.924 -17.478 -37.727  1.00  0.00     0.047 C 
ATOM      6  O   UNL     1       2.851 -15.159 -38.796  1.00  0.00    -0.471 OA
ATOM      7  C   UNL     1       2.444 -17.414 -38.083  1.00  0.00     0.094 C 
ATOM      8  C   UNL     1       4.156 -18.971 -37.517  1.00  0.00     0.037 C 
ATOM      9  C   UNL     1       1.875 -18.483 -37.217  1.00  0.00    -0.039 C 
ATOM     10  C   UNL     1       2.825 -19.391 -36.961  1.00  0.00    -0.024 C 
BRANCH   3  11
ATOM     11  C   UNL     1       6.093 -17.056 -39.119  1.00  0.00     0.337 C 
ATOM     12  O   UNL     1       6.397 -17.249 -40.328  1.00  0.00    -0.246 OA
BRANCH  11  13
ATOM     13  O   UNL     1       7.073 -17.174 -38.125  1.00  0.00    -0.466 OA
ATOM     14  C   UNL     1       8.087 -18.172 -38.156  1.00  0.00     0.282 C 
ENDBRANCH  11  13
ENDBRANCH   3  11
BRANCH   9  15
ATOM     15  C   UNL     1       0.415 -18.664 -36.898  1.00  0.00     0.187 C 
BRANCH  15  16
ATOM     16  O   UNL     1      -0.220 -19.437 -37.885  1.00  0.00    -0.392 OA
ATOM     17  H   UNL     1      -0.031 -20.391 -37.676  1.00  0.00     0.211 HD
ENDBRANCH  15  16
ENDBRANCH   9  15
ENDBRANCH   1   2
BRANCH   1  18
ATOM     18  C   UNL     1       0.779 -15.173 -36.100  1.00  0.00     0.286 C 
ATOM     19  C   UNL     1       0.676 -15.502 -34.595  1.00  0.00     0.202 C 
ATOM     20  O   UNL     1       0.514 -13.800 -36.369  1.00  0.00    -0.341 OA
ATOM     21  C   UNL     1       1.583 -14.583 -33.760  1.00  0.00     0.179 C 
ATOM     22  C   UNL     1       1.329 -12.886 -35.636  1.00  0.00     0.178 C 
ATOM     23  C   UNL     1       1.257 -13.127 -34.107  1.00  0.00     0.177 C 
BRANCH  19  24
ATOM     24  O   UNL     1       0.953 -16.860 -34.358  1.00  0.00    -0.385 OA
ATOM     25  H   UNL     1       1.893 -17.032 -34.629  1.00  0.00     0.211 HD
ENDBRANCH  19  24
BRANCH  21  26
ATOM     26  O   UNL     1       1.344 -14.797 -32.391  1.00  0.00    -0.387 OA
ATOM     27  H   UNL     1       0.383 -15.029 -32.298  1.00  0.00     0.211 HD
ENDBRANCH  21  26
BRANCH  22  28
ATOM     28  C   UNL     1       2.762 -12.791 -36.210  1.00  0.00     0.191 C 
BRANCH  28  29
ATOM     29  O   UNL     1       2.724 -12.579 -37.599  1.00  0.00    -0.394 OA
ATOM     30  H   UNL     1       2.868 -11.609 -37.753  1.00  0.00     0.210 HD
ENDBRANCH  28  29
ENDBRANCH  22  28
BRANCH  23  31
ATOM     31  O   UNL     1       2.140 -12.266 -33.432  1.00  0.00    -0.387 OA
ATOM     32  H   UNL     1       3.049 -12.658 -33.497  1.00  0.00     0.211 HD
ENDBRANCH  23  31
ENDBRANCH   1  18
TORSDOF 11
ENDMDL
MODEL 3
REMARK VINA RESULT:    -4.993      2.121      6.372
REMARK INTER + INTRA:          -9.090
REMARK INTER:                  -7.519
REMARK INTRA:                  -1.571
REMARK UNBOUND:                -1.616
REMARK SMILES COC(=O)C1=CO[C@H](O[C@@H]2O[C@H](CO)[C@H](O)[C@@H](O)[C@@H]2O)[C@@H]2C(CO)=CC[C@@H]12
REMARK SMILES IDX 9 1 8 2 5 3 6 4 27 5 7 6 21 7 26 8 22 9 25 10 3 11 4 12 2 13
REMARK SMILES IDX 1 14 23 15 24 16 10 18 19 19 11 20 17 21 12 22 15 23 20 24
REMARK SMILES IDX 18 26 13 28 14 29 16 31
REMARK H PARENT 24 17 20 25 18 27 14 30 16 32
REMARK Flexibility Score: inf
ROOT
ATOM      1  O   UNL     1       2.546 -16.333 -37.512  1.00  0.00    -0.310 OA
ENDROOT
BRANCH   1   2
ATOM      2  C   UNL     1       1.284 -15.692 -37.563  1.00  0.00     0.316 C 
ATOM      3  C   UNL     1       0.450 -15.278 -34.783  1.00  0.00     0.076 C 
ATOM      4  C   UNL     1      -0.114 -16.249 -35.533  1.00  0.00     0.202 C 
ATOM      5  C   UNL     1       1.625 -14.558 -35.389  1.00  0.00     0.047 C 
ATOM      6  O   UNL     1       0.284 -16.474 -36.873  1.00  0.00    -0.471 OA
ATOM      7  C   UNL     1       1.360 -14.329 -36.871  1.00  0.00     0.094 C 
ATOM      8  C   UNL     1       2.047 -13.174 -34.905  1.00  0.00     0.037 C 
ATOM      9  C   UNL     1       2.416 -13.339 -37.222  1.00  0.00    -0.039 C 
ATOM     10  C   UNL     1       2.746 -12.645 -36.125  1.00  0.00    -0.024 C 
BRANCH   3  11
ATOM     11  C   UNL     1       0.048 -15.085 -33.375  1.00  0.00     0.337 C 
ATOM     12  O   UNL     1      -0.764 -14.171 -33.064  1.00  0.00    -0.246 OA
BRANCH  11  13
ATOM     13  O   UNL     1       0.565 -15.929 -32.383  1.00  0.00    -0.466 OA
ATOM     14  C   UNL     1      -0.250 -16.815 -31.623  1.00  0.00     0.282 C 
ENDBRANCH  11  13
ENDBRANCH   3  11
BRANCH   9  15
ATOM     15  C   UNL     1       2.852 -12.983 -38.617  1.00  0.00     0.187 C 
BRANCH  15  16
ATOM     16  O   UNL     1       4.253 -13.023 -38.728  1.00  0.00    -0.392 OA
ATOM     17  H   UNL     1       4.558 -13.862 -38.287  1.00  0.00     0.211 HD
ENDBRANCH  15  16
ENDBRANCH   9  15
ENDBRANCH   1   2
BRANCH   1  18
ATOM     18  C   UNL     1       3.013 -16.698 -38.803  1.00  0.00     0.286 C 
ATOM     19  C   UNL     1       4.552 -16.822 -38.819  1.00  0.00     0.202 C 
ATOM     20  O   UNL     1       2.374 -17.895 -39.239  1.00  0.00    -0.341 OA
ATOM     21  C   UNL     1       5.022 -18.037 -38.002  1.00  0.00     0.179 C 
ATOM     22  C   UNL     1       2.755 -19.064 -38.515  1.00  0.00     0.178 C 
ATOM     23  C   UNL     1       4.289 -19.282 -38.510  1.00  0.00     0.177 C 
BRANCH  19  24
ATOM     24  O   UNL     1       5.156 -15.631 -38.375  1.00  0.00    -0.385 OA
ATOM     25  H   UNL     1       4.700 -14.872 -38.824  1.00  0.00     0.211 HD
ENDBRANCH  19  24
BRANCH  21  26
ATOM     26  O   UNL     1       6.407 -18.214 -38.171  1.00  0.00    -0.387 OA
ATOM     27  H   UNL     1       6.802 -18.290 -37.263  1.00  0.00     0.211 HD
ENDBRANCH  21  26
BRANCH  22  28
ATOM     28  C   UNL     1       2.085 -19.134 -37.123  1.00  0.00     0.191 C 
BRANCH  28  29
ATOM     29  O   UNL     1       0.707 -19.375 -37.250  1.00  0.00    -0.394 OA
ATOM     30  H   UNL     1       0.426 -19.906 -36.459  1.00  0.00     0.210 HD
ENDBRANCH  28  29
ENDBRANCH  22  28
BRANCH  23  31
ATOM     31  O   UNL     1       4.625 -20.391 -37.715  1.00  0.00    -0.387 OA
ATOM     32  H   UNL     1       5.571 -20.284 -37.436  1.00  0.00     0.211 HD
ENDBRANCH  23  31
ENDBRANCH   1  18
TORSDOF 11
ENDMDL
MODEL 4
REMARK VINA RESULT:    -4.943      1.861      2.521
REMARK INTER + INTRA:          -9.014
REMARK INTER:                  -7.551
REMARK INTRA:                  -1.463
REMARK UNBOUND:                -1.616
REMARK SMILES COC(=O)C1=CO[C@H](O[C@@H]2O[C@H](CO)[C@H](O)[C@@H](O)[C@@H]2O)[C@@H]2C(CO)=CC[C@@H]12
REMARK SMILES IDX 9 1 8 2 5 3 6 4 27 5 7 6 21 7 26 8 22 9 25 10 3 11 4 12 2 13
REMARK SMILES IDX 1 14 23 15 24 16 10 18 19 19 11 20 17 21 12 22 15 23 20 24
REMARK SMILES IDX 18 26 13 28 14 29 16 31
REMARK H PARENT 24 17 20 25 18 27 14 30 16 32
REMARK Flexibility Score: inf
ROOT
ATOM      1  O   UNL     1       3.284 -15.870 -37.707  1.00  0.00    -0.310 OA
ENDROOT
BRANCH   1   2
ATOM      2  C   UNL     1       3.777 -16.000 -39.028  1.00  0.00     0.316 C 
ATOM      3  C   UNL     1       6.664 -15.512 -38.889  1.00  0.00     0.076 C 
ATOM      4  C   UNL     1       5.831 -14.574 -39.389  1.00  0.00     0.202 C 
ATOM      5  C   UNL     1       6.018 -16.719 -38.262  1.00  0.00     0.047 C 
ATOM      6  O   UNL     1       4.433 -14.784 -39.452  1.00  0.00    -0.471 OA
ATOM      7  C   UNL     1       4.809 -17.127 -39.094  1.00  0.00     0.094 C 
ATOM      8  C   UNL     1       6.775 -18.034 -38.100  1.00  0.00     0.037 C 
ATOM      9  C   UNL     1       4.512 -18.484 -38.557  1.00  0.00    -0.039 C 
ATOM     10  C   UNL     1       5.638 -19.015 -38.064  1.00  0.00    -0.024 C 
BRANCH   3  11
ATOM     11  C   UNL     1       8.116 -15.258 -38.796  1.00  0.00     0.337 C 
ATOM     12  O   UNL     1       8.558 -14.373 -38.013  1.00  0.00    -0.246 OA
BRANCH  11  13
ATOM     13  O   UNL     1       9.005 -16.010 -39.574  1.00  0.00    -0.466 OA
ATOM     14  C   UNL     1       8.870 -16.145 -40.985  1.00  0.00     0.282 C 
ENDBRANCH  11  13
ENDBRANCH   3  11
BRANCH   9  15
ATOM     15  C   UNL     1       3.232 -19.247 -38.769  1.00  0.00     0.187 C 
BRANCH  15  16
ATOM     16  O   UNL     1       2.917 -20.017 -37.636  1.00  0.00    -0.392 OA
ATOM     17  H   UNL     1       2.856 -19.391 -36.864  1.00  0.00     0.211 HD
ENDBRANCH  15  16
ENDBRANCH   9  15
ENDBRANCH   1   2
BRANCH   1  18
ATOM     18  C   UNL     1       1.865 -15.923 -37.657  1.00  0.00     0.286 C 
ATOM     19  C   UNL     1       1.381 -16.523 -36.320  1.00  0.00     0.202 C 
ATOM     20  O   UNL     1       1.314 -14.631 -37.895  1.00  0.00    -0.341 OA
ATOM     21  C   UNL     1       1.663 -15.569 -35.146  1.00  0.00     0.179 C 
ATOM     22  C   UNL     1       1.548 -13.688 -36.851  1.00  0.00     0.178 C 
ATOM     23  C   UNL     1       1.059 -14.200 -35.472  1.00  0.00     0.177 C 
BRANCH  19  24
ATOM     24  O   UNL     1       1.948 -17.793 -36.105  1.00  0.00    -0.385 OA
ATOM     25  H   UNL     1       1.625 -18.126 -35.227  1.00  0.00     0.211 HD
ENDBRANCH  19  24
BRANCH  21  26
ATOM     26  O   UNL     1       1.067 -16.070 -33.974  1.00  0.00    -0.387 OA
ATOM     27  H   UNL     1       1.540 -15.653 -33.208  1.00  0.00     0.211 HD
ENDBRANCH  21  26
BRANCH  22  28
ATOM     28  C   UNL     1       2.996 -13.147 -36.864  1.00  0.00     0.191 C 
BRANCH  28  29
ATOM     29  O   UNL     1       3.076 -11.933 -36.161  1.00  0.00    -0.394 OA
ATOM     30  H   UNL     1       3.220 -12.156 -35.204  1.00  0.00     0.210 HD
ENDBRANCH  28  29
ENDBRANCH  22  28
BRANCH  23  31
ATOM     31  O   UNL     1       1.387 -13.281 -34.462  1.00  0.00    -0.387 OA
ATOM     32  H   UNL     1       1.662 -12.436 -34.903  1.00  0.00     0.211 HD
ENDBRANCH  23  31
ENDBRANCH   1  18
TORSDOF 11
ENDMDL
MODEL 5
REMARK VINA RESULT:    -4.909      2.046      6.575
REMARK INTER + INTRA:          -8.964
REMARK INTER:                  -8.219
REMARK INTRA:                  -0.745
REMARK UNBOUND:                -1.616
REMARK SMILES COC(=O)C1=CO[C@H](O[C@@H]2O[C@H](CO)[C@H](O)[C@@H](O)[C@@H]2O)[C@@H]2C(CO)=CC[C@@H]12
REMARK SMILES IDX 9 1 8 2 5 3 6 4 27 5 7 6 21 7 26 8 22 9 25 10 3 11 4 12 2 13
REMARK SMILES IDX 1 14 23 15 24 16 10 18 19 19 11 20 17 21 12 22 15 23 20 24
REMARK SMILES IDX 18 26 13 28 14 29 16 31
REMARK H PARENT 24 17 20 25 18 27 14 30 16 32
REMARK Flexibility Score: inf
ROOT
ATOM      1  O   UNL     1       2.138 -18.003 -36.689  1.00  0.00    -0.310 OA
ENDROOT
BRANCH   1   2
ATOM      2  C   UNL     1       0.899 -17.337 -36.856  1.00  0.00     0.316 C 
ATOM      3  C   UNL     1      -0.267 -17.070 -34.179  1.00  0.00     0.076 C 
ATOM      4  C   UNL     1      -0.745 -17.986 -35.050  1.00  0.00     0.202 C 
ATOM      5  C   UNL     1       0.982 -16.338 -34.593  1.00  0.00     0.047 C 
ATOM      6  O   UNL     1      -0.187 -18.140 -36.342  1.00  0.00    -0.471 OA
ATOM      7  C   UNL     1       0.904 -16.018 -36.080  1.00  0.00     0.094 C 
ATOM      8  C   UNL     1       1.356 -14.992 -33.978  1.00  0.00     0.037 C 
ATOM      9  C   UNL     1       2.006 -15.029 -36.239  1.00  0.00    -0.039 C 
ATOM     10  C   UNL     1       2.206 -14.407 -35.070  1.00  0.00    -0.024 C 
BRANCH   3  11
ATOM     11  C   UNL     1      -0.837 -16.952 -32.822  1.00  0.00     0.337 C 
ATOM     12  O   UNL     1      -2.028 -16.567 -32.663  1.00  0.00    -0.246 OA
BRANCH  11  13
ATOM     13  O   UNL     1      -0.054 -17.279 -31.708  1.00  0.00    -0.466 OA
ATOM     14  C   UNL     1      -0.613 -17.708 -30.471  1.00  0.00     0.282 C 
ENDBRANCH  11  13
ENDBRANCH   3  11
BRANCH   9  15
ATOM     15  C   UNL     1       2.616 -14.602 -37.546  1.00  0.00     0.187 C 
BRANCH  15  16
ATOM     16  O   UNL     1       1.618 -14.361 -38.507  1.00  0.00    -0.392 OA
ATOM     17  H   UNL     1       1.540 -13.374 -38.607  1.00  0.00     0.211 HD
ENDBRANCH  15  16
ENDBRANCH   9  15
ENDBRANCH   1   2
BRANCH   1  18
ATOM     18  C   UNL     1       2.386 -18.941 -37.728  1.00  0.00     0.286 C 
ATOM     19  C   UNL     1       3.028 -18.253 -38.951  1.00  0.00     0.202 C 
ATOM     20  O   UNL     1       3.179 -20.019 -37.240  1.00  0.00    -0.341 OA
ATOM     21  C   UNL     1       4.464 -17.796 -38.643  1.00  0.00     0.179 C 
ATOM     22  C   UNL     1       4.524 -19.665 -36.921  1.00  0.00     0.178 C 
ATOM     23  C   UNL     1       5.256 -18.995 -38.112  1.00  0.00     0.177 C 
BRANCH  19  24
ATOM     24  O   UNL     1       2.230 -17.187 -39.404  1.00  0.00    -0.385 OA
ATOM     25  H   UNL     1       2.316 -17.141 -40.392  1.00  0.00     0.211 HD
ENDBRANCH  19  24
BRANCH  21  26
ATOM     26  O   UNL     1       5.074 -17.324 -39.819  1.00  0.00    -0.387 OA
ATOM     27  H   UNL     1       5.910 -17.845 -39.941  1.00  0.00     0.211 HD
ENDBRANCH  21  26
BRANCH  22  28
ATOM     28  C   UNL     1       4.625 -18.897 -35.583  1.00  0.00     0.191 C 
BRANCH  28  29
ATOM     29  O   UNL     1       5.062 -19.751 -34.556  1.00  0.00    -0.394 OA
ATOM     30  H   UNL     1       4.441 -20.525 -34.532  1.00  0.00     0.210 HD
ENDBRANCH  28  29
ENDBRANCH  22  28
BRANCH  23  31
ATOM     31  O   UNL     1       6.544 -18.584 -37.728  1.00  0.00    -0.387 OA
ATOM     32  H   UNL     1       6.476 -17.650 -37.402  1.00  0.00     0.211 HD
ENDBRANCH  23  31
ENDBRANCH   1  18
TORSDOF 11
ENDMDL
MODEL 6
REMARK VINA RESULT:    -4.872      2.855      6.419
REMARK INTER + INTRA:          -8.909
REMARK INTER:                  -7.450
REMARK INTRA:                  -1.459
REMARK UNBOUND:                -1.616
REMARK SMILES COC(=O)C1=CO[C@H](O[C@@H]2O[C@H](CO)[C@H](O)[C@@H](O)[C@@H]2O)[C@@H]2C(CO)=CC[C@@H]12
REMARK SMILES IDX 9 1 8 2 5 3 6 4 27 5 7 6 21 7 26 8 22 9 25 10 3 11 4 12 2 13
REMARK SMILES IDX 1 14 23 15 24 16 10 18 19 19 11 20 17 21 12 22 15 23 20 24
REMARK SMILES IDX 18 26 13 28 14 29 16 31
REMARK H PARENT 24 17 20 25 18 27 14 30 16 32
REMARK Flexibility Score: inf
ROOT
ATOM      1  O   UNL     1       3.470 -15.377 -40.226  1.00  0.00    -0.310 OA
ENDROOT
BRANCH   1   2
ATOM      2  C   UNL     1       3.495 -15.715 -38.850  1.00  0.00     0.316 C 
ATOM      3  C   UNL     1       3.737 -18.633 -38.716  1.00  0.00     0.076 C 
ATOM      4  C   UNL     1       2.558 -18.027 -38.453  1.00  0.00     0.202 C 
ATOM      5  C   UNL     1       4.841 -17.755 -39.241  1.00  0.00     0.047 C 
ATOM      6  O   UNL     1       2.418 -16.621 -38.526  1.00  0.00    -0.471 OA
ATOM      7  C   UNL     1       4.809 -16.420 -38.508  1.00  0.00     0.094 C 
ATOM      8  C   UNL     1       6.306 -18.165 -39.129  1.00  0.00     0.037 C 
ATOM      9  C   UNL     1       6.126 -15.833 -38.882  1.00  0.00    -0.039 C 
ATOM     10  C   UNL     1       6.982 -16.824 -39.162  1.00  0.00    -0.024 C 
BRANCH   3  11
ATOM     11  C   UNL     1       3.853 -20.104 -38.674  1.00  0.00     0.337 C 
ATOM     12  O   UNL     1       3.510 -20.800 -39.669  1.00  0.00    -0.246 OA
BRANCH  11  13
ATOM     13  O   UNL     1       4.356 -20.729 -37.525  1.00  0.00    -0.466 OA
ATOM     14  C   UNL     1       4.265 -20.146 -36.229  1.00  0.00     0.282 C 
ENDBRANCH  11  13
ENDBRANCH   3  11
BRANCH   9  15
ATOM     15  C   UNL     1       6.517 -14.390 -38.718  1.00  0.00     0.187 C 
BRANCH  15  16
ATOM     16  O   UNL     1       7.311 -13.962 -39.796  1.00  0.00    -0.392 OA
ATOM     17  H   UNL     1       8.235 -13.835 -39.447  1.00  0.00     0.211 HD
ENDBRANCH  15  16
ENDBRANCH   9  15
ENDBRANCH   1   2
BRANCH   1  18
ATOM     18  C   UNL     1       3.215 -13.994 -40.433  1.00  0.00     0.286 C 
ATOM     19  C   UNL     1       3.856 -13.506 -41.749  1.00  0.00     0.202 C 
ATOM     20  O   UNL     1       1.814 -13.739 -40.391  1.00  0.00    -0.341 OA
ATOM     21  C   UNL     1       3.141 -14.104 -42.973  1.00  0.00     0.179 C 
ATOM     22  C   UNL     1       1.083 -14.277 -41.492  1.00  0.00     0.178 C 
ATOM     23  C   UNL     1       1.643 -13.807 -42.858  1.00  0.00     0.177 C 
BRANCH  19  24
ATOM     24  O   UNL     1       5.235 -13.780 -41.768  1.00  0.00    -0.385 OA
ATOM     25  H   UNL     1       5.364 -14.667 -42.194  1.00  0.00     0.211 HD
ENDBRANCH  19  24
BRANCH  21  26
ATOM     26  O   UNL     1       3.641 -13.515 -44.149  1.00  0.00    -0.387 OA
ATOM     27  H   UNL     1       2.863 -13.138 -44.636  1.00  0.00     0.211 HD
ENDBRANCH  21  26
BRANCH  22  28
ATOM     28  C   UNL     1       0.876 -15.804 -41.367  1.00  0.00     0.191 C 
BRANCH  28  29
ATOM     29  O   UNL     1      -0.162 -16.232 -42.210  1.00  0.00    -0.394 OA
ATOM     30  H   UNL     1       0.160 -16.139 -43.145  1.00  0.00     0.210 HD
ENDBRANCH  28  29
ENDBRANCH  22  28
BRANCH  23  31
ATOM     31  O   UNL     1       0.952 -14.428 -43.912  1.00  0.00    -0.387 OA
ATOM     32  H   UNL     1       1.236 -13.991 -44.756  1.00  0.00     0.211 HD
ENDBRANCH  23  31
ENDBRANCH   1  18
TORSDOF 11
ENDMDL
MODEL 7
REMARK VINA RESULT:    -4.868      2.496      5.425
REMARK INTER + INTRA:          -8.903
REMARK INTER:                  -7.528
REMARK INTRA:                  -1.375
REMARK UNBOUND:                -1.616
REMARK SMILES COC(=O)C1=CO[C@H](O[C@@H]2O[C@H](CO)[C@H](O)[C@@H](O)[C@@H]2O)[C@@H]2C(CO)=CC[C@@H]12
REMARK SMILES IDX 9 1 8 2 5 3 6 4 27 5 7 6 21 7 26 8 22 9 25 10 3 11 4 12 2 13
REMARK SMILES IDX 1 14 23 15 24 16 10 18 19 19 11 20 17 21 12 22 15 23 20 24
REMARK SMILES IDX 18 26 13 28 14 29 16 31
REMARK H PARENT 24 17 20 25 18 27 14 30 16 32
REMARK Flexibility Score: inf
ROOT
ATOM      1  O   UNL     1       2.943 -17.202 -38.126  1.00  0.00    -0.310 OA
ENDROOT
BRANCH   1   2
ATOM      2  C   UNL     1       2.528 -15.860 -37.950  1.00  0.00     0.316 C 
ATOM      3  C   UNL     1       1.771 -14.871 -40.604  1.00  0.00     0.076 C 
ATOM      4  C   UNL     1       2.935 -14.491 -40.034  1.00  0.00     0.202 C 
ATOM      5  C   UNL     1       0.991 -15.943 -39.889  1.00  0.00     0.047 C 
ATOM      6  O   UNL     1       3.325 -14.967 -38.760  1.00  0.00    -0.471 OA
ATOM      7  C   UNL     1       1.070 -15.700 -38.387  1.00  0.00     0.094 C 
ATOM      8  C   UNL     1      -0.505 -16.128 -40.122  1.00  0.00     0.037 C 
ATOM      9  C   UNL     1       0.003 -16.603 -37.874  1.00  0.00    -0.039 C 
ATOM     10  C   UNL     1      -0.915 -16.782 -38.833  1.00  0.00    -0.024 C 
BRANCH   3  11
ATOM     11  C   UNL     1       1.400 -14.393 -41.951  1.00  0.00     0.337 C 
ATOM     12  O   UNL     1       2.152 -14.622 -42.938  1.00  0.00    -0.246 OA
BRANCH  11  13
ATOM     13  O   UNL     1       0.202 -13.689 -42.133  1.00  0.00    -0.466 OA
ATOM     14  C   UNL     1      -0.676 -13.933 -43.227  1.00  0.00     0.282 C 
ENDBRANCH  11  13
ENDBRANCH   3  11
BRANCH   9  15
ATOM     15  C   UNL     1      -0.167 -17.030 -36.442  1.00  0.00     0.187 C 
BRANCH  15  16
ATOM     16  O   UNL     1       0.871 -17.895 -36.053  1.00  0.00    -0.392 OA
ATOM     17  H   UNL     1       1.290 -17.503 -35.240  1.00  0.00     0.211 HD
ENDBRANCH  15  16
ENDBRANCH   9  15
ENDBRANCH   1   2
BRANCH   1  18
ATOM     18  C   UNL     1       4.315 -17.386 -37.803  1.00  0.00     0.286 C 
ATOM     19  C   UNL     1       4.472 -18.101 -36.445  1.00  0.00     0.202 C 
ATOM     20  O   UNL     1       4.980 -18.079 -38.855  1.00  0.00    -0.341 OA
ATOM     21  C   UNL     1       4.011 -19.566 -36.530  1.00  0.00     0.179 C 
ATOM     22  C   UNL     1       4.592 -19.444 -39.001  1.00  0.00     0.178 C 
ATOM     23  C   UNL     1       4.751 -20.246 -37.685  1.00  0.00     0.177 C 
BRANCH  19  24
ATOM     24  O   UNL     1       3.797 -17.402 -35.428  1.00  0.00    -0.385 OA
ATOM     25  H   UNL     1       3.101 -18.003 -35.055  1.00  0.00     0.211 HD
ENDBRANCH  19  24
BRANCH  21  26
ATOM     26  O   UNL     1       4.318 -20.230 -35.328  1.00  0.00    -0.387 OA
ATOM     27  H   UNL     1       4.803 -19.581 -34.755  1.00  0.00     0.211 HD
ENDBRANCH  21  26
BRANCH  22  28
ATOM     28  C   UNL     1       3.214 -19.590 -39.686  1.00  0.00     0.191 C 
BRANCH  28  29
ATOM     29  O   UNL     1       3.198 -20.716 -40.526  1.00  0.00    -0.394 OA
ATOM     30  H   UNL     1       2.499 -21.332 -40.181  1.00  0.00     0.210 HD
ENDBRANCH  28  29
ENDBRANCH  22  28
BRANCH  23  31
ATOM     31  O   UNL     1       4.277 -21.559 -37.849  1.00  0.00    -0.387 OA
ATOM     32  H   UNL     1       5.031 -22.176 -37.665  1.00  0.00     0.211 HD
ENDBRANCH  23  31
ENDBRANCH   1  18
TORSDOF 11
ENDMDL
MODEL 8
REMARK VINA RESULT:    -4.862      2.090      6.889
REMARK INTER + INTRA:          -8.893
REMARK INTER:                  -7.343
REMARK INTRA:                  -1.550
REMARK UNBOUND:                -1.616
REMARK SMILES COC(=O)C1=CO[C@H](O[C@@H]2O[C@H](CO)[C@H](O)[C@@H](O)[C@@H]2O)[C@@H]2C(CO)=CC[C@@H]12
REMARK SMILES IDX 9 1 8 2 5 3 6 4 27 5 7 6 21 7 26 8 22 9 25 10 3 11 4 12 2 13
REMARK SMILES IDX 1 14 23 15 24 16 10 18 19 19 11 20 17 21 12 22 15 23 20 24
REMARK SMILES IDX 18 26 13 28 14 29 16 31
REMARK H PARENT 24 17 20 25 18 27 14 30 16 32
REMARK Flexibility Score: inf
ROOT
ATOM      1  O   UNL     1       4.741 -16.354 -38.385  1.00  0.00    -0.310 OA
ENDROOT
BRANCH   1   2
ATOM      2  C   UNL     1       3.422 -16.760 -38.705  1.00  0.00     0.316 C 
ATOM      3  C   UNL     1       1.881 -16.610 -36.216  1.00  0.00     0.076 C 
ATOM      4  C   UNL     1       2.272 -17.804 -36.713  1.00  0.00     0.202 C 
ATOM      5  C   UNL     1       2.422 -15.386 -36.905  1.00  0.00     0.047 C 
ATOM      6  O   UNL     1       3.028 -17.897 -37.905  1.00  0.00    -0.471 OA
ATOM      7  C   UNL     1       2.439 -15.625 -38.409  1.00  0.00     0.094 C 
ATOM      8  C   UNL     1       1.727 -14.033 -36.787  1.00  0.00     0.037 C 
ATOM      9  C   UNL     1       2.658 -14.250 -38.936  1.00  0.00    -0.039 C 
ATOM     10  C   UNL     1       2.191 -13.363 -38.049  1.00  0.00    -0.024 C 
BRANCH   3  11
ATOM     11  C   UNL     1       1.125 -16.533 -34.950  1.00  0.00     0.337 C 
ATOM     12  O   UNL     1      -0.010 -17.074 -34.850  1.00  0.00    -0.246 OA
BRANCH  11  13
ATOM     13  O   UNL     1       1.678 -15.862 -33.851  1.00  0.00    -0.466 OA
ATOM     14  C   UNL     1       0.968 -14.872 -33.115  1.00  0.00     0.282 C 
ENDBRANCH  11  13
ENDBRANCH   3  11
BRANCH   9  15
ATOM     15  C   UNL     1       3.085 -13.909 -40.338  1.00  0.00     0.187 C 
BRANCH  15  16
ATOM     16  O   UNL     1       3.987 -12.831 -40.338  1.00  0.00    -0.392 OA
ATOM     17  H   UNL     1       3.650 -12.168 -41.000  1.00  0.00     0.211 HD
ENDBRANCH  15  16
ENDBRANCH   9  15
ENDBRANCH   1   2
BRANCH   1  18
ATOM     18  C   UNL     1       5.539 -16.162 -39.545  1.00  0.00     0.286 C 
ATOM     19  C   UNL     1       6.674 -15.152 -39.274  1.00  0.00     0.202 C 
ATOM     20  O   UNL     1       6.034 -17.413 -40.015  1.00  0.00    -0.341 OA
ATOM     21  C   UNL     1       7.722 -15.735 -38.312  1.00  0.00     0.179 C 
ATOM     22  C   UNL     1       7.005 -18.020 -39.164  1.00  0.00     0.178 C 
ATOM     23  C   UNL     1       8.201 -17.080 -38.867  1.00  0.00     0.177 C 
BRANCH  19  24
ATOM     24  O   UNL     1       6.157 -13.931 -38.802  1.00  0.00    -0.385 OA
ATOM     25  H   UNL     1       6.920 -13.310 -38.667  1.00  0.00     0.211 HD
ENDBRANCH  19  24
BRANCH  21  26
ATOM     26  O   UNL     1       8.818 -14.858 -38.216  1.00  0.00    -0.387 OA
ATOM     27  H   UNL     1       8.520 -13.983 -38.577  1.00  0.00     0.211 HD
ENDBRANCH  21  26
BRANCH  22  28
ATOM     28  C   UNL     1       6.364 -18.668 -37.915  1.00  0.00     0.191 C 
BRANCH  28  29
ATOM     29  O   UNL     1       5.292 -19.496 -38.284  1.00  0.00    -0.394 OA
ATOM     30  H   UNL     1       4.929 -19.147 -39.140  1.00  0.00     0.210 HD
ENDBRANCH  28  29
ENDBRANCH  22  28
BRANCH  23  31
ATOM     31  O   UNL     1       9.086 -17.684 -37.958  1.00  0.00    -0.387 OA
ATOM     32  H   UNL     1       9.552 -16.959 -37.467  1.00  0.00     0.211 HD
ENDBRANCH  23  31
ENDBRANCH   1  18
TORSDOF 11
ENDMDL
MODEL 9
REMARK VINA RESULT:    -4.745      3.763      8.016
REMARK INTER + INTRA:          -8.719
REMARK INTER:                  -7.180
REMARK INTRA:                  -1.539
REMARK UNBOUND:                -1.616
REMARK SMILES COC(=O)C1=CO[C@H](O[C@@H]2O[C@H](CO)[C@H](O)[C@@H](O)[C@@H]2O)[C@@H]2C(CO)=CC[C@@H]12
REMARK SMILES IDX 9 1 8 2 5 3 6 4 27 5 7 6 21 7 26 8 22 9 25 10 3 11 4 12 2 13
REMARK SMILES IDX 1 14 23 15 24 16 10 18 19 19 11 20 17 21 12 22 15 23 20 24
REMARK SMILES IDX 18 26 13 28 14 29 16 31
REMARK H PARENT 24 17 20 25 18 27 14 30 16 32
REMARK Flexibility Score: inf
ROOT
ATOM      1  O   UNL     1       7.007 -15.090 -40.759  1.00  0.00    -0.310 OA
ENDROOT
BRANCH   1   2
ATOM      2  C   UNL     1       6.669 -15.092 -39.383  1.00  0.00     0.316 C 
ATOM      3  C   UNL     1       5.270 -17.617 -38.876  1.00  0.00     0.076 C 
ATOM      4  C   UNL     1       4.587 -16.455 -38.950  1.00  0.00     0.202 C 
ATOM      5  C   UNL     1       6.731 -17.562 -39.237  1.00  0.00     0.047 C 
ATOM      6  O   UNL     1       5.241 -15.227 -39.207  1.00  0.00    -0.471 OA
ATOM      7  C   UNL     1       7.334 -16.278 -38.682  1.00  0.00     0.094 C 
ATOM      8  C   UNL     1       7.710 -18.629 -38.757  1.00  0.00     0.037 C 
ATOM      9  C   UNL     1       8.793 -16.542 -38.817  1.00  0.00    -0.039 C 
ATOM     10  C   UNL     1       9.003 -17.864 -38.788  1.00  0.00    -0.024 C 
BRANCH   3  11
ATOM     11  C   UNL     1       4.563 -18.893 -38.645  1.00  0.00     0.337 C 
ATOM     12  O   UNL     1       3.804 -19.370 -39.532  1.00  0.00    -0.246 OA
BRANCH  11  13
ATOM     13  O   UNL     1       4.746 -19.580 -37.438  1.00  0.00    -0.466 OA
ATOM     14  C   UNL     1       4.206 -20.876 -37.199  1.00  0.00     0.282 C 
ENDBRANCH  11  13
ENDBRANCH   3  11
BRANCH   9  15
ATOM     15  C   UNL     1       9.880 -15.505 -38.732  1.00  0.00     0.187 C 
BRANCH  15  16
ATOM     16  O   UNL     1      10.967 -15.851 -39.553  1.00  0.00    -0.392 OA
ATOM     17  H   UNL     1      11.782 -15.452 -39.145  1.00  0.00     0.211 HD
ENDBRANCH  15  16
ENDBRANCH   9  15
ENDBRANCH   1   2
BRANCH   1  18
ATOM     18  C   UNL     1       7.736 -13.928 -41.130  1.00  0.00     0.286 C 
ATOM     19  C   UNL     1       8.719 -14.235 -42.279  1.00  0.00     0.202 C 
ATOM     20  O   UNL     1       6.841 -12.869 -41.458  1.00  0.00    -0.341 OA
ATOM     21  C   UNL     1       7.970 -14.521 -43.591  1.00  0.00     0.179 C 
ATOM     22  C   UNL     1       6.101 -13.072 -42.660  1.00  0.00     0.178 C 
ATOM     23  C   UNL     1       7.019 -13.356 -43.877  1.00  0.00     0.177 C 
BRANCH  19  24
ATOM     24  O   UNL     1       9.582 -15.290 -41.933  1.00  0.00    -0.385 OA
ATOM     25  H   UNL     1      10.022 -15.610 -42.764  1.00  0.00     0.211 HD
ENDBRANCH  19  24
BRANCH  21  26
ATOM     26  O   UNL     1       8.892 -14.636 -44.648  1.00  0.00    -0.387 OA
ATOM     27  H   UNL     1       8.829 -15.566 -44.987  1.00  0.00     0.211 HD
ENDBRANCH  21  26
BRANCH  22  28
ATOM     28  C   UNL     1       4.945 -14.081 -42.472  1.00  0.00     0.191 C 
BRANCH  28  29
ATOM     29  O   UNL     1       4.157 -13.727 -41.364  1.00  0.00    -0.394 OA
ATOM     30  H   UNL     1       4.777 -13.464 -40.633  1.00  0.00     0.210 HD
ENDBRANCH  28  29
ENDBRANCH  22  28
BRANCH  23  31
ATOM     31  O   UNL     1       6.249 -13.636 -45.018  1.00  0.00    -0.387 OA
ATOM     32  H   UNL     1       5.436 -13.069 -44.978  1.00  0.00     0.211 HD
ENDBRANCH  23  31
ENDBRANCH   1  18
TORSDOF 11
ENDMDL
