MODEL 1
REMARK VINA RESULT:    -6.314      0.000      0.000
REMARK INTER + INTRA:          -7.540
REMARK INTER:                  -7.421
REMARK INTRA:                  -0.119
REMARK UNBOUND:                -0.119
REMARK SMILES Oc1ccc(-c2[o+]c3cc(O)cc(O)c3cc2O)cc1
REMARK SMILES IDX 6 1 7 2 8 3 9 4 10 5 12 6 13 7 15 8 16 9 17 10 5 11 4 12
REMARK SMILES IDX 3 13 2 14 19 15 20 16 1 17 18 19 11 21 14 23
REMARK H PARENT 1 18 18 20 11 22 14 24
REMARK Flexibility Score: inf
ROOT
ATOM      1  C   UNL     1     -21.977  34.075 -13.488  1.00  0.00     0.401 A 
ATOM      2  O   UNL     1     -21.347  33.041 -12.938  1.00  0.00    -0.202 OA
ATOM      3  C   UNL     1     -20.035  32.851 -13.032  1.00  0.00     0.368 A 
ATOM      4  C   UNL     1     -19.464  31.734 -12.417  1.00  0.00     0.162 A 
ATOM      5  C   UNL     1     -18.089  31.510 -12.496  1.00  0.00     0.128 A 
ATOM      6  C   UNL     1     -17.276  32.411 -13.194  1.00  0.00     0.093 A 
ATOM      7  C   UNL     1     -17.824  33.539 -13.818  1.00  0.00     0.136 A 
ATOM      8  C   UNL     1     -19.223  33.767 -13.742  1.00  0.00     0.125 A 
ATOM      9  C   UNL     1     -19.859  34.862 -14.348  1.00  0.00     0.078 A 
ATOM     10  C   UNL     1     -21.244  35.019 -14.234  1.00  0.00     0.223 A 
ENDROOT
BRANCH   1  11
ATOM     11  C   UNL     1     -23.442  34.181 -13.305  1.00  0.00     0.084 A 
ATOM     12  C   UNL     1     -24.015  34.292 -12.024  1.00  0.00     0.022 A 
ATOM     13  C   UNL     1     -25.404  34.366 -11.875  1.00  0.00     0.047 A 
ATOM     14  C   UNL     1     -26.235  34.318 -12.997  1.00  0.00     0.115 A 
ATOM     15  C   UNL     1     -24.286  34.112 -14.425  1.00  0.00     0.022 A 
ATOM     16  C   UNL     1     -25.673  34.187 -14.274  1.00  0.00     0.047 A 
BRANCH  14  17
ATOM     17  O   UNL     1     -27.617  34.395 -12.833  1.00  0.00    -0.508 OA
ATOM     18  H   UNL     1     -28.226  34.673 -13.595  1.00  0.00     0.293 HD
ENDBRANCH  14  17
ENDBRANCH   1  11
BRANCH  10  19
ATOM     19  O   UNL     1     -21.884  36.078 -14.877  1.00  0.00    -0.500 OA
ATOM     20  H   UNL     1     -21.509  37.019 -14.855  1.00  0.00     0.294 HD
ENDBRANCH  10  19
BRANCH   5  21
ATOM     21  O   UNL     1     -17.538  30.390 -11.877  1.00  0.00    -0.507 OA
ATOM     22  H   UNL     1     -16.572  30.375 -11.572  1.00  0.00     0.293 HD
ENDBRANCH   5  21
BRANCH   7  23
ATOM     23  O   UNL     1     -16.945  34.392 -14.492  1.00  0.00    -0.507 OA
ATOM     24  H   UNL     1     -16.068  34.721 -14.115  1.00  0.00     0.293 HD
ENDBRANCH   7  23
TORSDOF 5
ENDMDL
MODEL 2
REMARK VINA RESULT:    -6.291      1.092      2.885
REMARK INTER + INTRA:          -7.514
REMARK INTER:                  -7.493
REMARK INTRA:                  -0.021
REMARK UNBOUND:                -0.119
REMARK SMILES Oc1ccc(-c2[o+]c3cc(O)cc(O)c3cc2O)cc1
REMARK SMILES IDX 6 1 7 2 8 3 9 4 10 5 12 6 13 7 15 8 16 9 17 10 5 11 4 12
REMARK SMILES IDX 3 13 2 14 19 15 20 16 1 17 18 19 11 21 14 23
REMARK H PARENT 1 18 18 20 11 22 14 24
REMARK Flexibility Score: inf
ROOT
ATOM      1  C   UNL     1     -22.215  33.041 -13.287  1.00  0.00     0.401 A 
ATOM      2  O   UNL     1     -21.191  33.708 -13.812  1.00  0.00    -0.202 OA
ATOM      3  C   UNL     1     -19.922  33.345 -13.649  1.00  0.00     0.368 A 
ATOM      4  C   UNL     1     -18.915  34.109 -14.243  1.00  0.00     0.162 A 
ATOM      5  C   UNL     1     -17.575  33.750 -14.093  1.00  0.00     0.128 A 
ATOM      6  C   UNL     1     -17.237  32.617 -13.343  1.00  0.00     0.093 A 
ATOM      7  C   UNL     1     -18.229  31.834 -12.738  1.00  0.00     0.136 A 
ATOM      8  C   UNL     1     -19.593  32.198 -12.887  1.00  0.00     0.125 A 
ATOM      9  C   UNL     1     -20.651  31.481 -12.306  1.00  0.00     0.078 A 
ATOM     10  C   UNL     1     -21.970  31.904 -12.493  1.00  0.00     0.223 A 
ENDROOT
BRANCH   1  11
ATOM     11  C   UNL     1     -23.583  33.541 -13.547  1.00  0.00     0.084 A 
ATOM     12  C   UNL     1     -24.035  33.797 -14.855  1.00  0.00     0.022 A 
ATOM     13  C   UNL     1     -25.324  34.292 -15.075  1.00  0.00     0.047 A 
ATOM     14  C   UNL     1     -26.172  34.550 -13.994  1.00  0.00     0.115 A 
ATOM     15  C   UNL     1     -24.434  33.824 -12.466  1.00  0.00     0.022 A 
ATOM     16  C   UNL     1     -25.723  34.318 -12.688  1.00  0.00     0.047 A 
BRANCH  14  17
ATOM     17  O   UNL     1     -27.454  35.041 -14.228  1.00  0.00    -0.508 OA
ATOM     18  H   UNL     1     -27.726  35.973 -13.935  1.00  0.00     0.293 HD
ENDBRANCH  14  17
ENDBRANCH   1  11
BRANCH  10  19
ATOM     19  O   UNL     1     -23.018  31.222 -11.875  1.00  0.00    -0.500 OA
ATOM     20  H   UNL     1     -23.946  31.622 -11.806  1.00  0.00     0.294 HD
ENDBRANCH  10  19
BRANCH   5  21
ATOM     21  O   UNL     1     -16.584  34.525 -14.692  1.00  0.00    -0.507 OA
ATOM     22  H   UNL     1     -16.642  34.797 -15.666  1.00  0.00     0.293 HD
ENDBRANCH   5  21
BRANCH   7  23
ATOM     23  O   UNL     1     -17.811  30.717 -12.010  1.00  0.00    -0.507 OA
ATOM     24  H   UNL     1     -17.604  29.816 -12.416  1.00  0.00     0.293 HD
ENDBRANCH   7  23
TORSDOF 5
ENDMDL
MODEL 3
REMARK VINA RESULT:    -6.192      8.665      9.744
REMARK INTER + INTRA:          -7.397
REMARK INTER:                  -7.078
REMARK INTRA:                  -0.319
REMARK UNBOUND:                -0.119
REMARK SMILES Oc1ccc(-c2[o+]c3cc(O)cc(O)c3cc2O)cc1
REMARK SMILES IDX 6 1 7 2 8 3 9 4 10 5 12 6 13 7 15 8 16 9 17 10 5 11 4 12
REMARK SMILES IDX 3 13 2 14 19 15 20 16 1 17 18 19 11 21 14 23
REMARK H PARENT 1 18 18 20 11 22 14 24
REMARK Flexibility Score: inf
ROOT
ATOM      1  C   UNL     1     -21.986  29.911 -21.520  1.00  0.00     0.401 A 
ATOM      2  O   UNL     1     -22.233  31.216 -21.593  1.00  0.00    -0.202 OA
ATOM      3  C   UNL     1     -21.281  32.142 -21.539  1.00  0.00     0.368 A 
ATOM      4  C   UNL     1     -21.639  33.490 -21.628  1.00  0.00     0.162 A 
ATOM      5  C   UNL     1     -20.662  34.485 -21.577  1.00  0.00     0.128 A 
ATOM      6  C   UNL     1     -19.315  34.132 -21.438  1.00  0.00     0.093 A 
ATOM      7  C   UNL     1     -18.931  32.787 -21.348  1.00  0.00     0.136 A 
ATOM      8  C   UNL     1     -19.922  31.773 -21.396  1.00  0.00     0.125 A 
ATOM      9  C   UNL     1     -19.630  30.403 -21.300  1.00  0.00     0.078 A 
ATOM     10  C   UNL     1     -20.662  29.461 -21.351  1.00  0.00     0.223 A 
ENDROOT
BRANCH   1  11
ATOM     11  C   UNL     1     -23.132  28.976 -21.602  1.00  0.00     0.084 A 
ATOM     12  C   UNL     1     -23.601  28.497 -22.839  1.00  0.00     0.022 A 
ATOM     13  C   UNL     1     -24.699  27.633 -22.892  1.00  0.00     0.047 A 
ATOM     14  C   UNL     1     -25.350  27.249 -21.716  1.00  0.00     0.115 A 
ATOM     15  C   UNL     1     -23.804  28.602 -20.427  1.00  0.00     0.022 A 
ATOM     16  C   UNL     1     -24.902  27.738 -20.482  1.00  0.00     0.047 A 
BRANCH  14  17
ATOM     17  O   UNL     1     -26.442  26.387 -21.785  1.00  0.00    -0.508 OA
ATOM     18  H   UNL     1     -26.329  25.405 -22.010  1.00  0.00     0.293 HD
ENDBRANCH  14  17
ENDBRANCH   1  11
BRANCH  10  19
ATOM     19  O   UNL     1     -20.379  28.104 -21.205  1.00  0.00    -0.500 OA
ATOM     20  H   UNL     1     -20.539  27.617 -20.330  1.00  0.00     0.294 HD
ENDBRANCH  10  19
BRANCH   5  21
ATOM     21  O   UNL     1     -21.039  35.823 -21.666  1.00  0.00    -0.507 OA
ATOM     22  H   UNL     1     -20.546  36.547 -21.158  1.00  0.00     0.293 HD
ENDBRANCH   5  21
BRANCH   7  23
ATOM     23  O   UNL     1     -17.566  32.517 -21.215  1.00  0.00    -0.507 OA
ATOM     24  H   UNL     1     -17.186  31.742 -20.691  1.00  0.00     0.293 HD
ENDBRANCH   7  23
TORSDOF 5
ENDMDL
MODEL 4
REMARK VINA RESULT:    -6.165      5.938      8.201
REMARK INTER + INTRA:          -7.365
REMARK INTER:                  -7.119
REMARK INTRA:                  -0.246
REMARK UNBOUND:                -0.119
REMARK SMILES Oc1ccc(-c2[o+]c3cc(O)cc(O)c3cc2O)cc1
REMARK SMILES IDX 6 1 7 2 8 3 9 4 10 5 12 6 13 7 15 8 16 9 17 10 5 11 4 12
REMARK SMILES IDX 3 13 2 14 19 15 20 16 1 17 18 19 11 21 14 23
REMARK H PARENT 1 18 18 20 11 22 14 24
REMARK Flexibility Score: inf
ROOT
ATOM      1  C   UNL     1     -25.176  29.572 -16.822  1.00  0.00     0.401 A 
ATOM      2  O   UNL     1     -25.645  30.813 -16.728  1.00  0.00    -0.202 OA
ATOM      3  C   UNL     1     -25.478  31.576 -15.652  1.00  0.00     0.368 A 
ATOM      4  C   UNL     1     -26.005  32.870 -15.649  1.00  0.00     0.162 A 
ATOM      5  C   UNL     1     -25.843  33.696 -14.536  1.00  0.00     0.128 A 
ATOM      6  C   UNL     1     -25.147  33.227 -13.416  1.00  0.00     0.093 A 
ATOM      7  C   UNL     1     -24.608  31.934 -13.395  1.00  0.00     0.136 A 
ATOM      8  C   UNL     1     -24.773  31.091 -14.525  1.00  0.00     0.125 A 
ATOM      9  C   UNL     1     -24.279  29.778 -14.586  1.00  0.00     0.078 A 
ATOM     10  C   UNL     1     -24.486  29.004 -15.733  1.00  0.00     0.223 A 
ENDROOT
BRANCH   1  11
ATOM     11  C   UNL     1     -25.419  28.825 -18.077  1.00  0.00     0.084 A 
ATOM     12  C   UNL     1     -24.371  28.528 -18.968  1.00  0.00     0.022 A 
ATOM     13  C   UNL     1     -24.630  27.842 -20.159  1.00  0.00     0.047 A 
ATOM     14  C   UNL     1     -25.934  27.456 -20.480  1.00  0.00     0.115 A 
ATOM     15  C   UNL     1     -26.729  28.453 -18.417  1.00  0.00     0.022 A 
ATOM     16  C   UNL     1     -26.985  27.766 -19.608  1.00  0.00     0.047 A 
BRANCH  14  17
ATOM     17  O   UNL     1     -26.176  26.772 -21.670  1.00  0.00    -0.508 OA
ATOM     18  H   UNL     1     -26.079  27.226 -22.571  1.00  0.00     0.293 HD
ENDBRANCH  14  17
ENDBRANCH   1  11
BRANCH  10  19
ATOM     19  O   UNL     1     -24.040  27.684 -15.776  1.00  0.00    -0.500 OA
ATOM     20  H   UNL     1     -23.691  27.267 -16.631  1.00  0.00     0.294 HD
ENDBRANCH  10  19
BRANCH   5  21
ATOM     21  O   UNL     1     -26.377  34.983 -14.551  1.00  0.00    -0.507 OA
ATOM     22  H   UNL     1     -27.131  35.251 -13.930  1.00  0.00     0.293 HD
ENDBRANCH   5  21
BRANCH   7  23
ATOM     23  O   UNL     1     -23.923  31.542 -12.242  1.00  0.00    -0.507 OA
ATOM     24  H   UNL     1     -24.206  30.782 -11.640  1.00  0.00     0.293 HD
ENDBRANCH   7  23
TORSDOF 5
ENDMDL
MODEL 5
REMARK VINA RESULT:    -6.157      7.609     10.243
REMARK INTER + INTRA:          -7.355
REMARK INTER:                  -7.062
REMARK INTRA:                  -0.294
REMARK UNBOUND:                -0.119
REMARK SMILES Oc1ccc(-c2[o+]c3cc(O)cc(O)c3cc2O)cc1
REMARK SMILES IDX 6 1 7 2 8 3 9 4 10 5 12 6 13 7 15 8 16 9 17 10 5 11 4 12
REMARK SMILES IDX 3 13 2 14 19 15 20 16 1 17 18 19 11 21 14 23
REMARK H PARENT 1 18 18 20 11 22 14 24
REMARK Flexibility Score: inf
ROOT
ATOM      1  C   UNL     1     -25.747  29.068 -17.610  1.00  0.00     0.401 A 
ATOM      2  O   UNL     1     -25.487  28.436 -18.751  1.00  0.00    -0.202 OA
ATOM      3  C   UNL     1     -26.435  27.995 -19.572  1.00  0.00     0.368 A 
ATOM      4  C   UNL     1     -26.063  27.344 -20.751  1.00  0.00     0.162 A 
ATOM      5  C   UNL     1     -27.035  26.873 -21.635  1.00  0.00     0.128 A 
ATOM      6  C   UNL     1     -28.391  27.055 -21.339  1.00  0.00     0.093 A 
ATOM      7  C   UNL     1     -28.789  27.705 -20.164  1.00  0.00     0.136 A 
ATOM      8  C   UNL     1     -27.803  28.183 -19.262  1.00  0.00     0.125 A 
ATOM      9  C   UNL     1     -28.110  28.833 -18.056  1.00  0.00     0.078 A 
ATOM     10  C   UNL     1     -27.083  29.272 -17.216  1.00  0.00     0.223 A 
ENDROOT
BRANCH   1  11
ATOM     11  C   UNL     1     -24.604  29.519 -16.784  1.00  0.00     0.084 A 
ATOM     12  C   UNL     1     -23.907  30.705 -17.081  1.00  0.00     0.022 A 
ATOM     13  C   UNL     1     -22.815  31.098 -16.301  1.00  0.00     0.047 A 
ATOM     14  C   UNL     1     -22.398  30.309 -15.225  1.00  0.00     0.115 A 
ATOM     15  C   UNL     1     -24.165  28.721 -15.715  1.00  0.00     0.022 A 
ATOM     16  C   UNL     1     -23.074  29.117 -14.936  1.00  0.00     0.047 A 
BRANCH  14  17
ATOM     17  O   UNL     1     -21.310  30.714 -14.456  1.00  0.00    -0.508 OA
ATOM     18  H   UNL     1     -20.591  31.322 -14.833  1.00  0.00     0.293 HD
ENDBRANCH  14  17
ENDBRANCH   1  11
BRANCH  10  19
ATOM     19  O   UNL     1     -27.387  29.873 -15.994  1.00  0.00    -0.500 OA
ATOM     20  H   UNL     1     -26.907  30.707 -15.677  1.00  0.00     0.294 HD
ENDBRANCH  10  19
BRANCH   5  21
ATOM     21  O   UNL     1     -26.645  26.225 -22.805  1.00  0.00    -0.507 OA
ATOM     22  H   UNL     1     -26.115  25.362 -22.781  1.00  0.00     0.293 HD
ENDBRANCH   5  21
BRANCH   7  23
ATOM     23  O   UNL     1     -30.162  27.852 -19.944  1.00  0.00    -0.507 OA
ATOM     24  H   UNL     1     -30.830  28.110 -20.656  1.00  0.00     0.293 HD
ENDBRANCH   7  23
TORSDOF 5
ENDMDL
MODEL 6
REMARK VINA RESULT:    -6.152      6.692      7.634
REMARK INTER + INTRA:          -7.350
REMARK INTER:                  -7.048
REMARK INTRA:                  -0.302
REMARK UNBOUND:                -0.119
REMARK SMILES Oc1ccc(-c2[o+]c3cc(O)cc(O)c3cc2O)cc1
REMARK SMILES IDX 6 1 7 2 8 3 9 4 10 5 12 6 13 7 15 8 16 9 17 10 5 11 4 12
REMARK SMILES IDX 3 13 2 14 19 15 20 16 1 17 18 19 11 21 14 23
REMARK H PARENT 1 18 18 20 11 22 14 24
REMARK Flexibility Score: inf
ROOT
ATOM      1  C   UNL     1     -24.378  29.589 -18.354  1.00  0.00     0.401 A 
ATOM      2  O   UNL     1     -24.230  29.172 -17.100  1.00  0.00    -0.202 OA
ATOM      3  C   UNL     1     -23.607  29.880 -16.164  1.00  0.00     0.368 A 
ATOM      4  C   UNL     1     -23.505  29.358 -14.872  1.00  0.00     0.162 A 
ATOM      5  C   UNL     1     -22.860  30.080 -13.867  1.00  0.00     0.128 A 
ATOM      6  C   UNL     1     -22.314  31.337 -14.154  1.00  0.00     0.093 A 
ATOM      7  C   UNL     1     -22.405  31.883 -15.441  1.00  0.00     0.136 A 
ATOM      8  C   UNL     1     -23.057  31.149 -16.466  1.00  0.00     0.125 A 
ATOM      9  C   UNL     1     -23.183  31.612 -17.785  1.00  0.00     0.078 A 
ATOM     10  C   UNL     1     -23.836  30.830 -18.743  1.00  0.00     0.223 A 
ENDROOT
BRANCH   1  11
ATOM     11  C   UNL     1     -25.099  28.712 -19.304  1.00  0.00     0.084 A 
ATOM     12  C   UNL     1     -24.409  27.848 -20.174  1.00  0.00     0.022 A 
ATOM     13  C   UNL     1     -25.111  27.046 -21.079  1.00  0.00     0.047 A 
ATOM     14  C   UNL     1     -26.506  27.106 -21.136  1.00  0.00     0.115 A 
ATOM     15  C   UNL     1     -26.500  28.782 -19.383  1.00  0.00     0.022 A 
ATOM     16  C   UNL     1     -27.200  27.979 -20.288  1.00  0.00     0.047 A 
BRANCH  14  17
ATOM     17  O   UNL     1     -27.193  26.300 -22.042  1.00  0.00    -0.508 OA
ATOM     18  H   UNL     1     -28.206  26.251 -22.045  1.00  0.00     0.293 HD
ENDBRANCH  14  17
ENDBRANCH   1  11
BRANCH  10  19
ATOM     19  O   UNL     1     -23.918  31.266 -20.065  1.00  0.00    -0.500 OA
ATOM     20  H   UNL     1     -23.961  32.251 -20.299  1.00  0.00     0.294 HD
ENDBRANCH  10  19
BRANCH   5  21
ATOM     21  O   UNL     1     -22.767  29.542 -12.585  1.00  0.00    -0.507 OA
ATOM     22  H   UNL     1     -22.840  30.124 -11.760  1.00  0.00     0.293 HD
ENDBRANCH   5  21
BRANCH   7  23
ATOM     23  O   UNL     1     -21.838  33.144 -15.645  1.00  0.00    -0.507 OA
ATOM     24  H   UNL     1     -22.175  33.819 -16.315  1.00  0.00     0.293 HD
ENDBRANCH   7  23
TORSDOF 5
ENDMDL
MODEL 7
REMARK VINA RESULT:    -6.128      8.436     10.951
REMARK INTER + INTRA:          -7.322
REMARK INTER:                  -7.057
REMARK INTRA:                  -0.265
REMARK UNBOUND:                -0.119
REMARK SMILES Oc1ccc(-c2[o+]c3cc(O)cc(O)c3cc2O)cc1
REMARK SMILES IDX 6 1 7 2 8 3 9 4 10 5 12 6 13 7 15 8 16 9 17 10 5 11 4 12
REMARK SMILES IDX 3 13 2 14 19 15 20 16 1 17 18 19 11 21 14 23
REMARK H PARENT 1 18 18 20 11 22 14 24
REMARK Flexibility Score: inf
ROOT
ATOM      1  C   UNL     1     -25.408  28.461 -18.919  1.00  0.00     0.401 A 
ATOM      2  O   UNL     1     -26.738  28.479 -18.874  1.00  0.00    -0.202 OA
ATOM      3  C   UNL     1     -27.508  27.948 -19.818  1.00  0.00     0.368 A 
ATOM      4  C   UNL     1     -28.897  28.015 -19.679  1.00  0.00     0.162 A 
ATOM      5  C   UNL     1     -29.731  27.463 -20.653  1.00  0.00     0.128 A 
ATOM      6  C   UNL     1     -29.173  26.838 -21.774  1.00  0.00     0.093 A 
ATOM      7  C   UNL     1     -27.784  26.758 -21.936  1.00  0.00     0.136 A 
ATOM      8  C   UNL     1     -26.933  27.320 -20.949  1.00  0.00     0.125 A 
ATOM      9  C   UNL     1     -25.532  27.298 -21.035  1.00  0.00     0.078 A 
ATOM     10  C   UNL     1     -24.759  27.878 -20.025  1.00  0.00     0.223 A 
ENDROOT
BRANCH   1  11
ATOM     11  C   UNL     1     -24.660  29.078 -17.801  1.00  0.00     0.084 A 
ATOM     12  C   UNL     1     -24.053  30.341 -17.933  1.00  0.00     0.022 A 
ATOM     13  C   UNL     1     -23.332  30.893 -16.870  1.00  0.00     0.047 A 
ATOM     14  C   UNL     1     -23.196  30.189 -15.670  1.00  0.00     0.115 A 
ATOM     15  C   UNL     1     -24.502  28.368 -16.600  1.00  0.00     0.022 A 
ATOM     16  C   UNL     1     -23.780  28.923 -15.538  1.00  0.00     0.047 A 
BRANCH  14  17
ATOM     17  O   UNL     1     -22.476  30.753 -14.620  1.00  0.00    -0.508 OA
ATOM     18  H   UNL     1     -22.546  31.740 -14.399  1.00  0.00     0.293 HD
ENDBRANCH  14  17
ENDBRANCH   1  11
BRANCH  10  19
ATOM     19  O   UNL     1     -23.368  27.900 -20.133  1.00  0.00    -0.500 OA
ATOM     20  H   UNL     1     -22.838  27.067 -20.361  1.00  0.00     0.294 HD
ENDBRANCH  10  19
BRANCH   5  21
ATOM     21  O   UNL     1     -31.113  27.541 -20.497  1.00  0.00    -0.507 OA
ATOM     22  H   UNL     1     -31.719  26.773 -20.759  1.00  0.00     0.293 HD
ENDBRANCH   5  21
BRANCH   7  23
ATOM     23  O   UNL     1     -27.306  26.114 -23.080  1.00  0.00    -0.507 OA
ATOM     24  H   UNL     1     -26.330  26.036 -23.326  1.00  0.00     0.293 HD
ENDBRANCH   7  23
TORSDOF 5
ENDMDL
MODEL 8
REMARK VINA RESULT:    -6.041      8.532      9.049
REMARK INTER + INTRA:          -7.220
REMARK INTER:                  -7.256
REMARK INTRA:                   0.036
REMARK UNBOUND:                -0.119
REMARK SMILES Oc1ccc(-c2[o+]c3cc(O)cc(O)c3cc2O)cc1
REMARK SMILES IDX 6 1 7 2 8 3 9 4 10 5 12 6 13 7 15 8 16 9 17 10 5 11 4 12
REMARK SMILES IDX 3 13 2 14 19 15 20 16 1 17 18 19 11 21 14 23
REMARK H PARENT 1 18 18 20 11 22 14 24
REMARK Flexibility Score: inf
ROOT
ATOM      1  C   UNL     1     -23.348  29.465 -20.738  1.00  0.00     0.401 A 
ATOM      2  O   UNL     1     -22.193  28.883 -21.049  1.00  0.00    -0.202 OA
ATOM      3  C   UNL     1     -21.025  29.516 -21.019  1.00  0.00     0.368 A 
ATOM      4  C   UNL     1     -19.864  28.818 -21.360  1.00  0.00     0.162 A 
ATOM      5  C   UNL     1     -18.623  29.455 -21.334  1.00  0.00     0.128 A 
ATOM      6  C   UNL     1     -18.540  30.802 -20.963  1.00  0.00     0.093 A 
ATOM      7  C   UNL     1     -19.689  31.525 -20.617  1.00  0.00     0.136 A 
ATOM      8  C   UNL     1     -20.953  30.880 -20.644  1.00  0.00     0.125 A 
ATOM      9  C   UNL     1     -22.157  31.528 -20.326  1.00  0.00     0.078 A 
ATOM     10  C   UNL     1     -23.366  30.827 -20.381  1.00  0.00     0.223 A 
ENDROOT
BRANCH   1  11
ATOM     11  C   UNL     1     -24.582  28.650 -20.802  1.00  0.00     0.084 A 
ATOM     12  C   UNL     1     -25.556  28.713 -19.787  1.00  0.00     0.022 A 
ATOM     13  C   UNL     1     -26.702  27.916 -19.857  1.00  0.00     0.047 A 
ATOM     14  C   UNL     1     -26.885  27.039 -20.930  1.00  0.00     0.115 A 
ATOM     15  C   UNL     1     -24.763  27.751 -21.865  1.00  0.00     0.022 A 
ATOM     16  C   UNL     1     -25.911  26.955 -21.933  1.00  0.00     0.047 A 
BRANCH  14  17
ATOM     17  O   UNL     1     -28.033  26.252 -20.987  1.00  0.00    -0.508 OA
ATOM     18  H   UNL     1     -28.830  26.518 -21.554  1.00  0.00     0.293 HD
ENDBRANCH  14  17
ENDBRANCH   1  11
BRANCH  10  19
ATOM     19  O   UNL     1     -24.567  31.483 -20.113  1.00  0.00    -0.500 OA
ATOM     20  H   UNL     1     -24.591  32.389 -19.661  1.00  0.00     0.294 HD
ENDBRANCH  10  19
BRANCH   5  21
ATOM     21  O   UNL     1     -17.477  28.742 -21.678  1.00  0.00    -0.507 OA
ATOM     22  H   UNL     1     -16.808  29.105 -22.347  1.00  0.00     0.293 HD
ENDBRANCH   5  21
BRANCH   7  23
ATOM     23  O   UNL     1     -19.522  32.864 -20.254  1.00  0.00    -0.507 OA
ATOM     24  H   UNL     1     -20.280  33.506 -20.074  1.00  0.00     0.293 HD
ENDBRANCH   7  23
TORSDOF 5
ENDMDL
MODEL 9
REMARK VINA RESULT:    -6.033      6.601      8.198
REMARK INTER + INTRA:          -7.210
REMARK INTER:                  -7.025
REMARK INTRA:                  -0.186
REMARK UNBOUND:                -0.119
REMARK SMILES Oc1ccc(-c2[o+]c3cc(O)cc(O)c3cc2O)cc1
REMARK SMILES IDX 6 1 7 2 8 3 9 4 10 5 12 6 13 7 15 8 16 9 17 10 5 11 4 12
REMARK SMILES IDX 3 13 2 14 19 15 20 16 1 17 18 19 11 21 14 23
REMARK H PARENT 1 18 18 20 11 22 14 24
REMARK Flexibility Score: inf
ROOT
ATOM      1  C   UNL     1     -25.710  29.604 -17.862  1.00  0.00     0.401 A 
ATOM      2  O   UNL     1     -24.856  29.204 -16.923  1.00  0.00    -0.202 OA
ATOM      3  C   UNL     1     -24.583  29.916 -15.834  1.00  0.00     0.368 A 
ATOM      4  C   UNL     1     -23.674  29.410 -14.902  1.00  0.00     0.162 A 
ATOM      5  C   UNL     1     -23.369  30.133 -13.748  1.00  0.00     0.128 A 
ATOM      6  C   UNL     1     -23.980  31.372 -13.521  1.00  0.00     0.093 A 
ATOM      7  C   UNL     1     -24.896  31.900 -14.440  1.00  0.00     0.136 A 
ATOM      8  C   UNL     1     -25.206  31.169 -15.616  1.00  0.00     0.125 A 
ATOM      9  C   UNL     1     -26.100  31.626 -16.597  1.00  0.00     0.078 A 
ATOM     10  C   UNL     1     -26.351  30.851 -17.733  1.00  0.00     0.223 A 
ENDROOT
BRANCH   1  11
ATOM     11  C   UNL     1     -25.937  28.717 -19.025  1.00  0.00     0.084 A 
ATOM     12  C   UNL     1     -24.926  28.479 -19.975  1.00  0.00     0.022 A 
ATOM     13  C   UNL     1     -25.172  27.657 -21.078  1.00  0.00     0.047 A 
ATOM     14  C   UNL     1     -26.430  27.073 -21.255  1.00  0.00     0.115 A 
ATOM     15  C   UNL     1     -27.204  28.144 -19.221  1.00  0.00     0.022 A 
ATOM     16  C   UNL     1     -27.448  27.321 -20.325  1.00  0.00     0.047 A 
BRANCH  14  17
ATOM     17  O   UNL     1     -26.660  26.254 -22.358  1.00  0.00    -0.508 OA
ATOM     18  H   UNL     1     -25.918  25.698 -22.769  1.00  0.00     0.293 HD
ENDBRANCH  14  17
ENDBRANCH   1  11
BRANCH  10  19
ATOM     19  O   UNL     1     -27.201  31.327 -18.731  1.00  0.00    -0.500 OA
ATOM     20  H   UNL     1     -27.942  31.988 -18.530  1.00  0.00     0.294 HD
ENDBRANCH  10  19
BRANCH   5  21
ATOM     21  O   UNL     1     -22.459  29.613 -12.831  1.00  0.00    -0.507 OA
ATOM     22  H   UNL     1     -21.888  30.216 -12.251  1.00  0.00     0.293 HD
ENDBRANCH   5  21
BRANCH   7  23
ATOM     23  O   UNL     1     -25.466  33.141 -14.139  1.00  0.00    -0.507 OA
ATOM     24  H   UNL     1     -25.485  33.552 -13.217  1.00  0.00     0.293 HD
ENDBRANCH   7  23
TORSDOF 5
ENDMDL
