MODEL 1
REMARK VINA RESULT:    -3.034      0.000      0.000
REMARK INTER + INTRA:          -3.451
REMARK INTER:                  -3.389
REMARK INTRA:                  -0.062
REMARK UNBOUND:                -0.062
REMARK SMILES CCCC(=O)[O-]
REMARK SMILES IDX 3 1 4 2 5 3 6 4 2 5 1 6
REMARK H PARENT
REMARK Flexibility Score: inf
ROOT
ATOM      1  C   UNL     1      60.274  29.562  10.916  1.00  0.00     0.052 C 
ENDROOT
BRANCH   1   2
ATOM      2  C   UNL     1      61.376  28.746  10.320  1.00  0.00     0.041 C 
ATOM      3  O   UNL     1      62.557  28.872  10.740  1.00  0.00    -0.550 OA
ATOM      4  O   UNL     1      61.108  27.882   9.266  1.00  0.00    -0.550 OA
ENDBRANCH   1   2
BRANCH   1   5
ATOM      5  C   UNL     1      60.307  29.473  12.445  1.00  0.00     0.003 C 
ATOM      6  C   UNL     1      59.839  28.102  12.927  1.00  0.00     0.004 C 
ENDBRANCH   1   5
TORSDOF 2
ENDMDL
MODEL 2
REMARK VINA RESULT:    -3.028     15.278     16.418
REMARK INTER + INTRA:          -3.445
REMARK INTER:                  -3.416
REMARK INTRA:                  -0.028
REMARK UNBOUND:                -0.062
REMARK SMILES CCCC(=O)[O-]
REMARK SMILES IDX 3 1 4 2 5 3 6 4 2 5 1 6
REMARK H PARENT
REMARK Flexibility Score: inf
ROOT
ATOM      1  C   UNL     1      61.495  27.232  27.422  1.00  0.00     0.052 C 
ENDROOT
BRANCH   1   2
ATOM      2  C   UNL     1      61.514  28.572  28.084  1.00  0.00     0.041 C 
ATOM      3  O   UNL     1      60.829  28.776  29.121  1.00  0.00    -0.550 OA
ATOM      4  O   UNL     1      62.249  29.611  27.528  1.00  0.00    -0.550 OA
ENDBRANCH   1   2
BRANCH   1   5
ATOM      5  C   UNL     1      61.387  27.386  25.902  1.00  0.00     0.003 C 
ATOM      6  C   UNL     1      59.985  27.038  25.410  1.00  0.00     0.004 C 
ENDBRANCH   1   5
TORSDOF 2
ENDMDL
MODEL 3
REMARK VINA RESULT:    -3.002     15.313     16.334
REMARK INTER + INTRA:          -3.415
REMARK INTER:                  -3.394
REMARK INTRA:                  -0.022
REMARK UNBOUND:                -0.062
REMARK SMILES CCCC(=O)[O-]
REMARK SMILES IDX 3 1 4 2 5 3 6 4 2 5 1 6
REMARK H PARENT
REMARK Flexibility Score: inf
ROOT
ATOM      1  C   UNL     1      61.697  27.394  27.198  1.00  0.00     0.052 C 
ENDROOT
BRANCH   1   2
ATOM      2  C   UNL     1      61.599  28.676  27.962  1.00  0.00     0.041 C 
ATOM      3  O   UNL     1      62.253  29.687  27.590  1.00  0.00    -0.550 OA
ATOM      4  O   UNL     1      60.825  28.742  29.113  1.00  0.00    -0.550 OA
ENDBRANCH   1   2
BRANCH   1   5
ATOM      5  C   UNL     1      61.313  27.613  25.732  1.00  0.00     0.003 C 
ATOM      6  C   UNL     1      59.959  26.984  25.417  1.00  0.00     0.004 C 
ENDBRANCH   1   5
TORSDOF 2
ENDMDL
MODEL 4
REMARK VINA RESULT:    -2.999      0.707      1.521
REMARK INTER + INTRA:          -3.412
REMARK INTER:                  -3.379
REMARK INTRA:                  -0.033
REMARK UNBOUND:                -0.062
REMARK SMILES CCCC(=O)[O-]
REMARK SMILES IDX 3 1 4 2 5 3 6 4 2 5 1 6
REMARK H PARENT
REMARK Flexibility Score: inf
ROOT
ATOM      1  C   UNL     1      60.455  29.448  11.021  1.00  0.00     0.052 C 
ENDROOT
BRANCH   1   2
ATOM      2  C   UNL     1      61.449  28.741  10.156  1.00  0.00     0.041 C 
ATOM      3  O   UNL     1      61.060  27.910   9.293  1.00  0.00    -0.550 OA
ATOM      4  O   UNL     1      62.808  28.963  10.336  1.00  0.00    -0.550 OA
ENDBRANCH   1   2
BRANCH   1   5
ATOM      5  C   UNL     1      60.139  28.614  12.266  1.00  0.00     0.003 C 
ATOM      6  C   UNL     1      61.126  28.910  13.392  1.00  0.00     0.004 C 
ENDBRANCH   1   5
TORSDOF 2
ENDMDL
MODEL 5
REMARK VINA RESULT:    -2.986      2.222      3.036
REMARK INTER + INTRA:          -3.398
REMARK INTER:                  -3.380
REMARK INTRA:                  -0.018
REMARK UNBOUND:                -0.062
REMARK SMILES CCCC(=O)[O-]
REMARK SMILES IDX 3 1 4 2 5 3 6 4 2 5 1 6
REMARK H PARENT
REMARK Flexibility Score: inf
ROOT
ATOM      1  C   UNL     1      60.301  29.360  11.259  1.00  0.00     0.052 C 
ENDROOT
BRANCH   1   2
ATOM      2  C   UNL     1      60.027  28.598  12.515  1.00  0.00     0.041 C 
ATOM      3  O   UNL     1      60.938  28.436  13.370  1.00  0.00    -0.550 OA
ATOM      4  O   UNL     1      58.779  28.022  12.720  1.00  0.00    -0.550 OA
ENDBRANCH   1   2
BRANCH   1   5
ATOM      5  C   UNL     1      61.455  28.718  10.483  1.00  0.00     0.003 C 
ATOM      6  C   UNL     1      60.978  28.166   9.142  1.00  0.00     0.004 C 
ENDBRANCH   1   5
TORSDOF 2
ENDMDL
MODEL 6
REMARK VINA RESULT:    -2.938      1.842      2.160
REMARK INTER + INTRA:          -3.343
REMARK INTER:                  -3.310
REMARK INTRA:                  -0.034
REMARK UNBOUND:                -0.062
REMARK SMILES CCCC(=O)[O-]
REMARK SMILES IDX 3 1 4 2 5 3 6 4 2 5 1 6
REMARK H PARENT
REMARK Flexibility Score: inf
ROOT
ATOM      1  C   UNL     1      60.605  28.506  12.664  1.00  0.00     0.052 C 
ENDROOT
BRANCH   1   2
ATOM      2  C   UNL     1      60.629  29.022  11.260  1.00  0.00     0.041 C 
ATOM      3  O   UNL     1      60.020  30.085  10.965  1.00  0.00    -0.550 OA
ATOM      4  O   UNL     1      61.280  28.302  10.267  1.00  0.00    -0.550 OA
ENDBRANCH   1   2
BRANCH   1   5
ATOM      5  C   UNL     1      61.914  28.848  13.382  1.00  0.00     0.003 C 
ATOM      6  C   UNL     1      61.713  29.982  14.384  1.00  0.00     0.004 C 
ENDBRANCH   1   5
TORSDOF 2
ENDMDL
MODEL 7
REMARK VINA RESULT:    -2.920     14.627     15.413
REMARK INTER + INTRA:          -3.324
REMARK INTER:                  -3.263
REMARK INTRA:                  -0.061
REMARK UNBOUND:                -0.062
REMARK SMILES CCCC(=O)[O-]
REMARK SMILES IDX 3 1 4 2 5 3 6 4 2 5 1 6
REMARK H PARENT
REMARK Flexibility Score: inf
ROOT
ATOM      1  C   UNL     1      60.838  27.895  25.653  1.00  0.00     0.052 C 
ENDROOT
BRANCH   1   2
ATOM      2  C   UNL     1      61.498  27.745  26.986  1.00  0.00     0.041 C 
ATOM      3  O   UNL     1      61.164  28.489  27.946  1.00  0.00    -0.550 OA
ATOM      4  O   UNL     1      62.519  26.818  27.156  1.00  0.00    -0.550 OA
ENDBRANCH   1   2
BRANCH   1   5
ATOM      5  C   UNL     1      61.858  28.321  24.594  1.00  0.00     0.003 C 
ATOM      6  C   UNL     1      62.474  29.675  24.935  1.00  0.00     0.004 C 
ENDBRANCH   1   5
TORSDOF 2
ENDMDL
MODEL 8
REMARK VINA RESULT:    -2.905      2.263      3.407
REMARK INTER + INTRA:          -3.307
REMARK INTER:                  -3.283
REMARK INTRA:                  -0.024
REMARK UNBOUND:                -0.062
REMARK SMILES CCCC(=O)[O-]
REMARK SMILES IDX 3 1 4 2 5 3 6 4 2 5 1 6
REMARK H PARENT
REMARK Flexibility Score: inf
ROOT
ATOM      1  C   UNL     1      61.742  28.709  10.171  1.00  0.00     0.052 C 
ENDROOT
BRANCH   1   2
ATOM      2  C   UNL     1      60.678  29.760  10.202  1.00  0.00     0.041 C 
ATOM      3  O   UNL     1      60.141  30.149   9.132  1.00  0.00    -0.550 OA
ATOM      4  O   UNL     1      60.315  30.346  11.408  1.00  0.00    -0.550 OA
ENDBRANCH   1   2
BRANCH   1   5
ATOM      5  C   UNL     1      63.099  29.308  10.552  1.00  0.00     0.003 C 
ATOM      6  C   UNL     1      64.054  29.308   9.362  1.00  0.00     0.004 C 
ENDBRANCH   1   5
TORSDOF 2
ENDMDL
MODEL 9
REMARK VINA RESULT:    -2.870     14.496     15.542
REMARK INTER + INTRA:          -3.268
REMARK INTER:                  -3.237
REMARK INTRA:                  -0.031
REMARK UNBOUND:                -0.062
REMARK SMILES CCCC(=O)[O-]
REMARK SMILES IDX 3 1 4 2 5 3 6 4 2 5 1 6
REMARK H PARENT
REMARK Flexibility Score: inf
ROOT
ATOM      1  C   UNL     1      61.497  27.264  27.047  1.00  0.00     0.052 C 
ENDROOT
BRANCH   1   2
ATOM      2  C   UNL     1      60.774  27.392  25.744  1.00  0.00     0.041 C 
ATOM      3  O   UNL     1      61.144  28.246  24.895  1.00  0.00    -0.550 OA
ATOM      4  O   UNL     1      59.660  26.603  25.488  1.00  0.00    -0.550 OA
ENDBRANCH   1   2
BRANCH   1   5
ATOM      5  C   UNL     1      61.364  28.553  27.863  1.00  0.00     0.003 C 
ATOM      6  C   UNL     1      62.671  29.340  27.868  1.00  0.00     0.004 C 
ENDBRANCH   1   5
TORSDOF 2
ENDMDL
