MODEL 1
REMARK VINA RESULT:    -3.123      0.000      0.000
REMARK INTER + INTRA:          -7.703
REMARK INTER:                  -5.496
REMARK INTRA:                  -2.206
REMARK UNBOUND:                -2.206
REMARK SMILES CCCCCCCCCCCCCCC(=O)[O-]
REMARK SMILES IDX 9 1 10 2 11 3 12 4 13 5 14 6 15 7 16 8 17 9 8 10 7 11 6 12
REMARK SMILES IDX 5 13 4 14 3 15 2 16 1 17
REMARK H PARENT
REMARK Flexibility Score: inf
ROOT
ATOM      1  C   UNL     1       8.256   9.133   0.866  1.00  0.00     0.000 C 
ENDROOT
BRANCH   1   2
ATOM      2  C   UNL     1       7.574  10.505   0.756  1.00  0.00     0.000 C 
BRANCH   2   3
ATOM      3  C   UNL     1       6.775  10.870   2.020  1.00  0.00     0.000 C 
BRANCH   3   4
ATOM      4  C   UNL     1       5.472  11.618   1.700  1.00  0.00     0.000 C 
BRANCH   4   5
ATOM      5  C   UNL     1       5.503  12.296   0.318  1.00  0.00     0.006 C 
BRANCH   5   6
ATOM      6  C   UNL     1       4.297  11.905  -0.547  1.00  0.00     0.053 C 
BRANCH   6   7
ATOM      7  C   UNL     1       4.714  11.452  -1.913  1.00  0.00     0.041 C 
ATOM      8  O   UNL     1       3.899  10.844  -2.656  1.00  0.00    -0.550 OA
ATOM      9  O   UNL     1       5.994  11.729  -2.377  1.00  0.00    -0.550 OA
ENDBRANCH   6   7
ENDBRANCH   5   6
ENDBRANCH   4   5
ENDBRANCH   3   4
ENDBRANCH   2   3
ENDBRANCH   1   2
BRANCH   1  10
ATOM     10  C   UNL     1       7.355   7.986   0.375  1.00  0.00     0.000 C 
BRANCH  10  11
ATOM     11  C   UNL     1       6.232   8.476  -0.553  1.00  0.00    -0.000 C 
BRANCH  11  12
ATOM     12  C   UNL     1       4.835   8.289   0.063  1.00  0.00    -0.000 C 
BRANCH  12  13
ATOM     13  C   UNL     1       4.858   7.459   1.360  1.00  0.00    -0.000 C 
BRANCH  13  14
ATOM     14  C   UNL     1       4.014   8.029   2.514  1.00  0.00    -0.000 C 
BRANCH  14  15
ATOM     15  C   UNL     1       4.812   8.182   3.821  1.00  0.00    -0.000 C 
BRANCH  15  16
ATOM     16  C   UNL     1       6.258   7.678   3.691  1.00  0.00    -0.003 C 
ATOM     17  C   UNL     1       6.415   6.214   4.104  1.00  0.00     0.004 C 
ENDBRANCH  15  16
ENDBRANCH  14  15
ENDBRANCH  13  14
ENDBRANCH  12  13
ENDBRANCH  11  12
ENDBRANCH  10  11
ENDBRANCH   1  10
TORSDOF 13
ENDMDL
MODEL 2
REMARK VINA RESULT:    -3.008      2.596      5.280
REMARK INTER + INTRA:          -7.500
REMARK INTER:                  -5.215
REMARK INTRA:                  -2.285
REMARK UNBOUND:                -2.206
REMARK SMILES CCCCCCCCCCCCCCC(=O)[O-]
REMARK SMILES IDX 9 1 10 2 11 3 12 4 13 5 14 6 15 7 16 8 17 9 8 10 7 11 6 12
REMARK SMILES IDX 5 13 4 14 3 15 2 16 1 17
REMARK H PARENT
REMARK Flexibility Score: inf
ROOT
ATOM      1  C   UNL     1       7.369  10.652   0.454  1.00  0.00     0.000 C 
ENDROOT
BRANCH   1   2
ATOM      2  C   UNL     1       8.176   9.427   0.910  1.00  0.00     0.000 C 
BRANCH   2   3
ATOM      3  C   UNL     1       7.533   8.099   0.470  1.00  0.00     0.000 C 
BRANCH   3   4
ATOM      4  C   UNL     1       6.083   8.273  -0.005  1.00  0.00     0.000 C 
BRANCH   4   5
ATOM      5  C   UNL     1       5.085   7.451   0.831  1.00  0.00     0.006 C 
BRANCH   5   6
ATOM      6  C   UNL     1       5.681   7.009   2.175  1.00  0.00     0.053 C 
BRANCH   6   7
ATOM      7  C   UNL     1       5.230   7.887   3.301  1.00  0.00     0.041 C 
ATOM      8  O   UNL     1       6.076   8.472   4.028  1.00  0.00    -0.550 OA
ATOM      9  O   UNL     1       3.874   8.085   3.528  1.00  0.00    -0.550 OA
ENDBRANCH   6   7
ENDBRANCH   5   6
ENDBRANCH   4   5
ENDBRANCH   3   4
ENDBRANCH   2   3
ENDBRANCH   1   2
BRANCH   1  10
ATOM     10  C   UNL     1       6.851  11.490   1.636  1.00  0.00     0.000 C 
BRANCH  10  11
ATOM     11  C   UNL     1       5.451  12.069   1.378  1.00  0.00    -0.000 C 
BRANCH  11  12
ATOM     12  C   UNL     1       4.333  11.200   1.979  1.00  0.00    -0.000 C 
BRANCH  12  13
ATOM     13  C   UNL     1       3.347  10.675   0.919  1.00  0.00    -0.000 C 
BRANCH  13  14
ATOM     14  C   UNL     1       3.373  11.426  -0.424  1.00  0.00    -0.000 C 
BRANCH  14  15
ATOM     15  C   UNL     1       3.614  10.497  -1.627  1.00  0.00    -0.000 C 
BRANCH  15  16
ATOM     16  C   UNL     1       4.422  11.175  -2.743  1.00  0.00    -0.003 C 
ATOM     17  C   UNL     1       5.847  10.631  -2.858  1.00  0.00     0.004 C 
ENDBRANCH  15  16
ENDBRANCH  14  15
ENDBRANCH  13  14
ENDBRANCH  12  13
ENDBRANCH  11  12
ENDBRANCH  10  11
ENDBRANCH   1  10
TORSDOF 13
ENDMDL
MODEL 3
REMARK VINA RESULT:    -2.984      2.330      3.842
REMARK INTER + INTRA:          -7.458
REMARK INTER:                  -5.435
REMARK INTRA:                  -2.024
REMARK UNBOUND:                -2.206
REMARK SMILES CCCCCCCCCCCCCCC(=O)[O-]
REMARK SMILES IDX 9 1 10 2 11 3 12 4 13 5 14 6 15 7 16 8 17 9 8 10 7 11 6 12
REMARK SMILES IDX 5 13 4 14 3 15 2 16 1 17
REMARK H PARENT
REMARK Flexibility Score: inf
ROOT
ATOM      1  C   UNL     1       6.897  12.142   2.354  1.00  0.00     0.000 C 
ENDROOT
BRANCH   1   2
ATOM      2  C   UNL     1       7.874  12.057   1.172  1.00  0.00     0.000 C 
BRANCH   2   3
ATOM      3  C   UNL     1       7.667  10.788   0.325  1.00  0.00     0.000 C 
BRANCH   3   4
ATOM      4  C   UNL     1       7.386   9.544   1.182  1.00  0.00     0.000 C 
BRANCH   4   5
ATOM      5  C   UNL     1       7.696   8.232   0.440  1.00  0.00     0.006 C 
BRANCH   5   6
ATOM      6  C   UNL     1       6.528   7.778  -0.446  1.00  0.00     0.053 C 
BRANCH   6   7
ATOM      7  C   UNL     1       6.837   6.501  -1.166  1.00  0.00     0.041 C 
ATOM      8  O   UNL     1       7.778   6.456  -2.002  1.00  0.00    -0.550 OA
ATOM      9  O   UNL     1       6.107   5.352  -0.890  1.00  0.00    -0.550 OA
ENDBRANCH   6   7
ENDBRANCH   5   6
ENDBRANCH   4   5
ENDBRANCH   3   4
ENDBRANCH   2   3
ENDBRANCH   1   2
BRANCH   1  10
ATOM     10  C   UNL     1       5.557  12.793   1.967  1.00  0.00     0.000 C 
BRANCH  10  11
ATOM     11  C   UNL     1       4.377  11.814   2.067  1.00  0.00    -0.000 C 
BRANCH  11  12
ATOM     12  C   UNL     1       4.018  11.184   0.711  1.00  0.00    -0.000 C 
BRANCH  12  13
ATOM     13  C   UNL     1       3.581   9.712   0.831  1.00  0.00    -0.000 C 
BRANCH  13  14
ATOM     14  C   UNL     1       3.344   9.218   2.269  1.00  0.00    -0.000 C 
BRANCH  14  15
ATOM     15  C   UNL     1       4.116   7.927   2.595  1.00  0.00    -0.000 C 
BRANCH  15  16
ATOM     16  C   UNL     1       5.270   8.164   3.582  1.00  0.00    -0.003 C 
ATOM     17  C   UNL     1       6.216   6.968   3.687  1.00  0.00     0.004 C 
ENDBRANCH  15  16
ENDBRANCH  14  15
ENDBRANCH  13  14
ENDBRANCH  12  13
ENDBRANCH  11  12
ENDBRANCH  10  11
ENDBRANCH   1  10
TORSDOF 13
ENDMDL
MODEL 4
REMARK VINA RESULT:    -2.948      3.065      6.116
REMARK INTER + INTRA:          -7.394
REMARK INTER:                  -5.268
REMARK INTRA:                  -2.126
REMARK UNBOUND:                -2.206
REMARK SMILES CCCCCCCCCCCCCCC(=O)[O-]
REMARK SMILES IDX 9 1 10 2 11 3 12 4 13 5 14 6 15 7 16 8 17 9 8 10 7 11 6 12
REMARK SMILES IDX 5 13 4 14 3 15 2 16 1 17
REMARK H PARENT
REMARK Flexibility Score: inf
ROOT
ATOM      1  C   UNL     1       4.317  10.892   1.757  1.00  0.00     0.000 C 
ENDROOT
BRANCH   1   2
ATOM      2  C   UNL     1       4.056  10.313   0.359  1.00  0.00     0.000 C 
BRANCH   2   3
ATOM      3  C   UNL     1       4.555   8.863   0.218  1.00  0.00     0.000 C 
BRANCH   3   4
ATOM      4  C   UNL     1       6.079   8.777   0.043  1.00  0.00     0.000 C 
BRANCH   4   5
ATOM      5  C   UNL     1       6.728   7.767   1.007  1.00  0.00     0.006 C 
BRANCH   5   6
ATOM      6  C   UNL     1       5.693   7.078   1.907  1.00  0.00     0.053 C 
BRANCH   6   7
ATOM      7  C   UNL     1       5.988   7.290   3.360  1.00  0.00     0.041 C 
ATOM      8  O   UNL     1       5.857   8.433   3.874  1.00  0.00    -0.550 OA
ATOM      9  O   UNL     1       6.379   6.220   4.155  1.00  0.00    -0.550 OA
ENDBRANCH   6   7
ENDBRANCH   5   6
ENDBRANCH   4   5
ENDBRANCH   3   4
ENDBRANCH   2   3
ENDBRANCH   1   2
BRANCH   1  10
ATOM     10  C   UNL     1       5.266  12.105   1.725  1.00  0.00     0.000 C 
BRANCH  10  11
ATOM     11  C   UNL     1       6.661  11.775   2.278  1.00  0.00    -0.000 C 
BRANCH  11  12
ATOM     12  C   UNL     1       7.754  11.847   1.199  1.00  0.00    -0.000 C 
BRANCH  12  13
ATOM     13  C   UNL     1       7.356  12.728   0.000  1.00  0.00    -0.000 C 
BRANCH  13  14
ATOM     14  C   UNL     1       7.393  12.022  -1.368  1.00  0.00    -0.000 C 
BRANCH  14  15
ATOM     15  C   UNL     1       6.062  12.129  -2.133  1.00  0.00    -0.000 C 
BRANCH  15  16
ATOM     16  C   UNL     1       5.860  10.974  -3.126  1.00  0.00    -0.003 C 
ATOM     17  C   UNL     1       6.224  11.356  -4.561  1.00  0.00     0.004 C 
ENDBRANCH  15  16
ENDBRANCH  14  15
ENDBRANCH  13  14
ENDBRANCH  12  13
ENDBRANCH  11  12
ENDBRANCH  10  11
ENDBRANCH   1  10
TORSDOF 13
ENDMDL
MODEL 5
REMARK VINA RESULT:    -2.942      2.917      5.089
REMARK INTER + INTRA:          -7.384
REMARK INTER:                  -5.332
REMARK INTRA:                  -2.053
REMARK UNBOUND:                -2.206
REMARK SMILES CCCCCCCCCCCCCCC(=O)[O-]
REMARK SMILES IDX 9 1 10 2 11 3 12 4 13 5 14 6 15 7 16 8 17 9 8 10 7 11 6 12
REMARK SMILES IDX 5 13 4 14 3 15 2 16 1 17
REMARK H PARENT
REMARK Flexibility Score: inf
ROOT
ATOM      1  C   UNL     1       4.178  11.459  -0.333  1.00  0.00     0.000 C 
ENDROOT
BRANCH   1   2
ATOM      2  C   UNL     1       4.025   9.987  -0.743  1.00  0.00     0.000 C 
BRANCH   2   3
ATOM      3  C   UNL     1       3.355   9.136   0.352  1.00  0.00     0.000 C 
BRANCH   3   4
ATOM      4  C   UNL     1       3.412   9.801   1.735  1.00  0.00     0.000 C 
BRANCH   4   5
ATOM      5  C   UNL     1       3.556   8.779   2.877  1.00  0.00     0.006 C 
BRANCH   5   6
ATOM      6  C   UNL     1       4.518   7.639   2.515  1.00  0.00     0.053 C 
BRANCH   6   7
ATOM      7  C   UNL     1       5.643   7.525   3.497  1.00  0.00     0.041 C 
ATOM      8  O   UNL     1       6.045   8.543   4.121  1.00  0.00    -0.550 OA
ATOM      9  O   UNL     1       6.227   6.290   3.747  1.00  0.00    -0.550 OA
ENDBRANCH   6   7
ENDBRANCH   5   6
ENDBRANCH   4   5
ENDBRANCH   3   4
ENDBRANCH   2   3
ENDBRANCH   1   2
BRANCH   1  10
ATOM     10  C   UNL     1       5.608  11.987  -0.552  1.00  0.00     0.000 C 
BRANCH  10  11
ATOM     11  C   UNL     1       6.289  12.402   0.761  1.00  0.00    -0.000 C 
BRANCH  11  12
ATOM     12  C   UNL     1       6.753  11.193   1.592  1.00  0.00    -0.000 C 
BRANCH  12  13
ATOM     13  C   UNL     1       7.883  10.397   0.913  1.00  0.00    -0.000 C 
BRANCH  13  14
ATOM     14  C   UNL     1       7.720   8.867   0.956  1.00  0.00    -0.000 C 
BRANCH  14  15
ATOM     15  C   UNL     1       6.942   8.313  -0.251  1.00  0.00    -0.000 C 
BRANCH  15  16
ATOM     16  C   UNL     1       6.874   6.778  -0.253  1.00  0.00    -0.003 C 
ATOM     17  C   UNL     1       7.018   6.181  -1.653  1.00  0.00     0.004 C 
ENDBRANCH  15  16
ENDBRANCH  14  15
ENDBRANCH  13  14
ENDBRANCH  12  13
ENDBRANCH  11  12
ENDBRANCH  10  11
ENDBRANCH   1  10
TORSDOF 13
ENDMDL
MODEL 6
REMARK VINA RESULT:    -2.878      2.808      5.403
REMARK INTER + INTRA:          -7.271
REMARK INTER:                  -4.892
REMARK INTRA:                  -2.379
REMARK UNBOUND:                -2.206
REMARK SMILES CCCCCCCCCCCCCCC(=O)[O-]
REMARK SMILES IDX 9 1 10 2 11 3 12 4 13 5 14 6 15 7 16 8 17 9 8 10 7 11 6 12
REMARK SMILES IDX 5 13 4 14 3 15 2 16 1 17
REMARK H PARENT
REMARK Flexibility Score: inf
ROOT
ATOM      1  C   UNL     1       7.837   7.797   0.107  1.00  0.00     0.000 C 
ENDROOT
BRANCH   1   2
ATOM      2  C   UNL     1       6.471   7.095   0.141  1.00  0.00     0.000 C 
BRANCH   2   3
ATOM      3  C   UNL     1       5.317   8.029  -0.266  1.00  0.00     0.000 C 
BRANCH   3   4
ATOM      4  C   UNL     1       4.087   7.880   0.643  1.00  0.00     0.000 C 
BRANCH   4   5
ATOM      5  C   UNL     1       4.188   8.735   1.919  1.00  0.00     0.006 C 
BRANCH   5   6
ATOM      6  C   UNL     1       4.190   7.877   3.192  1.00  0.00     0.053 C 
BRANCH   6   7
ATOM      7  C   UNL     1       5.576   7.661   3.716  1.00  0.00     0.041 C 
ATOM      8  O   UNL     1       6.211   8.614   4.241  1.00  0.00    -0.550 OA
ATOM      9  O   UNL     1       6.155   6.400   3.654  1.00  0.00    -0.550 OA
ENDBRANCH   6   7
ENDBRANCH   5   6
ENDBRANCH   4   5
ENDBRANCH   3   4
ENDBRANCH   2   3
ENDBRANCH   1   2
BRANCH   1  10
ATOM     10  C   UNL     1       8.033   8.762   1.290  1.00  0.00     0.000 C 
BRANCH  10  11
ATOM     11  C   UNL     1       8.073  10.233   0.849  1.00  0.00    -0.000 C 
BRANCH  11  12
ATOM     12  C   UNL     1       6.933  11.064   1.463  1.00  0.00    -0.000 C 
BRANCH  12  13
ATOM     13  C   UNL     1       6.107  11.821   0.406  1.00  0.00    -0.000 C 
BRANCH  13  14
ATOM     14  C   UNL     1       6.454  11.486  -1.056  1.00  0.00    -0.000 C 
BRANCH  14  15
ATOM     15  C   UNL     1       5.224  11.489  -1.980  1.00  0.00    -0.000 C 
BRANCH  15  16
ATOM     16  C   UNL     1       3.903  11.386  -1.202  1.00  0.00    -0.003 C 
ATOM     17  C   UNL     1       2.875  10.492  -1.896  1.00  0.00     0.004 C 
ENDBRANCH  15  16
ENDBRANCH  14  15
ENDBRANCH  13  14
ENDBRANCH  12  13
ENDBRANCH  11  12
ENDBRANCH  10  11
ENDBRANCH   1  10
TORSDOF 13
ENDMDL
MODEL 7
REMARK VINA RESULT:    -2.862      2.461      5.236
REMARK INTER + INTRA:          -7.243
REMARK INTER:                  -5.226
REMARK INTRA:                  -2.017
REMARK UNBOUND:                -2.206
REMARK SMILES CCCCCCCCCCCCCCC(=O)[O-]
REMARK SMILES IDX 9 1 10 2 11 3 12 4 13 5 14 6 15 7 16 8 17 9 8 10 7 11 6 12
REMARK SMILES IDX 5 13 4 14 3 15 2 16 1 17
REMARK H PARENT
REMARK Flexibility Score: inf
ROOT
ATOM      1  C   UNL     1       3.692   8.644   3.283  1.00  0.00     0.000 C 
ENDROOT
BRANCH   1   2
ATOM      2  C   UNL     1       5.025   8.124   3.842  1.00  0.00     0.000 C 
BRANCH   2   3
ATOM      3  C   UNL     1       6.003   7.695   2.733  1.00  0.00     0.000 C 
BRANCH   3   4
ATOM      4  C   UNL     1       6.859   8.861   2.216  1.00  0.00     0.000 C 
BRANCH   4   5
ATOM      5  C   UNL     1       7.369   8.630   0.782  1.00  0.00     0.006 C 
BRANCH   5   6
ATOM      6  C   UNL     1       6.385   7.801  -0.055  1.00  0.00     0.053 C 
BRANCH   6   7
ATOM      7  C   UNL     1       7.062   6.650  -0.733  1.00  0.00     0.041 C 
ATOM      8  O   UNL     1       8.316   6.627  -0.843  1.00  0.00    -0.550 OA
ATOM      9  O   UNL     1       6.309   5.586  -1.216  1.00  0.00    -0.550 OA
ENDBRANCH   6   7
ENDBRANCH   5   6
ENDBRANCH   4   5
ENDBRANCH   3   4
ENDBRANCH   2   3
ENDBRANCH   1   2
BRANCH   1  10
ATOM     10  C   UNL     1       3.235   7.871   2.032  1.00  0.00     0.000 C 
BRANCH  10  11
ATOM     11  C   UNL     1       2.969   8.796   0.834  1.00  0.00    -0.000 C 
BRANCH  11  12
ATOM     12  C   UNL     1       3.598  10.188   1.013  1.00  0.00    -0.000 C 
BRANCH  12  13
ATOM     13  C   UNL     1       3.927  10.874  -0.326  1.00  0.00    -0.000 C 
BRANCH  13  14
ATOM     14  C   UNL     1       5.173  11.778  -0.306  1.00  0.00    -0.000 C 
BRANCH  14  15
ATOM     15  C   UNL     1       6.280  11.295  -1.260  1.00  0.00    -0.000 C 
BRANCH  15  16
ATOM     16  C   UNL     1       5.725  10.495  -2.448  1.00  0.00    -0.003 C 
ATOM     17  C   UNL     1       5.938  11.200  -3.789  1.00  0.00     0.004 C 
ENDBRANCH  15  16
ENDBRANCH  14  15
ENDBRANCH  13  14
ENDBRANCH  12  13
ENDBRANCH  11  12
ENDBRANCH  10  11
ENDBRANCH   1  10
TORSDOF 13
ENDMDL
MODEL 8
REMARK VINA RESULT:    -2.838      1.135      2.282
REMARK INTER + INTRA:          -7.201
REMARK INTER:                  -5.027
REMARK INTRA:                  -2.174
REMARK UNBOUND:                -2.206
REMARK SMILES CCCCCCCCCCCCCCC(=O)[O-]
REMARK SMILES IDX 9 1 10 2 11 3 12 4 13 5 14 6 15 7 16 8 17 9 8 10 7 11 6 12
REMARK SMILES IDX 5 13 4 14 3 15 2 16 1 17
REMARK H PARENT
REMARK Flexibility Score: inf
ROOT
ATOM      1  C   UNL     1       6.521  11.133   2.040  1.00  0.00     0.000 C 
ENDROOT
BRANCH   1   2
ATOM      2  C   UNL     1       5.748  12.436   1.786  1.00  0.00     0.000 C 
BRANCH   2   3
ATOM      3  C   UNL     1       4.391  12.193   1.102  1.00  0.00     0.000 C 
BRANCH   3   4
ATOM      4  C   UNL     1       4.097  10.701   0.883  1.00  0.00     0.000 C 
BRANCH   4   5
ATOM      5  C   UNL     1       3.928  10.344  -0.604  1.00  0.00     0.006 C 
BRANCH   5   6
ATOM      6  C   UNL     1       4.379  11.483  -1.528  1.00  0.00     0.053 C 
BRANCH   6   7
ATOM      7  C   UNL     1       5.703  11.194  -2.165  1.00  0.00     0.041 C 
ATOM      8  O   UNL     1       5.852  10.168  -2.882  1.00  0.00    -0.550 OA
ATOM      9  O   UNL     1       6.765  12.072  -1.994  1.00  0.00    -0.550 OA
ENDBRANCH   6   7
ENDBRANCH   5   6
ENDBRANCH   4   5
ENDBRANCH   3   4
ENDBRANCH   2   3
ENDBRANCH   1   2
BRANCH   1  10
ATOM     10  C   UNL     1       7.752  10.991   1.128  1.00  0.00     0.000 C 
BRANCH  10  11
ATOM     11  C   UNL     1       8.146   9.524   0.896  1.00  0.00    -0.000 C 
BRANCH  11  12
ATOM     12  C   UNL     1       7.071   8.740   0.123  1.00  0.00    -0.000 C 
BRANCH  12  13
ATOM     13  C   UNL     1       6.876   7.308   0.653  1.00  0.00    -0.000 C 
BRANCH  13  14
ATOM     14  C   UNL     1       5.626   7.100   1.527  1.00  0.00    -0.000 C 
BRANCH  14  15
ATOM     15  C   UNL     1       5.959   6.936   3.020  1.00  0.00    -0.000 C 
BRANCH  15  16
ATOM     16  C   UNL     1       5.608   8.186   3.841  1.00  0.00    -0.003 C 
ATOM     17  C   UNL     1       4.118   8.527   3.795  1.00  0.00     0.004 C 
ENDBRANCH  15  16
ENDBRANCH  14  15
ENDBRANCH  13  14
ENDBRANCH  12  13
ENDBRANCH  11  12
ENDBRANCH  10  11
ENDBRANCH   1  10
TORSDOF 13
ENDMDL
MODEL 9
REMARK VINA RESULT:    -2.829      2.417      3.734
REMARK INTER + INTRA:          -7.185
REMARK INTER:                  -5.162
REMARK INTRA:                  -2.023
REMARK UNBOUND:                -2.206
REMARK SMILES CCCCCCCCCCCCCCC(=O)[O-]
REMARK SMILES IDX 9 1 10 2 11 3 12 4 13 5 14 6 15 7 16 8 17 9 8 10 7 11 6 12
REMARK SMILES IDX 5 13 4 14 3 15 2 16 1 17
REMARK H PARENT
REMARK Flexibility Score: inf
ROOT
ATOM      1  C   UNL     1       6.835  11.623  -1.099  1.00  0.00     0.000 C 
ENDROOT
BRANCH   1   2
ATOM      2  C   UNL     1       7.396  11.841   0.314  1.00  0.00     0.000 C 
BRANCH   2   3
ATOM      3  C   UNL     1       7.175  10.624   1.231  1.00  0.00     0.000 C 
BRANCH   3   4
ATOM      4  C   UNL     1       8.029   9.414   0.824  1.00  0.00     0.000 C 
BRANCH   4   5
ATOM      5  C   UNL     1       7.200   8.123   0.690  1.00  0.00     0.006 C 
BRANCH   5   6
ATOM      6  C   UNL     1       6.664   7.924  -0.734  1.00  0.00     0.053 C 
BRANCH   6   7
ATOM      7  C   UNL     1       6.878   6.524  -1.220  1.00  0.00     0.041 C 
ATOM      8  O   UNL     1       6.245   5.568  -0.698  1.00  0.00    -0.550 OA
ATOM      9  O   UNL     1       7.753   6.277  -2.270  1.00  0.00    -0.550 OA
ENDBRANCH   6   7
ENDBRANCH   5   6
ENDBRANCH   4   5
ENDBRANCH   3   4
ENDBRANCH   2   3
ENDBRANCH   1   2
BRANCH   1  10
ATOM     10  C   UNL     1       5.315  11.858  -1.173  1.00  0.00     0.000 C 
BRANCH  10  11
ATOM     11  C   UNL     1       4.570  10.685  -1.827  1.00  0.00    -0.000 C 
BRANCH  11  12
ATOM     12  C   UNL     1       3.282  10.311  -1.073  1.00  0.00    -0.000 C 
BRANCH  12  13
ATOM     13  C   UNL     1       3.553   9.543   0.234  1.00  0.00    -0.000 C 
BRANCH  13  14
ATOM     14  C   UNL     1       3.524  10.401   1.512  1.00  0.00    -0.000 C 
BRANCH  14  15
ATOM     15  C   UNL     1       3.388   9.561   2.794  1.00  0.00    -0.000 C 
BRANCH  15  16
ATOM     16  C   UNL     1       4.159   8.234   2.713  1.00  0.00    -0.003 C 
ATOM     17  C   UNL     1       5.214   8.093   3.811  1.00  0.00     0.004 C 
ENDBRANCH  15  16
ENDBRANCH  14  15
ENDBRANCH  13  14
ENDBRANCH  12  13
ENDBRANCH  11  12
ENDBRANCH  10  11
ENDBRANCH   1  10
TORSDOF 13
ENDMDL
