MODEL 1
REMARK VINA RESULT:    -4.415      0.000      0.000
REMARK INTER + INTRA:          -6.624
REMARK INTER:                  -5.964
REMARK INTRA:                  -0.660
REMARK UNBOUND:                -0.660
REMARK SMILES CC(=O)CCC=C(C)CCC=C(C)C
REMARK SMILES IDX 7 1 6 2 8 3 9 4 10 5 11 6 13 7 12 8 14 9 5 10 4 11 2 12 3 13
REMARK SMILES IDX 1 14
REMARK H PARENT
REMARK Flexibility Score: inf
ROOT
ATOM      1  C   UNL     1      11.458   9.755   3.898  1.00  0.00    -0.077 C 
ATOM      2  C   UNL     1      11.198  10.304   5.107  1.00  0.00    -0.028 C 
ATOM      3  C   UNL     1      11.427  10.650   2.686  1.00  0.00     0.039 C 
ENDROOT
BRANCH   1   4
ATOM      4  C   UNL     1      11.809   8.288   3.716  1.00  0.00     0.034 C 
BRANCH   4   5
ATOM      5  C   UNL     1      12.273   7.981   2.285  1.00  0.00     0.032 C 
BRANCH   5   6
ATOM      6  C   UNL     1      11.519   6.808   1.702  1.00  0.00    -0.028 C 
ATOM      7  C   UNL     1       9.886   8.243   0.456  1.00  0.00     0.039 C 
ATOM      8  C   UNL     1      10.433   6.909   0.904  1.00  0.00    -0.080 C 
ATOM      9  C   UNL     1       9.753   5.641   0.456  1.00  0.00     0.039 C 
ENDBRANCH   5   6
ENDBRANCH   4   5
ENDBRANCH   1   4
BRANCH   2  10
ATOM     10  C   UNL     1      11.135   9.542   6.406  1.00  0.00     0.035 C 
BRANCH  10  11
ATOM     11  C   UNL     1      12.296   9.938   7.324  1.00  0.00     0.079 C 
BRANCH  11  12
ATOM     12  C   UNL     1      11.789  10.345   8.680  1.00  0.00     0.130 C 
ATOM     13  O   UNL     1      11.020  11.288   8.782  1.00  0.00    -0.300 OA
ATOM     14  C   UNL     1      12.238   9.615   9.910  1.00  0.00     0.087 C 
ENDBRANCH  11  12
ENDBRANCH  10  11
ENDBRANCH   2  10
TORSDOF 6
ENDMDL
MODEL 2
REMARK VINA RESULT:    -4.065      2.985      7.060
REMARK INTER + INTRA:          -6.151
REMARK INTER:                  -5.664
REMARK INTRA:                  -0.487
REMARK UNBOUND:                -0.660
REMARK SMILES CC(=O)CCC=C(C)CCC=C(C)C
REMARK SMILES IDX 7 1 6 2 8 3 9 4 10 5 11 6 13 7 12 8 14 9 5 10 4 11 2 12 3 13
REMARK SMILES IDX 1 14
REMARK H PARENT
REMARK Flexibility Score: inf
ROOT
ATOM      1  C   UNL     1      11.429   9.388   3.427  1.00  0.00    -0.077 C 
ATOM      2  C   UNL     1      11.385   8.513   2.397  1.00  0.00    -0.028 C 
ATOM      3  C   UNL     1      11.127  10.838   3.146  1.00  0.00     0.039 C 
ENDROOT
BRANCH   1   4
ATOM      4  C   UNL     1      11.738   8.969   4.855  1.00  0.00     0.034 C 
BRANCH   4   5
ATOM      5  C   UNL     1      12.124  10.166   5.735  1.00  0.00     0.032 C 
BRANCH   5   6
ATOM      6  C   UNL     1      12.060   9.812   7.203  1.00  0.00    -0.028 C 
ATOM      7  C   UNL     1      11.015  11.990   7.869  1.00  0.00     0.039 C 
ATOM      8  C   UNL     1      11.592  10.629   8.173  1.00  0.00    -0.080 C 
ATOM      9  C   UNL     1      11.657  10.153   9.603  1.00  0.00     0.039 C 
ENDBRANCH   5   6
ENDBRANCH   4   5
ENDBRANCH   1   4
BRANCH   2  10
ATOM     10  C   UNL     1      11.713   7.045   2.497  1.00  0.00     0.035 C 
BRANCH  10  11
ATOM     11  C   UNL     1      12.221   6.512   1.154  1.00  0.00     0.079 C 
BRANCH  11  12
ATOM     12  C   UNL     1      11.115   6.491   0.135  1.00  0.00     0.130 C 
ATOM     13  O   UNL     1      11.226   7.141  -0.894  1.00  0.00    -0.300 OA
ATOM     14  C   UNL     1       9.867   5.699   0.383  1.00  0.00     0.087 C 
ENDBRANCH  11  12
ENDBRANCH  10  11
ENDBRANCH   2  10
TORSDOF 6
ENDMDL
MODEL 3
REMARK VINA RESULT:    -4.018      2.510      6.997
REMARK INTER + INTRA:          -6.088
REMARK INTER:                  -5.452
REMARK INTRA:                  -0.636
REMARK UNBOUND:                -0.660
REMARK SMILES CC(=O)CCC=C(C)CCC=C(C)C
REMARK SMILES IDX 7 1 6 2 8 3 9 4 10 5 11 6 13 7 12 8 14 9 5 10 4 11 2 12 3 13
REMARK SMILES IDX 1 14
REMARK H PARENT
REMARK Flexibility Score: inf
ROOT
ATOM      1  C   UNL     1      11.668   9.922   5.227  1.00  0.00    -0.077 C 
ATOM      2  C   UNL     1      11.514   9.564   3.932  1.00  0.00    -0.028 C 
ATOM      3  C   UNL     1      10.513  10.598   5.922  1.00  0.00     0.039 C 
ENDROOT
BRANCH   1   4
ATOM      4  C   UNL     1      12.935   9.644   6.016  1.00  0.00     0.034 C 
BRANCH   4   5
ATOM      5  C   UNL     1      12.976  10.429   7.334  1.00  0.00     0.032 C 
BRANCH   5   6
ATOM      6  C   UNL     1      13.123   9.505   8.521  1.00  0.00    -0.028 C 
ATOM      7  C   UNL     1      11.285  10.595   9.829  1.00  0.00     0.039 C 
ATOM      8  C   UNL     1      12.393   9.584   9.656  1.00  0.00    -0.080 C 
ATOM      9  C   UNL     1      12.706   8.627  10.778  1.00  0.00     0.039 C 
ENDBRANCH   5   6
ENDBRANCH   4   5
ENDBRANCH   1   4
BRANCH   2  10
ATOM     10  C   UNL     1      12.584   8.932   3.078  1.00  0.00     0.035 C 
BRANCH  10  11
ATOM     11  C   UNL     1      12.112   8.803   1.626  1.00  0.00     0.079 C 
BRANCH  11  12
ATOM     12  C   UNL     1      11.075   7.722   1.497  1.00  0.00     0.130 C 
ATOM     13  O   UNL     1      11.326   6.591   1.883  1.00  0.00    -0.300 OA
ATOM     14  C   UNL     1       9.743   8.017   0.875  1.00  0.00     0.087 C 
ENDBRANCH  11  12
ENDBRANCH  10  11
ENDBRANCH   2  10
TORSDOF 6
ENDMDL
MODEL 4
REMARK VINA RESULT:    -3.987      3.286      5.829
REMARK INTER + INTRA:          -6.046
REMARK INTER:                  -4.614
REMARK INTRA:                  -1.433
REMARK UNBOUND:                -0.660
REMARK SMILES CC(=O)CCC=C(C)CCC=C(C)C
REMARK SMILES IDX 7 1 6 2 8 3 9 4 10 5 11 6 13 7 12 8 14 9 5 10 4 11 2 12 3 13
REMARK SMILES IDX 1 14
REMARK H PARENT
REMARK Flexibility Score: inf
ROOT
ATOM      1  C   UNL     1      11.934   8.651   3.967  1.00  0.00    -0.077 C 
ATOM      2  C   UNL     1      11.480   7.517   3.387  1.00  0.00    -0.028 C 
ATOM      3  C   UNL     1      11.244   9.141   5.214  1.00  0.00     0.039 C 
ENDROOT
BRANCH   1   4
ATOM      4  C   UNL     1      13.125   9.430   3.436  1.00  0.00     0.034 C 
BRANCH   4   5
ATOM      5  C   UNL     1      12.795  10.915   3.228  1.00  0.00     0.032 C 
BRANCH   5   6
ATOM      6  C   UNL     1      12.607  11.238   1.763  1.00  0.00    -0.028 C 
ATOM      7  C   UNL     1      10.112  11.016   1.847  1.00  0.00     0.039 C 
ATOM      8  C   UNL     1      11.416  11.260   1.126  1.00  0.00    -0.080 C 
ATOM      9  C   UNL     1      11.402  11.535  -0.357  1.00  0.00     0.039 C 
ENDBRANCH   5   6
ENDBRANCH   4   5
ENDBRANCH   1   4
BRANCH   2  10
ATOM     10  C   UNL     1      12.020   6.923   2.111  1.00  0.00     0.035 C 
BRANCH  10  11
ATOM     11  C   UNL     1      11.368   7.580   0.890  1.00  0.00     0.079 C 
BRANCH  11  12
ATOM     12  C   UNL     1       9.977   7.049   0.677  1.00  0.00     0.130 C 
ATOM     13  O   UNL     1       9.772   5.846   0.736  1.00  0.00    -0.300 OA
ATOM     14  C   UNL     1       8.845   7.982   0.369  1.00  0.00     0.087 C 
ENDBRANCH  11  12
ENDBRANCH  10  11
ENDBRANCH   2  10
TORSDOF 6
ENDMDL
MODEL 5
REMARK VINA RESULT:    -3.954     22.166     23.517
REMARK INTER + INTRA:          -6.001
REMARK INTER:                  -4.986
REMARK INTRA:                  -1.015
REMARK UNBOUND:                -0.660
REMARK SMILES CC(=O)CCC=C(C)CCC=C(C)C
REMARK SMILES IDX 7 1 6 2 8 3 9 4 10 5 11 6 13 7 12 8 14 9 5 10 4 11 2 12 3 13
REMARK SMILES IDX 1 14
REMARK H PARENT
REMARK Flexibility Score: inf
ROOT
ATOM      1  C   UNL     1      -0.959  -5.587  17.332  1.00  0.00    -0.077 C 
ATOM      2  C   UNL     1      -2.189  -5.336  16.828  1.00  0.00    -0.028 C 
ATOM      3  C   UNL     1       0.040  -4.460  17.371  1.00  0.00     0.039 C 
ENDROOT
BRANCH   1   4
ATOM      4  C   UNL     1      -0.556  -6.942  17.888  1.00  0.00     0.034 C 
BRANCH   4   5
ATOM      5  C   UNL     1       0.577  -7.583  17.074  1.00  0.00     0.032 C 
BRANCH   5   6
ATOM      6  C   UNL     1       0.168  -7.798  15.635  1.00  0.00    -0.028 C 
ATOM      7  C   UNL     1       1.781  -6.105  14.734  1.00  0.00     0.039 C 
ATOM      8  C   UNL     1       0.678  -7.124  14.580  1.00  0.00    -0.080 C 
ATOM      9  C   UNL     1       0.117  -7.408  13.210  1.00  0.00     0.039 C 
ENDBRANCH   5   6
ENDBRANCH   4   5
ENDBRANCH   1   4
BRANCH   2  10
ATOM     10  C   UNL     1      -3.283  -6.361  16.668  1.00  0.00     0.035 C 
BRANCH  10  11
ATOM     11  C   UNL     1      -4.433  -6.082  17.641  1.00  0.00     0.079 C 
BRANCH  11  12
ATOM     12  C   UNL     1      -5.109  -4.780  17.309  1.00  0.00     0.130 C 
ATOM     13  O   UNL     1      -5.236  -3.926  18.174  1.00  0.00    -0.300 OA
ATOM     14  C   UNL     1      -5.648  -4.531  15.933  1.00  0.00     0.087 C 
ENDBRANCH  11  12
ENDBRANCH  10  11
ENDBRANCH   2  10
TORSDOF 6
ENDMDL
MODEL 6
REMARK VINA RESULT:    -3.855     22.142     23.842
REMARK INTER + INTRA:          -5.867
REMARK INTER:                  -5.231
REMARK INTRA:                  -0.637
REMARK UNBOUND:                -0.660
REMARK SMILES CC(=O)CCC=C(C)CCC=C(C)C
REMARK SMILES IDX 7 1 6 2 8 3 9 4 10 5 11 6 13 7 12 8 14 9 5 10 4 11 2 12 3 13
REMARK SMILES IDX 1 14
REMARK H PARENT
REMARK Flexibility Score: inf
ROOT
ATOM      1  C   UNL     1      -1.602  -6.279  17.505  1.00  0.00    -0.077 C 
ATOM      2  C   UNL     1      -0.391  -5.677  17.510  1.00  0.00    -0.028 C 
ATOM      3  C   UNL     1      -1.846  -7.403  18.480  1.00  0.00     0.039 C 
ENDROOT
BRANCH   1   4
ATOM      4  C   UNL     1      -2.733  -5.851  16.585  1.00  0.00     0.034 C 
BRANCH   4   5
ATOM      5  C   UNL     1      -4.111  -6.101  17.213  1.00  0.00     0.032 C 
BRANCH   5   6
ATOM      6  C   UNL     1      -4.478  -5.005  18.188  1.00  0.00    -0.028 C 
ATOM      7  C   UNL     1      -6.354  -4.128  16.777  1.00  0.00     0.039 C 
ATOM      8  C   UNL     1      -5.461  -4.099  17.994  1.00  0.00    -0.080 C 
ATOM      9  C   UNL     1      -5.661  -3.025  19.034  1.00  0.00     0.039 C 
ENDBRANCH   5   6
ENDBRANCH   4   5
ENDBRANCH   1   4
BRANCH   2  10
ATOM     10  C   UNL     1       0.032  -4.580  16.567  1.00  0.00     0.035 C 
BRANCH  10  11
ATOM     11  C   UNL     1       1.457  -4.823  16.058  1.00  0.00     0.079 C 
BRANCH  11  12
ATOM     12  C   UNL     1       1.526  -6.091  15.252  1.00  0.00     0.130 C 
ATOM     13  O   UNL     1       0.897  -6.181  14.209  1.00  0.00    -0.300 OA
ATOM     14  C   UNL     1       2.343  -7.253  15.731  1.00  0.00     0.087 C 
ENDBRANCH  11  12
ENDBRANCH  10  11
ENDBRANCH   2  10
TORSDOF 6
ENDMDL
MODEL 7
REMARK VINA RESULT:    -3.846      1.826      2.535
REMARK INTER + INTRA:          -5.855
REMARK INTER:                  -4.735
REMARK INTRA:                  -1.120
REMARK UNBOUND:                -0.660
REMARK SMILES CC(=O)CCC=C(C)CCC=C(C)C
REMARK SMILES IDX 7 1 6 2 8 3 9 4 10 5 11 6 13 7 12 8 14 9 5 10 4 11 2 12 3 13
REMARK SMILES IDX 1 14
REMARK H PARENT
REMARK Flexibility Score: inf
ROOT
ATOM      1  C   UNL     1      11.761  10.688   1.667  1.00  0.00    -0.077 C 
ATOM      2  C   UNL     1      11.272  10.345   2.881  1.00  0.00    -0.028 C 
ATOM      3  C   UNL     1      11.269  11.966   1.035  1.00  0.00     0.039 C 
ENDROOT
BRANCH   1   4
ATOM      4  C   UNL     1      12.803   9.862   0.933  1.00  0.00     0.034 C 
BRANCH   4   5
ATOM      5  C   UNL     1      12.211   9.140  -0.285  1.00  0.00     0.032 C 
BRANCH   5   6
ATOM      6  C   UNL     1      11.715   7.759   0.081  1.00  0.00    -0.028 C 
ATOM      7  C   UNL     1       9.322   8.474   0.284  1.00  0.00     0.039 C 
ATOM      8  C   UNL     1      10.430   7.452   0.366  1.00  0.00    -0.080 C 
ATOM      9  C   UNL     1      10.106   6.039   0.779  1.00  0.00     0.039 C 
ENDBRANCH   5   6
ENDBRANCH   4   5
ENDBRANCH   1   4
BRANCH   2  10
ATOM     10  C   UNL     1      11.616   9.079   3.624  1.00  0.00     0.035 C 
BRANCH  10  11
ATOM     11  C   UNL     1      12.796   9.311   4.572  1.00  0.00     0.079 C 
BRANCH  11  12
ATOM     12  C   UNL     1      12.315   9.532   5.980  1.00  0.00     0.130 C 
ATOM     13  O   UNL     1      13.125   9.645   6.887  1.00  0.00    -0.300 OA
ATOM     14  C   UNL     1      10.848   9.590   6.282  1.00  0.00     0.087 C 
ENDBRANCH  11  12
ENDBRANCH  10  11
ENDBRANCH   2  10
TORSDOF 6
ENDMDL
MODEL 8
REMARK VINA RESULT:    -3.683      3.039      6.856
REMARK INTER + INTRA:          -5.635
REMARK INTER:                  -5.089
REMARK INTRA:                  -0.546
REMARK UNBOUND:                -0.660
REMARK SMILES CC(=O)CCC=C(C)CCC=C(C)C
REMARK SMILES IDX 7 1 6 2 8 3 9 4 10 5 11 6 13 7 12 8 14 9 5 10 4 11 2 12 3 13
REMARK SMILES IDX 1 14
REMARK H PARENT
REMARK Flexibility Score: inf
ROOT
ATOM      1  C   UNL     1      11.774   8.758   3.380  1.00  0.00    -0.077 C 
ATOM      2  C   UNL     1      11.997   9.535   2.295  1.00  0.00    -0.028 C 
ATOM      3  C   UNL     1      12.009   7.274   3.255  1.00  0.00     0.039 C 
ENDROOT
BRANCH   1   4
ATOM      4  C   UNL     1      11.332   9.319   4.720  1.00  0.00     0.034 C 
BRANCH   4   5
ATOM      5  C   UNL     1      12.504   9.921   5.507  1.00  0.00     0.032 C 
BRANCH   5   6
ATOM      6  C   UNL     1      12.387   9.621   6.984  1.00  0.00    -0.028 C 
ATOM      7  C   UNL     1      11.225  11.777   7.516  1.00  0.00     0.039 C 
ATOM      8  C   UNL     1      11.842  10.453   7.899  1.00  0.00    -0.080 C 
ATOM      9  C   UNL     1      11.860  10.036   9.348  1.00  0.00     0.039 C 
ENDBRANCH   5   6
ENDBRANCH   4   5
ENDBRANCH   1   4
BRANCH   2  10
ATOM     10  C   UNL     1      11.759  11.023   2.235  1.00  0.00     0.035 C 
BRANCH  10  11
ATOM     11  C   UNL     1      10.573  11.344   1.320  1.00  0.00     0.079 C 
BRANCH  11  12
ATOM     12  C   UNL     1      10.956  11.191  -0.126  1.00  0.00     0.130 C 
ATOM     13  O   UNL     1      11.824  11.907  -0.601  1.00  0.00    -0.300 OA
ATOM     14  C   UNL     1      10.265  10.184  -0.993  1.00  0.00     0.087 C 
ENDBRANCH  11  12
ENDBRANCH  10  11
ENDBRANCH   2  10
TORSDOF 6
ENDMDL
MODEL 9
REMARK VINA RESULT:    -3.681     22.308     23.857
REMARK INTER + INTRA:          -5.633
REMARK INTER:                  -4.622
REMARK INTRA:                  -1.011
REMARK UNBOUND:                -0.660
REMARK SMILES CC(=O)CCC=C(C)CCC=C(C)C
REMARK SMILES IDX 7 1 6 2 8 3 9 4 10 5 11 6 13 7 12 8 14 9 5 10 4 11 2 12 3 13
REMARK SMILES IDX 1 14
REMARK H PARENT
REMARK Flexibility Score: inf
ROOT
ATOM      1  C   UNL     1      -1.501  -6.428  18.347  1.00  0.00    -0.077 C 
ATOM      2  C   UNL     1      -2.839  -6.481  18.154  1.00  0.00    -0.028 C 
ATOM      3  C   UNL     1      -0.768  -7.717  18.618  1.00  0.00     0.039 C 
ENDROOT
BRANCH   1   4
ATOM      4  C   UNL     1      -0.706  -5.136  18.271  1.00  0.00     0.034 C 
BRANCH   4   5
ATOM      5  C   UNL     1      -0.311  -4.789  16.829  1.00  0.00     0.032 C 
BRANCH   5   6
ATOM      6  C   UNL     1       0.996  -5.444  16.443  1.00  0.00    -0.028 C 
ATOM      7  C   UNL     1      -0.084  -7.113  14.916  1.00  0.00     0.039 C 
ATOM      8  C   UNL     1       1.110  -6.502  15.610  1.00  0.00    -0.080 C 
ATOM      9  C   UNL     1       2.481  -7.085  15.376  1.00  0.00     0.039 C 
ENDBRANCH   5   6
ENDBRANCH   4   5
ENDBRANCH   1   4
BRANCH   2  10
ATOM     10  C   UNL     1      -3.726  -5.284  17.928  1.00  0.00     0.035 C 
BRANCH  10  11
ATOM     11  C   UNL     1      -4.062  -5.133  16.441  1.00  0.00     0.079 C 
BRANCH  11  12
ATOM     12  C   UNL     1      -5.492  -4.706  16.257  1.00  0.00     0.130 C 
ATOM     13  O   UNL     1      -5.802  -4.024  15.293  1.00  0.00    -0.300 OA
ATOM     14  C   UNL     1      -6.536  -5.093  17.261  1.00  0.00     0.087 C 
ENDBRANCH  11  12
ENDBRANCH  10  11
ENDBRANCH   2  10
TORSDOF 6
ENDMDL
