MODEL 1
REMARK VINA RESULT:    -4.156      0.000      0.000
REMARK INTER + INTRA:          -9.514
REMARK INTER:                  -7.557
REMARK INTRA:                  -1.957
REMARK UNBOUND:                -1.957
REMARK SMILES CCCCCCCCCCCCCCCC(=O)[O-]
REMARK SMILES IDX 9 1 10 2 11 3 12 4 13 5 14 6 15 7 16 8 17 9 18 10 8 11 7 12
REMARK SMILES IDX 6 13 5 14 4 15 3 16 2 17 1 18
REMARK H PARENT
REMARK Flexibility Score: inf
ROOT
ATOM      1  C   UNL     1     163.201 163.258 182.096  1.00  0.00     0.000 C 
ENDROOT
BRANCH   1   2
ATOM      2  C   UNL     1     162.367 163.131 183.383  1.00  0.00     0.000 C 
BRANCH   2   3
ATOM      3  C   UNL     1     160.889 162.818 183.100  1.00  0.00     0.000 C 
BRANCH   3   4
ATOM      4  C   UNL     1     160.455 161.449 183.646  1.00  0.00     0.000 C 
BRANCH   4   5
ATOM      5  C   UNL     1     160.293 160.431 182.508  1.00  0.00     0.000 C 
BRANCH   5   6
ATOM      6  C   UNL     1     160.207 161.093 181.120  1.00  0.00     0.006 C 
BRANCH   6   7
ATOM      7  C   UNL     1     161.329 160.681 180.153  1.00  0.00     0.053 C 
BRANCH   7   8
ATOM      8  C   UNL     1     161.476 161.650 179.021  1.00  0.00     0.041 C 
ATOM      9  O   UNL     1     162.541 161.683 178.349  1.00  0.00    -0.550 OA
ATOM     10  O   UNL     1     160.426 162.495 178.686  1.00  0.00    -0.550 OA
ENDBRANCH   7   8
ENDBRANCH   6   7
ENDBRANCH   5   6
ENDBRANCH   4   5
ENDBRANCH   3   4
ENDBRANCH   2   3
ENDBRANCH   1   2
BRANCH   1  11
ATOM     11  C   UNL     1     164.306 162.194 182.005  1.00  0.00     0.000 C 
BRANCH  11  12
ATOM     12  C   UNL     1     164.004 160.950 182.857  1.00  0.00    -0.000 C 
BRANCH  12  13
ATOM     13  C   UNL     1     165.100 159.875 182.749  1.00  0.00    -0.000 C 
BRANCH  13  14
ATOM     14  C   UNL     1     166.391 160.328 182.034  1.00  0.00    -0.000 C 
BRANCH  14  15
ATOM     15  C   UNL     1     167.654 160.359 182.915  1.00  0.00    -0.000 C 
BRANCH  15  16
ATOM     16  C   UNL     1     167.363 160.790 184.361  1.00  0.00    -0.000 C 
BRANCH  16  17
ATOM     17  C   UNL     1     167.162 162.307 184.494  1.00  0.00    -0.003 C 
ATOM     18  C   UNL     1     168.142 163.112 183.640  1.00  0.00     0.004 C 
ENDBRANCH  16  17
ENDBRANCH  15  16
ENDBRANCH  14  15
ENDBRANCH  13  14
ENDBRANCH  12  13
ENDBRANCH  11  12
ENDBRANCH   1  11
TORSDOF 14
ENDMDL
MODEL 2
REMARK VINA RESULT:    -4.110      0.853      1.529
REMARK INTER + INTRA:          -9.431
REMARK INTER:                  -7.258
REMARK INTRA:                  -2.173
REMARK UNBOUND:                -1.957
REMARK SMILES CCCCCCCCCCCCCCCC(=O)[O-]
REMARK SMILES IDX 9 1 10 2 11 3 12 4 13 5 14 6 15 7 16 8 17 9 18 10 8 11 7 12
REMARK SMILES IDX 6 13 5 14 4 15 3 16 2 17 1 18
REMARK H PARENT
REMARK Flexibility Score: inf
ROOT
ATOM      1  C   UNL     1     163.775 162.201 182.736  1.00  0.00     0.000 C 
ENDROOT
BRANCH   1   2
ATOM      2  C   UNL     1     162.488 162.911 183.192  1.00  0.00     0.000 C 
BRANCH   2   3
ATOM      3  C   UNL     1     161.421 161.928 183.699  1.00  0.00     0.000 C 
BRANCH   3   4
ATOM      4  C   UNL     1     160.217 161.817 182.753  1.00  0.00     0.000 C 
BRANCH   4   5
ATOM      5  C   UNL     1     160.037 160.373 182.262  1.00  0.00     0.000 C 
BRANCH   5   6
ATOM      6  C   UNL     1     160.091 160.251 180.728  1.00  0.00     0.006 C 
BRANCH   6   7
ATOM      7  C   UNL     1     161.476 160.524 180.121  1.00  0.00     0.053 C 
BRANCH   7   8
ATOM      8  C   UNL     1     161.465 161.713 179.211  1.00  0.00     0.041 C 
ATOM      9  O   UNL     1     160.385 162.311 178.963  1.00  0.00    -0.550 OA
ATOM     10  O   UNL     1     162.652 162.181 178.662  1.00  0.00    -0.550 OA
ENDBRANCH   7   8
ENDBRANCH   6   7
ENDBRANCH   5   6
ENDBRANCH   4   5
ENDBRANCH   3   4
ENDBRANCH   2   3
ENDBRANCH   1   2
BRANCH   1  11
ATOM     11  C   UNL     1     163.766 160.699 183.063  1.00  0.00     0.000 C 
BRANCH  11  12
ATOM     12  C   UNL     1     164.766 159.901 182.210  1.00  0.00    -0.000 C 
BRANCH  12  13
ATOM     13  C   UNL     1     165.286 160.699 181.001  1.00  0.00    -0.000 C 
BRANCH  13  14
ATOM     14  C   UNL     1     166.819 160.685 180.820  1.00  0.00    -0.000 C 
BRANCH  14  15
ATOM     15  C   UNL     1     167.634 160.595 182.124  1.00  0.00    -0.000 C 
BRANCH  15  16
ATOM     16  C   UNL     1     167.671 161.922 182.898  1.00  0.00    -0.000 C 
BRANCH  16  17
ATOM     17  C   UNL     1     167.308 161.749 184.381  1.00  0.00    -0.003 C 
ATOM     18  C   UNL     1     167.168 160.283 184.790  1.00  0.00     0.004 C 
ENDBRANCH  16  17
ENDBRANCH  15  16
ENDBRANCH  14  15
ENDBRANCH  13  14
ENDBRANCH  12  13
ENDBRANCH  11  12
ENDBRANCH   1  11
TORSDOF 14
ENDMDL
MODEL 3
REMARK VINA RESULT:    -4.088      2.938      6.310
REMARK INTER + INTRA:          -9.391
REMARK INTER:                  -7.439
REMARK INTRA:                  -1.952
REMARK UNBOUND:                -1.957
REMARK SMILES CCCCCCCCCCCCCCCC(=O)[O-]
REMARK SMILES IDX 9 1 10 2 11 3 12 4 13 5 14 6 15 7 16 8 17 9 18 10 8 11 7 12
REMARK SMILES IDX 6 13 5 14 4 15 3 16 2 17 1 18
REMARK H PARENT
REMARK Flexibility Score: inf
ROOT
ATOM      1  C   UNL     1     162.752 163.106 182.675  1.00  0.00     0.000 C 
ENDROOT
BRANCH   1   2
ATOM      2  C   UNL     1     164.003 162.266 182.985  1.00  0.00     0.000 C 
BRANCH   2   3
ATOM      3  C   UNL     1     163.728 160.755 182.923  1.00  0.00     0.000 C 
BRANCH   3   4
ATOM      4  C   UNL     1     165.006 159.912 183.049  1.00  0.00     0.000 C 
BRANCH   4   5
ATOM      5  C   UNL     1     166.205 160.637 182.417  1.00  0.00     0.000 C 
BRANCH   5   6
ATOM      6  C   UNL     1     167.446 160.647 183.328  1.00  0.00     0.006 C 
BRANCH   6   7
ATOM      7  C   UNL     1     167.230 161.340 184.683  1.00  0.00     0.053 C 
BRANCH   7   8
ATOM      8  C   UNL     1     167.373 162.827 184.580  1.00  0.00     0.041 C 
ATOM      9  O   UNL     1     166.509 163.584 185.096  1.00  0.00    -0.550 OA
ATOM     10  O   UNL     1     168.477 163.378 183.944  1.00  0.00    -0.550 OA
ENDBRANCH   7   8
ENDBRANCH   6   7
ENDBRANCH   5   6
ENDBRANCH   4   5
ENDBRANCH   3   4
ENDBRANCH   2   3
ENDBRANCH   1   2
BRANCH   1  11
ATOM     11  C   UNL     1     161.581 162.788 183.618  1.00  0.00     0.000 C 
BRANCH  11  12
ATOM     12  C   UNL     1     160.211 162.963 182.941  1.00  0.00    -0.000 C 
BRANCH  12  13
ATOM     13  C   UNL     1     160.188 162.429 181.498  1.00  0.00    -0.000 C 
BRANCH  13  14
ATOM     14  C   UNL     1     160.130 160.892 181.372  1.00  0.00    -0.000 C 
BRANCH  14  15
ATOM     15  C   UNL     1     160.940 160.298 180.205  1.00  0.00    -0.000 C 
BRANCH  15  16
ATOM     16  C   UNL     1     161.918 161.307 179.582  1.00  0.00    -0.000 C 
BRANCH  16  17
ATOM     17  C   UNL     1     163.286 160.684 179.267  1.00  0.00    -0.003 C 
ATOM     18  C   UNL     1     163.952 161.302 178.037  1.00  0.00     0.004 C 
ENDBRANCH  16  17
ENDBRANCH  15  16
ENDBRANCH  14  15
ENDBRANCH  13  14
ENDBRANCH  12  13
ENDBRANCH  11  12
ENDBRANCH   1  11
TORSDOF 14
ENDMDL
MODEL 4
REMARK VINA RESULT:    -4.062      3.037      6.286
REMARK INTER + INTRA:          -9.344
REMARK INTER:                  -7.061
REMARK INTRA:                  -2.284
REMARK UNBOUND:                -1.957
REMARK SMILES CCCCCCCCCCCCCCCC(=O)[O-]
REMARK SMILES IDX 9 1 10 2 11 3 12 4 13 5 14 6 15 7 16 8 17 9 18 10 8 11 7 12
REMARK SMILES IDX 6 13 5 14 4 15 3 16 2 17 1 18
REMARK H PARENT
REMARK Flexibility Score: inf
ROOT
ATOM      1  C   UNL     1     162.340 160.624 180.181  1.00  0.00     0.000 C 
ENDROOT
BRANCH   1   2
ATOM      2  C   UNL     1     163.237 161.871 180.257  1.00  0.00     0.000 C 
BRANCH   2   3
ATOM      3  C   UNL     1     164.300 161.766 181.362  1.00  0.00     0.000 C 
BRANCH   3   4
ATOM      4  C   UNL     1     164.214 160.449 182.148  1.00  0.00     0.000 C 
BRANCH   4   5
ATOM      5  C   UNL     1     165.286 160.396 183.247  1.00  0.00     0.000 C 
BRANCH   5   6
ATOM      6  C   UNL     1     166.433 161.397 183.013  1.00  0.00     0.006 C 
BRANCH   6   7
ATOM      7  C   UNL     1     167.268 161.705 184.267  1.00  0.00     0.053 C 
BRANCH   7   8
ATOM      8  C   UNL     1     167.501 163.174 184.438  1.00  0.00     0.041 C 
ATOM      9  O   UNL     1     168.519 163.718 183.935  1.00  0.00    -0.550 OA
ATOM     10  O   UNL     1     166.577 163.950 185.125  1.00  0.00    -0.550 OA
ENDBRANCH   7   8
ENDBRANCH   6   7
ENDBRANCH   5   6
ENDBRANCH   4   5
ENDBRANCH   3   4
ENDBRANCH   2   3
ENDBRANCH   1   2
BRANCH   1  11
ATOM     11  C   UNL     1     160.882 160.969 179.839  1.00  0.00     0.000 C 
BRANCH  11  12
ATOM     12  C   UNL     1     159.884 160.418 180.873  1.00  0.00    -0.000 C 
BRANCH  12  13
ATOM     13  C   UNL     1     160.475 160.353 182.292  1.00  0.00    -0.000 C 
BRANCH  13  14
ATOM     14  C   UNL     1     160.207 161.595 183.168  1.00  0.00    -0.000 C 
BRANCH  14  15
ATOM     15  C   UNL     1     161.461 162.379 183.598  1.00  0.00    -0.000 C 
BRANCH  15  16
ATOM     16  C   UNL     1     161.591 163.735 182.885  1.00  0.00    -0.000 C 
BRANCH  16  17
ATOM     17  C   UNL     1     160.313 164.126 182.128  1.00  0.00    -0.003 C 
ATOM     18  C   UNL     1     160.567 164.423 180.650  1.00  0.00     0.004 C 
ENDBRANCH  16  17
ENDBRANCH  15  16
ENDBRANCH  14  15
ENDBRANCH  13  14
ENDBRANCH  12  13
ENDBRANCH  11  12
ENDBRANCH   1  11
TORSDOF 14
ENDMDL
MODEL 5
REMARK VINA RESULT:    -4.024      1.228      1.684
REMARK INTER + INTRA:          -9.274
REMARK INTER:                  -7.473
REMARK INTRA:                  -1.801
REMARK UNBOUND:                -1.957
REMARK SMILES CCCCCCCCCCCCCCCC(=O)[O-]
REMARK SMILES IDX 9 1 10 2 11 3 12 4 13 5 14 6 15 7 16 8 17 9 18 10 8 11 7 12
REMARK SMILES IDX 6 13 5 14 4 15 3 16 2 17 1 18
REMARK H PARENT
REMARK Flexibility Score: inf
ROOT
ATOM      1  C   UNL     1     162.735 162.872 182.730  1.00  0.00     0.000 C 
ENDROOT
BRANCH   1   2
ATOM      2  C   UNL     1     161.561 162.531 183.663  1.00  0.00     0.000 C 
BRANCH   2   3
ATOM      3  C   UNL     1     160.258 162.257 182.895  1.00  0.00     0.000 C 
BRANCH   3   4
ATOM      4  C   UNL     1     160.179 160.824 182.349  1.00  0.00     0.000 C 
BRANCH   4   5
ATOM      5  C   UNL     1     160.154 160.824 180.813  1.00  0.00     0.000 C 
BRANCH   5   6
ATOM      6  C   UNL     1     161.493 160.384 180.192  1.00  0.00     0.006 C 
BRANCH   6   7
ATOM      7  C   UNL     1     162.063 161.367 179.157  1.00  0.00     0.053 C 
BRANCH   7   8
ATOM      8  C   UNL     1     163.366 160.893 178.592  1.00  0.00     0.041 C 
ATOM      9  O   UNL     1     163.714 161.232 177.430  1.00  0.00    -0.550 OA
ATOM     10  O   UNL     1     164.212 160.103 179.359  1.00  0.00    -0.550 OA
ENDBRANCH   7   8
ENDBRANCH   6   7
ENDBRANCH   5   6
ENDBRANCH   4   5
ENDBRANCH   3   4
ENDBRANCH   2   3
ENDBRANCH   1   2
BRANCH   1  11
ATOM     11  C   UNL     1     164.025 162.129 183.112  1.00  0.00     0.000 C 
BRANCH  11  12
ATOM     12  C   UNL     1     163.923 160.610 182.888  1.00  0.00    -0.000 C 
BRANCH  12  13
ATOM     13  C   UNL     1     165.298 159.941 182.720  1.00  0.00    -0.000 C 
BRANCH  13  14
ATOM     14  C   UNL     1     166.248 160.088 183.927  1.00  0.00    -0.000 C 
BRANCH  14  15
ATOM     15  C   UNL     1     167.720 160.374 183.575  1.00  0.00    -0.000 C 
BRANCH  15  16
ATOM     16  C   UNL     1     168.011 161.874 183.403  1.00  0.00    -0.000 C 
BRANCH  16  17
ATOM     17  C   UNL     1     167.515 162.710 184.591  1.00  0.00    -0.003 C 
ATOM     18  C   UNL     1     166.985 164.082 184.172  1.00  0.00     0.004 C 
ENDBRANCH  16  17
ENDBRANCH  15  16
ENDBRANCH  14  15
ENDBRANCH  13  14
ENDBRANCH  12  13
ENDBRANCH  11  12
ENDBRANCH   1  11
TORSDOF 14
ENDMDL
MODEL 6
REMARK VINA RESULT:    -3.976      1.701      3.241
REMARK INTER + INTRA:          -9.187
REMARK INTER:                  -6.993
REMARK INTRA:                  -2.194
REMARK UNBOUND:                -1.957
REMARK SMILES CCCCCCCCCCCCCCCC(=O)[O-]
REMARK SMILES IDX 9 1 10 2 11 3 12 4 13 5 14 6 15 7 16 8 17 9 18 10 8 11 7 12
REMARK SMILES IDX 6 13 5 14 4 15 3 16 2 17 1 18
REMARK H PARENT
REMARK Flexibility Score: inf
ROOT
ATOM      1  C   UNL     1     161.065 160.984 183.102  1.00  0.00     0.000 C 
ENDROOT
BRANCH   1   2
ATOM      2  C   UNL     1     159.875 160.562 182.223  1.00  0.00     0.000 C 
BRANCH   2   3
ATOM      3  C   UNL     1     160.118 160.834 180.730  1.00  0.00     0.000 C 
BRANCH   3   4
ATOM      4  C   UNL     1     161.509 160.381 180.262  1.00  0.00     0.000 C 
BRANCH   4   5
ATOM      5  C   UNL     1     162.072 161.344 179.206  1.00  0.00     0.000 C 
BRANCH   5   6
ATOM      6  C   UNL     1     161.287 162.667 179.123  1.00  0.00     0.006 C 
BRANCH   6   7
ATOM      7  C   UNL     1     162.068 163.897 179.611  1.00  0.00     0.053 C 
BRANCH   7   8
ATOM      8  C   UNL     1     161.158 165.017 180.009  1.00  0.00     0.041 C 
ATOM      9  O   UNL     1     160.301 164.847 180.915  1.00  0.00    -0.550 OA
ATOM     10  O   UNL     1     161.277 166.260 179.401  1.00  0.00    -0.550 OA
ENDBRANCH   7   8
ENDBRANCH   6   7
ENDBRANCH   5   6
ENDBRANCH   4   5
ENDBRANCH   3   4
ENDBRANCH   2   3
ENDBRANCH   1   2
BRANCH   1  11
ATOM     11  C   UNL     1     161.091 162.497 183.371  1.00  0.00     0.000 C 
BRANCH  11  12
ATOM     12  C   UNL     1     162.468 163.125 183.094  1.00  0.00    -0.000 C 
BRANCH  12  13
ATOM     13  C   UNL     1     163.616 162.105 183.190  1.00  0.00    -0.000 C 
BRANCH  13  14
ATOM     14  C   UNL     1     164.507 162.005 181.934  1.00  0.00    -0.000 C 
BRANCH  14  15
ATOM     15  C   UNL     1     165.404 160.755 181.862  1.00  0.00    -0.000 C 
BRANCH  15  16
ATOM     16  C   UNL     1     165.441 159.970 183.184  1.00  0.00    -0.000 C 
BRANCH  16  17
ATOM     17  C   UNL     1     166.735 160.214 183.976  1.00  0.00    -0.003 C 
ATOM     18  C   UNL     1     167.934 160.515 183.077  1.00  0.00     0.004 C 
ENDBRANCH  16  17
ENDBRANCH  15  16
ENDBRANCH  14  15
ENDBRANCH  13  14
ENDBRANCH  12  13
ENDBRANCH  11  12
ENDBRANCH   1  11
TORSDOF 14
ENDMDL
MODEL 7
REMARK VINA RESULT:    -3.954      1.190      2.020
REMARK INTER + INTRA:          -9.148
REMARK INTER:                  -7.346
REMARK INTRA:                  -1.801
REMARK UNBOUND:                -1.957
REMARK SMILES CCCCCCCCCCCCCCCC(=O)[O-]
REMARK SMILES IDX 9 1 10 2 11 3 12 4 13 5 14 6 15 7 16 8 17 9 18 10 8 11 7 12
REMARK SMILES IDX 6 13 5 14 4 15 3 16 2 17 1 18
REMARK H PARENT
REMARK Flexibility Score: inf
ROOT
ATOM      1  C   UNL     1     163.846 161.308 182.759  1.00  0.00     0.000 C 
ENDROOT
BRANCH   1   2
ATOM      2  C   UNL     1     162.420 161.004 183.247  1.00  0.00     0.000 C 
BRANCH   2   3
ATOM      3  C   UNL     1     161.519 162.249 183.248  1.00  0.00     0.000 C 
BRANCH   3   4
ATOM      4  C   UNL     1     160.238 162.057 182.422  1.00  0.00     0.000 C 
BRANCH   4   5
ATOM      5  C   UNL     1     159.988 160.569 182.135  1.00  0.00     0.000 C 
BRANCH   5   6
ATOM      6  C   UNL     1     160.069 160.227 180.636  1.00  0.00     0.006 C 
BRANCH   6   7
ATOM      7  C   UNL     1     160.626 161.360 179.758  1.00  0.00     0.053 C 
BRANCH   7   8
ATOM      8  C   UNL     1     162.092 161.202 179.501  1.00  0.00     0.041 C 
ATOM      9  O   UNL     1     162.633 160.069 179.596  1.00  0.00    -0.550 OA
ATOM     10  O   UNL     1     162.856 162.299 179.125  1.00  0.00    -0.550 OA
ENDBRANCH   7   8
ENDBRANCH   6   7
ENDBRANCH   5   6
ENDBRANCH   4   5
ENDBRANCH   3   4
ENDBRANCH   2   3
ENDBRANCH   1   2
BRANCH   1  11
ATOM     11  C   UNL     1     164.774 160.086 182.858  1.00  0.00     0.000 C 
BRANCH  11  12
ATOM     12  C   UNL     1     166.064 160.254 182.036  1.00  0.00    -0.000 C 
BRANCH  12  13
ATOM     13  C   UNL     1     167.315 160.411 182.919  1.00  0.00    -0.000 C 
BRANCH  13  14
ATOM     14  C   UNL     1     167.031 160.735 184.401  1.00  0.00    -0.000 C 
BRANCH  14  15
ATOM     15  C   UNL     1     167.425 162.154 184.851  1.00  0.00    -0.000 C 
BRANCH  15  16
ATOM     16  C   UNL     1     166.382 163.215 184.461  1.00  0.00    -0.000 C 
BRANCH  16  17
ATOM     17  C   UNL     1     166.912 164.203 183.412  1.00  0.00    -0.003 C 
ATOM     18  C   UNL     1     166.195 164.082 182.067  1.00  0.00     0.004 C 
ENDBRANCH  16  17
ENDBRANCH  15  16
ENDBRANCH  14  15
ENDBRANCH  13  14
ENDBRANCH  12  13
ENDBRANCH  11  12
ENDBRANCH   1  11
TORSDOF 14
ENDMDL
MODEL 8
REMARK VINA RESULT:    -3.942      3.282      5.183
REMARK INTER + INTRA:          -9.126
REMARK INTER:                  -6.633
REMARK INTRA:                  -2.493
REMARK UNBOUND:                -1.957
REMARK SMILES CCCCCCCCCCCCCCCC(=O)[O-]
REMARK SMILES IDX 9 1 10 2 11 3 12 4 13 5 14 6 15 7 16 8 17 9 18 10 8 11 7 12
REMARK SMILES IDX 6 13 5 14 4 15 3 16 2 17 1 18
REMARK H PARENT
REMARK Flexibility Score: inf
ROOT
ATOM      1  C   UNL     1     161.671 160.750 179.811  1.00  0.00     0.000 C 
ENDROOT
BRANCH   1   2
ATOM      2  C   UNL     1     162.131 162.185 179.498  1.00  0.00     0.000 C 
BRANCH   2   3
ATOM      3  C   UNL     1     160.960 163.115 179.143  1.00  0.00     0.000 C 
BRANCH   3   4
ATOM      4  C   UNL     1     160.995 164.439 179.921  1.00  0.00     0.000 C 
BRANCH   4   5
ATOM      5  C   UNL     1     160.105 164.364 181.171  1.00  0.00     0.000 C 
BRANCH   5   6
ATOM      6  C   UNL     1     160.261 165.589 182.091  1.00  0.00     0.006 C 
BRANCH   6   7
ATOM      7  C   UNL     1     161.193 166.680 181.538  1.00  0.00     0.053 C 
BRANCH   7   8
ATOM      8  C   UNL     1     160.482 167.986 181.360  1.00  0.00     0.041 C 
ATOM      9  O   UNL     1     159.896 168.526 182.335  1.00  0.00    -0.550 OA
ATOM     10  O   UNL     1     160.494 168.623 180.126  1.00  0.00    -0.550 OA
ENDBRANCH   7   8
ENDBRANCH   6   7
ENDBRANCH   5   6
ENDBRANCH   4   5
ENDBRANCH   3   4
ENDBRANCH   2   3
ENDBRANCH   1   2
BRANCH   1  11
ATOM     11  C   UNL     1     160.226 160.696 180.331  1.00  0.00     0.000 C 
BRANCH  11  12
ATOM     12  C   UNL     1     160.136 160.190 181.781  1.00  0.00    -0.000 C 
BRANCH  12  13
ATOM     13  C   UNL     1     159.952 161.330 182.798  1.00  0.00    -0.000 C 
BRANCH  13  14
ATOM     14  C   UNL     1     161.220 161.710 183.590  1.00  0.00    -0.000 C 
BRANCH  14  15
ATOM     15  C   UNL     1     162.522 161.048 183.103  1.00  0.00    -0.000 C 
BRANCH  15  16
ATOM     16  C   UNL     1     163.677 162.050 182.943  1.00  0.00    -0.000 C 
BRANCH  16  17
ATOM     17  C   UNL     1     163.201 163.510 182.993  1.00  0.00    -0.003 C 
ATOM     18  C   UNL     1     164.026 164.435 182.098  1.00  0.00     0.004 C 
ENDBRANCH  16  17
ENDBRANCH  15  16
ENDBRANCH  14  15
ENDBRANCH  13  14
ENDBRANCH  12  13
ENDBRANCH  11  12
ENDBRANCH   1  11
TORSDOF 14
ENDMDL
