MODEL 1
REMARK VINA RESULT:    -3.042      0.000      0.000
REMARK INTER + INTRA:          -4.729
REMARK INTER:                  -4.109
REMARK INTRA:                  -0.620
REMARK UNBOUND:                -0.620
REMARK SMILES CCCCCCCC(=O)[O-]
REMARK SMILES IDX 5 1 6 2 7 3 8 4 9 5 10 6 4 7 3 8 2 9 1 10
REMARK H PARENT
REMARK Flexibility Score: inf
ROOT
ATOM      1  C   UNL     1     -24.111   2.482 -33.087  1.00  0.00     0.000 C 
ENDROOT
BRANCH   1   2
ATOM      2  C   UNL     1     -24.753   3.637 -32.299  1.00  0.00     0.006 C 
BRANCH   2   3
ATOM      3  C   UNL     1     -25.364   4.698 -33.224  1.00  0.00     0.053 C 
BRANCH   3   4
ATOM      4  C   UNL     1     -26.344   4.100 -34.187  1.00  0.00     0.041 C 
ATOM      5  O   UNL     1     -26.176   4.233 -35.428  1.00  0.00    -0.550 OA
ATOM      6  O   UNL     1     -27.457   3.419 -33.713  1.00  0.00    -0.550 OA
ENDBRANCH   3   4
ENDBRANCH   2   3
ENDBRANCH   1   2
BRANCH   1   7
ATOM      7  C   UNL     1     -22.883   2.926 -33.903  1.00  0.00     0.000 C 
BRANCH   7   8
ATOM      8  C   UNL     1     -22.826   2.387 -35.347  1.00  0.00    -0.000 C 
BRANCH   8   9
ATOM      9  C   UNL     1     -22.797   3.466 -36.443  1.00  0.00    -0.003 C 
ATOM     10  C   UNL     1     -22.763   4.886 -35.880  1.00  0.00     0.004 C 
ENDBRANCH   8   9
ENDBRANCH   7   8
ENDBRANCH   1   7
TORSDOF 6
ENDMDL
MODEL 2
REMARK VINA RESULT:    -3.008      1.963      3.843
REMARK INTER + INTRA:          -4.683
REMARK INTER:                  -4.028
REMARK INTRA:                  -0.655
REMARK UNBOUND:                -0.620
REMARK SMILES CCCCCCCC(=O)[O-]
REMARK SMILES IDX 5 1 6 2 7 3 8 4 9 5 10 6 4 7 3 8 2 9 1 10
REMARK H PARENT
REMARK Flexibility Score: inf
ROOT
ATOM      1  C   UNL     1     -24.672   2.250 -32.898  1.00  0.00     0.000 C 
ENDROOT
BRANCH   1   2
ATOM      2  C   UNL     1     -23.405   2.106 -33.760  1.00  0.00     0.006 C 
BRANCH   2   3
ATOM      3  C   UNL     1     -23.671   2.425 -35.237  1.00  0.00     0.053 C 
BRANCH   3   4
ATOM      4  C   UNL     1     -22.968   3.674 -35.672  1.00  0.00     0.041 C 
ATOM      5  O   UNL     1     -23.028   4.715 -34.966  1.00  0.00    -0.550 OA
ATOM      6  O   UNL     1     -22.270   3.696 -36.872  1.00  0.00    -0.550 OA
ENDBRANCH   3   4
ENDBRANCH   2   3
ENDBRANCH   1   2
BRANCH   1   7
ATOM      7  C   UNL     1     -24.740   3.599 -32.158  1.00  0.00     0.000 C 
BRANCH   7   8
ATOM      8  C   UNL     1     -25.815   4.576 -32.676  1.00  0.00    -0.000 C 
BRANCH   8   9
ATOM      9  C   UNL     1     -26.797   3.981 -33.699  1.00  0.00    -0.003 C 
ATOM     10  C   UNL     1     -26.701   4.643 -35.072  1.00  0.00     0.004 C 
ENDBRANCH   8   9
ENDBRANCH   7   8
ENDBRANCH   1   7
TORSDOF 6
ENDMDL
MODEL 3
REMARK VINA RESULT:    -2.996      1.562      3.813
REMARK INTER + INTRA:          -4.667
REMARK INTER:                  -4.178
REMARK INTRA:                  -0.488
REMARK UNBOUND:                -0.620
REMARK SMILES CCCCCCCC(=O)[O-]
REMARK SMILES IDX 5 1 6 2 7 3 8 4 9 5 10 6 4 7 3 8 2 9 1 10
REMARK H PARENT
REMARK Flexibility Score: inf
ROOT
ATOM      1  C   UNL     1     -24.589   2.460 -32.862  1.00  0.00     0.000 C 
ENDROOT
BRANCH   1   2
ATOM      2  C   UNL     1     -23.329   2.479 -33.745  1.00  0.00     0.006 C 
BRANCH   2   3
ATOM      3  C   UNL     1     -23.670   2.422 -35.240  1.00  0.00     0.053 C 
BRANCH   3   4
ATOM      4  C   UNL     1     -23.695   3.787 -35.858  1.00  0.00     0.041 C 
ATOM      5  O   UNL     1     -22.670   4.518 -35.823  1.00  0.00    -0.550 OA
ATOM      6  O   UNL     1     -24.860   4.261 -36.447  1.00  0.00    -0.550 OA
ENDBRANCH   3   4
ENDBRANCH   2   3
ENDBRANCH   1   2
BRANCH   1   7
ATOM      7  C   UNL     1     -24.992   3.861 -32.366  1.00  0.00     0.000 C 
BRANCH   7   8
ATOM      8  C   UNL     1     -26.151   4.521 -33.140  1.00  0.00    -0.000 C 
BRANCH   8   9
ATOM      9  C   UNL     1     -27.082   3.543 -33.875  1.00  0.00    -0.003 C 
ATOM     10  C   UNL     1     -28.504   4.079 -34.035  1.00  0.00     0.004 C 
ENDBRANCH   8   9
ENDBRANCH   7   8
ENDBRANCH   1   7
TORSDOF 6
ENDMDL
MODEL 4
REMARK VINA RESULT:    -2.976      2.058      3.714
REMARK INTER + INTRA:          -4.639
REMARK INTER:                  -4.083
REMARK INTRA:                  -0.556
REMARK UNBOUND:                -0.620
REMARK SMILES CCCCCCCC(=O)[O-]
REMARK SMILES IDX 5 1 6 2 7 3 8 4 9 5 10 6 4 7 3 8 2 9 1 10
REMARK H PARENT
REMARK Flexibility Score: inf
ROOT
ATOM      1  C   UNL     1     -24.106   2.522 -33.297  1.00  0.00     0.000 C 
ENDROOT
BRANCH   1   2
ATOM      2  C   UNL     1     -22.741   2.940 -33.872  1.00  0.00     0.006 C 
BRANCH   2   3
ATOM      3  C   UNL     1     -22.883   3.913 -35.049  1.00  0.00     0.053 C 
BRANCH   3   4
ATOM      4  C   UNL     1     -23.055   3.192 -36.351  1.00  0.00     0.041 C 
ATOM      5  O   UNL     1     -23.637   3.755 -37.316  1.00  0.00    -0.550 OA
ATOM      6  O   UNL     1     -22.599   1.888 -36.488  1.00  0.00    -0.550 OA
ENDBRANCH   3   4
ENDBRANCH   2   3
ENDBRANCH   1   2
BRANCH   1   7
ATOM      7  C   UNL     1     -24.683   3.560 -32.316  1.00  0.00     0.000 C 
BRANCH   7   8
ATOM      8  C   UNL     1     -25.924   4.323 -32.824  1.00  0.00    -0.000 C 
BRANCH   8   9
ATOM      9  C   UNL     1     -26.601   3.711 -34.062  1.00  0.00    -0.003 C 
ATOM     10  C   UNL     1     -26.518   4.612 -35.294  1.00  0.00     0.004 C 
ENDBRANCH   8   9
ENDBRANCH   7   8
ENDBRANCH   1   7
TORSDOF 6
ENDMDL
MODEL 5
REMARK VINA RESULT:    -2.959      1.516      1.766
REMARK INTER + INTRA:          -4.617
REMARK INTER:                  -3.975
REMARK INTRA:                  -0.641
REMARK UNBOUND:                -0.620
REMARK SMILES CCCCCCCC(=O)[O-]
REMARK SMILES IDX 5 1 6 2 7 3 8 4 9 5 10 6 4 7 3 8 2 9 1 10
REMARK H PARENT
REMARK Flexibility Score: inf
ROOT
ATOM      1  C   UNL     1     -23.574   2.165 -33.930  1.00  0.00     0.000 C 
ENDROOT
BRANCH   1   2
ATOM      2  C   UNL     1     -24.590   2.527 -32.832  1.00  0.00     0.006 C 
BRANCH   2   3
ATOM      3  C   UNL     1     -25.970   2.865 -33.411  1.00  0.00     0.053 C 
BRANCH   3   4
ATOM      4  C   UNL     1     -26.356   4.286 -33.136  1.00  0.00     0.041 C 
ATOM      5  O   UNL     1     -25.590   5.036 -32.474  1.00  0.00    -0.550 OA
ATOM      6  O   UNL     1     -27.575   4.775 -33.588  1.00  0.00    -0.550 OA
ENDBRANCH   3   4
ENDBRANCH   2   3
ENDBRANCH   1   2
BRANCH   1   7
ATOM      7  C   UNL     1     -22.562   3.294 -34.204  1.00  0.00     0.000 C 
BRANCH   7   8
ATOM      8  C   UNL     1     -23.070   4.418 -35.130  1.00  0.00    -0.000 C 
BRANCH   8   9
ATOM      9  C   UNL     1     -23.842   3.938 -36.371  1.00  0.00    -0.003 C 
ATOM     10  C   UNL     1     -25.139   4.711 -36.602  1.00  0.00     0.004 C 
ENDBRANCH   8   9
ENDBRANCH   7   8
ENDBRANCH   1   7
TORSDOF 6
ENDMDL
MODEL 6
REMARK VINA RESULT:    -2.832     21.157     22.358
REMARK INTER + INTRA:          -4.445
REMARK INTER:                  -4.269
REMARK INTRA:                  -0.176
REMARK UNBOUND:                -0.620
REMARK SMILES CCCCCCCC(=O)[O-]
REMARK SMILES IDX 5 1 6 2 7 3 8 4 9 5 10 6 4 7 3 8 2 9 1 10
REMARK H PARENT
REMARK Flexibility Score: inf
ROOT
ATOM      1  C   UNL     1     -22.042 -13.191 -19.606  1.00  0.00     0.000 C 
ENDROOT
BRANCH   1   2
ATOM      2  C   UNL     1     -20.613 -12.867 -19.137  1.00  0.00     0.006 C 
BRANCH   2   3
ATOM      3  C   UNL     1     -20.338 -11.358 -19.122  1.00  0.00     0.053 C 
BRANCH   3   4
ATOM      4  C   UNL     1     -19.138 -11.002 -19.944  1.00  0.00     0.041 C 
ATOM      5  O   UNL     1     -18.936  -9.807 -20.289  1.00  0.00    -0.550 OA
ATOM      6  O   UNL     1     -18.257 -11.994 -20.353  1.00  0.00    -0.550 OA
ENDBRANCH   3   4
ENDBRANCH   2   3
ENDBRANCH   1   2
BRANCH   1   7
ATOM      7  C   UNL     1     -22.345 -14.701 -19.598  1.00  0.00     0.000 C 
BRANCH   7   8
ATOM      8  C   UNL     1     -23.607 -15.120 -20.381  1.00  0.00    -0.000 C 
BRANCH   8   9
ATOM      9  C   UNL     1     -23.454 -15.117 -21.911  1.00  0.00    -0.003 C 
ATOM     10  C   UNL     1     -24.669 -14.536 -22.631  1.00  0.00     0.004 C 
ENDBRANCH   8   9
ENDBRANCH   7   8
ENDBRANCH   1   7
TORSDOF 6
ENDMDL
MODEL 7
REMARK VINA RESULT:    -2.820      2.360      4.311
REMARK INTER + INTRA:          -4.429
REMARK INTER:                  -3.840
REMARK INTRA:                  -0.589
REMARK UNBOUND:                -0.620
REMARK SMILES CCCCCCCC(=O)[O-]
REMARK SMILES IDX 5 1 6 2 7 3 8 4 9 5 10 6 4 7 3 8 2 9 1 10
REMARK H PARENT
REMARK Flexibility Score: inf
ROOT
ATOM      1  C   UNL     1     -24.938   4.693 -36.466  1.00  0.00     0.000 C 
ENDROOT
BRANCH   1   2
ATOM      2  C   UNL     1     -23.407   4.669 -36.622  1.00  0.00     0.006 C 
BRANCH   2   3
ATOM      3  C   UNL     1     -22.719   3.936 -35.462  1.00  0.00     0.053 C 
BRANCH   3   4
ATOM      4  C   UNL     1     -22.743   2.450 -35.650  1.00  0.00     0.041 C 
ATOM      5  O   UNL     1     -22.677   1.684 -34.652  1.00  0.00    -0.550 OA
ATOM      6  O   UNL     1     -22.811   1.912 -36.928  1.00  0.00    -0.550 OA
ENDBRANCH   3   4
ENDBRANCH   2   3
ENDBRANCH   1   2
BRANCH   1   7
ATOM      7  C   UNL     1     -25.386   4.932 -35.013  1.00  0.00     0.000 C 
BRANCH   7   8
ATOM      8  C   UNL     1     -26.390   3.900 -34.459  1.00  0.00    -0.000 C 
BRANCH   8   9
ATOM      9  C   UNL     1     -25.805   2.904 -33.443  1.00  0.00    -0.003 C 
ATOM     10  C   UNL     1     -24.825   3.554 -32.468  1.00  0.00     0.004 C 
ENDBRANCH   8   9
ENDBRANCH   7   8
ENDBRANCH   1   7
TORSDOF 6
ENDMDL
MODEL 8
REMARK VINA RESULT:    -2.715      1.334      2.566
REMARK INTER + INTRA:          -4.287
REMARK INTER:                  -3.722
REMARK INTRA:                  -0.565
REMARK UNBOUND:                -0.620
REMARK SMILES CCCCCCCC(=O)[O-]
REMARK SMILES IDX 5 1 6 2 7 3 8 4 9 5 10 6 4 7 3 8 2 9 1 10
REMARK H PARENT
REMARK Flexibility Score: inf
ROOT
ATOM      1  C   UNL     1     -24.338   5.125 -36.666  1.00  0.00     0.000 C 
ENDROOT
BRANCH   1   2
ATOM      2  C   UNL     1     -25.596   4.464 -36.075  1.00  0.00     0.006 C 
BRANCH   2   3
ATOM      3  C   UNL     1     -25.666   4.616 -34.550  1.00  0.00     0.053 C 
BRANCH   3   4
ATOM      4  C   UNL     1     -26.467   3.520 -33.917  1.00  0.00     0.041 C 
ATOM      5  O   UNL     1     -25.888   2.527 -33.401  1.00  0.00    -0.550 OA
ATOM      6  O   UNL     1     -27.854   3.581 -33.922  1.00  0.00    -0.550 OA
ENDBRANCH   3   4
ENDBRANCH   2   3
ENDBRANCH   1   2
BRANCH   1   7
ATOM      7  C   UNL     1     -23.033   4.559 -36.077  1.00  0.00     0.000 C 
BRANCH   7   8
ATOM      8  C   UNL     1     -22.758   3.076 -36.399  1.00  0.00    -0.000 C 
BRANCH   8   9
ATOM      9  C   UNL     1     -22.800   2.129 -35.188  1.00  0.00    -0.003 C 
ATOM     10  C   UNL     1     -22.441   2.823 -33.875  1.00  0.00     0.004 C 
ENDBRANCH   8   9
ENDBRANCH   7   8
ENDBRANCH   1   7
TORSDOF 6
ENDMDL
MODEL 9
REMARK VINA RESULT:    -2.644      1.980      2.740
REMARK INTER + INTRA:          -4.191
REMARK INTER:                  -3.698
REMARK INTRA:                  -0.493
REMARK UNBOUND:                -0.620
REMARK SMILES CCCCCCCC(=O)[O-]
REMARK SMILES IDX 5 1 6 2 7 3 8 4 9 5 10 6 4 7 3 8 2 9 1 10
REMARK H PARENT
REMARK Flexibility Score: inf
ROOT
ATOM      1  C   UNL     1     -24.653   5.122 -35.164  1.00  0.00     0.000 C 
ENDROOT
BRANCH   1   2
ATOM      2  C   UNL     1     -25.425   3.796 -35.050  1.00  0.00     0.006 C 
BRANCH   2   3
ATOM      3  C   UNL     1     -26.011   3.586 -33.647  1.00  0.00     0.053 C 
BRANCH   3   4
ATOM      4  C   UNL     1     -24.941   3.353 -32.626  1.00  0.00     0.041 C 
ATOM      5  O   UNL     1     -24.886   4.065 -31.589  1.00  0.00    -0.550 OA
ATOM      6  O   UNL     1     -23.986   2.366 -32.833  1.00  0.00    -0.550 OA
ENDBRANCH   3   4
ENDBRANCH   2   3
ENDBRANCH   1   2
BRANCH   1   7
ATOM      7  C   UNL     1     -23.153   4.918 -35.443  1.00  0.00     0.000 C 
BRANCH   7   8
ATOM      8  C   UNL     1     -22.787   3.570 -36.099  1.00  0.00    -0.000 C 
BRANCH   8   9
ATOM      9  C   UNL     1     -22.363   3.660 -37.575  1.00  0.00    -0.003 C 
ATOM     10  C   UNL     1     -23.533   3.941 -38.515  1.00  0.00     0.004 C 
ENDBRANCH   8   9
ENDBRANCH   7   8
ENDBRANCH   1   7
TORSDOF 6
ENDMDL
