MODEL 1
REMARK VINA RESULT:    85.333      0.000      0.000
REMARK INTER + INTRA:          90.322
REMARK INTER:                  90.322
REMARK INTRA:                   0.000
REMARK UNBOUND:                 0.000
REMARK SMILES CC1(C)[C@H](O)CC[C@@]2(C)[C@@H]1CC[C@@]1(C)[C@@H]2C=CC2=C(O)C(=O)C(=O)[C@@]21C
REMARK SMILES IDX 1 1 2 2 10 3 11 4 12 5 13 6 15 7 8 8 7 9 6 10 4 11 9 12
REMARK SMILES IDX 16 13 17 14 18 15 19 16 21 17 22 18 23 19 24 20 25 21 26 22
REMARK SMILES IDX 14 23 3 24 5 25 20 27
REMARK H PARENT 5 26 20 28
REMARK Flexibility Score: inf
ROOT
ATOM      1  C   UNL     1      18.470  15.705  19.053  1.00  0.00     0.014 C 
ATOM      2  C   UNL     1      17.330  14.686  18.761  1.00  0.00    -0.006 C 
ATOM      3  C   UNL     1      17.065  13.765  20.039  1.00  0.00     0.004 C 
ATOM      4  C   UNL     1      15.633  13.185  20.120  1.00  0.00     0.005 C 
ATOM      5  C   UNL     1      15.311  12.820  21.569  1.00  0.00     0.009 C 
ATOM      6  C   UNL     1      16.268  11.739  22.167  1.00  0.00    -0.009 C 
ATOM      7  C   UNL     1      17.521  11.431  21.228  1.00  0.00     0.025 C 
ATOM      8  C   UNL     1      18.127  12.605  20.296  1.00  0.00    -0.022 C 
ATOM      9  C   UNL     1      18.518  11.923  18.933  1.00  0.00     0.010 C 
ATOM     10  C   UNL     1      18.855  12.880  17.787  1.00  0.00     0.033 C 
ATOM     11  C   UNL     1      17.693  13.838  17.509  1.00  0.00     0.120 C 
ATOM     12  C   UNL     1      19.432  13.220  20.918  1.00  0.00     0.012 C 
ATOM     13  C   UNL     1      18.585  10.576  21.920  1.00  0.00    -0.022 C 
ATOM     14  C   UNL     1      18.649  10.388  23.245  1.00  0.00     0.005 C 
ATOM     15  C   UNL     1      17.639  10.991  24.127  1.00  0.00     0.012 C 
ATOM     16  C   UNL     1      17.227  10.488  25.297  1.00  0.00     0.171 C 
ATOM     17  C   UNL     1      16.014  11.155  25.709  1.00  0.00     0.264 C 
ATOM     18  O   UNL     1      15.354  10.922  26.755  1.00  0.00    -0.282 OA
ATOM     19  C   UNL     1      15.673  12.111  24.677  1.00  0.00     0.217 C 
ATOM     20  O   UNL     1      14.655  12.853  24.686  1.00  0.00    -0.289 OA
ATOM     21  C   UNL     1      16.758  12.115  23.628  1.00  0.00     0.069 C 
ATOM     22  C   UNL     1      17.557  13.433  23.761  1.00  0.00     0.026 C 
ATOM     23  C   UNL     1      15.415  10.421  22.244  1.00  0.00     0.013 C 
ATOM     24  C   UNL     1      16.102  15.576  18.410  1.00  0.00     0.014 C 
ENDROOT
BRANCH  11  25
ATOM     25  O   UNL     1      16.574  13.105  17.074  1.00  0.00    -0.393 OA
ATOM     26  H   UNL     1      15.771  13.659  17.263  1.00  0.00     0.210 HD
ENDBRANCH  11  25
BRANCH  16  27
ATOM     27  O   UNL     1      17.812   9.428  25.988  1.00  0.00    -0.504 OA
ATOM     28  H   UNL     1      17.265   8.754  26.508  1.00  0.00     0.293 HD
ENDBRANCH  16  27
TORSDOF 2
ENDMDL
MODEL 2
REMARK VINA RESULT:    88.222      2.730      6.429
REMARK INTER + INTRA:          93.379
REMARK INTER:                  93.379
REMARK INTRA:                   0.000
REMARK UNBOUND:                 0.000
REMARK SMILES CC1(C)[C@H](O)CC[C@@]2(C)[C@@H]1CC[C@@]1(C)[C@@H]2C=CC2=C(O)C(=O)C(=O)[C@@]21C
REMARK SMILES IDX 1 1 2 2 10 3 11 4 12 5 13 6 15 7 8 8 7 9 6 10 4 11 9 12
REMARK SMILES IDX 16 13 17 14 18 15 19 16 21 17 22 18 23 19 24 20 25 21 26 22
REMARK SMILES IDX 14 23 3 24 5 25 20 27
REMARK H PARENT 5 26 20 28
REMARK Flexibility Score: inf
ROOT
ATOM      1  C   UNL     1      16.775   7.535  19.574  1.00  0.00     0.014 C 
ATOM      2  C   UNL     1      17.332   8.365  20.768  1.00  0.00    -0.006 C 
ATOM      3  C   UNL     1      17.489   9.900  20.353  1.00  0.00     0.004 C 
ATOM      4  C   UNL     1      17.420  10.890  21.541  1.00  0.00     0.005 C 
ATOM      5  C   UNL     1      17.021  12.274  21.029  1.00  0.00     0.009 C 
ATOM      6  C   UNL     1      18.034  12.875  20.001  1.00  0.00    -0.009 C 
ATOM      7  C   UNL     1      19.129  11.819  19.520  1.00  0.00     0.025 C 
ATOM      8  C   UNL     1      18.745  10.251  19.437  1.00  0.00    -0.022 C 
ATOM      9  C   UNL     1      20.012   9.463  19.936  1.00  0.00     0.010 C 
ATOM     10  C   UNL     1      19.797   7.974  20.214  1.00  0.00     0.033 C 
ATOM     11  C   UNL     1      18.683   7.759  21.243  1.00  0.00     0.120 C 
ATOM     12  C   UNL     1      18.453   9.806  17.959  1.00  0.00     0.012 C 
ATOM     13  C   UNL     1      19.954  12.320  18.331  1.00  0.00    -0.022 C 
ATOM     14  C   UNL     1      19.597  13.352  17.555  1.00  0.00     0.005 C 
ATOM     15  C   UNL     1      18.366  14.103  17.842  1.00  0.00     0.012 C 
ATOM     16  C   UNL     1      18.163  15.397  17.572  1.00  0.00     0.171 C 
ATOM     17  C   UNL     1      16.994  15.861  18.284  1.00  0.00     0.264 C 
ATOM     18  O   UNL     1      16.525  17.029  18.264  1.00  0.00    -0.282 OA
ATOM     19  C   UNL     1      16.487  14.748  19.056  1.00  0.00     0.217 C 
ATOM     20  O   UNL     1      15.490  14.795  19.825  1.00  0.00    -0.289 OA
ATOM     21  C   UNL     1      17.305  13.518  18.748  1.00  0.00     0.069 C 
ATOM     22  C   UNL     1      16.438  12.559  17.897  1.00  0.00     0.026 C 
ATOM     23  C   UNL     1      18.796  14.009  20.779  1.00  0.00     0.013 C 
ATOM     24  C   UNL     1      16.281   8.164  21.898  1.00  0.00     0.014 C 
ENDROOT
BRANCH  11  25
ATOM     25  O   UNL     1      19.066   8.323  22.474  1.00  0.00    -0.393 OA
ATOM     26  H   UNL     1      19.964   7.961  22.693  1.00  0.00     0.210 HD
ENDBRANCH  11  25
BRANCH  16  27
ATOM     27  O   UNL     1      18.984  16.215  16.797  1.00  0.00    -0.504 OA
ATOM     28  H   UNL     1      19.985  16.079  16.741  1.00  0.00     0.293 HD
ENDBRANCH  16  27
TORSDOF 2
ENDMDL
