MODEL 1
REMARK VINA RESULT:    -5.205      0.000      0.000
REMARK INTER + INTRA:          -6.033
REMARK INTER:                  -5.813
REMARK INTRA:                  -0.220
REMARK UNBOUND:                -0.220
REMARK SMILES CC(C)c1ccc(C(=O)[O-])cc1
REMARK SMILES IDX 7 1 6 2 11 3 5 4 12 5 4 6 8 7 9 8 10 9 2 10 1 11 3 12
REMARK H PARENT
REMARK Flexibility Score: inf
ROOT
ATOM      1  C   UNL     1      21.354 -21.237  32.235  1.00  0.00    -0.003 A 
ATOM      2  C   UNL     1      22.717 -20.953  32.044  1.00  0.00     0.010 A 
ATOM      3  C   UNL     1      20.992 -22.432  32.879  1.00  0.00     0.010 A 
ATOM      4  C   UNL     1      23.697 -21.844  32.489  1.00  0.00     0.004 A 
ATOM      5  C   UNL     1      21.972 -23.324  33.323  1.00  0.00     0.004 A 
ATOM      6  C   UNL     1      23.337 -23.040  33.132  1.00  0.00    -0.045 A 
ENDROOT
BRANCH   1   7
ATOM      7  C   UNL     1      20.313 -20.296  31.767  1.00  0.00     0.071 C 
ATOM      8  O   UNL     1      19.150 -20.334  32.252  1.00  0.00    -0.545 OA
ATOM      9  O   UNL     1      20.603 -19.355  30.787  1.00  0.00    -0.545 OA
ENDBRANCH   1   7
BRANCH   6  10
ATOM     10  C   UNL     1      24.412 -23.999  33.610  1.00  0.00     0.013 C 
ATOM     11  C   UNL     1      23.840 -25.404  33.834  1.00  0.00     0.012 C 
ATOM     12  C   UNL     1      25.594 -24.034  32.634  1.00  0.00     0.012 C 
ENDBRANCH   6  10
TORSDOF 2
ENDMDL
MODEL 2
REMARK VINA RESULT:    -5.189      9.821     11.464
REMARK INTER + INTRA:          -6.016
REMARK INTER:                  -5.814
REMARK INTRA:                  -0.202
REMARK UNBOUND:                -0.220
REMARK SMILES CC(C)c1ccc(C(=O)[O-])cc1
REMARK SMILES IDX 7 1 6 2 11 3 5 4 12 5 4 6 8 7 9 8 10 9 2 10 1 11 3 12
REMARK H PARENT
REMARK Flexibility Score: inf
ROOT
ATOM      1  C   UNL     1      17.671 -13.647  35.730  1.00  0.00    -0.003 A 
ATOM      2  C   UNL     1      16.438 -12.984  35.850  1.00  0.00     0.010 A 
ATOM      3  C   UNL     1      18.127 -14.433  36.801  1.00  0.00     0.010 A 
ATOM      4  C   UNL     1      15.676 -13.105  37.016  1.00  0.00     0.004 A 
ATOM      5  C   UNL     1      17.367 -14.554  37.967  1.00  0.00     0.004 A 
ATOM      6  C   UNL     1      16.132 -13.891  38.088  1.00  0.00    -0.045 A 
ENDROOT
BRANCH   1   7
ATOM      7  C   UNL     1      18.480 -13.521  34.497  1.00  0.00     0.071 C 
ATOM      8  O   UNL     1      19.256 -12.542  34.337  1.00  0.00    -0.545 OA
ATOM      9  O   UNL     1      18.395 -14.484  33.498  1.00  0.00    -0.545 OA
ENDBRANCH   1   7
BRANCH   6  10
ATOM     10  C   UNL     1      15.296 -14.014  39.348  1.00  0.00     0.013 C 
ATOM     11  C   UNL     1      14.326 -15.198  39.255  1.00  0.00     0.012 C 
ATOM     12  C   UNL     1      16.184 -14.125  40.592  1.00  0.00     0.012 C 
ENDBRANCH   6  10
TORSDOF 2
ENDMDL
MODEL 3
REMARK VINA RESULT:    -5.173      0.072      1.399
REMARK INTER + INTRA:          -5.998
REMARK INTER:                  -5.778
REMARK INTRA:                  -0.220
REMARK UNBOUND:                -0.220
REMARK SMILES CC(C)c1ccc(C(=O)[O-])cc1
REMARK SMILES IDX 7 1 6 2 11 3 5 4 12 5 4 6 8 7 9 8 10 9 2 10 1 11 3 12
REMARK H PARENT
REMARK Flexibility Score: inf
ROOT
ATOM      1  C   UNL     1      21.365 -21.239  32.223  1.00  0.00    -0.003 A 
ATOM      2  C   UNL     1      20.986 -22.457  32.813  1.00  0.00     0.010 A 
ATOM      3  C   UNL     1      22.732 -20.947  32.086  1.00  0.00     0.010 A 
ATOM      4  C   UNL     1      21.953 -23.364  33.255  1.00  0.00     0.004 A 
ATOM      5  C   UNL     1      23.699 -21.853  32.529  1.00  0.00     0.004 A 
ATOM      6  C   UNL     1      23.321 -23.072  33.119  1.00  0.00    -0.045 A 
ENDROOT
BRANCH   1   7
ATOM      7  C   UNL     1      20.344 -20.277  31.753  1.00  0.00     0.071 C 
ATOM      8  O   UNL     1      19.170 -20.315  32.208  1.00  0.00    -0.545 OA
ATOM      9  O   UNL     1      20.667 -19.315  30.802  1.00  0.00    -0.545 OA
ENDBRANCH   1   7
BRANCH   6  10
ATOM     10  C   UNL     1      24.360 -24.065  33.604  1.00  0.00     0.013 C 
ATOM     11  C   UNL     1      23.768 -25.475  33.718  1.00  0.00     0.012 C 
ATOM     12  C   UNL     1      25.596 -24.058  32.697  1.00  0.00     0.012 C 
ENDBRANCH   6  10
TORSDOF 2
ENDMDL
MODEL 4
REMARK VINA RESULT:    -5.099      9.742     10.729
REMARK INTER + INTRA:          -5.915
REMARK INTER:                  -5.705
REMARK INTRA:                  -0.210
REMARK UNBOUND:                -0.220
REMARK SMILES CC(C)c1ccc(C(=O)[O-])cc1
REMARK SMILES IDX 7 1 6 2 11 3 5 4 12 5 4 6 8 7 9 8 10 9 2 10 1 11 3 12
REMARK H PARENT
REMARK Flexibility Score: inf
ROOT
ATOM      1  C   UNL     1      17.945 -14.057  35.295  1.00  0.00    -0.003 A 
ATOM      2  C   UNL     1      16.641 -14.526  35.062  1.00  0.00     0.010 A 
ATOM      3  C   UNL     1      18.464 -14.114  36.598  1.00  0.00     0.010 A 
ATOM      4  C   UNL     1      15.873 -15.042  36.109  1.00  0.00     0.004 A 
ATOM      5  C   UNL     1      17.697 -14.629  37.647  1.00  0.00     0.004 A 
ATOM      6  C   UNL     1      16.392 -15.099  37.414  1.00  0.00    -0.045 A 
ENDROOT
BRANCH   1   7
ATOM      7  C   UNL     1      18.761 -13.511  34.188  1.00  0.00     0.071 C 
ATOM      8  O   UNL     1      19.331 -12.393  34.304  1.00  0.00    -0.545 OA
ATOM      9  O   UNL     1      18.912 -14.225  33.005  1.00  0.00    -0.545 OA
ENDBRANCH   1   7
BRANCH   6  10
ATOM     10  C   UNL     1      15.548 -15.661  38.543  1.00  0.00     0.013 C 
ATOM     11  C   UNL     1      15.216 -14.580  39.578  1.00  0.00     0.012 C 
ATOM     12  C   UNL     1      14.272 -16.318  38.004  1.00  0.00     0.012 C 
ENDBRANCH   6  10
TORSDOF 2
ENDMDL
MODEL 5
REMARK VINA RESULT:    -5.050      3.636      5.300
REMARK INTER + INTRA:          -5.861
REMARK INTER:                  -5.641
REMARK INTRA:                  -0.220
REMARK UNBOUND:                -0.220
REMARK SMILES CC(C)c1ccc(C(=O)[O-])cc1
REMARK SMILES IDX 7 1 6 2 11 3 5 4 12 5 4 6 8 7 9 8 10 9 2 10 1 11 3 12
REMARK H PARENT
REMARK Flexibility Score: inf
ROOT
ATOM      1  C   UNL     1      24.578 -24.175  32.638  1.00  0.00    -0.003 A 
ATOM      2  C   UNL     1      24.745 -22.830  32.265  1.00  0.00     0.010 A 
ATOM      3  C   UNL     1      23.332 -24.592  33.134  1.00  0.00     0.010 A 
ATOM      4  C   UNL     1      23.689 -21.923  32.383  1.00  0.00     0.004 A 
ATOM      5  C   UNL     1      22.275 -23.685  33.254  1.00  0.00     0.004 A 
ATOM      6  C   UNL     1      22.442 -22.339  32.880  1.00  0.00    -0.045 A 
ENDROOT
BRANCH   1   7
ATOM      7  C   UNL     1      25.693 -25.138  32.513  1.00  0.00     0.071 C 
ATOM      8  O   UNL     1      26.882 -24.732  32.410  1.00  0.00    -0.545 OA
ATOM      9  O   UNL     1      25.446 -26.506  32.509  1.00  0.00    -0.545 OA
ENDBRANCH   1   7
BRANCH   6  10
ATOM     10  C   UNL     1      21.304 -21.344  33.004  1.00  0.00     0.013 C 
ATOM     11  C   UNL     1      21.212 -20.450  31.762  1.00  0.00     0.012 C 
ATOM     12  C   UNL     1      19.972 -22.057  33.268  1.00  0.00     0.012 C 
ENDBRANCH   6  10
TORSDOF 2
ENDMDL
MODEL 6
REMARK VINA RESULT:    -4.991      9.669     11.238
REMARK INTER + INTRA:          -5.794
REMARK INTER:                  -5.574
REMARK INTRA:                  -0.220
REMARK UNBOUND:                -0.220
REMARK SMILES CC(C)c1ccc(C(=O)[O-])cc1
REMARK SMILES IDX 7 1 6 2 11 3 5 4 12 5 4 6 8 7 9 8 10 9 2 10 1 11 3 12
REMARK H PARENT
REMARK Flexibility Score: inf
ROOT
ATOM      1  C   UNL     1      15.524 -17.164  38.650  1.00  0.00    -0.003 A 
ATOM      2  C   UNL     1      15.111 -15.863  38.987  1.00  0.00     0.010 A 
ATOM      3  C   UNL     1      16.466 -17.332  37.622  1.00  0.00     0.010 A 
ATOM      4  C   UNL     1      15.630 -14.756  38.312  1.00  0.00     0.004 A 
ATOM      5  C   UNL     1      16.984 -16.225  36.945  1.00  0.00     0.004 A 
ATOM      6  C   UNL     1      16.571 -14.923  37.282  1.00  0.00    -0.045 A 
ENDROOT
BRANCH   1   7
ATOM      7  C   UNL     1      14.979 -18.339  39.365  1.00  0.00     0.071 C 
ATOM      8  O   UNL     1      15.549 -19.460  39.282  1.00  0.00    -0.545 OA
ATOM      9  O   UNL     1      13.830 -18.223  40.138  1.00  0.00    -0.545 OA
ENDBRANCH   1   7
BRANCH   6  10
ATOM     10  C   UNL     1      17.125 -13.712  36.556  1.00  0.00     0.013 C 
ATOM     11  C   UNL     1      17.770 -14.112  35.224  1.00  0.00     0.012 C 
ATOM     12  C   UNL     1      16.041 -12.649  36.346  1.00  0.00     0.012 C 
ENDBRANCH   6  10
TORSDOF 2
ENDMDL
MODEL 7
REMARK VINA RESULT:    -4.858      1.598      2.247
REMARK INTER + INTRA:          -5.646
REMARK INTER:                  -5.427
REMARK INTRA:                  -0.219
REMARK UNBOUND:                -0.220
REMARK SMILES CC(C)c1ccc(C(=O)[O-])cc1
REMARK SMILES IDX 7 1 6 2 11 3 5 4 12 5 4 6 8 7 9 8 10 9 2 10 1 11 3 12
REMARK H PARENT
REMARK Flexibility Score: inf
ROOT
ATOM      1  C   UNL     1      21.860 -22.626  32.905  1.00  0.00    -0.003 A 
ATOM      2  C   UNL     1      22.814 -21.680  32.492  1.00  0.00     0.010 A 
ATOM      3  C   UNL     1      22.207 -23.987  32.904  1.00  0.00     0.010 A 
ATOM      4  C   UNL     1      24.088 -22.087  32.088  1.00  0.00     0.004 A 
ATOM      5  C   UNL     1      23.481 -24.394  32.499  1.00  0.00     0.004 A 
ATOM      6  C   UNL     1      24.436 -23.448  32.085  1.00  0.00    -0.045 A 
ENDROOT
BRANCH   1   7
ATOM      7  C   UNL     1      20.509 -22.199  33.335  1.00  0.00     0.071 C 
ATOM      8  O   UNL     1      19.658 -23.050  33.709  1.00  0.00    -0.545 OA
ATOM      9  O   UNL     1      20.162 -20.853  33.333  1.00  0.00    -0.545 OA
ENDBRANCH   1   7
BRANCH   6  10
ATOM     10  C   UNL     1      25.824 -23.876  31.644  1.00  0.00     0.013 C 
ATOM     11  C   UNL     1      25.962 -25.403  31.655  1.00  0.00     0.012 C 
ATOM     12  C   UNL     1      26.166 -23.302  30.264  1.00  0.00     0.012 C 
ENDBRANCH   6  10
TORSDOF 2
ENDMDL
MODEL 8
REMARK VINA RESULT:    -4.846      9.901     11.084
REMARK INTER + INTRA:          -5.632
REMARK INTER:                  -5.422
REMARK INTRA:                  -0.210
REMARK UNBOUND:                -0.220
REMARK SMILES CC(C)c1ccc(C(=O)[O-])cc1
REMARK SMILES IDX 7 1 6 2 11 3 5 4 12 5 4 6 8 7 9 8 10 9 2 10 1 11 3 12
REMARK H PARENT
REMARK Flexibility Score: inf
ROOT
ATOM      1  C   UNL     1      16.368 -14.442  37.008  1.00  0.00    -0.003 A 
ATOM      2  C   UNL     1      15.792 -14.114  38.248  1.00  0.00     0.010 A 
ATOM      3  C   UNL     1      16.458 -15.794  36.637  1.00  0.00     0.010 A 
ATOM      4  C   UNL     1      15.315 -15.116  39.097  1.00  0.00     0.004 A 
ATOM      5  C   UNL     1      15.981 -16.796  37.487  1.00  0.00     0.004 A 
ATOM      6  C   UNL     1      15.405 -16.469  38.727  1.00  0.00    -0.045 A 
ENDROOT
BRANCH   1   7
ATOM      7  C   UNL     1      16.874 -13.385  36.106  1.00  0.00     0.071 C 
ATOM      8  O   UNL     1      16.254 -12.294  35.987  1.00  0.00    -0.545 OA
ATOM      9  O   UNL     1      18.041 -13.579  35.376  1.00  0.00    -0.545 OA
ENDBRANCH   1   7
BRANCH   6  10
ATOM     10  C   UNL     1      14.883 -17.546  39.659  1.00  0.00     0.013 C 
ATOM     11  C   UNL     1      13.352 -17.526  39.727  1.00  0.00     0.012 C 
ATOM     12  C   UNL     1      15.398 -18.930  39.246  1.00  0.00     0.012 C 
ENDBRANCH   6  10
TORSDOF 2
ENDMDL
MODEL 9
REMARK VINA RESULT:    -4.844      9.894     11.092
REMARK INTER + INTRA:          -5.630
REMARK INTER:                  -5.418
REMARK INTRA:                  -0.212
REMARK UNBOUND:                -0.220
REMARK SMILES CC(C)c1ccc(C(=O)[O-])cc1
REMARK SMILES IDX 7 1 6 2 11 3 5 4 12 5 4 6 8 7 9 8 10 9 2 10 1 11 3 12
REMARK H PARENT
REMARK Flexibility Score: inf
ROOT
ATOM      1  C   UNL     1      16.366 -14.463  37.056  1.00  0.00    -0.003 A 
ATOM      2  C   UNL     1      16.510 -15.818  36.715  1.00  0.00     0.010 A 
ATOM      3  C   UNL     1      15.727 -14.130  38.261  1.00  0.00     0.010 A 
ATOM      4  C   UNL     1      16.027 -16.819  37.561  1.00  0.00     0.004 A 
ATOM      5  C   UNL     1      15.243 -15.130  39.108  1.00  0.00     0.004 A 
ATOM      6  C   UNL     1      15.387 -16.487  38.767  1.00  0.00    -0.045 A 
ENDROOT
BRANCH   1   7
ATOM      7  C   UNL     1      16.877 -13.400  36.162  1.00  0.00     0.071 C 
ATOM      8  O   UNL     1      16.251 -12.314  36.035  1.00  0.00    -0.545 OA
ATOM      9  O   UNL     1      18.058 -13.584  35.452  1.00  0.00    -0.545 OA
ENDBRANCH   1   7
BRANCH   6  10
ATOM     10  C   UNL     1      14.867 -17.584  39.678  1.00  0.00     0.013 C 
ATOM     11  C   UNL     1      13.335 -17.570  39.742  1.00  0.00     0.012 C 
ATOM     12  C   UNL     1      15.388 -18.958  39.241  1.00  0.00     0.012 C 
ENDBRANCH   6  10
TORSDOF 2
ENDMDL
