MODEL 1
REMARK VINA RESULT:    -5.428      0.000      0.000
REMARK INTER + INTRA:         -12.677
REMARK INTER:                 -10.505
REMARK INTRA:                  -2.172
REMARK UNBOUND:                -2.172
REMARK SMILES CCCCCCCCCCCCCCCCCC(=O)[O-]
REMARK SMILES IDX 10 1 11 2 12 3 13 4 14 5 15 6 16 7 17 8 18 9 19 10 20 11
REMARK SMILES IDX 9 12 8 13 7 14 6 15 5 16 4 17 3 18 2 19 1 20
REMARK H PARENT
REMARK Flexibility Score: inf
ROOT
ATOM      1  C   UNL     1      40.462  40.975  17.018  1.00  0.00     0.000 C 
ENDROOT
BRANCH   1   2
ATOM      2  C   UNL     1      41.320  40.605  18.237  1.00  0.00     0.000 C 
BRANCH   2   3
ATOM      3  C   UNL     1      41.340  41.750  19.261  1.00  0.00     0.000 C 
BRANCH   3   4
ATOM      4  C   UNL     1      42.728  42.394  19.406  1.00  0.00     0.000 C 
BRANCH   4   5
ATOM      5  C   UNL     1      43.456  42.540  18.058  1.00  0.00     0.000 C 
BRANCH   5   6
ATOM      6  C   UNL     1      43.264  43.930  17.431  1.00  0.00     0.000 C 
BRANCH   6   7
ATOM      7  C   UNL     1      42.595  43.872  16.049  1.00  0.00     0.006 C 
BRANCH   7   8
ATOM      8  C   UNL     1      41.288  44.669  16.039  1.00  0.00     0.053 C 
BRANCH   8   9
ATOM      9  C   UNL     1      41.555  46.112  15.750  1.00  0.00     0.041 C 
ATOM     10  O   UNL     1      41.538  46.960  16.681  1.00  0.00    -0.550 OA
ATOM     11  O   UNL     1      41.785  46.528  14.445  1.00  0.00    -0.550 OA
ENDBRANCH   8   9
ENDBRANCH   7   8
ENDBRANCH   6   7
ENDBRANCH   5   6
ENDBRANCH   4   5
ENDBRANCH   3   4
ENDBRANCH   2   3
ENDBRANCH   1   2
BRANCH   1  12
ATOM     12  C   UNL     1      41.127  40.599  15.682  1.00  0.00     0.000 C 
BRANCH  12  13
ATOM     13  C   UNL     1      42.522  39.953  15.802  1.00  0.00    -0.000 C 
BRANCH  13  14
ATOM     14  C   UNL     1      43.432  40.136  14.574  1.00  0.00    -0.000 C 
BRANCH  14  15
ATOM     15  C   UNL     1      43.776  38.807  13.885  1.00  0.00    -0.000 C 
BRANCH  15  16
ATOM     16  C   UNL     1      42.934  37.635  14.412  1.00  0.00    -0.000 C 
BRANCH  16  17
ATOM     17  C   UNL     1      42.118  36.951  13.301  1.00  0.00    -0.000 C 
BRANCH  17  18
ATOM     18  C   UNL     1      40.603  37.158  13.467  1.00  0.00    -0.000 C 
BRANCH  18  19
ATOM     19  C   UNL     1      40.149  38.559  13.031  1.00  0.00    -0.003 C 
ATOM     20  C   UNL     1      39.015  38.476  12.014  1.00  0.00     0.004 C 
ENDBRANCH  18  19
ENDBRANCH  17  18
ENDBRANCH  16  17
ENDBRANCH  15  16
ENDBRANCH  14  15
ENDBRANCH  13  14
ENDBRANCH  12  13
ENDBRANCH   1  12
TORSDOF 16
ENDMDL
MODEL 2
REMARK VINA RESULT:    -5.355      2.296      3.455
REMARK INTER + INTRA:         -12.535
REMARK INTER:                 -10.528
REMARK INTRA:                  -2.008
REMARK UNBOUND:                -2.172
REMARK SMILES CCCCCCCCCCCCCCCCCC(=O)[O-]
REMARK SMILES IDX 10 1 11 2 12 3 13 4 14 5 15 6 16 7 17 8 18 9 19 10 20 11
REMARK SMILES IDX 9 12 8 13 7 14 6 15 5 16 4 17 3 18 2 19 1 20
REMARK H PARENT
REMARK Flexibility Score: inf
ROOT
ATOM      1  C   UNL     1      42.430  40.154  16.135  1.00  0.00     0.000 C 
ENDROOT
BRANCH   1   2
ATOM      2  C   UNL     1      40.999  40.707  16.073  1.00  0.00     0.000 C 
BRANCH   2   3
ATOM      3  C   UNL     1      40.982  42.113  15.454  1.00  0.00     0.000 C 
BRANCH   3   4
ATOM      4  C   UNL     1      40.770  43.221  16.499  1.00  0.00     0.000 C 
BRANCH   4   5
ATOM      5  C   UNL     1      41.883  44.282  16.469  1.00  0.00     0.000 C 
BRANCH   5   6
ATOM      6  C   UNL     1      43.200  43.773  17.075  1.00  0.00     0.000 C 
BRANCH   6   7
ATOM      7  C   UNL     1      43.089  43.475  18.578  1.00  0.00     0.006 C 
BRANCH   7   8
ATOM      8  C   UNL     1      43.195  41.972  18.848  1.00  0.00     0.053 C 
BRANCH   8   9
ATOM      9  C   UNL     1      42.060  41.512  19.707  1.00  0.00     0.041 C 
ATOM     10  O   UNL     1      41.449  42.331  20.442  1.00  0.00    -0.550 OA
ATOM     11  O   UNL     1      41.704  40.169  19.727  1.00  0.00    -0.550 OA
ENDBRANCH   8   9
ENDBRANCH   7   8
ENDBRANCH   6   7
ENDBRANCH   5   6
ENDBRANCH   4   5
ENDBRANCH   3   4
ENDBRANCH   2   3
ENDBRANCH   1   2
BRANCH   1  12
ATOM     12  C   UNL     1      43.289  40.577  14.930  1.00  0.00     0.000 C 
BRANCH  12  13
ATOM     13  C   UNL     1      44.501  39.669  14.637  1.00  0.00    -0.000 C 
BRANCH  13  14
ATOM     14  C   UNL     1      44.184  38.410  13.809  1.00  0.00    -0.000 C 
BRANCH  14  15
ATOM     15  C   UNL     1      42.735  38.384  13.296  1.00  0.00    -0.000 C 
BRANCH  15  16
ATOM     16  C   UNL     1      42.073  37.009  13.473  1.00  0.00    -0.000 C 
BRANCH  16  17
ATOM     17  C   UNL     1      40.537  37.088  13.441  1.00  0.00    -0.000 C 
BRANCH  17  18
ATOM     18  C   UNL     1      40.021  38.533  13.337  1.00  0.00    -0.000 C 
BRANCH  18  19
ATOM     19  C   UNL     1      39.309  38.809  12.005  1.00  0.00    -0.003 C 
ATOM     20  C   UNL     1      38.301  37.710  11.682  1.00  0.00     0.004 C 
ENDBRANCH  18  19
ENDBRANCH  17  18
ENDBRANCH  16  17
ENDBRANCH  15  16
ENDBRANCH  14  15
ENDBRANCH  13  14
ENDBRANCH  12  13
ENDBRANCH   1  12
TORSDOF 16
ENDMDL
MODEL 3
REMARK VINA RESULT:    -5.203      3.049      6.739
REMARK INTER + INTRA:         -12.242
REMARK INTER:                  -9.805
REMARK INTRA:                  -2.437
REMARK UNBOUND:                -2.172
REMARK SMILES CCCCCCCCCCCCCCCCCC(=O)[O-]
REMARK SMILES IDX 10 1 11 2 12 3 13 4 14 5 15 6 16 7 17 8 18 9 19 10 20 11
REMARK SMILES IDX 9 12 8 13 7 14 6 15 5 16 4 17 3 18 2 19 1 20
REMARK H PARENT
REMARK Flexibility Score: inf
ROOT
ATOM      1  C   UNL     1      41.087  40.743  16.094  1.00  0.00     0.000 C 
ENDROOT
BRANCH   1   2
ATOM      2  C   UNL     1      42.523  40.213  16.227  1.00  0.00     0.000 C 
BRANCH   2   3
ATOM      3  C   UNL     1      43.358  40.579  14.991  1.00  0.00     0.000 C 
BRANCH   3   4
ATOM      4  C   UNL     1      44.334  39.464  14.581  1.00  0.00     0.000 C 
BRANCH   4   5
ATOM      5  C   UNL     1      43.733  38.059  14.757  1.00  0.00     0.000 C 
BRANCH   5   6
ATOM      6  C   UNL     1      43.082  37.529  13.470  1.00  0.00     0.000 C 
BRANCH   6   7
ATOM      7  C   UNL     1      41.572  37.290  13.622  1.00  0.00     0.006 C 
BRANCH   7   8
ATOM      8  C   UNL     1      40.783  38.569  13.329  1.00  0.00     0.053 C 
BRANCH   8   9
ATOM      9  C   UNL     1      39.566  38.260  12.515  1.00  0.00     0.041 C 
ATOM     10  O   UNL     1      38.953  39.182  11.917  1.00  0.00    -0.550 OA
ATOM     11  O   UNL     1      39.086  36.958  12.451  1.00  0.00    -0.550 OA
ENDBRANCH   8   9
ENDBRANCH   7   8
ENDBRANCH   6   7
ENDBRANCH   5   6
ENDBRANCH   4   5
ENDBRANCH   3   4
ENDBRANCH   2   3
ENDBRANCH   1   2
BRANCH   1  12
ATOM     12  C   UNL     1      41.009  42.071  15.320  1.00  0.00     0.000 C 
BRANCH  12  13
ATOM     13  C   UNL     1      40.574  43.293  16.155  1.00  0.00    -0.000 C 
BRANCH  13  14
ATOM     14  C   UNL     1      41.518  44.506  16.072  1.00  0.00    -0.000 C 
BRANCH  14  15
ATOM     15  C   UNL     1      42.983  44.141  16.361  1.00  0.00    -0.000 C 
BRANCH  15  16
ATOM     16  C   UNL     1      43.289  44.083  17.866  1.00  0.00    -0.000 C 
BRANCH  16  17
ATOM     17  C   UNL     1      43.548  42.648  18.358  1.00  0.00    -0.000 C 
BRANCH  17  18
ATOM     18  C   UNL     1      42.933  42.377  19.740  1.00  0.00    -0.000 C 
BRANCH  18  19
ATOM     19  C   UNL     1      41.617  41.589  19.656  1.00  0.00    -0.003 C 
ATOM     20  C   UNL     1      41.852  40.102  19.903  1.00  0.00     0.004 C 
ENDBRANCH  18  19
ENDBRANCH  17  18
ENDBRANCH  16  17
ENDBRANCH  15  16
ENDBRANCH  14  15
ENDBRANCH  13  14
ENDBRANCH  12  13
ENDBRANCH   1  12
TORSDOF 16
ENDMDL
MODEL 4
REMARK VINA RESULT:    -5.183      3.010      6.918
REMARK INTER + INTRA:         -12.202
REMARK INTER:                 -10.151
REMARK INTRA:                  -2.051
REMARK UNBOUND:                -2.172
REMARK SMILES CCCCCCCCCCCCCCCCCC(=O)[O-]
REMARK SMILES IDX 10 1 11 2 12 3 13 4 14 5 15 6 16 7 17 8 18 9 19 10 20 11
REMARK SMILES IDX 9 12 8 13 7 14 6 15 5 16 4 17 3 18 2 19 1 20
REMARK H PARENT
REMARK Flexibility Score: inf
ROOT
ATOM      1  C   UNL     1      42.547  40.067  15.868  1.00  0.00     0.000 C 
ENDROOT
BRANCH   1   2
ATOM      2  C   UNL     1      43.448  40.743  14.823  1.00  0.00     0.000 C 
BRANCH   2   3
ATOM      3  C   UNL     1      44.614  39.823  14.428  1.00  0.00     0.000 C 
BRANCH   3   4
ATOM      4  C   UNL     1      44.345  38.347  14.761  1.00  0.00     0.000 C 
BRANCH   4   5
ATOM      5  C   UNL     1      43.878  37.540  13.538  1.00  0.00     0.000 C 
BRANCH   5   6
ATOM      6  C   UNL     1      42.472  36.948  13.722  1.00  0.00     0.000 C 
BRANCH   6   7
ATOM      7  C   UNL     1      41.357  37.926  13.322  1.00  0.00     0.006 C 
BRANCH   7   8
ATOM      8  C   UNL     1      40.058  37.178  13.010  1.00  0.00     0.053 C 
BRANCH   8   9
ATOM      9  C   UNL     1      39.101  38.070  12.283  1.00  0.00     0.041 C 
ATOM     10  O   UNL     1      38.200  37.575  11.558  1.00  0.00    -0.550 OA
ATOM     11  O   UNL     1      39.231  39.450  12.376  1.00  0.00    -0.550 OA
ENDBRANCH   8   9
ENDBRANCH   7   8
ENDBRANCH   6   7
ENDBRANCH   5   6
ENDBRANCH   4   5
ENDBRANCH   3   4
ENDBRANCH   2   3
ENDBRANCH   1   2
BRANCH   1  12
ATOM     12  C   UNL     1      41.100  40.589  15.837  1.00  0.00     0.000 C 
BRANCH  12  13
ATOM     13  C   UNL     1      40.944  42.066  15.420  1.00  0.00    -0.000 C 
BRANCH  13  14
ATOM     14  C   UNL     1      40.731  43.051  16.583  1.00  0.00    -0.000 C 
BRANCH  14  15
ATOM     15  C   UNL     1      41.699  44.243  16.538  1.00  0.00    -0.000 C 
BRANCH  15  16
ATOM     16  C   UNL     1      43.131  43.855  16.938  1.00  0.00    -0.000 C 
BRANCH  16  17
ATOM     17  C   UNL     1      43.242  43.472  18.425  1.00  0.00    -0.000 C 
BRANCH  17  18
ATOM     18  C   UNL     1      43.118  41.957  18.655  1.00  0.00    -0.000 C 
BRANCH  18  19
ATOM     19  C   UNL     1      42.028  41.604  19.678  1.00  0.00    -0.003 C 
ATOM     20  C   UNL     1      41.836  40.093  19.776  1.00  0.00     0.004 C 
ENDBRANCH  18  19
ENDBRANCH  17  18
ENDBRANCH  16  17
ENDBRANCH  15  16
ENDBRANCH  14  15
ENDBRANCH  13  14
ENDBRANCH  12  13
ENDBRANCH   1  12
TORSDOF 16
ENDMDL
MODEL 5
REMARK VINA RESULT:    -4.931      3.028      6.733
REMARK INTER + INTRA:         -11.716
REMARK INTER:                  -9.204
REMARK INTRA:                  -2.512
REMARK UNBOUND:                -2.172
REMARK SMILES CCCCCCCCCCCCCCCCCC(=O)[O-]
REMARK SMILES IDX 10 1 11 2 12 3 13 4 14 5 15 6 16 7 17 8 18 9 19 10 20 11
REMARK SMILES IDX 9 12 8 13 7 14 6 15 5 16 4 17 3 18 2 19 1 20
REMARK H PARENT
REMARK Flexibility Score: inf
ROOT
ATOM      1  C   UNL     1      41.057  41.296  15.235  1.00  0.00     0.000 C 
ENDROOT
BRANCH   1   2
ATOM      2  C   UNL     1      42.514  41.100  14.792  1.00  0.00     0.000 C 
BRANCH   2   3
ATOM      3  C   UNL     1      43.163  39.929  15.546  1.00  0.00     0.000 C 
BRANCH   3   4
ATOM      4  C   UNL     1      43.949  38.987  14.620  1.00  0.00     0.000 C 
BRANCH   4   5
ATOM      5  C   UNL     1      43.097  38.455  13.456  1.00  0.00     0.000 C 
BRANCH   5   6
ATOM      6  C   UNL     1      42.587  37.027  13.701  1.00  0.00     0.000 C 
BRANCH   6   7
ATOM      7  C   UNL     1      41.079  36.881  13.448  1.00  0.00     0.006 C 
BRANCH   7   8
ATOM      8  C   UNL     1      40.381  38.242  13.499  1.00  0.00     0.053 C 
BRANCH   8   9
ATOM      9  C   UNL     1      39.336  38.337  12.432  1.00  0.00     0.041 C 
ATOM     10  O   UNL     1      39.037  39.453  11.934  1.00  0.00    -0.550 OA
ATOM     11  O   UNL     1      38.663  37.194  12.017  1.00  0.00    -0.550 OA
ENDBRANCH   8   9
ENDBRANCH   7   8
ENDBRANCH   6   7
ENDBRANCH   5   6
ENDBRANCH   4   5
ENDBRANCH   3   4
ENDBRANCH   2   3
ENDBRANCH   1   2
BRANCH   1  12
ATOM     12  C   UNL     1      40.757  40.661  16.604  1.00  0.00     0.000 C 
BRANCH  12  13
ATOM     13  C   UNL     1      40.506  41.662  17.750  1.00  0.00    -0.000 C 
BRANCH  13  14
ATOM     14  C   UNL     1      41.470  41.539  18.944  1.00  0.00    -0.000 C 
BRANCH  14  15
ATOM     15  C   UNL     1      42.925  41.866  18.570  1.00  0.00    -0.000 C 
BRANCH  15  16
ATOM     16  C   UNL     1      43.169  43.375  18.419  1.00  0.00    -0.000 C 
BRANCH  16  17
ATOM     17  C   UNL     1      43.293  43.807  16.947  1.00  0.00    -0.000 C 
BRANCH  17  18
ATOM     18  C   UNL     1      42.200  44.803  16.529  1.00  0.00    -0.000 C 
BRANCH  18  19
ATOM     19  C   UNL     1      42.064  44.923  15.004  1.00  0.00    -0.003 C 
ATOM     20  C   UNL     1      43.419  44.778  14.319  1.00  0.00     0.004 C 
ENDBRANCH  18  19
ENDBRANCH  17  18
ENDBRANCH  16  17
ENDBRANCH  15  16
ENDBRANCH  14  15
ENDBRANCH  13  14
ENDBRANCH  12  13
ENDBRANCH   1  12
TORSDOF 16
ENDMDL
MODEL 6
REMARK VINA RESULT:    -4.887      1.134      1.661
REMARK INTER + INTRA:         -11.630
REMARK INTER:                  -9.231
REMARK INTRA:                  -2.399
REMARK UNBOUND:                -2.172
REMARK SMILES CCCCCCCCCCCCCCCCCC(=O)[O-]
REMARK SMILES IDX 10 1 11 2 12 3 13 4 14 5 15 6 16 7 17 8 18 9 19 10 20 11
REMARK SMILES IDX 9 12 8 13 7 14 6 15 5 16 4 17 3 18 2 19 1 20
REMARK H PARENT
REMARK Flexibility Score: inf
ROOT
ATOM      1  C   UNL     1      40.462  41.037  17.618  1.00  0.00     0.000 C 
ENDROOT
BRANCH   1   2
ATOM      2  C   UNL     1      41.390  40.354  18.633  1.00  0.00     0.000 C 
BRANCH   2   3
ATOM      3  C   UNL     1      42.336  41.375  19.284  1.00  0.00     0.000 C 
BRANCH   3   4
ATOM      4  C   UNL     1      42.157  42.794  18.721  1.00  0.00     0.000 C 
BRANCH   4   5
ATOM      5  C   UNL     1      43.307  43.210  17.788  1.00  0.00     0.000 C 
BRANCH   5   6
ATOM      6  C   UNL     1      42.977  44.465  16.966  1.00  0.00     0.000 C 
BRANCH   6   7
ATOM      7  C   UNL     1      43.678  44.483  15.599  1.00  0.00     0.006 C 
BRANCH   7   8
ATOM      8  C   UNL     1      44.176  45.890  15.257  1.00  0.00     0.053 C 
BRANCH   8   9
ATOM      9  C   UNL     1      43.037  46.760  14.830  1.00  0.00     0.041 C 
ATOM     10  O   UNL     1      42.455  46.551  13.733  1.00  0.00    -0.550 OA
ATOM     11  O   UNL     1      42.643  47.829  15.625  1.00  0.00    -0.550 OA
ENDBRANCH   8   9
ENDBRANCH   7   8
ENDBRANCH   6   7
ENDBRANCH   5   6
ENDBRANCH   4   5
ENDBRANCH   3   4
ENDBRANCH   2   3
ENDBRANCH   1   2
BRANCH   1  12
ATOM     12  C   UNL     1      40.669  40.527  16.180  1.00  0.00     0.000 C 
BRANCH  12  13
ATOM     13  C   UNL     1      41.381  41.512  15.230  1.00  0.00    -0.000 C 
BRANCH  13  14
ATOM     14  C   UNL     1      42.767  41.057  14.741  1.00  0.00    -0.000 C 
BRANCH  14  15
ATOM     15  C   UNL     1      43.316  39.862  15.537  1.00  0.00    -0.000 C 
BRANCH  15  16
ATOM     16  C   UNL     1      43.825  38.733  14.628  1.00  0.00    -0.000 C 
BRANCH  16  17
ATOM     17  C   UNL     1      42.844  38.408  13.488  1.00  0.00    -0.000 C 
BRANCH  17  18
ATOM     18  C   UNL     1      42.163  37.042  13.665  1.00  0.00    -0.000 C 
BRANCH  18  19
ATOM     19  C   UNL     1      40.643  37.108  13.454  1.00  0.00    -0.003 C 
ATOM     20  C   UNL     1      40.201  38.523  13.093  1.00  0.00     0.004 C 
ENDBRANCH  18  19
ENDBRANCH  17  18
ENDBRANCH  16  17
ENDBRANCH  15  16
ENDBRANCH  14  15
ENDBRANCH  13  14
ENDBRANCH  12  13
ENDBRANCH   1  12
TORSDOF 16
ENDMDL
MODEL 7
REMARK VINA RESULT:    -4.707      2.473      3.880
REMARK INTER + INTRA:         -11.282
REMARK INTER:                  -9.763
REMARK INTRA:                  -1.519
REMARK UNBOUND:                -2.172
REMARK SMILES CCCCCCCCCCCCCCCCCC(=O)[O-]
REMARK SMILES IDX 10 1 11 2 12 3 13 4 14 5 15 6 16 7 17 8 18 9 19 10 20 11
REMARK SMILES IDX 9 12 8 13 7 14 6 15 5 16 4 17 3 18 2 19 1 20
REMARK H PARENT
REMARK Flexibility Score: inf
ROOT
ATOM      1  C   UNL     1      43.070  43.617  15.558  1.00  0.00     0.000 C 
ENDROOT
BRANCH   1   2
ATOM      2  C   UNL     1      41.760  44.416  15.475  1.00  0.00     0.000 C 
BRANCH   2   3
ATOM      3  C   UNL     1      40.644  43.720  16.269  1.00  0.00     0.000 C 
BRANCH   3   4
ATOM      4  C   UNL     1      41.172  42.959  17.496  1.00  0.00     0.000 C 
BRANCH   4   5
ATOM      5  C   UNL     1      40.532  41.568  17.649  1.00  0.00     0.000 C 
BRANCH   5   6
ATOM      6  C   UNL     1      41.508  40.529  18.223  1.00  0.00     0.000 C 
BRANCH   6   7
ATOM      7  C   UNL     1      41.598  40.580  19.756  1.00  0.00     0.006 C 
BRANCH   7   8
ATOM      8  C   UNL     1      42.812  41.398  20.207  1.00  0.00     0.053 C 
BRANCH   8   9
ATOM      9  C   UNL     1      42.377  42.584  21.007  1.00  0.00     0.041 C 
ATOM     10  O   UNL     1      43.223  43.430  21.398  1.00  0.00    -0.550 OA
ATOM     11  O   UNL     1      41.040  42.734  21.357  1.00  0.00    -0.550 OA
ENDBRANCH   8   9
ENDBRANCH   7   8
ENDBRANCH   6   7
ENDBRANCH   5   6
ENDBRANCH   4   5
ENDBRANCH   3   4
ENDBRANCH   2   3
ENDBRANCH   1   2
BRANCH   1  12
ATOM     12  C   UNL     1      43.316  42.742  14.316  1.00  0.00     0.000 C 
BRANCH  12  13
ATOM     13  C   UNL     1      43.643  41.263  14.611  1.00  0.00    -0.000 C 
BRANCH  13  14
ATOM     14  C   UNL     1      42.431  40.393  14.990  1.00  0.00    -0.000 C 
BRANCH  14  15
ATOM     15  C   UNL     1      42.757  38.891  15.000  1.00  0.00    -0.000 C 
BRANCH  15  16
ATOM     16  C   UNL     1      43.012  38.335  13.591  1.00  0.00    -0.000 C 
BRANCH  16  17
ATOM     17  C   UNL     1      41.987  37.260  13.188  1.00  0.00    -0.000 C 
BRANCH  17  18
ATOM     18  C   UNL     1      40.552  37.627  13.601  1.00  0.00    -0.000 C 
BRANCH  18  19
ATOM     19  C   UNL     1      39.927  38.687  12.682  1.00  0.00    -0.003 C 
ATOM     20  C   UNL     1      38.739  38.115  11.915  1.00  0.00     0.004 C 
ENDBRANCH  18  19
ENDBRANCH  17  18
ENDBRANCH  16  17
ENDBRANCH  15  16
ENDBRANCH  14  15
ENDBRANCH  13  14
ENDBRANCH  12  13
ENDBRANCH   1  12
TORSDOF 16
ENDMDL
MODEL 8
REMARK VINA RESULT:    -4.689      3.041      3.997
REMARK INTER + INTRA:         -11.247
REMARK INTER:                  -9.691
REMARK INTRA:                  -1.556
REMARK UNBOUND:                -2.172
REMARK SMILES CCCCCCCCCCCCCCCCCC(=O)[O-]
REMARK SMILES IDX 10 1 11 2 12 3 13 4 14 5 15 6 16 7 17 8 18 9 19 10 20 11
REMARK SMILES IDX 9 12 8 13 7 14 6 15 5 16 4 17 3 18 2 19 1 20
REMARK H PARENT
REMARK Flexibility Score: inf
ROOT
ATOM      1  C   UNL     1      40.887  41.664  17.822  1.00  0.00     0.000 C 
ENDROOT
BRANCH   1   2
ATOM      2  C   UNL     1      41.384  40.832  19.014  1.00  0.00     0.000 C 
BRANCH   2   3
ATOM      3  C   UNL     1      42.668  41.433  19.604  1.00  0.00     0.000 C 
BRANCH   3   4
ATOM      4  C   UNL     1      43.128  42.698  18.862  1.00  0.00     0.000 C 
BRANCH   4   5
ATOM      5  C   UNL     1      44.071  43.570  19.708  1.00  0.00     0.000 C 
BRANCH   5   6
ATOM      6  C   UNL     1      43.923  43.310  21.215  1.00  0.00     0.000 C 
BRANCH   6   7
ATOM      7  C   UNL     1      44.797  44.241  22.069  1.00  0.00     0.006 C 
BRANCH   7   8
ATOM      8  C   UNL     1      44.504  45.710  21.751  1.00  0.00     0.053 C 
BRANCH   8   9
ATOM      9  C   UNL     1      43.879  46.387  22.930  1.00  0.00     0.041 C 
ATOM     10  O   UNL     1      44.554  46.596  23.972  1.00  0.00    -0.550 OA
ATOM     11  O   UNL     1      42.539  46.751  22.892  1.00  0.00    -0.550 OA
ENDBRANCH   8   9
ENDBRANCH   7   8
ENDBRANCH   6   7
ENDBRANCH   5   6
ENDBRANCH   4   5
ENDBRANCH   3   4
ENDBRANCH   2   3
ENDBRANCH   1   2
BRANCH   1  12
ATOM     12  C   UNL     1      40.551  40.804  16.590  1.00  0.00     0.000 C 
BRANCH  12  13
ATOM     13  C   UNL     1      41.265  41.217  15.287  1.00  0.00    -0.000 C 
BRANCH  13  14
ATOM     14  C   UNL     1      42.787  41.407  15.413  1.00  0.00    -0.000 C 
BRANCH  14  15
ATOM     15  C   UNL     1      43.585  40.304  14.700  1.00  0.00    -0.000 C 
BRANCH  15  16
ATOM     16  C   UNL     1      43.001  38.904  14.944  1.00  0.00    -0.000 C 
BRANCH  16  17
ATOM     17  C   UNL     1      43.170  37.976  13.728  1.00  0.00    -0.000 C 
BRANCH  17  18
ATOM     18  C   UNL     1      41.903  37.161  13.425  1.00  0.00    -0.000 C 
BRANCH  18  19
ATOM     19  C   UNL     1      40.622  37.865  13.897  1.00  0.00    -0.003 C 
ATOM     20  C   UNL     1      39.893  38.521  12.728  1.00  0.00     0.004 C 
ENDBRANCH  18  19
ENDBRANCH  17  18
ENDBRANCH  16  17
ENDBRANCH  15  16
ENDBRANCH  14  15
ENDBRANCH  13  14
ENDBRANCH  12  13
ENDBRANCH   1  12
TORSDOF 16
ENDMDL
MODEL 9
REMARK VINA RESULT:    -4.566      3.151      6.737
REMARK INTER + INTRA:         -11.008
REMARK INTER:                  -8.953
REMARK INTRA:                  -2.055
REMARK UNBOUND:                -2.172
REMARK SMILES CCCCCCCCCCCCCCCCCC(=O)[O-]
REMARK SMILES IDX 10 1 11 2 12 3 13 4 14 5 15 6 16 7 17 8 18 9 19 10 20 11
REMARK SMILES IDX 9 12 8 13 7 14 6 15 5 16 4 17 3 18 2 19 1 20
REMARK H PARENT
REMARK Flexibility Score: inf
ROOT
ATOM      1  C   UNL     1      41.469  40.736  18.716  1.00  0.00     0.000 C 
ENDROOT
BRANCH   1   2
ATOM      2  C   UNL     1      40.524  41.270  17.630  1.00  0.00     0.000 C 
BRANCH   2   3
ATOM      3  C   UNL     1      40.781  40.569  16.287  1.00  0.00     0.000 C 
BRANCH   3   4
ATOM      4  C   UNL     1      41.055  41.558  15.143  1.00  0.00     0.000 C 
BRANCH   4   5
ATOM      5  C   UNL     1      42.528  41.557  14.701  1.00  0.00     0.000 C 
BRANCH   5   6
ATOM      6  C   UNL     1      43.313  40.361  15.263  1.00  0.00     0.000 C 
BRANCH   6   7
ATOM      7  C   UNL     1      43.665  39.322  14.188  1.00  0.00     0.006 C 
BRANCH   7   8
ATOM      8  C   UNL     1      43.157  37.932  14.582  1.00  0.00     0.053 C 
BRANCH   8   9
ATOM      9  C   UNL     1      42.052  37.500  13.670  1.00  0.00     0.041 C 
ATOM     10  O   UNL     1      42.088  36.367  13.123  1.00  0.00    -0.550 OA
ATOM     11  O   UNL     1      41.002  38.366  13.394  1.00  0.00    -0.550 OA
ENDBRANCH   8   9
ENDBRANCH   7   8
ENDBRANCH   6   7
ENDBRANCH   5   6
ENDBRANCH   4   5
ENDBRANCH   3   4
ENDBRANCH   2   3
ENDBRANCH   1   2
BRANCH   1  12
ATOM     12  C   UNL     1      42.482  41.791  19.199  1.00  0.00     0.000 C 
BRANCH  12  13
ATOM     13  C   UNL     1      43.274  42.499  18.081  1.00  0.00    -0.000 C 
BRANCH  13  14
ATOM     14  C   UNL     1      42.828  43.941  17.782  1.00  0.00    -0.000 C 
BRANCH  14  15
ATOM     15  C   UNL     1      43.612  44.578  16.623  1.00  0.00    -0.000 C 
BRANCH  15  16
ATOM     16  C   UNL     1      42.728  44.860  15.399  1.00  0.00    -0.000 C 
BRANCH  16  17
ATOM     17  C   UNL     1      41.304  45.293  15.789  1.00  0.00    -0.000 C 
BRANCH  17  18
ATOM     18  C   UNL     1      41.116  46.818  15.741  1.00  0.00    -0.000 C 
BRANCH  18  19
ATOM     19  C   UNL     1      40.911  47.342  14.311  1.00  0.00    -0.003 C 
ATOM     20  C   UNL     1      39.448  47.694  14.060  1.00  0.00     0.004 C 
ENDBRANCH  18  19
ENDBRANCH  17  18
ENDBRANCH  16  17
ENDBRANCH  15  16
ENDBRANCH  14  15
ENDBRANCH  13  14
ENDBRANCH  12  13
ENDBRANCH   1  12
TORSDOF 16
ENDMDL
