MODEL 1
REMARK VINA RESULT:    -3.441      0.000      0.000
REMARK INTER + INTRA:          -5.565
REMARK INTER:                  -5.251
REMARK INTRA:                  -0.313
REMARK UNBOUND:                -0.313
REMARK SMILES CC1=CCC[C@@H](C)C(=O)C[C@H](C(C)C)C(=O)C1
REMARK SMILES IDX 8 1 9 2 6 3 7 4 5 5 4 6 3 7 2 8 1 9 10 11 11 12 15 13 16 14
REMARK SMILES IDX 17 15 12 17 13 18 14 19
REMARK H PARENT
REMARK Flexibility Score: 70.00
ROOT
ATOM      1  C   UNL     1       6.304  29.145  17.373  1.00  0.00     0.136 C 
ATOM      2  O   UNL     1       5.253  29.250  17.990  1.00  0.00    -0.299 OA
ENDROOT
BRANCH   1   3
ATOM      3  C   UNL     1       6.926  30.403  16.788  1.00  0.00     0.053 C 
ATOM      4  C   UNL     1       6.450  30.634  15.349  1.00  0.00     0.016 C 
BRANCH   3   5
ATOM      5  C   UNL     1       8.466  30.393  16.864  1.00  0.00     0.015 C 
BRANCH   5   6
ATOM      6  C   UNL     1       9.139  30.330  15.472  1.00  0.00     0.028 C 
BRANCH   6   7
ATOM      7  C   UNL     1      10.367  29.452  15.505  1.00  0.00    -0.028 C 
ATOM      8  C   UNL     1      10.457  28.208  14.975  1.00  0.00    -0.070 CG0
ATOM      9  C   UNL     1      11.803  27.529  14.988  1.00  0.00     0.039 C 
ATOM     10  G   UNL     1       9.268  27.468  14.378  1.00  0.00     0.000 G0
ENDBRANCH   6   7
ENDBRANCH   5   6
ENDBRANCH   3   5
ENDBRANCH   1   3
BRANCH   1  11
ATOM     11  C   UNL     1       6.921  27.767  17.231  1.00  0.00     0.087 C 
BRANCH  11  12
ATOM     12  C   UNL     1       6.966  27.263  15.762  1.00  0.00     0.066 C 
BRANCH  12  13
ATOM     13  C   UNL     1       8.349  26.750  15.374  1.00  0.00     0.140 C 
ATOM     14  O   UNL     1       8.756  25.715  15.881  1.00  0.00    -0.299 OA
BRANCH  13  15
ATOM     15  C   UNL     1       9.266  27.450  14.387  1.00  0.00     0.106 CG0
ATOM     16  G   UNL     1      10.446  28.195  14.996  1.00  0.00     0.000 G0
ENDBRANCH  13  15
ENDBRANCH  12  13
BRANCH  12  17
ATOM     17  C   UNL     1       5.862  26.214  15.417  1.00  0.00    -0.006 C 
ATOM     18  C   UNL     1       5.006  25.767  16.617  1.00  0.00     0.008 C 
ATOM     19  C   UNL     1       4.949  26.704  14.282  1.00  0.00     0.008 C 
ENDBRANCH  12  17
ENDBRANCH  11  12
ENDBRANCH   1  11
TORSDOF 1
ENDMDL
MODEL 2
REMARK VINA RESULT:    -3.041     13.852     16.116
REMARK INTER + INTRA:          -4.954
REMARK INTER:                  -4.609
REMARK INTRA:                  -0.345
REMARK UNBOUND:                -0.313
REMARK SMILES CC1=CCC[C@@H](C)C(=O)C[C@H](C(C)C)C(=O)C1
REMARK SMILES IDX 8 1 9 2 6 3 7 4 5 5 4 6 3 7 2 8 1 9 10 11 11 12 15 13 16 14
REMARK SMILES IDX 17 15 12 17 13 18 14 19
REMARK H PARENT
REMARK Flexibility Score: 70.00
ROOT
ATOM      1  C   UNL     1      13.869  15.335  15.575  1.00  0.00     0.136 C 
ATOM      2  O   UNL     1      13.474  15.832  16.620  1.00  0.00    -0.299 OA
ENDROOT
BRANCH   1   3
ATOM      3  C   UNL     1      13.397  13.935  15.218  1.00  0.00     0.053 C 
ATOM      4  C   UNL     1      11.913  13.937  14.829  1.00  0.00     0.016 C 
BRANCH   3   5
ATOM      5  C   UNL     1      13.671  12.913  16.339  1.00  0.00     0.015 C 
BRANCH   5   6
ATOM      6  C   UNL     1      15.175  12.581  16.497  1.00  0.00     0.028 C 
BRANCH   6   7
ATOM      7  C   UNL     1      15.753  12.061  15.203  1.00  0.00    -0.028 C 
ATOM      8  C   UNL     1      16.846  12.560  14.576  1.00  0.00    -0.070 CG0
ATOM      9  C   UNL     1      17.356  11.832  13.358  1.00  0.00     0.039 C 
ATOM     10  G   UNL     1      17.573  13.815  15.037  1.00  0.00     0.000 G0
ENDBRANCH   6   7
ENDBRANCH   5   6
ENDBRANCH   3   5
ENDBRANCH   1   3
BRANCH   1  11
ATOM     11  C   UNL     1      14.806  16.147  14.700  1.00  0.00     0.087 C 
BRANCH  11  12
ATOM     12  C   UNL     1      16.276  16.140  15.204  1.00  0.00     0.066 C 
BRANCH  12  13
ATOM     13  C   UNL     1      17.137  15.135  14.445  1.00  0.00     0.140 C 
ATOM     14  O   UNL     1      17.470  15.394  13.298  1.00  0.00    -0.299 OA
BRANCH  13  15
ATOM     15  C   UNL     1      17.613  13.817  15.028  1.00  0.00     0.106 CG0
ATOM     16  G   UNL     1      16.846  12.581  14.581  1.00  0.00     0.000 G0
ENDBRANCH  13  15
ENDBRANCH  12  13
BRANCH  12  17
ATOM     17  C   UNL     1      16.946  17.550  15.224  1.00  0.00    -0.006 C 
ATOM     18  C   UNL     1      16.053  18.691  14.702  1.00  0.00     0.008 C 
ATOM     19  C   UNL     1      17.479  17.905  16.622  1.00  0.00     0.008 C 
ENDBRANCH  12  17
ENDBRANCH  11  12
ENDBRANCH   1  11
TORSDOF 1
ENDMDL
MODEL 3
REMARK VINA RESULT:    -2.904      3.426      6.016
REMARK INTER + INTRA:          -4.745
REMARK INTER:                  -4.545
REMARK INTRA:                  -0.200
REMARK UNBOUND:                -0.313
REMARK SMILES CC1=CCC[C@@H](C)C(=O)C[C@H](C(C)C)C(=O)C1
REMARK SMILES IDX 8 1 9 2 6 3 7 4 5 5 4 6 3 7 2 8 1 9 10 11 11 12 15 13 16 14
REMARK SMILES IDX 17 15 12 17 13 18 14 19
REMARK H PARENT
REMARK Flexibility Score: 70.00
ROOT
ATOM      1  C   UNL     1      10.810  25.166  14.722  1.00  0.00     0.136 C 
ATOM      2  O   UNL     1       9.687  24.996  15.174  1.00  0.00    -0.299 OA
ENDROOT
BRANCH   1   3
ATOM      3  C   UNL     1      11.870  24.114  15.007  1.00  0.00     0.053 C 
ATOM      4  C   UNL     1      11.887  23.739  16.494  1.00  0.00     0.016 C 
BRANCH   3   5
ATOM      5  C   UNL     1      13.273  24.541  14.530  1.00  0.00     0.015 C 
BRANCH   5   6
ATOM      6  C   UNL     1      14.148  25.117  15.670  1.00  0.00     0.028 C 
BRANCH   6   7
ATOM      7  C   UNL     1      15.175  26.081  15.127  1.00  0.00    -0.028 C 
ATOM      8  C   UNL     1      15.065  27.432  15.138  1.00  0.00    -0.070 CG0
ATOM      9  C   UNL     1      16.248  28.242  14.670  1.00  0.00     0.039 C 
ATOM     10  G   UNL     1      13.810  28.163  15.592  1.00  0.00     0.000 G0
ENDBRANCH   6   7
ENDBRANCH   5   6
ENDBRANCH   3   5
ENDBRANCH   1   3
BRANCH   1  11
ATOM     11  C   UNL     1      11.076  26.417  13.905  1.00  0.00     0.087 C 
BRANCH  11  12
ATOM     12  C   UNL     1      11.308  27.682  14.777  1.00  0.00     0.066 C 
BRANCH  12  13
ATOM     13  C   UNL     1      12.697  28.276  14.567  1.00  0.00     0.140 C 
ATOM     14  O   UNL     1      12.933  28.866  13.523  1.00  0.00    -0.299 OA
BRANCH  13  15
ATOM     15  C   UNL     1      13.821  28.182  15.583  1.00  0.00     0.106 CG0
ATOM     16  G   UNL     1      15.062  27.427  15.128  1.00  0.00     0.000 G0
ENDBRANCH  13  15
ENDBRANCH  12  13
BRANCH  12  17
ATOM     17  C   UNL     1      10.201  28.772  14.619  1.00  0.00    -0.006 C 
ATOM     18  C   UNL     1       9.182  28.492  13.500  1.00  0.00     0.008 C 
ATOM     19  C   UNL     1       9.464  29.028  15.943  1.00  0.00     0.008 C 
ENDBRANCH  12  17
ENDBRANCH  11  12
ENDBRANCH   1  11
TORSDOF 1
ENDMDL
MODEL 4
REMARK VINA RESULT:    -2.899      3.124      4.337
REMARK INTER + INTRA:          -4.738
REMARK INTER:                  -4.596
REMARK INTRA:                  -0.142
REMARK UNBOUND:                -0.313
REMARK SMILES CC1=CCC[C@@H](C)C(=O)C[C@H](C(C)C)C(=O)C1
REMARK SMILES IDX 8 1 9 2 6 3 7 4 5 5 4 6 3 7 2 8 1 9 10 11 11 12 15 13 16 14
REMARK SMILES IDX 17 15 12 17 13 18 14 19
REMARK H PARENT
REMARK Flexibility Score: 70.00
ROOT
ATOM      1  C   UNL     1       4.851  29.616  16.914  1.00  0.00     0.136 C 
ATOM      2  O   UNL     1       4.741  30.591  16.184  1.00  0.00    -0.299 OA
ENDROOT
BRANCH   1   3
ATOM      3  C   UNL     1       6.136  29.451  17.709  1.00  0.00     0.053 C 
ATOM      4  C   UNL     1       6.731  30.814  18.081  1.00  0.00     0.016 C 
BRANCH   3   5
ATOM      5  C   UNL     1       7.176  28.575  16.980  1.00  0.00     0.015 C 
BRANCH   5   6
ATOM      6  C   UNL     1       7.047  27.072  17.327  1.00  0.00     0.028 C 
BRANCH   6   7
ATOM      7  C   UNL     1       6.991  26.232  16.074  1.00  0.00    -0.028 C 
ATOM      8  C   UNL     1       5.928  25.493  15.672  1.00  0.00    -0.070 CG0
ATOM      9  C   UNL     1       6.003  24.819  14.325  1.00  0.00     0.039 C 
ATOM     10  G   UNL     1       4.673  25.310  16.514  1.00  0.00     0.000 G0
ENDBRANCH   6   7
ENDBRANCH   5   6
ENDBRANCH   3   5
ENDBRANCH   1   3
BRANCH   1  11
ATOM     11  C   UNL     1       3.698  28.632  16.979  1.00  0.00     0.087 C 
BRANCH  11  12
ATOM     12  C   UNL     1       3.635  27.677  15.755  1.00  0.00     0.066 C 
BRANCH  12  13
ATOM     13  C   UNL     1       3.491  26.217  16.173  1.00  0.00     0.140 C 
ATOM     14  O   UNL     1       2.369  25.737  16.251  1.00  0.00    -0.299 OA
BRANCH  13  15
ATOM     15  C   UNL     1       4.662  25.310  16.502  1.00  0.00     0.106 CG0
ATOM     16  G   UNL     1       5.910  25.507  15.653  1.00  0.00     0.000 G0
ENDBRANCH  13  15
ENDBRANCH  12  13
BRANCH  12  17
ATOM     17  C   UNL     1       2.553  28.069  14.700  1.00  0.00    -0.006 C 
ATOM     18  C   UNL     1       1.495  29.064  15.208  1.00  0.00     0.008 C 
ATOM     19  C   UNL     1       3.189  28.602  13.406  1.00  0.00     0.008 C 
ENDBRANCH  12  17
ENDBRANCH  11  12
ENDBRANCH   1  11
TORSDOF 1
ENDMDL
MODEL 5
REMARK VINA RESULT:    -2.833      1.783      2.502
REMARK INTER + INTRA:          -4.636
REMARK INTER:                  -5.067
REMARK INTRA:                   0.431
REMARK UNBOUND:                -0.313
REMARK SMILES CC1=CCC[C@@H](C)C(=O)C[C@H](C(C)C)C(=O)C1
REMARK SMILES IDX 8 1 9 2 6 3 7 4 5 5 4 6 3 7 2 8 1 9 10 11 11 12 15 13 16 14
REMARK SMILES IDX 17 15 12 17 13 18 14 19
REMARK H PARENT
REMARK Flexibility Score: 70.00
ROOT
ATOM      1  C   UNL     1       4.052  28.547  16.256  1.00  0.00     0.136 C 
ATOM      2  O   UNL     1       3.109  27.803  16.489  1.00  0.00    -0.299 OA
ENDROOT
BRANCH   1   3
ATOM      3  C   UNL     1       4.474  29.536  17.330  1.00  0.00     0.053 C 
ATOM      4  C   UNL     1       4.183  30.978  16.896  1.00  0.00     0.016 C 
BRANCH   3   5
ATOM      5  C   UNL     1       5.951  29.371  17.741  1.00  0.00     0.015 C 
BRANCH   5   6
ATOM      6  C   UNL     1       6.841  30.551  17.279  1.00  0.00     0.028 C 
BRANCH   6   7
ATOM      7  C   UNL     1       8.227  30.073  16.920  1.00  0.00    -0.028 C 
ATOM      8  C   UNL     1       8.593  29.555  15.722  1.00  0.00    -0.070 CG0
ATOM      9  C   UNL     1      10.052  29.250  15.498  1.00  0.00     0.039 C 
ATOM     10  G   UNL     1       7.603  29.264  14.602  1.00  0.00     0.000 G0
ENDBRANCH   6   7
ENDBRANCH   5   6
ENDBRANCH   3   5
ENDBRANCH   1   3
BRANCH   1  11
ATOM     11  C   UNL     1       4.741  28.435  14.909  1.00  0.00     0.087 C 
BRANCH  11  12
ATOM     12  C   UNL     1       5.791  27.292  14.850  1.00  0.00     0.066 C 
BRANCH  12  13
ATOM     13  C   UNL     1       7.174  27.804  14.456  1.00  0.00     0.140 C 
ATOM     14  O   UNL     1       7.989  27.010  14.008  1.00  0.00    -0.299 OA
BRANCH  13  15
ATOM     15  C   UNL     1       7.610  29.252  14.584  1.00  0.00     0.106 CG0
ATOM     16  G   UNL     1       8.573  29.553  15.723  1.00  0.00     0.000 G0
ENDBRANCH  13  15
ENDBRANCH  12  13
BRANCH  12  17
ATOM     17  C   UNL     1       5.862  26.427  16.148  1.00  0.00    -0.006 C 
ATOM     18  C   UNL     1       5.231  25.029  16.020  1.00  0.00     0.008 C 
ATOM     19  C   UNL     1       7.303  26.302  16.668  1.00  0.00     0.008 C 
ENDBRANCH  12  17
ENDBRANCH  11  12
ENDBRANCH   1  11
TORSDOF 1
ENDMDL
MODEL 6
REMARK VINA RESULT:    -2.814      2.648      4.667
REMARK INTER + INTRA:          -4.607
REMARK INTER:                  -4.296
REMARK INTRA:                  -0.311
REMARK UNBOUND:                -0.313
REMARK SMILES CC1=CCC[C@@H](C)C(=O)C[C@H](C(C)C)C(=O)C1
REMARK SMILES IDX 8 1 9 2 6 3 7 4 5 5 4 6 3 7 2 8 1 9 10 11 11 12 15 13 16 14
REMARK SMILES IDX 17 15 12 17 13 18 14 19
REMARK H PARENT
REMARK Flexibility Score: 70.00
ROOT
ATOM      1  C   UNL     1       7.436  26.867  15.844  1.00  0.00     0.136 C 
ATOM      2  O   UNL     1       8.104  26.122  16.547  1.00  0.00    -0.299 OA
ENDROOT
BRANCH   1   3
ATOM      3  C   UNL     1       7.866  28.320  15.721  1.00  0.00     0.053 C 
ATOM      4  C   UNL     1       9.207  28.438  14.987  1.00  0.00     0.016 C 
BRANCH   3   5
ATOM      5  C   UNL     1       7.919  29.040  17.084  1.00  0.00     0.015 C 
BRANCH   5   6
ATOM      6  C   UNL     1       6.518  29.257  17.706  1.00  0.00     0.028 C 
BRANCH   6   7
ATOM      7  C   UNL     1       5.675  30.158  16.836  1.00  0.00    -0.028 C 
ATOM      8  C   UNL     1       4.414  29.889  16.418  1.00  0.00    -0.070 CG0
ATOM      9  C   UNL     1       3.675  30.963  15.661  1.00  0.00     0.039 C 
ATOM     10  G   UNL     1       3.717  28.560  16.671  1.00  0.00     0.000 G0
ENDBRANCH   6   7
ENDBRANCH   5   6
ENDBRANCH   3   5
ENDBRANCH   1   3
BRANCH   1  11
ATOM     11  C   UNL     1       6.221  26.295  15.139  1.00  0.00     0.087 C 
BRANCH  11  12
ATOM     12  C   UNL     1       4.950  26.267  16.032  1.00  0.00     0.066 C 
BRANCH  12  13
ATOM     13  C   UNL     1       4.005  27.423  15.721  1.00  0.00     0.140 C 
ATOM     14  O   UNL     1       3.451  27.453  14.631  1.00  0.00    -0.299 OA
BRANCH  13  15
ATOM     15  C   UNL     1       3.702  28.554  16.687  1.00  0.00     0.106 CG0
ATOM     16  G   UNL     1       4.418  29.868  16.410  1.00  0.00     0.000 G0
ENDBRANCH  13  15
ENDBRANCH  12  13
BRANCH  12  17
ATOM     17  C   UNL     1       4.192  24.901  16.013  1.00  0.00    -0.006 C 
ATOM     18  C   UNL     1       4.985  23.738  15.391  1.00  0.00     0.008 C 
ATOM     19  C   UNL     1       3.702  24.506  17.415  1.00  0.00     0.008 C 
ENDBRANCH  12  17
ENDBRANCH  11  12
ENDBRANCH   1  11
TORSDOF 1
ENDMDL
MODEL 7
REMARK VINA RESULT:    -2.795      2.702      5.772
REMARK INTER + INTRA:          -4.579
REMARK INTER:                  -4.157
REMARK INTRA:                  -0.422
REMARK UNBOUND:                -0.313
REMARK SMILES CC1=CCC[C@@H](C)C(=O)C[C@H](C(C)C)C(=O)C1
REMARK SMILES IDX 8 1 9 2 6 3 7 4 5 5 4 6 3 7 2 8 1 9 10 11 11 12 15 13 16 14
REMARK SMILES IDX 17 15 12 17 13 18 14 19
REMARK H PARENT
REMARK Flexibility Score: 70.00
ROOT
ATOM      1  C   UNL     1       6.267  26.864  16.835  1.00  0.00     0.136 C 
ATOM      2  O   UNL     1       7.225  26.618  17.555  1.00  0.00    -0.299 OA
ENDROOT
BRANCH   1   3
ATOM      3  C   UNL     1       5.728  25.754  15.948  1.00  0.00     0.053 C 
ATOM      4  C   UNL     1       6.281  25.869  14.523  1.00  0.00     0.016 C 
BRANCH   3   5
ATOM      5  C   UNL     1       4.187  25.699  15.938  1.00  0.00     0.015 C 
BRANCH   5   6
ATOM      6  C   UNL     1       3.576  26.143  14.587  1.00  0.00     0.028 C 
BRANCH   6   7
ATOM      7  C   UNL     1       2.671  27.338  14.770  1.00  0.00    -0.028 C 
ATOM      8  C   UNL     1       2.982  28.615  14.440  1.00  0.00    -0.070 CG0
ATOM      9  C   UNL     1       1.906  29.662  14.574  1.00  0.00     0.039 C 
ATOM     10  G   UNL     1       4.360  29.038  13.950  1.00  0.00     0.000 G0
ENDBRANCH   6   7
ENDBRANCH   5   6
ENDBRANCH   3   5
ENDBRANCH   1   3
BRANCH   1  11
ATOM     11  C   UNL     1       5.679  28.262  16.872  1.00  0.00     0.087 C 
BRANCH  11  12
ATOM     12  C   UNL     1       6.293  29.215  15.809  1.00  0.00     0.066 C 
BRANCH  12  13
ATOM     13  C   UNL     1       5.228  29.832  14.909  1.00  0.00     0.140 C 
ATOM     14  O   UNL     1       5.043  31.039  14.959  1.00  0.00    -0.299 OA
BRANCH  13  15
ATOM     15  C   UNL     1       4.371  29.036  13.941  1.00  0.00     0.106 CG0
ATOM     16  G   UNL     1       3.000  28.624  14.457  1.00  0.00     0.000 G0
ENDBRANCH  13  15
ENDBRANCH  12  13
BRANCH  12  17
ATOM     17  C   UNL     1       7.228  30.313  16.407  1.00  0.00    -0.006 C 
ATOM     18  C   UNL     1       6.910  30.700  17.863  1.00  0.00     0.008 C 
ATOM     19  C   UNL     1       8.710  29.926  16.284  1.00  0.00     0.008 C 
ENDBRANCH  12  17
ENDBRANCH  11  12
ENDBRANCH   1  11
TORSDOF 1
ENDMDL
MODEL 8
REMARK VINA RESULT:    -2.741      2.540      4.272
REMARK INTER + INTRA:          -4.496
REMARK INTER:                  -4.614
REMARK INTRA:                   0.118
REMARK UNBOUND:                -0.313
REMARK SMILES CC1=CCC[C@@H](C)C(=O)C[C@H](C(C)C)C(=O)C1
REMARK SMILES IDX 8 1 9 2 6 3 7 4 5 5 4 6 3 7 2 8 1 9 10 11 11 12 15 13 16 14
REMARK SMILES IDX 17 15 12 17 13 18 14 19
REMARK H PARENT
REMARK Flexibility Score: 70.00
ROOT
ATOM      1  C   UNL     1       6.496  27.317  16.338  1.00  0.00     0.136 C 
ATOM      2  O   UNL     1       6.615  26.645  17.354  1.00  0.00    -0.299 OA
ENDROOT
BRANCH   1   3
ATOM      3  C   UNL     1       7.757  27.839  15.668  1.00  0.00     0.053 C 
ATOM      4  C   UNL     1       8.695  26.688  15.287  1.00  0.00     0.016 C 
BRANCH   3   5
ATOM      5  C   UNL     1       8.492  28.890  16.525  1.00  0.00     0.015 C 
BRANCH   5   6
ATOM      6  C   UNL     1       8.396  30.319  15.939  1.00  0.00     0.028 C 
BRANCH   6   7
ATOM      7  C   UNL     1       7.421  30.367  14.788  1.00  0.00    -0.028 C 
ATOM      8  C   UNL     1       6.117  30.724  14.879  1.00  0.00    -0.070 CG0
ATOM      9  C   UNL     1       5.324  30.839  13.602  1.00  0.00     0.039 C 
ATOM     10  G   UNL     1       5.420  31.007  16.202  1.00  0.00     0.000 G0
ENDBRANCH   6   7
ENDBRANCH   5   6
ENDBRANCH   3   5
ENDBRANCH   1   3
BRANCH   1  11
ATOM     11  C   UNL     1       5.099  27.585  15.812  1.00  0.00     0.087 C 
BRANCH  11  12
ATOM     12  C   UNL     1       4.302  28.600  16.676  1.00  0.00     0.066 C 
BRANCH  12  13
ATOM     13  C   UNL     1       5.153  29.800  17.083  1.00  0.00     0.140 C 
ATOM     14  O   UNL     1       5.670  29.805  18.190  1.00  0.00    -0.299 OA
BRANCH  13  15
ATOM     15  C   UNL     1       5.402  31.002  16.191  1.00  0.00     0.106 CG0
ATOM     16  G   UNL     1       6.129  30.717  14.885  1.00  0.00     0.000 G0
ENDBRANCH  13  15
ENDBRANCH  12  13
BRANCH  12  17
ATOM     17  C   UNL     1       2.954  29.059  16.035  1.00  0.00    -0.006 C 
ATOM     18  C   UNL     1       2.645  28.419  14.670  1.00  0.00     0.008 C 
ATOM     19  C   UNL     1       1.769  28.845  16.990  1.00  0.00     0.008 C 
ENDBRANCH  12  17
ENDBRANCH  11  12
ENDBRANCH   1  11
TORSDOF 1
ENDMDL
MODEL 9
REMARK VINA RESULT:    -2.613      2.046      3.950
REMARK INTER + INTRA:          -4.300
REMARK INTER:                  -4.481
REMARK INTRA:                   0.181
REMARK UNBOUND:                -0.313
REMARK SMILES CC1=CCC[C@@H](C)C(=O)C[C@H](C(C)C)C(=O)C1
REMARK SMILES IDX 8 1 9 2 6 3 7 4 5 5 4 6 3 7 2 8 1 9 10 11 11 12 15 13 16 14
REMARK SMILES IDX 17 15 12 17 13 18 14 19
REMARK H PARENT
REMARK Flexibility Score: 70.00
ROOT
ATOM      1  C   UNL     1       5.653  27.235  14.692  1.00  0.00     0.136 C 
ATOM      2  O   UNL     1       5.689  26.977  13.496  1.00  0.00    -0.299 OA
ENDROOT
BRANCH   1   3
ATOM      3  C   UNL     1       6.212  26.212  15.668  1.00  0.00     0.053 C 
ATOM      4  C   UNL     1       5.450  26.246  16.998  1.00  0.00     0.016 C 
BRANCH   3   5
ATOM      5  C   UNL     1       7.728  26.377  15.896  1.00  0.00     0.015 C 
BRANCH   5   6
ATOM      6  C   UNL     1       8.454  27.014  14.686  1.00  0.00     0.028 C 
BRANCH   6   7
ATOM      7  C   UNL     1       9.304  28.183  15.120  1.00  0.00    -0.028 C 
ATOM      8  C   UNL     1       9.134  29.467  14.721  1.00  0.00    -0.070 CG0
ATOM      9  C   UNL     1       9.998  30.526  15.358  1.00  0.00     0.039 C 
ATOM     10  G   UNL     1       8.124  29.885  13.662  1.00  0.00     0.000 G0
ENDBRANCH   6   7
ENDBRANCH   5   6
ENDBRANCH   3   5
ENDBRANCH   1   3
BRANCH   1  11
ATOM     11  C   UNL     1       5.051  28.558  15.125  1.00  0.00     0.087 C 
BRANCH  11  12
ATOM     12  C   UNL     1       6.119  29.640  15.450  1.00  0.00     0.066 C 
BRANCH  12  13
ATOM     13  C   UNL     1       6.732  30.237  14.187  1.00  0.00     0.140 C 
ATOM     14  O   UNL     1       6.081  31.048  13.544  1.00  0.00    -0.299 OA
BRANCH  13  15
ATOM     15  C   UNL     1       8.115  29.886  13.669  1.00  0.00     0.106 CG0
ATOM     16  G   UNL     1       9.132  29.477  14.725  1.00  0.00     0.000 G0
ENDBRANCH  13  15
ENDBRANCH  12  13
BRANCH  12  17
ATOM     17  C   UNL     1       5.614  30.761  16.413  1.00  0.00    -0.006 C 
ATOM     18  C   UNL     1       4.089  30.784  16.623  1.00  0.00     0.008 C 
ATOM     19  C   UNL     1       6.326  30.703  17.773  1.00  0.00     0.008 C 
ENDBRANCH  12  17
ENDBRANCH  11  12
ENDBRANCH   1  11
TORSDOF 1
ENDMDL
