MODEL 1
REMARK VINA RESULT:    -5.839      0.000      0.000
REMARK INTER + INTRA:          -9.988
REMARK INTER:                  -8.912
REMARK INTRA:                  -1.076
REMARK UNBOUND:                -1.076
REMARK SMILES CC(=O)CCC=C(C)CCC=C(C)CCC=C(C)C
REMARK SMILES IDX 10 1 11 2 12 3 13 4 14 5 15 6 16 7 18 8 17 9 19 10 9 11 7 12
REMARK SMILES IDX 6 13 8 14 5 15 4 16 2 17 3 18 1 19
REMARK H PARENT
REMARK Flexibility Score: inf
ROOT
ATOM      1  C   UNL     1      11.620 -16.453  17.187  1.00  0.00     0.032 C 
ENDROOT
BRANCH   1   2
ATOM      2  C   UNL     1      11.990 -17.265  15.968  1.00  0.00    -0.028 C 
ATOM      3  C   UNL     1      12.637 -16.777  14.886  1.00  0.00    -0.077 C 
ATOM      4  C   UNL     1      13.125 -15.348  14.824  1.00  0.00     0.039 C 
BRANCH   3   5
ATOM      5  C   UNL     1      12.879 -17.692  13.706  1.00  0.00     0.034 C 
BRANCH   5   6
ATOM      6  C   UNL     1      11.933 -18.899  13.743  1.00  0.00     0.032 C 
BRANCH   6   7
ATOM      7  C   UNL     1      11.625 -19.380  12.348  1.00  0.00    -0.028 C 
ATOM      8  C   UNL     1      10.673 -19.293  10.085  1.00  0.00     0.039 C 
ATOM      9  C   UNL     1      10.863 -18.705  11.459  1.00  0.00    -0.080 C 
ATOM     10  C   UNL     1      10.190 -17.398  11.810  1.00  0.00     0.039 C 
ENDBRANCH   6   7
ENDBRANCH   5   6
ENDBRANCH   3   5
ENDBRANCH   1   2
BRANCH   1  11
ATOM     11  C   UNL     1      10.162 -15.978  17.131  1.00  0.00     0.034 C 
BRANCH  11  12
ATOM     12  C   UNL     1      10.063 -14.472  16.989  1.00  0.00    -0.077 C 
ATOM     13  C   UNL     1      10.181 -13.695  18.087  1.00  0.00    -0.028 C 
ATOM     14  C   UNL     1       9.824 -13.875  15.622  1.00  0.00     0.039 C 
BRANCH  13  15
ATOM     15  C   UNL     1      10.081 -12.189  18.044  1.00  0.00     0.035 C 
BRANCH  15  16
ATOM     16  C   UNL     1      11.470 -11.541  18.046  1.00  0.00     0.079 C 
BRANCH  16  17
ATOM     17  C   UNL     1      11.378 -10.084  18.410  1.00  0.00     0.130 C 
ATOM     18  O   UNL     1      11.135  -9.256  17.545  1.00  0.00    -0.300 OA
ATOM     19  C   UNL     1      11.605  -9.639  19.822  1.00  0.00     0.087 C 
ENDBRANCH  16  17
ENDBRANCH  15  16
ENDBRANCH  13  15
ENDBRANCH  11  12
ENDBRANCH   1  11
TORSDOF 9
ENDMDL
MODEL 2
REMARK VINA RESULT:    -5.809      2.387      6.727
REMARK INTER + INTRA:          -9.942
REMARK INTER:                  -8.609
REMARK INTRA:                  -1.333
REMARK UNBOUND:                -1.076
REMARK SMILES CC(=O)CCC=C(C)CCC=C(C)CCC=C(C)C
REMARK SMILES IDX 10 1 11 2 12 3 13 4 14 5 15 6 16 7 18 8 17 9 19 10 9 11 7 12
REMARK SMILES IDX 6 13 8 14 5 15 4 16 2 17 3 18 1 19
REMARK H PARENT
REMARK Flexibility Score: inf
ROOT
ATOM      1  C   UNL     1      12.571 -18.385  13.905  1.00  0.00     0.032 C 
ENDROOT
BRANCH   1   2
ATOM      2  C   UNL     1      12.003 -18.029  15.259  1.00  0.00    -0.028 C 
ATOM      3  C   UNL     1      12.080 -16.805  15.828  1.00  0.00    -0.077 C 
ATOM      4  C   UNL     1      12.700 -15.628  15.110  1.00  0.00     0.039 C 
BRANCH   3   5
ATOM      5  C   UNL     1      11.527 -16.611  17.223  1.00  0.00     0.034 C 
BRANCH   5   6
ATOM      6  C   UNL     1      10.161 -15.914  17.179  1.00  0.00     0.032 C 
BRANCH   6   7
ATOM      7  C   UNL     1      10.201 -14.613  17.939  1.00  0.00    -0.028 C 
ATOM      8  C   UNL     1      10.168 -12.176  18.253  1.00  0.00     0.039 C 
ATOM      9  C   UNL     1      10.157 -13.391  17.362  1.00  0.00    -0.080 C 
ATOM     10  C   UNL     1      10.118 -13.215  15.862  1.00  0.00     0.039 C 
ENDBRANCH   6   7
ENDBRANCH   5   6
ENDBRANCH   3   5
ENDBRANCH   1   2
BRANCH   1  11
ATOM     11  C   UNL     1      11.540 -19.114  13.032  1.00  0.00     0.034 C 
BRANCH  11  12
ATOM     12  C   UNL     1      10.980 -18.215  11.949  1.00  0.00    -0.077 C 
ATOM     13  C   UNL     1      10.822 -16.897  12.197  1.00  0.00    -0.028 C 
ATOM     14  C   UNL     1      10.602 -18.815  10.615  1.00  0.00     0.039 C 
BRANCH  13  15
ATOM     15  C   UNL     1      10.258 -15.929  11.185  1.00  0.00     0.035 C 
BRANCH  15  16
ATOM     16  C   UNL     1       9.769 -14.644  11.860  1.00  0.00     0.079 C 
BRANCH  16  17
ATOM     17  C   UNL     1       9.568 -13.551  10.846  1.00  0.00     0.130 C 
ATOM     18  O   UNL     1      10.173 -12.496  10.962  1.00  0.00    -0.300 OA
ATOM     19  C   UNL     1       8.614 -13.739   9.706  1.00  0.00     0.087 C 
ENDBRANCH  16  17
ENDBRANCH  15  16
ENDBRANCH  13  15
ENDBRANCH  11  12
ENDBRANCH   1  11
TORSDOF 9
ENDMDL
MODEL 3
REMARK VINA RESULT:    -5.790      1.307      2.258
REMARK INTER + INTRA:          -9.912
REMARK INTER:                  -8.518
REMARK INTRA:                  -1.395
REMARK UNBOUND:                -1.076
REMARK SMILES CC(=O)CCC=C(C)CCC=C(C)CCC=C(C)C
REMARK SMILES IDX 10 1 11 2 12 3 13 4 14 5 15 6 16 7 18 8 17 9 19 10 9 11 7 12
REMARK SMILES IDX 6 13 8 14 5 15 4 16 2 17 3 18 1 19
REMARK H PARENT
REMARK Flexibility Score: inf
ROOT
ATOM      1  C   UNL     1       9.633 -14.815  17.253  1.00  0.00     0.032 C 
ENDROOT
BRANCH   1   2
ATOM      2  C   UNL     1      10.510 -16.045  17.242  1.00  0.00    -0.028 C 
ATOM      3  C   UNL     1      11.548 -16.242  16.399  1.00  0.00    -0.077 C 
ATOM      4  C   UNL     1      11.983 -15.189  15.407  1.00  0.00     0.039 C 
BRANCH   3   5
ATOM      5  C   UNL     1      12.296 -17.557  16.455  1.00  0.00     0.034 C 
BRANCH   5   6
ATOM      6  C   UNL     1      13.016 -17.835  15.130  1.00  0.00     0.032 C 
BRANCH   6   7
ATOM      7  C   UNL     1      12.146 -18.654  14.210  1.00  0.00    -0.028 C 
ATOM      8  C   UNL     1      11.037 -19.279  12.108  1.00  0.00     0.039 C 
ATOM      9  C   UNL     1      11.898 -18.344  12.918  1.00  0.00    -0.080 C 
ATOM     10  C   UNL     1      12.442 -17.088  12.277  1.00  0.00     0.039 C 
ENDBRANCH   6   7
ENDBRANCH   5   6
ENDBRANCH   3   5
ENDBRANCH   1   2
BRANCH   1  11
ATOM     11  C   UNL     1      10.143 -13.765  18.249  1.00  0.00     0.034 C 
BRANCH  11  12
ATOM     12  C   UNL     1      10.012 -12.357  17.704  1.00  0.00    -0.077 C 
ATOM     13  C   UNL     1       9.835 -11.329  18.562  1.00  0.00    -0.028 C 
ATOM     14  C   UNL     1      10.072 -12.136  16.211  1.00  0.00     0.039 C 
BRANCH  13  15
ATOM     15  C   UNL     1       9.679  -9.897  18.110  1.00  0.00     0.035 C 
BRANCH  15  16
ATOM     16  C   UNL     1      10.690  -8.982  18.809  1.00  0.00     0.079 C 
BRANCH  16  17
ATOM     17  C   UNL     1      12.095  -9.324  18.395  1.00  0.00     0.130 C 
ATOM     18  O   UNL     1      12.899  -9.708  19.231  1.00  0.00    -0.300 OA
ATOM     19  C   UNL     1      12.523  -9.176  16.967  1.00  0.00     0.087 C 
ENDBRANCH  16  17
ENDBRANCH  15  16
ENDBRANCH  13  15
ENDBRANCH  11  12
ENDBRANCH   1  11
TORSDOF 9
ENDMDL
MODEL 4
REMARK VINA RESULT:    -5.789      2.709      8.186
REMARK INTER + INTRA:          -9.911
REMARK INTER:                  -8.730
REMARK INTRA:                  -1.181
REMARK UNBOUND:                -1.076
REMARK SMILES CC(=O)CCC=C(C)CCC=C(C)CCC=C(C)C
REMARK SMILES IDX 10 1 11 2 12 3 13 4 14 5 15 6 16 7 18 8 17 9 19 10 9 11 7 12
REMARK SMILES IDX 6 13 8 14 5 15 4 16 2 17 3 18 1 19
REMARK H PARENT
REMARK Flexibility Score: inf
ROOT
ATOM      1  C   UNL     1      10.519 -16.688  16.860  1.00  0.00     0.032 C 
ENDROOT
BRANCH   1   2
ATOM      2  C   UNL     1      10.517 -15.413  17.670  1.00  0.00    -0.028 C 
ATOM      3  C   UNL     1      10.347 -14.175  17.154  1.00  0.00    -0.077 C 
ATOM      4  C   UNL     1      10.067 -13.952  15.686  1.00  0.00     0.039 C 
BRANCH   3   5
ATOM      5  C   UNL     1      10.438 -12.980  18.078  1.00  0.00     0.034 C 
BRANCH   5   6
ATOM      6  C   UNL     1      11.475 -11.971  17.569  1.00  0.00     0.032 C 
BRANCH   6   7
ATOM      7  C   UNL     1      11.782 -10.941  18.626  1.00  0.00    -0.028 C 
ATOM      8  C   UNL     1      11.405  -8.959  20.030  1.00  0.00     0.039 C 
ATOM      9  C   UNL     1      10.986  -9.888  18.919  1.00  0.00    -0.080 C 
ATOM     10  C   UNL     1       9.711  -9.612  18.158  1.00  0.00     0.039 C 
ENDBRANCH   6   7
ENDBRANCH   5   6
ENDBRANCH   3   5
ENDBRANCH   1   2
BRANCH   1  11
ATOM     11  C   UNL     1      11.943 -17.218  16.642  1.00  0.00     0.034 C 
BRANCH  11  12
ATOM     12  C   UNL     1      12.321 -17.236  15.175  1.00  0.00    -0.077 C 
ATOM     13  C   UNL     1      12.047 -18.331  14.434  1.00  0.00    -0.028 C 
ATOM     14  C   UNL     1      13.006 -16.030  14.575  1.00  0.00     0.039 C 
BRANCH  13  15
ATOM     15  C   UNL     1      12.400 -18.445  12.971  1.00  0.00     0.035 C 
BRANCH  15  16
ATOM     16  C   UNL     1      11.159 -18.745  12.123  1.00  0.00     0.079 C 
BRANCH  16  17
ATOM     17  C   UNL     1      10.776 -17.548  11.297  1.00  0.00     0.130 C 
ATOM     18  O   UNL     1      10.934 -17.570  10.085  1.00  0.00    -0.300 OA
ATOM     19  C   UNL     1      10.222 -16.319  11.951  1.00  0.00     0.087 C 
ENDBRANCH  16  17
ENDBRANCH  15  16
ENDBRANCH  13  15
ENDBRANCH  11  12
ENDBRANCH   1  11
TORSDOF 9
ENDMDL
MODEL 5
REMARK VINA RESULT:    -5.638      3.605      8.601
REMARK INTER + INTRA:          -9.681
REMARK INTER:                  -8.488
REMARK INTRA:                  -1.193
REMARK UNBOUND:                -1.076
REMARK SMILES CC(=O)CCC=C(C)CCC=C(C)CCC=C(C)C
REMARK SMILES IDX 10 1 11 2 12 3 13 4 14 5 15 6 16 7 18 8 17 9 19 10 9 11 7 12
REMARK SMILES IDX 6 13 8 14 5 15 4 16 2 17 3 18 1 19
REMARK H PARENT
REMARK Flexibility Score: inf
ROOT
ATOM      1  C   UNL     1      11.734 -16.057  13.831  1.00  0.00     0.032 C 
ENDROOT
BRANCH   1   2
ATOM      2  C   UNL     1      11.209 -15.753  15.214  1.00  0.00    -0.028 C 
ATOM      3  C   UNL     1      11.424 -16.522  16.305  1.00  0.00    -0.077 C 
ATOM      4  C   UNL     1      12.292 -17.757  16.253  1.00  0.00     0.039 C 
BRANCH   3   5
ATOM      5  C   UNL     1      10.776 -16.129  17.615  1.00  0.00     0.034 C 
BRANCH   5   6
ATOM      6  C   UNL     1       9.697 -15.061  17.395  1.00  0.00     0.032 C 
BRANCH   6   7
ATOM      7  C   UNL     1      10.031 -13.800  18.150  1.00  0.00    -0.028 C 
ATOM      8  C   UNL     1      10.485 -11.405  18.465  1.00  0.00     0.039 C 
ATOM      9  C   UNL     1      10.187 -12.586  17.576  1.00  0.00    -0.080 C 
ATOM     10  C   UNL     1      10.091 -12.388  16.081  1.00  0.00     0.039 C 
ENDBRANCH   6   7
ENDBRANCH   5   6
ENDBRANCH   3   5
ENDBRANCH   1   2
BRANCH   1  11
ATOM     11  C   UNL     1      10.768 -15.578  12.740  1.00  0.00     0.034 C 
BRANCH  11  12
ATOM     12  C   UNL     1      10.655 -16.576  11.605  1.00  0.00    -0.077 C 
ATOM     13  C   UNL     1      10.592 -17.895  11.888  1.00  0.00    -0.028 C 
ATOM     14  C   UNL     1      10.624 -16.073  10.181  1.00  0.00     0.039 C 
BRANCH  13  15
ATOM     15  C   UNL     1      10.494 -18.962  10.824  1.00  0.00     0.035 C 
BRANCH  15  16
ATOM     16  C   UNL     1      11.867 -19.570  10.520  1.00  0.00     0.079 C 
BRANCH  16  17
ATOM     17  C   UNL     1      11.913 -20.108   9.116  1.00  0.00     0.130 C 
ATOM     18  O   UNL     1      12.950 -20.589   8.684  1.00  0.00    -0.300 OA
ATOM     19  C   UNL     1      10.703 -20.039   8.236  1.00  0.00     0.087 C 
ENDBRANCH  16  17
ENDBRANCH  15  16
ENDBRANCH  13  15
ENDBRANCH  11  12
ENDBRANCH   1  11
TORSDOF 9
ENDMDL
MODEL 6
REMARK VINA RESULT:    -5.626      2.556      3.407
REMARK INTER + INTRA:          -9.662
REMARK INTER:                  -8.275
REMARK INTRA:                  -1.387
REMARK UNBOUND:                -1.076
REMARK SMILES CC(=O)CCC=C(C)CCC=C(C)CCC=C(C)C
REMARK SMILES IDX 10 1 11 2 12 3 13 4 14 5 15 6 16 7 18 8 17 9 19 10 9 11 7 12
REMARK SMILES IDX 6 13 8 14 5 15 4 16 2 17 3 18 1 19
REMARK H PARENT
REMARK Flexibility Score: inf
ROOT
ATOM      1  C   UNL     1      12.216 -16.417  15.555  1.00  0.00     0.032 C 
ENDROOT
BRANCH   1   2
ATOM      2  C   UNL     1      11.410 -16.597  14.290  1.00  0.00    -0.028 C 
ATOM      3  C   UNL     1      11.124 -15.609  13.413  1.00  0.00    -0.077 C 
ATOM      4  C   UNL     1      11.658 -14.206  13.588  1.00  0.00     0.039 C 
BRANCH   3   5
ATOM      5  C   UNL     1      10.244 -15.921  12.222  1.00  0.00     0.034 C 
BRANCH   5   6
ATOM      6  C   UNL     1      10.653 -15.082  11.004  1.00  0.00     0.032 C 
BRANCH   6   7
ATOM      7  C   UNL     1       9.444 -14.453  10.360  1.00  0.00    -0.028 C 
ATOM      8  C   UNL     1       8.007 -12.635   9.541  1.00  0.00     0.039 C 
ATOM      9  C   UNL     1       9.249 -13.120  10.244  1.00  0.00    -0.080 C 
ATOM     10  C   UNL     1      10.224 -12.115  10.811  1.00  0.00     0.039 C 
ENDBRANCH   6   7
ENDBRANCH   5   6
ENDBRANCH   3   5
ENDBRANCH   1   2
BRANCH   1  11
ATOM     11  C   UNL     1      11.356 -16.624  16.809  1.00  0.00     0.034 C 
BRANCH  11  12
ATOM     12  C   UNL     1      10.536 -15.394  17.142  1.00  0.00    -0.077 C 
ATOM     13  C   UNL     1      11.142 -14.189  17.196  1.00  0.00    -0.028 C 
ATOM     14  C   UNL     1       9.058 -15.545  17.415  1.00  0.00     0.039 C 
BRANCH  13  15
ATOM     15  C   UNL     1      10.410 -12.913  17.534  1.00  0.00     0.035 C 
BRANCH  15  16
ATOM     16  C   UNL     1      11.390 -11.763  17.790  1.00  0.00     0.079 C 
BRANCH  16  17
ATOM     17  C   UNL     1      10.753 -10.699  18.642  1.00  0.00     0.130 C 
ATOM     18  O   UNL     1       9.574 -10.418  18.482  1.00  0.00    -0.300 OA
ATOM     19  C   UNL     1      11.558  -9.966  19.670  1.00  0.00     0.087 C 
ENDBRANCH  16  17
ENDBRANCH  15  16
ENDBRANCH  13  15
ENDBRANCH  11  12
ENDBRANCH   1  11
TORSDOF 9
ENDMDL
MODEL 7
REMARK VINA RESULT:    -5.623      1.340      2.095
REMARK INTER + INTRA:          -9.657
REMARK INTER:                  -8.586
REMARK INTRA:                  -1.071
REMARK UNBOUND:                -1.076
REMARK SMILES CC(=O)CCC=C(C)CCC=C(C)CCC=C(C)C
REMARK SMILES IDX 10 1 11 2 12 3 13 4 14 5 15 6 16 7 18 8 17 9 19 10 9 11 7 12
REMARK SMILES IDX 6 13 8 14 5 15 4 16 2 17 3 18 1 19
REMARK H PARENT
REMARK Flexibility Score: inf
ROOT
ATOM      1  C   UNL     1      12.102 -16.105  15.463  1.00  0.00     0.032 C 
ENDROOT
BRANCH   1   2
ATOM      2  C   UNL     1      11.683 -16.687  14.134  1.00  0.00    -0.028 C 
ATOM      3  C   UNL     1      10.929 -16.042  13.215  1.00  0.00    -0.077 C 
ATOM      4  C   UNL     1      10.480 -14.613  13.411  1.00  0.00     0.039 C 
BRANCH   3   5
ATOM      5  C   UNL     1      10.527 -16.776  11.955  1.00  0.00     0.034 C 
BRANCH   5   6
ATOM      6  C   UNL     1      10.882 -18.266  12.051  1.00  0.00     0.032 C 
BRANCH   6   7
ATOM      7  C   UNL     1      10.461 -18.997  10.802  1.00  0.00    -0.028 C 
ATOM      8  C   UNL     1      10.744 -20.126   8.638  1.00  0.00     0.039 C 
ATOM      9  C   UNL     1      11.305 -19.366   9.812  1.00  0.00    -0.080 C 
ATOM     10  C   UNL     1      12.776 -19.024   9.845  1.00  0.00     0.039 C 
ENDBRANCH   6   7
ENDBRANCH   5   6
ENDBRANCH   3   5
ENDBRANCH   1   2
BRANCH   1  11
ATOM     11  C   UNL     1      11.075 -16.407  16.563  1.00  0.00     0.034 C 
BRANCH  11  12
ATOM     12  C   UNL     1      10.487 -15.140  17.151  1.00  0.00    -0.077 C 
ATOM     13  C   UNL     1      10.970 -13.941  16.758  1.00  0.00    -0.028 C 
ATOM     14  C   UNL     1       9.379 -15.246  18.172  1.00  0.00     0.039 C 
BRANCH  13  15
ATOM     15  C   UNL     1      10.457 -12.629  17.300  1.00  0.00     0.035 C 
BRANCH  15  16
ATOM     16  C   UNL     1      11.570 -11.847  18.005  1.00  0.00     0.079 C 
BRANCH  16  17
ATOM     17  C   UNL     1      11.076 -10.498  18.450  1.00  0.00     0.130 C 
ATOM     18  O   UNL     1      11.851  -9.706  18.964  1.00  0.00    -0.300 OA
ATOM     19  C   UNL     1       9.634 -10.126  18.287  1.00  0.00     0.087 C 
ENDBRANCH  16  17
ENDBRANCH  15  16
ENDBRANCH  13  15
ENDBRANCH  11  12
ENDBRANCH   1  11
TORSDOF 9
ENDMDL
MODEL 8
REMARK VINA RESULT:    -5.529      1.643      2.816
REMARK INTER + INTRA:          -9.514
REMARK INTER:                  -7.862
REMARK INTRA:                  -1.652
REMARK UNBOUND:                -1.076
REMARK SMILES CC(=O)CCC=C(C)CCC=C(C)CCC=C(C)C
REMARK SMILES IDX 10 1 11 2 12 3 13 4 14 5 15 6 16 7 18 8 17 9 19 10 9 11 7 12
REMARK SMILES IDX 6 13 8 14 5 15 4 16 2 17 3 18 1 19
REMARK H PARENT
REMARK Flexibility Score: inf
ROOT
ATOM      1  C   UNL     1       9.757 -14.502  16.841  1.00  0.00     0.032 C 
ENDROOT
BRANCH   1   2
ATOM      2  C   UNL     1      10.407 -15.866  16.824  1.00  0.00    -0.028 C 
ATOM      3  C   UNL     1      11.543 -16.168  16.155  1.00  0.00    -0.077 C 
ATOM      4  C   UNL     1      12.325 -15.122  15.396  1.00  0.00     0.039 C 
BRANCH   3   5
ATOM      5  C   UNL     1      12.042 -17.596  16.171  1.00  0.00     0.034 C 
BRANCH   5   6
ATOM      6  C   UNL     1      12.837 -17.914  14.898  1.00  0.00     0.032 C 
BRANCH   6   7
ATOM      7  C   UNL     1      11.983 -18.666  13.909  1.00  0.00    -0.028 C 
ATOM      8  C   UNL     1      10.825 -19.089  11.783  1.00  0.00     0.039 C 
ATOM      9  C   UNL     1      11.657 -18.208  12.679  1.00  0.00    -0.080 C 
ATOM     10  C   UNL     1      12.085 -16.843  12.193  1.00  0.00     0.039 C 
ENDBRANCH   6   7
ENDBRANCH   5   6
ENDBRANCH   3   5
ENDBRANCH   1   2
BRANCH   1  11
ATOM     11  C   UNL     1      10.025 -13.763  18.159  1.00  0.00     0.034 C 
BRANCH  11  12
ATOM     12  C   UNL     1      10.523 -12.351  17.924  1.00  0.00    -0.077 C 
ATOM     13  C   UNL     1      11.730 -12.162  17.348  1.00  0.00    -0.028 C 
ATOM     14  C   UNL     1       9.661 -11.185  18.348  1.00  0.00     0.039 C 
BRANCH  13  15
ATOM     15  C   UNL     1      12.313 -10.794  17.089  1.00  0.00     0.035 C 
BRANCH  15  16
ATOM     16  C   UNL     1      12.643 -10.604  15.604  1.00  0.00     0.079 C 
BRANCH  16  17
ATOM     17  C   UNL     1      11.417 -10.805  14.756  1.00  0.00     0.130 C 
ATOM     18  O   UNL     1      10.469 -10.043  14.869  1.00  0.00    -0.300 OA
ATOM     19  C   UNL     1      11.341 -11.947  13.789  1.00  0.00     0.087 C 
ENDBRANCH  16  17
ENDBRANCH  15  16
ENDBRANCH  13  15
ENDBRANCH  11  12
ENDBRANCH   1  11
TORSDOF 9
ENDMDL
MODEL 9
REMARK VINA RESULT:    -5.525      2.740      8.022
REMARK INTER + INTRA:          -9.508
REMARK INTER:                  -7.930
REMARK INTRA:                  -1.578
REMARK UNBOUND:                -1.076
REMARK SMILES CC(=O)CCC=C(C)CCC=C(C)CCC=C(C)C
REMARK SMILES IDX 10 1 11 2 12 3 13 4 14 5 15 6 16 7 18 8 17 9 19 10 9 11 7 12
REMARK SMILES IDX 6 13 8 14 5 15 4 16 2 17 3 18 1 19
REMARK H PARENT
REMARK Flexibility Score: inf
ROOT
ATOM      1  C   UNL     1       9.806 -14.441  17.210  1.00  0.00     0.032 C 
ENDROOT
BRANCH   1   2
ATOM      2  C   UNL     1      10.936 -13.444  17.315  1.00  0.00    -0.028 C 
ATOM      3  C   UNL     1      11.458 -12.761  16.272  1.00  0.00    -0.077 C 
ATOM      4  C   UNL     1      10.897 -12.885  14.874  1.00  0.00     0.039 C 
BRANCH   3   5
ATOM      5  C   UNL     1      12.637 -11.845  16.515  1.00  0.00     0.034 C 
BRANCH   5   6
ATOM      6  C   UNL     1      12.217 -10.372  16.421  1.00  0.00     0.032 C 
BRANCH   6   7
ATOM      7  C   UNL     1      12.229  -9.725  17.782  1.00  0.00    -0.028 C 
ATOM      8  C   UNL     1      11.309  -8.934  19.918  1.00  0.00     0.039 C 
ATOM      9  C   UNL     1      11.137  -9.567  18.562  1.00  0.00    -0.080 C 
ATOM     10  C   UNL     1       9.759  -9.989  18.105  1.00  0.00     0.039 C 
ENDBRANCH   6   7
ENDBRANCH   5   6
ENDBRANCH   3   5
ENDBRANCH   1   2
BRANCH   1  11
ATOM     11  C   UNL     1      10.225 -15.828  17.717  1.00  0.00     0.034 C 
BRANCH  11  12
ATOM     12  C   UNL     1      11.272 -16.463  16.824  1.00  0.00    -0.077 C 
ATOM     13  C   UNL     1      11.092 -16.461  15.486  1.00  0.00    -0.028 C 
ATOM     14  C   UNL     1      12.492 -17.094  17.453  1.00  0.00     0.039 C 
BRANCH  13  15
ATOM     15  C   UNL     1      12.073 -17.082  14.521  1.00  0.00     0.035 C 
BRANCH  15  16
ATOM     16  C   UNL     1      11.677 -16.798  13.069  1.00  0.00     0.079 C 
BRANCH  16  17
ATOM     17  C   UNL     1      11.082 -18.023  12.429  1.00  0.00     0.130 C 
ATOM     18  O   UNL     1      10.139 -17.909  11.660  1.00  0.00    -0.300 OA
ATOM     19  C   UNL     1      11.623 -19.383  12.744  1.00  0.00     0.087 C 
ENDBRANCH  16  17
ENDBRANCH  15  16
ENDBRANCH  13  15
ENDBRANCH  11  12
ENDBRANCH   1  11
TORSDOF 9
ENDMDL
