MODEL 1
REMARK VINA RESULT:    -4.705      0.000      0.000
REMARK INTER + INTRA:          -4.842
REMARK INTER:                  -4.842
REMARK INTRA:                   0.000
REMARK UNBOUND:                 0.000
REMARK SMILES O=c1ccc2ccc(O)cc2o1
REMARK SMILES IDX 6 1 7 2 8 3 10 4 11 5 5 6 4 7 3 8 2 9 1 10 12 11 9 12
REMARK H PARENT 9 13
REMARK Flexibility Score: inf
ROOT
ATOM      1  C   UNL     1      -6.837   2.597  -9.909  1.00  0.00     0.016 A 
ATOM      2  C   UNL     1      -5.457   2.425  -9.752  1.00  0.00     0.047 A 
ATOM      3  C   UNL     1      -4.957   1.316  -9.052  1.00  0.00     0.119 A 
ATOM      4  C   UNL     1      -5.842   0.377  -8.507  1.00  0.00     0.094 A 
ATOM      5  C   UNL     1      -7.224   0.542  -8.659  1.00  0.00     0.142 A 
ATOM      6  C   UNL     1      -7.725   1.658  -9.365  1.00  0.00     0.018 A 
ATOM      7  C   UNL     1      -9.109   1.796  -9.500  1.00  0.00     0.019 A 
ATOM      8  C   UNL     1      -9.949   0.834  -8.940  1.00  0.00     0.094 A 
ATOM      9  C   UNL     1      -9.383  -0.246  -8.254  1.00  0.00     0.336 A 
ATOM     10  O   UNL     1     -10.125  -1.124  -7.742  1.00  0.00    -0.246 OA
ATOM     11  O   UNL     1      -8.062  -0.353  -8.140  1.00  0.00    -0.423 OA
ENDROOT
BRANCH   3  12
ATOM     12  O   UNL     1      -3.585   1.138  -8.892  1.00  0.00    -0.508 OA
ATOM     13  H   UNL     1      -3.050   0.550  -9.521  1.00  0.00     0.293 HD
ENDBRANCH   3  12
TORSDOF 1
ENDMDL
MODEL 2
REMARK VINA RESULT:    -4.495      1.737      4.507
REMARK INTER + INTRA:          -4.627
REMARK INTER:                  -4.627
REMARK INTRA:                   0.000
REMARK UNBOUND:                 0.000
REMARK SMILES O=c1ccc2ccc(O)cc2o1
REMARK SMILES IDX 6 1 7 2 8 3 10 4 11 5 5 6 4 7 3 8 2 9 1 10 12 11 9 12
REMARK H PARENT 9 13
REMARK Flexibility Score: inf
ROOT
ATOM      1  C   UNL     1      -8.231  -0.753  -9.926  1.00  0.00     0.016 A 
ATOM      2  C   UNL     1      -9.299   0.087  -9.587  1.00  0.00     0.047 A 
ATOM      3  C   UNL     1      -9.064   1.290  -8.903  1.00  0.00     0.119 A 
ATOM      4  C   UNL     1      -7.756   1.652  -8.557  1.00  0.00     0.094 A 
ATOM      5  C   UNL     1      -6.683   0.819  -8.891  1.00  0.00     0.142 A 
ATOM      6  C   UNL     1      -6.921  -0.391  -9.581  1.00  0.00     0.018 A 
ATOM      7  C   UNL     1      -5.830  -1.203  -9.900  1.00  0.00     0.019 A 
ATOM      8  C   UNL     1      -4.546  -0.798  -9.535  1.00  0.00     0.094 A 
ATOM      9  C   UNL     1      -4.385   0.413  -8.853  1.00  0.00     0.336 A 
ATOM     10  O   UNL     1      -3.235   0.795  -8.514  1.00  0.00    -0.246 OA
ATOM     11  O   UNL     1      -5.441   1.167  -8.560  1.00  0.00    -0.423 OA
ENDROOT
BRANCH   3  12
ATOM     12  O   UNL     1     -10.121   2.130  -8.563  1.00  0.00    -0.508 OA
ATOM     13  H   UNL     1     -10.807   2.423  -9.250  1.00  0.00     0.293 HD
ENDBRANCH   3  12
TORSDOF 1
ENDMDL
MODEL 3
REMARK VINA RESULT:    -4.394      2.223      5.043
REMARK INTER + INTRA:          -4.522
REMARK INTER:                  -4.522
REMARK INTRA:                   0.000
REMARK UNBOUND:                 0.000
REMARK SMILES O=c1ccc2ccc(O)cc2o1
REMARK SMILES IDX 6 1 7 2 8 3 10 4 11 5 5 6 4 7 3 8 2 9 1 10 12 11 9 12
REMARK H PARENT 9 13
REMARK Flexibility Score: inf
ROOT
ATOM      1  C   UNL     1      -6.645   0.281  -8.256  1.00  0.00     0.016 A 
ATOM      2  C   UNL     1      -7.644   1.137  -8.731  1.00  0.00     0.047 A 
ATOM      3  C   UNL     1      -7.330   2.151  -9.649  1.00  0.00     0.119 A 
ATOM      4  C   UNL     1      -6.011   2.309 -10.091  1.00  0.00     0.094 A 
ATOM      5  C   UNL     1      -5.005   1.457  -9.622  1.00  0.00     0.142 A 
ATOM      6  C   UNL     1      -5.323   0.436  -8.699  1.00  0.00     0.018 A 
ATOM      7  C   UNL     1      -4.297  -0.399  -8.248  1.00  0.00     0.019 A 
ATOM      8  C   UNL     1      -2.999  -0.203  -8.719  1.00  0.00     0.094 A 
ATOM      9  C   UNL     1      -2.757   0.829  -9.633  1.00  0.00     0.336 A 
ATOM     10  O   UNL     1      -1.593   1.021 -10.068  1.00  0.00    -0.246 OA
ATOM     11  O   UNL     1      -3.752   1.609 -10.046  1.00  0.00    -0.423 OA
ENDROOT
BRANCH   3  12
ATOM     12  O   UNL     1      -8.320   3.008 -10.125  1.00  0.00    -0.508 OA
ATOM     13  H   UNL     1      -8.327   3.326 -11.088  1.00  0.00     0.293 HD
ENDBRANCH   3  12
TORSDOF 1
ENDMDL
MODEL 4
REMARK VINA RESULT:    -4.294     10.346     11.115
REMARK INTER + INTRA:          -4.419
REMARK INTER:                  -4.419
REMARK INTRA:                   0.000
REMARK UNBOUND:                 0.000
REMARK SMILES O=c1ccc2ccc(O)cc2o1
REMARK SMILES IDX 6 1 7 2 8 3 10 4 11 5 5 6 4 7 3 8 2 9 1 10 12 11 9 12
REMARK H PARENT 9 13
REMARK Flexibility Score: inf
ROOT
ATOM      1  C   UNL     1      -0.116   0.905  -0.192  1.00  0.00     0.016 A 
ATOM      2  C   UNL     1       1.058   0.145  -0.247  1.00  0.00     0.047 A 
ATOM      3  C   UNL     1       1.017  -1.237  -0.007  1.00  0.00     0.119 A 
ATOM      4  C   UNL     1      -0.201  -1.860   0.290  1.00  0.00     0.094 A 
ATOM      5  C   UNL     1      -1.380  -1.107   0.347  1.00  0.00     0.142 A 
ATOM      6  C   UNL     1      -1.338   0.284   0.104  1.00  0.00     0.018 A 
ATOM      7  C   UNL     1      -2.531   1.009   0.169  1.00  0.00     0.019 A 
ATOM      8  C   UNL     1      -3.720   0.344   0.467  1.00  0.00     0.094 A 
ATOM      9  C   UNL     1      -3.687  -1.036   0.696  1.00  0.00     0.336 A 
ATOM     10  O   UNL     1      -4.749  -1.654   0.967  1.00  0.00    -0.246 OA
ATOM     11  O   UNL     1      -2.537  -1.703   0.629  1.00  0.00    -0.423 OA
ENDROOT
BRANCH   3  12
ATOM     12  O   UNL     1       2.182  -2.000  -0.060  1.00  0.00    -0.508 OA
ATOM     13  H   UNL     1       2.967  -1.728  -0.641  1.00  0.00     0.293 HD
ENDBRANCH   3  12
TORSDOF 1
ENDMDL
MODEL 5
REMARK VINA RESULT:    -4.288      1.629      2.157
REMARK INTER + INTRA:          -4.414
REMARK INTER:                  -4.414
REMARK INTRA:                   0.000
REMARK UNBOUND:                 0.000
REMARK SMILES O=c1ccc2ccc(O)cc2o1
REMARK SMILES IDX 6 1 7 2 8 3 10 4 11 5 5 6 4 7 3 8 2 9 1 10 12 11 9 12
REMARK H PARENT 9 13
REMARK Flexibility Score: inf
ROOT
ATOM      1  C   UNL     1      -5.736  -1.121 -10.118  1.00  0.00     0.016 A 
ATOM      2  C   UNL     1      -4.468  -0.750  -9.658  1.00  0.00     0.047 A 
ATOM      3  C   UNL     1      -4.331   0.284  -8.718  1.00  0.00     0.119 A 
ATOM      4  C   UNL     1      -5.468   0.947  -8.239  1.00  0.00     0.094 A 
ATOM      5  C   UNL     1      -6.740   0.581  -8.694  1.00  0.00     0.142 A 
ATOM      6  C   UNL     1      -6.875  -0.459  -9.639  1.00  0.00     0.018 A 
ATOM      7  C   UNL     1      -8.158  -0.802 -10.076  1.00  0.00     0.019 A 
ATOM      8  C   UNL     1      -9.259  -0.112  -9.569  1.00  0.00     0.094 A 
ATOM      9  C   UNL     1      -9.050   0.908  -8.634  1.00  0.00     0.336 A 
ATOM     10  O   UNL     1     -10.031   1.542  -8.166  1.00  0.00    -0.246 OA
ATOM     11  O   UNL     1      -7.818   1.214  -8.236  1.00  0.00    -0.423 OA
ENDROOT
BRANCH   3  12
ATOM     12  O   UNL     1      -3.072   0.659  -8.255  1.00  0.00    -0.508 OA
ATOM     13  H   UNL     1      -2.891   0.799  -7.267  1.00  0.00     0.293 HD
ENDBRANCH   3  12
TORSDOF 1
ENDMDL
MODEL 6
REMARK VINA RESULT:    -4.271      1.986      4.592
REMARK INTER + INTRA:          -4.396
REMARK INTER:                  -4.396
REMARK INTRA:                   0.000
REMARK UNBOUND:                 0.000
REMARK SMILES O=c1ccc2ccc(O)cc2o1
REMARK SMILES IDX 6 1 7 2 8 3 10 4 11 5 5 6 4 7 3 8 2 9 1 10 12 11 9 12
REMARK H PARENT 9 13
REMARK Flexibility Score: inf
ROOT
ATOM      1  C   UNL     1      -5.169   2.385 -10.000  1.00  0.00     0.016 A 
ATOM      2  C   UNL     1      -6.469   2.584  -9.520  1.00  0.00     0.047 A 
ATOM      3  C   UNL     1      -7.076   1.618  -8.702  1.00  0.00     0.119 A 
ATOM      4  C   UNL     1      -6.381   0.450  -8.366  1.00  0.00     0.094 A 
ATOM      5  C   UNL     1      -5.081   0.243  -8.843  1.00  0.00     0.142 A 
ATOM      6  C   UNL     1      -4.471   1.217  -9.664  1.00  0.00     0.018 A 
ATOM      7  C   UNL     1      -3.172   0.982 -10.125  1.00  0.00     0.019 A 
ATOM      8  C   UNL     1      -2.521  -0.197  -9.762  1.00  0.00     0.094 A 
ATOM      9  C   UNL     1      -3.187  -1.117  -8.945  1.00  0.00     0.336 A 
ATOM     10  O   UNL     1      -2.616  -2.186  -8.607  1.00  0.00    -0.246 OA
ATOM     11  O   UNL     1      -4.423  -0.869  -8.520  1.00  0.00    -0.423 OA
ENDROOT
BRANCH   3  12
ATOM     12  O   UNL     1      -8.369   1.809  -8.221  1.00  0.00    -0.508 OA
ATOM     13  H   UNL     1      -8.684   1.372  -7.362  1.00  0.00     0.293 HD
ENDBRANCH   3  12
TORSDOF 1
ENDMDL
MODEL 7
REMARK VINA RESULT:    -4.213      2.741      4.081
REMARK INTER + INTRA:          -4.336
REMARK INTER:                  -4.336
REMARK INTRA:                   0.000
REMARK UNBOUND:                 0.000
REMARK SMILES O=c1ccc2ccc(O)cc2o1
REMARK SMILES IDX 6 1 7 2 8 3 10 4 11 5 5 6 4 7 3 8 2 9 1 10 12 11 9 12
REMARK H PARENT 9 13
REMARK Flexibility Score: inf
ROOT
ATOM      1  C   UNL     1      -5.802  -1.715 -10.081  1.00  0.00     0.016 A 
ATOM      2  C   UNL     1      -4.750  -2.593  -9.795  1.00  0.00     0.047 A 
ATOM      3  C   UNL     1      -3.624  -2.141  -9.089  1.00  0.00     0.119 A 
ATOM      4  C   UNL     1      -3.551  -0.806  -8.671  1.00  0.00     0.094 A 
ATOM      5  C   UNL     1      -4.598   0.078  -8.954  1.00  0.00     0.142 A 
ATOM      6  C   UNL     1      -5.731  -0.379  -9.663  1.00  0.00     0.018 A 
ATOM      7  C   UNL     1      -6.761   0.527  -9.931  1.00  0.00     0.019 A 
ATOM      8  C   UNL     1      -6.642   1.846  -9.493  1.00  0.00     0.094 A 
ATOM      9  C   UNL     1      -5.491   2.229  -8.796  1.00  0.00     0.336 A 
ATOM     10  O   UNL     1      -5.365   3.414  -8.393  1.00  0.00    -0.246 OA
ATOM     11  O   UNL     1      -4.525   1.346  -8.554  1.00  0.00    -0.423 OA
ENDROOT
BRANCH   3  12
ATOM     12  O   UNL     1      -2.574  -3.009  -8.801  1.00  0.00    -0.508 OA
ATOM     13  H   UNL     1      -2.344  -3.784  -9.412  1.00  0.00     0.293 HD
ENDBRANCH   3  12
TORSDOF 1
ENDMDL
MODEL 8
REMARK VINA RESULT:    -4.195      2.093      3.315
REMARK INTER + INTRA:          -4.318
REMARK INTER:                  -4.318
REMARK INTRA:                   0.000
REMARK UNBOUND:                 0.000
REMARK SMILES O=c1ccc2ccc(O)cc2o1
REMARK SMILES IDX 6 1 7 2 8 3 10 4 11 5 5 6 4 7 3 8 2 9 1 10 12 11 9 12
REMARK H PARENT 9 13
REMARK Flexibility Score: inf
ROOT
ATOM      1  C   UNL     1      -3.122   0.926 -10.125  1.00  0.00     0.016 A 
ATOM      2  C   UNL     1      -2.421  -0.241  -9.799  1.00  0.00     0.047 A 
ATOM      3  C   UNL     1      -3.020  -1.226  -8.999  1.00  0.00     0.119 A 
ATOM      4  C   UNL     1      -4.324  -1.041  -8.522  1.00  0.00     0.094 A 
ATOM      5  C   UNL     1      -5.032   0.122  -8.843  1.00  0.00     0.142 A 
ATOM      6  C   UNL     1      -4.428   1.112  -9.650  1.00  0.00     0.018 A 
ATOM      7  C   UNL     1      -5.160   2.264  -9.953  1.00  0.00     0.019 A 
ATOM      8  C   UNL     1      -6.456   2.401  -9.455  1.00  0.00     0.094 A 
ATOM      9  C   UNL     1      -6.990   1.379  -8.662  1.00  0.00     0.336 A 
ATOM     10  O   UNL     1      -8.157   1.485  -8.204  1.00  0.00    -0.246 OA
ATOM     11  O   UNL     1      -6.272   0.294  -8.389  1.00  0.00    -0.423 OA
ENDROOT
BRANCH   3  12
ATOM     12  O   UNL     1      -2.328  -2.389  -8.670  1.00  0.00    -0.508 OA
ATOM     13  H   UNL     1      -1.358  -2.520  -8.933  1.00  0.00     0.293 HD
ENDBRANCH   3  12
TORSDOF 1
ENDMDL
