MODEL 1
REMARK VINA RESULT:    -3.323      0.000      0.000
REMARK INTER + INTRA:          -7.922
REMARK INTER:                  -6.431
REMARK INTRA:                  -1.490
REMARK UNBOUND:                -1.490
REMARK SMILES CCCCCCCCCCCCCCCCCC(=O)[O-]
REMARK SMILES IDX 10 1 11 2 12 3 13 4 14 5 15 6 16 7 17 8 18 9 19 10 20 11
REMARK SMILES IDX 9 12 8 13 7 14 6 15 5 16 4 17 3 18 2 19 1 20
REMARK H PARENT
REMARK Flexibility Score: inf
ROOT
ATOM      1  C   UNL     1       7.639  -6.575   3.449  1.00  0.00     0.000 C 
ENDROOT
BRANCH   1   2
ATOM      2  C   UNL     1       8.623  -5.842   4.376  1.00  0.00     0.000 C 
BRANCH   2   3
ATOM      3  C   UNL     1       9.849  -5.296   3.628  1.00  0.00     0.000 C 
BRANCH   3   4
ATOM      4  C   UNL     1      11.140  -5.951   4.143  1.00  0.00     0.000 C 
BRANCH   4   5
ATOM      5  C   UNL     1      12.342  -5.702   3.219  1.00  0.00     0.000 C 
BRANCH   5   6
ATOM      6  C   UNL     1      13.662  -5.544   3.990  1.00  0.00     0.000 C 
BRANCH   6   7
ATOM      7  C   UNL     1      14.867  -5.670   3.046  1.00  0.00     0.006 C 
BRANCH   7   8
ATOM      8  C   UNL     1      16.160  -5.137   3.678  1.00  0.00     0.053 C 
BRANCH   8   9
ATOM      9  C   UNL     1      16.556  -5.931   4.885  1.00  0.00     0.041 C 
ATOM     10  O   UNL     1      16.501  -5.410   6.031  1.00  0.00    -0.550 OA
ATOM     11  O   UNL     1      16.954  -7.255   4.748  1.00  0.00    -0.550 OA
ENDBRANCH   8   9
ENDBRANCH   7   8
ENDBRANCH   6   7
ENDBRANCH   5   6
ENDBRANCH   4   5
ENDBRANCH   3   4
ENDBRANCH   2   3
ENDBRANCH   1   2
BRANCH   1  12
ATOM     12  C   UNL     1       6.423  -5.709   3.075  1.00  0.00     0.000 C 
BRANCH  12  13
ATOM     13  C   UNL     1       5.454  -5.493   4.253  1.00  0.00    -0.000 C 
BRANCH  13  14
ATOM     14  C   UNL     1       4.008  -5.968   4.014  1.00  0.00    -0.000 C 
BRANCH  14  15
ATOM     15  C   UNL     1       3.932  -7.367   3.381  1.00  0.00    -0.000 C 
BRANCH  15  16
ATOM     16  C   UNL     1       3.013  -8.330   4.156  1.00  0.00    -0.000 C 
BRANCH  16  17
ATOM     17  C   UNL     1       3.738  -9.322   5.085  1.00  0.00    -0.000 C 
BRANCH  17  18
ATOM     18  C   UNL     1       5.256  -9.377   4.837  1.00  0.00    -0.000 C 
BRANCH  18  19
ATOM     19  C   UNL     1       6.064  -8.788   6.003  1.00  0.00    -0.003 C 
ATOM     20  C   UNL     1       5.175  -8.255   7.127  1.00  0.00     0.004 C 
ENDBRANCH  18  19
ENDBRANCH  17  18
ENDBRANCH  16  17
ENDBRANCH  15  16
ENDBRANCH  14  15
ENDBRANCH  13  14
ENDBRANCH  12  13
ENDBRANCH   1  12
TORSDOF 16
ENDMDL
MODEL 2
REMARK VINA RESULT:    -3.308      1.418      2.122
REMARK INTER + INTRA:          -7.893
REMARK INTER:                  -6.466
REMARK INTRA:                  -1.426
REMARK UNBOUND:                -1.490
REMARK SMILES CCCCCCCCCCCCCCCCCC(=O)[O-]
REMARK SMILES IDX 10 1 11 2 12 3 13 4 14 5 15 6 16 7 17 8 18 9 19 10 20 11
REMARK SMILES IDX 9 12 8 13 7 14 6 15 5 16 4 17 3 18 2 19 1 20
REMARK H PARENT
REMARK Flexibility Score: inf
ROOT
ATOM      1  C   UNL     1       9.305  -6.383   3.020  1.00  0.00     0.000 C 
ENDROOT
BRANCH   1   2
ATOM      2  C   UNL     1      10.643  -5.630   2.932  1.00  0.00     0.000 C 
BRANCH   2   3
ATOM      3  C   UNL     1      11.847  -6.515   3.290  1.00  0.00     0.000 C 
BRANCH   3   4
ATOM      4  C   UNL     1      12.297  -6.268   4.739  1.00  0.00     0.000 C 
BRANCH   4   5
ATOM      5  C   UNL     1      13.580  -5.429   4.827  1.00  0.00     0.000 C 
BRANCH   5   6
ATOM      6  C   UNL     1      13.966  -4.790   3.484  1.00  0.00     0.000 C 
BRANCH   6   7
ATOM      7  C   UNL     1      15.398  -5.177   3.084  1.00  0.00     0.006 C 
BRANCH   7   8
ATOM      8  C   UNL     1      15.686  -6.665   3.319  1.00  0.00     0.053 C 
BRANCH   8   9
ATOM      9  C   UNL     1      16.896  -6.868   4.179  1.00  0.00     0.041 C 
ATOM     10  O   UNL     1      16.949  -6.357   5.329  1.00  0.00    -0.550 OA
ATOM     11  O   UNL     1      17.951  -7.647   3.722  1.00  0.00    -0.550 OA
ENDBRANCH   8   9
ENDBRANCH   7   8
ENDBRANCH   6   7
ENDBRANCH   5   6
ENDBRANCH   4   5
ENDBRANCH   3   4
ENDBRANCH   2   3
ENDBRANCH   1   2
BRANCH   1  12
ATOM     12  C   UNL     1       8.253  -5.625   3.849  1.00  0.00     0.000 C 
BRANCH  12  13
ATOM     13  C   UNL     1       7.158  -4.975   2.980  1.00  0.00    -0.000 C 
BRANCH  13  14
ATOM     14  C   UNL     1       5.751  -5.583   3.128  1.00  0.00    -0.000 C 
BRANCH  14  15
ATOM     15  C   UNL     1       4.832  -4.754   4.041  1.00  0.00    -0.000 C 
BRANCH  15  16
ATOM     16  C   UNL     1       4.364  -5.528   5.287  1.00  0.00    -0.000 C 
BRANCH  16  17
ATOM     17  C   UNL     1       5.488  -6.180   6.114  1.00  0.00    -0.000 C 
BRANCH  17  18
ATOM     18  C   UNL     1       5.220  -7.663   6.426  1.00  0.00    -0.000 C 
BRANCH  18  19
ATOM     19  C   UNL     1       6.341  -8.583   5.921  1.00  0.00    -0.003 C 
ATOM     20  C   UNL     1       6.117  -9.052   4.483  1.00  0.00     0.004 C 
ENDBRANCH  18  19
ENDBRANCH  17  18
ENDBRANCH  16  17
ENDBRANCH  15  16
ENDBRANCH  14  15
ENDBRANCH  13  14
ENDBRANCH  12  13
ENDBRANCH   1  12
TORSDOF 16
ENDMDL
MODEL 3
REMARK VINA RESULT:    -3.209      1.526      3.168
REMARK INTER + INTRA:          -7.702
REMARK INTER:                  -6.696
REMARK INTRA:                  -1.006
REMARK UNBOUND:                -1.490
REMARK SMILES CCCCCCCCCCCCCCCCCC(=O)[O-]
REMARK SMILES IDX 10 1 11 2 12 3 13 4 14 5 15 6 16 7 17 8 18 9 19 10 20 11
REMARK SMILES IDX 9 12 8 13 7 14 6 15 5 16 4 17 3 18 2 19 1 20
REMARK H PARENT
REMARK Flexibility Score: inf
ROOT
ATOM      1  C   UNL     1      11.536  -6.194   3.220  1.00  0.00     0.000 C 
ENDROOT
BRANCH   1   2
ATOM      2  C   UNL     1      12.221  -6.326   4.591  1.00  0.00     0.000 C 
BRANCH   2   3
ATOM      3  C   UNL     1      13.432  -5.391   4.742  1.00  0.00     0.000 C 
BRANCH   3   4
ATOM      4  C   UNL     1      13.871  -4.838   3.378  1.00  0.00     0.000 C 
BRANCH   4   5
ATOM      5  C   UNL     1      15.246  -5.363   2.939  1.00  0.00     0.000 C 
BRANCH   5   6
ATOM      6  C   UNL     1      15.943  -6.189   4.032  1.00  0.00     0.000 C 
BRANCH   6   7
ATOM      7  C   UNL     1      16.486  -7.507   3.461  1.00  0.00     0.006 C 
BRANCH   7   8
ATOM      8  C   UNL     1      17.785  -7.947   4.148  1.00  0.00     0.053 C 
BRANCH   8   9
ATOM      9  C   UNL     1      17.521  -8.604   5.469  1.00  0.00     0.041 C 
ATOM     10  O   UNL     1      17.681  -7.959   6.539  1.00  0.00    -0.550 OA
ATOM     11  O   UNL     1      17.067  -9.916   5.515  1.00  0.00    -0.550 OA
ENDBRANCH   8   9
ENDBRANCH   7   8
ENDBRANCH   6   7
ENDBRANCH   5   6
ENDBRANCH   4   5
ENDBRANCH   3   4
ENDBRANCH   2   3
ENDBRANCH   1   2
BRANCH   1  12
ATOM     12  C   UNL     1      10.338  -5.229   3.249  1.00  0.00     0.000 C 
BRANCH  12  13
ATOM     13  C   UNL     1       9.125  -5.800   4.009  1.00  0.00    -0.000 C 
BRANCH  13  14
ATOM     14  C   UNL     1       7.752  -5.507   3.377  1.00  0.00    -0.000 C 
BRANCH  14  15
ATOM     15  C   UNL     1       6.620  -6.356   3.979  1.00  0.00    -0.000 C 
BRANCH  15  16
ATOM     16  C   UNL     1       6.691  -6.453   5.514  1.00  0.00    -0.000 C 
BRANCH  16  17
ATOM     17  C   UNL     1       5.604  -7.328   6.167  1.00  0.00    -0.000 C 
BRANCH  17  18
ATOM     18  C   UNL     1       5.790  -8.829   5.882  1.00  0.00    -0.000 C 
BRANCH  18  19
ATOM     19  C   UNL     1       4.706  -9.389   4.949  1.00  0.00    -0.003 C 
ATOM     20  C   UNL     1       3.552  -8.410   4.730  1.00  0.00     0.004 C 
ENDBRANCH  18  19
ENDBRANCH  17  18
ENDBRANCH  16  17
ENDBRANCH  15  16
ENDBRANCH  14  15
ENDBRANCH  13  14
ENDBRANCH  12  13
ENDBRANCH   1  12
TORSDOF 16
ENDMDL
MODEL 4
REMARK VINA RESULT:    -3.209      4.346      9.860
REMARK INTER + INTRA:          -7.702
REMARK INTER:                  -6.768
REMARK INTRA:                  -0.933
REMARK UNBOUND:                -1.490
REMARK SMILES CCCCCCCCCCCCCCCCCC(=O)[O-]
REMARK SMILES IDX 10 1 11 2 12 3 13 4 14 5 15 6 16 7 17 8 18 9 19 10 20 11
REMARK SMILES IDX 9 12 8 13 7 14 6 15 5 16 4 17 3 18 2 19 1 20
REMARK H PARENT
REMARK Flexibility Score: inf
ROOT
ATOM      1  C   UNL     1      11.200  -5.178   2.928  1.00  0.00     0.000 C 
ENDROOT
BRANCH   1   2
ATOM      2  C   UNL     1       9.720  -4.766   2.977  1.00  0.00     0.000 C 
BRANCH   2   3
ATOM      3  C   UNL     1       8.896  -5.620   3.954  1.00  0.00     0.000 C 
BRANCH   3   4
ATOM      4  C   UNL     1       7.409  -5.610   3.571  1.00  0.00     0.000 C 
BRANCH   4   5
ATOM      5  C   UNL     1       6.786  -7.014   3.572  1.00  0.00     0.000 C 
BRANCH   5   6
ATOM      6  C   UNL     1       5.278  -6.995   3.869  1.00  0.00     0.000 C 
BRANCH   6   7
ATOM      7  C   UNL     1       5.011  -6.578   5.323  1.00  0.00     0.006 C 
BRANCH   7   8
ATOM      8  C   UNL     1       5.588  -7.580   6.331  1.00  0.00     0.053 C 
BRANCH   8   9
ATOM      9  C   UNL     1       4.598  -8.650   6.681  1.00  0.00     0.041 C 
ATOM     10  O   UNL     1       4.637  -9.202   7.812  1.00  0.00    -0.550 OA
ATOM     11  O   UNL     1       3.615  -9.013   5.769  1.00  0.00    -0.550 OA
ENDBRANCH   8   9
ENDBRANCH   7   8
ENDBRANCH   6   7
ENDBRANCH   5   6
ENDBRANCH   4   5
ENDBRANCH   3   4
ENDBRANCH   2   3
ENDBRANCH   1   2
BRANCH   1  12
ATOM     12  C   UNL     1      11.531  -6.311   3.915  1.00  0.00     0.000 C 
BRANCH  12  13
ATOM     13  C   UNL     1      13.025  -6.367   4.286  1.00  0.00    -0.000 C 
BRANCH  13  14
ATOM     14  C   UNL     1      13.784  -5.032   4.175  1.00  0.00    -0.000 C 
BRANCH  14  15
ATOM     15  C   UNL     1      14.963  -5.090   3.189  1.00  0.00    -0.000 C 
BRANCH  15  16
ATOM     16  C   UNL     1      15.971  -6.205   3.522  1.00  0.00    -0.000 C 
BRANCH  16  17
ATOM     17  C   UNL     1      16.711  -6.042   4.863  1.00  0.00    -0.000 C 
BRANCH  17  18
ATOM     18  C   UNL     1      17.289  -7.366   5.394  1.00  0.00    -0.000 C 
BRANCH  18  19
ATOM     19  C   UNL     1      17.258  -8.485   4.343  1.00  0.00    -0.003 C 
ATOM     20  C   UNL     1      16.899  -9.846   4.941  1.00  0.00     0.004 C 
ENDBRANCH  18  19
ENDBRANCH  17  18
ENDBRANCH  16  17
ENDBRANCH  15  16
ENDBRANCH  14  15
ENDBRANCH  13  14
ENDBRANCH  12  13
ENDBRANCH   1  12
TORSDOF 16
ENDMDL
MODEL 5
REMARK VINA RESULT:    -3.098      4.129      9.701
REMARK INTER + INTRA:          -7.485
REMARK INTER:                  -6.358
REMARK INTRA:                  -1.128
REMARK UNBOUND:                -1.490
REMARK SMILES CCCCCCCCCCCCCCCCCC(=O)[O-]
REMARK SMILES IDX 10 1 11 2 12 3 13 4 14 5 15 6 16 7 17 8 18 9 19 10 20 11
REMARK SMILES IDX 9 12 8 13 7 14 6 15 5 16 4 17 3 18 2 19 1 20
REMARK H PARENT
REMARK Flexibility Score: inf
ROOT
ATOM      1  C   UNL     1       8.957  -5.364   4.312  1.00  0.00     0.000 C 
ENDROOT
BRANCH   1   2
ATOM      2  C   UNL     1       7.851  -6.395   4.029  1.00  0.00     0.000 C 
BRANCH   2   3
ATOM      3  C   UNL     1       6.968  -6.672   5.255  1.00  0.00     0.000 C 
BRANCH   3   4
ATOM      4  C   UNL     1       6.357  -8.080   5.183  1.00  0.00     0.000 C 
BRANCH   4   5
ATOM      5  C   UNL     1       4.839  -8.057   4.949  1.00  0.00     0.000 C 
BRANCH   5   6
ATOM      6  C   UNL     1       4.467  -8.113   3.459  1.00  0.00     0.000 C 
BRANCH   6   7
ATOM      7  C   UNL     1       3.971  -6.746   2.965  1.00  0.00     0.006 C 
BRANCH   7   8
ATOM      8  C   UNL     1       3.369  -5.902   4.096  1.00  0.00     0.053 C 
BRANCH   8   9
ATOM      9  C   UNL     1       4.001  -4.546   4.175  1.00  0.00     0.041 C 
ATOM     10  O   UNL     1       5.035  -4.290   3.503  1.00  0.00    -0.550 OA
ATOM     11  O   UNL     1       3.429  -3.557   4.965  1.00  0.00    -0.550 OA
ENDBRANCH   8   9
ENDBRANCH   7   8
ENDBRANCH   6   7
ENDBRANCH   5   6
ENDBRANCH   4   5
ENDBRANCH   3   4
ENDBRANCH   2   3
ENDBRANCH   1   2
BRANCH   1  12
ATOM     12  C   UNL     1       9.924  -5.194   3.127  1.00  0.00     0.000 C 
BRANCH  12  13
ATOM     13  C   UNL     1      10.919  -6.363   2.993  1.00  0.00    -0.000 C 
BRANCH  13  14
ATOM     14  C   UNL     1      12.394  -6.008   3.259  1.00  0.00    -0.000 C 
BRANCH  14  15
ATOM     15  C   UNL     1      12.745  -5.983   4.756  1.00  0.00    -0.000 C 
BRANCH  15  16
ATOM     16  C   UNL     1      14.048  -5.218   5.056  1.00  0.00    -0.000 C 
BRANCH  16  17
ATOM     17  C   UNL     1      15.232  -5.549   4.128  1.00  0.00    -0.000 C 
BRANCH  17  18
ATOM     18  C   UNL     1      16.508  -5.933   4.897  1.00  0.00    -0.000 C 
BRANCH  18  19
ATOM     19  C   UNL     1      17.072  -7.293   4.459  1.00  0.00    -0.003 C 
ATOM     20  C   UNL     1      17.680  -8.081   5.621  1.00  0.00     0.004 C 
ENDBRANCH  18  19
ENDBRANCH  17  18
ENDBRANCH  16  17
ENDBRANCH  15  16
ENDBRANCH  14  15
ENDBRANCH  13  14
ENDBRANCH  12  13
ENDBRANCH   1  12
TORSDOF 16
ENDMDL
MODEL 6
REMARK VINA RESULT:    -3.096      4.315      9.842
REMARK INTER + INTRA:          -7.482
REMARK INTER:                  -6.442
REMARK INTRA:                  -1.040
REMARK UNBOUND:                -1.490
REMARK SMILES CCCCCCCCCCCCCCCCCC(=O)[O-]
REMARK SMILES IDX 10 1 11 2 12 3 13 4 14 5 15 6 16 7 17 8 18 9 19 10 20 11
REMARK SMILES IDX 9 12 8 13 7 14 6 15 5 16 4 17 3 18 2 19 1 20
REMARK H PARENT
REMARK Flexibility Score: inf
ROOT
ATOM      1  C   UNL     1      13.491  -5.039   3.897  1.00  0.00     0.000 C 
ENDROOT
BRANCH   1   2
ATOM      2  C   UNL     1      12.263  -5.223   2.990  1.00  0.00     0.000 C 
BRANCH   2   3
ATOM      3  C   UNL     1      11.197  -6.139   3.611  1.00  0.00     0.000 C 
BRANCH   3   4
ATOM      4  C   UNL     1       9.850  -5.410   3.728  1.00  0.00     0.000 C 
BRANCH   4   5
ATOM      5  C   UNL     1       8.677  -6.239   3.182  1.00  0.00     0.000 C 
BRANCH   5   6
ATOM      6  C   UNL     1       7.374  -6.012   3.965  1.00  0.00     0.000 C 
BRANCH   6   7
ATOM      7  C   UNL     1       6.734  -7.350   4.364  1.00  0.00     0.006 C 
BRANCH   7   8
ATOM      8  C   UNL     1       6.359  -7.395   5.851  1.00  0.00     0.053 C 
BRANCH   8   9
ATOM      9  C   UNL     1       5.415  -8.518   6.153  1.00  0.00     0.041 C 
ATOM     10  O   UNL     1       5.121  -9.355   5.258  1.00  0.00    -0.550 OA
ATOM     11  O   UNL     1       4.885  -8.659   7.429  1.00  0.00    -0.550 OA
ENDBRANCH   8   9
ENDBRANCH   7   8
ENDBRANCH   6   7
ENDBRANCH   5   6
ENDBRANCH   4   5
ENDBRANCH   3   4
ENDBRANCH   2   3
ENDBRANCH   1   2
BRANCH   1  12
ATOM     12  C   UNL     1      14.808  -5.403   3.189  1.00  0.00     0.000 C 
BRANCH  12  13
ATOM     13  C   UNL     1      16.005  -5.491   4.155  1.00  0.00    -0.000 C 
BRANCH  13  14
ATOM     14  C   UNL     1      17.374  -5.733   3.491  1.00  0.00    -0.000 C 
BRANCH  14  15
ATOM     15  C   UNL     1      17.770  -7.218   3.458  1.00  0.00    -0.000 C 
BRANCH  15  16
ATOM     16  C   UNL     1      17.276  -8.002   4.688  1.00  0.00    -0.000 C 
BRANCH  16  17
ATOM     17  C   UNL     1      17.264  -9.533   4.529  1.00  0.00    -0.000 C 
BRANCH  17  18
ATOM     18  C   UNL     1      15.849 -10.105   4.330  1.00  0.00    -0.000 C 
BRANCH  18  19
ATOM     19  C   UNL     1      14.891  -9.093   3.682  1.00  0.00    -0.003 C 
ATOM     20  C   UNL     1      13.434  -9.557   3.713  1.00  0.00     0.004 C 
ENDBRANCH  18  19
ENDBRANCH  17  18
ENDBRANCH  16  17
ENDBRANCH  15  16
ENDBRANCH  14  15
ENDBRANCH  13  14
ENDBRANCH  12  13
ENDBRANCH   1  12
TORSDOF 16
ENDMDL
MODEL 7
REMARK VINA RESULT:    -3.040      1.037      2.388
REMARK INTER + INTRA:          -7.375
REMARK INTER:                  -6.514
REMARK INTRA:                  -0.860
REMARK UNBOUND:                -1.490
REMARK SMILES CCCCCCCCCCCCCCCCCC(=O)[O-]
REMARK SMILES IDX 10 1 11 2 12 3 13 4 14 5 15 6 16 7 17 8 18 9 19 10 20 11
REMARK SMILES IDX 9 12 8 13 7 14 6 15 5 16 4 17 3 18 2 19 1 20
REMARK H PARENT
REMARK Flexibility Score: inf
ROOT
ATOM      1  C   UNL     1       8.165  -5.997   4.736  1.00  0.00     0.000 C 
ENDROOT
BRANCH   1   2
ATOM      2  C   UNL     1       8.740  -5.425   3.430  1.00  0.00     0.000 C 
BRANCH   2   3
ATOM      3  C   UNL     1       9.995  -6.173   2.954  1.00  0.00     0.000 C 
BRANCH   3   4
ATOM      4  C   UNL     1      11.225  -5.253   2.983  1.00  0.00     0.000 C 
BRANCH   4   5
ATOM      5  C   UNL     1      12.271  -5.693   4.018  1.00  0.00     0.000 C 
BRANCH   5   6
ATOM      6  C   UNL     1      13.636  -5.021   3.805  1.00  0.00     0.000 C 
BRANCH   6   7
ATOM      7  C   UNL     1      14.747  -6.071   3.654  1.00  0.00     0.006 C 
BRANCH   7   8
ATOM      8  C   UNL     1      16.136  -5.498   3.964  1.00  0.00     0.053 C 
BRANCH   8   9
ATOM      9  C   UNL     1      16.670  -6.012   5.266  1.00  0.00     0.041 C 
ATOM     10  O   UNL     1      16.537  -5.331   6.317  1.00  0.00    -0.550 OA
ATOM     11  O   UNL     1      17.286  -7.255   5.323  1.00  0.00    -0.550 OA
ENDBRANCH   8   9
ENDBRANCH   7   8
ENDBRANCH   6   7
ENDBRANCH   5   6
ENDBRANCH   4   5
ENDBRANCH   3   4
ENDBRANCH   2   3
ENDBRANCH   1   2
BRANCH   1  12
ATOM     12  C   UNL     1       7.024  -6.999   4.491  1.00  0.00     0.000 C 
BRANCH  12  13
ATOM     13  C   UNL     1       6.387  -7.515   5.796  1.00  0.00    -0.000 C 
BRANCH  13  14
ATOM     14  C   UNL     1       5.723  -8.902   5.704  1.00  0.00    -0.000 C 
BRANCH  14  15
ATOM     15  C   UNL     1       4.200  -8.827   5.502  1.00  0.00    -0.000 C 
BRANCH  15  16
ATOM     16  C   UNL     1       3.803  -8.318   4.103  1.00  0.00    -0.000 C 
BRANCH  16  17
ATOM     17  C   UNL     1       2.367  -7.771   3.988  1.00  0.00    -0.000 C 
BRANCH  17  18
ATOM     18  C   UNL     1       2.320  -6.243   3.816  1.00  0.00    -0.000 C 
BRANCH  18  19
ATOM     19  C   UNL     1       3.650  -5.567   4.182  1.00  0.00    -0.003 C 
ATOM     20  C   UNL     1       3.500  -4.066   4.432  1.00  0.00     0.004 C 
ENDBRANCH  18  19
ENDBRANCH  17  18
ENDBRANCH  16  17
ENDBRANCH  15  16
ENDBRANCH  14  15
ENDBRANCH  13  14
ENDBRANCH  12  13
ENDBRANCH   1  12
TORSDOF 16
ENDMDL
MODEL 8
REMARK VINA RESULT:    -2.974      2.114      3.967
REMARK INTER + INTRA:          -7.246
REMARK INTER:                  -6.193
REMARK INTRA:                  -1.053
REMARK UNBOUND:                -1.490
REMARK SMILES CCCCCCCCCCCCCCCCCC(=O)[O-]
REMARK SMILES IDX 10 1 11 2 12 3 13 4 14 5 15 6 16 7 17 8 18 9 19 10 20 11
REMARK SMILES IDX 9 12 8 13 7 14 6 15 5 16 4 17 3 18 2 19 1 20
REMARK H PARENT
REMARK Flexibility Score: inf
ROOT
ATOM      1  C   UNL     1      12.383  -6.777   4.746  1.00  0.00     0.000 C 
ENDROOT
BRANCH   1   2
ATOM      2  C   UNL     1      12.814  -7.244   3.346  1.00  0.00     0.000 C 
BRANCH   2   3
ATOM      3  C   UNL     1      13.008  -8.766   3.260  1.00  0.00     0.000 C 
BRANCH   3   4
ATOM      4  C   UNL     1      14.474  -9.114   2.960  1.00  0.00     0.000 C 
BRANCH   4   5
ATOM      5  C   UNL     1      15.072 -10.095   3.979  1.00  0.00     0.000 C 
BRANCH   5   6
ATOM      6  C   UNL     1      16.471  -9.675   4.458  1.00  0.00     0.000 C 
BRANCH   6   7
ATOM      7  C   UNL     1      16.905  -8.359   3.796  1.00  0.00     0.006 C 
BRANCH   7   8
ATOM      8  C   UNL     1      17.296  -7.290   4.825  1.00  0.00     0.053 C 
BRANCH   8   9
ATOM      9  C   UNL     1      16.665  -5.967   4.518  1.00  0.00     0.041 C 
ATOM     10  O   UNL     1      15.587  -5.634   5.078  1.00  0.00    -0.550 OA
ATOM     11  O   UNL     1      17.283  -5.088   3.638  1.00  0.00    -0.550 OA
ENDBRANCH   8   9
ENDBRANCH   7   8
ENDBRANCH   6   7
ENDBRANCH   5   6
ENDBRANCH   4   5
ENDBRANCH   3   4
ENDBRANCH   2   3
ENDBRANCH   1   2
BRANCH   1  12
ATOM     12  C   UNL     1      11.059  -5.994   4.727  1.00  0.00     0.000 C 
BRANCH  12  13
ATOM     13  C   UNL     1      10.433  -5.907   3.321  1.00  0.00    -0.000 C 
BRANCH  13  14
ATOM     14  C   UNL     1       9.103  -5.135   3.237  1.00  0.00    -0.000 C 
BRANCH  14  15
ATOM     15  C   UNL     1       7.871  -6.055   3.276  1.00  0.00    -0.000 C 
BRANCH  15  16
ATOM     16  C   UNL     1       7.477  -6.472   4.705  1.00  0.00    -0.000 C 
BRANCH  16  17
ATOM     17  C   UNL     1       5.963  -6.583   4.962  1.00  0.00    -0.000 C 
BRANCH  17  18
ATOM     18  C   UNL     1       5.613  -6.686   6.457  1.00  0.00    -0.000 C 
BRANCH  18  19
ATOM     19  C   UNL     1       5.196  -8.106   6.868  1.00  0.00    -0.003 C 
ATOM     20  C   UNL     1       4.751  -8.957   5.678  1.00  0.00     0.004 C 
ENDBRANCH  18  19
ENDBRANCH  17  18
ENDBRANCH  16  17
ENDBRANCH  15  16
ENDBRANCH  14  15
ENDBRANCH  13  14
ENDBRANCH  12  13
ENDBRANCH   1  12
TORSDOF 16
ENDMDL
MODEL 9
REMARK VINA RESULT:    -2.792      2.386      4.926
REMARK INTER + INTRA:          -6.894
REMARK INTER:                  -5.838
REMARK INTRA:                  -1.056
REMARK UNBOUND:                -1.490
REMARK SMILES CCCCCCCCCCCCCCCCCC(=O)[O-]
REMARK SMILES IDX 10 1 11 2 12 3 13 4 14 5 15 6 16 7 17 8 18 9 19 10 20 11
REMARK SMILES IDX 9 12 8 13 7 14 6 15 5 16 4 17 3 18 2 19 1 20
REMARK H PARENT
REMARK Flexibility Score: inf
ROOT
ATOM      1  C   UNL     1      13.505  -8.388   2.949  1.00  0.00     0.000 C 
ENDROOT
BRANCH   1   2
ATOM      2  C   UNL     1      13.608  -9.798   3.553  1.00  0.00     0.000 C 
BRANCH   2   3
ATOM      3  C   UNL     1      15.022 -10.125   4.061  1.00  0.00     0.000 C 
BRANCH   3   4
ATOM      4  C   UNL     1      16.038 -10.097   2.909  1.00  0.00     0.000 C 
BRANCH   4   5
ATOM      5  C   UNL     1      17.384  -9.483   3.320  1.00  0.00     0.000 C 
BRANCH   5   6
ATOM      6  C   UNL     1      17.487  -7.989   2.972  1.00  0.00     0.000 C 
BRANCH   6   7
ATOM      7  C   UNL     1      17.363  -7.122   4.234  1.00  0.00     0.006 C 
BRANCH   7   8
ATOM      8  C   UNL     1      16.000  -6.424   4.328  1.00  0.00     0.053 C 
BRANCH   8   9
ATOM      9  C   UNL     1      15.879  -5.609   5.580  1.00  0.00     0.041 C 
ATOM     10  O   UNL     1      16.876  -5.455   6.333  1.00  0.00    -0.550 OA
ATOM     11  O   UNL     1      14.674  -4.994   5.896  1.00  0.00    -0.550 OA
ENDBRANCH   8   9
ENDBRANCH   7   8
ENDBRANCH   6   7
ENDBRANCH   5   6
ENDBRANCH   4   5
ENDBRANCH   3   4
ENDBRANCH   2   3
ENDBRANCH   1   2
BRANCH   1  12
ATOM     12  C   UNL     1      12.742  -7.410   3.859  1.00  0.00     0.000 C 
BRANCH  12  13
ATOM     13  C   UNL     1      11.542  -6.746   3.156  1.00  0.00    -0.000 C 
BRANCH  13  14
ATOM     14  C   UNL     1      10.649  -5.873   4.057  1.00  0.00    -0.000 C 
BRANCH  14  15
ATOM     15  C   UNL     1       9.286  -5.551   3.421  1.00  0.00    -0.000 C 
BRANCH  15  16
ATOM     16  C   UNL     1       8.096  -6.017   4.279  1.00  0.00    -0.000 C 
BRANCH  16  17
ATOM     17  C   UNL     1       6.715  -5.890   3.609  1.00  0.00    -0.000 C 
BRANCH  17  18
ATOM     18  C   UNL     1       5.588  -6.545   4.428  1.00  0.00    -0.000 C 
BRANCH  18  19
ATOM     19  C   UNL     1       5.903  -6.591   5.930  1.00  0.00    -0.003 C 
ATOM     20  C   UNL     1       5.633  -7.963   6.548  1.00  0.00     0.004 C 
ENDBRANCH  18  19
ENDBRANCH  17  18
ENDBRANCH  16  17
ENDBRANCH  15  16
ENDBRANCH  14  15
ENDBRANCH  13  14
ENDBRANCH  12  13
ENDBRANCH   1  12
TORSDOF 16
ENDMDL
