MODEL 1
REMARK VINA RESULT:    -5.966      0.000      0.000
REMARK INTER + INTRA:          -6.915
REMARK INTER:                  -6.489
REMARK INTRA:                  -0.426
REMARK UNBOUND:                -0.426
REMARK SMILES C=C(C)[C@H]1CC[C@@]2(C)CC[C@]3(C)[C@@H](CC[C@H]4[C@@]5(C)CC[C@@H](O)C(C)(C)[C@H]5CC[C@@]43C)[C@@H]12
REMARK SMILES IDX 4 1 5 2 6 3 7 4 31 5 13 6 14 7 15 8 16 9 17 10 19 11 20 12
REMARK SMILES IDX 21 13 23 14 26 15 27 16 28 17 29 18 11 19 10 20 9 21 12 22
REMARK SMILES IDX 30 23 24 24 25 25 18 26 8 27 2 28 3 29 1 30 22 31
REMARK H PARENT 22 32
REMARK Flexibility Score: inf
ROOT
ATOM      1  C   UNL     1       1.935  24.544  27.606  1.00  0.00     0.018 C 
ATOM      2  C   UNL     1       2.043  26.021  27.247  1.00  0.00     0.009 C 
ATOM      3  C   UNL     1       3.368  26.474  27.843  1.00  0.00     0.008 C 
ATOM      4  C   UNL     1       3.693  25.521  29.033  1.00  0.00    -0.029 C 
ATOM      5  C   UNL     1       2.574  24.432  29.011  1.00  0.00     0.006 C 
ATOM      6  C   UNL     1       1.605  24.470  30.251  1.00  0.00    -0.000 C 
ATOM      7  C   UNL     1       0.569  25.625  30.211  1.00  0.00     0.005 C 
ATOM      8  C   UNL     1      -0.340  25.660  31.434  1.00  0.00     0.005 C 
ATOM      9  C   UNL     1       0.469  25.735  32.752  1.00  0.00     0.002 C 
ATOM     10  C   UNL     1      -0.400  26.206  34.031  1.00  0.00    -0.026 C 
ATOM     11  C   UNL     1      -1.884  25.726  33.947  1.00  0.00     0.010 C 
ATOM     12  C   UNL     1      -2.799  26.216  35.089  1.00  0.00     0.033 C 
ATOM     13  C   UNL     1      -2.086  26.476  36.440  1.00  0.00     0.120 C 
ATOM     14  C   UNL     1      -0.829  25.585  36.656  1.00  0.00    -0.006 C 
ATOM     15  C   UNL     1       0.219  25.787  35.455  1.00  0.00     0.003 C 
ATOM     16  C   UNL     1       1.259  24.631  35.435  1.00  0.00     0.005 C 
ATOM     17  C   UNL     1       2.178  24.652  34.228  1.00  0.00     0.008 C 
ATOM     18  C   UNL     1       1.398  24.480  32.887  1.00  0.00    -0.024 C 
ATOM     19  C   UNL     1       2.408  24.391  31.616  1.00  0.00    -0.024 C 
ATOM     20  C   UNL     1       3.537  25.505  31.647  1.00  0.00     0.008 C 
ATOM     21  C   UNL     1       3.754  26.326  30.361  1.00  0.00     0.007 C 
ATOM     22  C   UNL     1       3.145  23.006  31.645  1.00  0.00     0.012 C 
ATOM     23  C   UNL     1       0.544  23.167  32.968  1.00  0.00     0.012 C 
ATOM     24  C   UNL     1      -1.278  24.104  36.847  1.00  0.00     0.014 C 
ATOM     25  C   UNL     1      -0.160  26.026  37.986  1.00  0.00     0.014 C 
ATOM     26  C   UNL     1      -0.419  27.773  33.922  1.00  0.00     0.012 C 
ATOM     27  C   UNL     1       5.078  24.868  28.786  1.00  0.00     0.011 C 
ENDROOT
BRANCH   1  28
ATOM     28  C   UNL     1       0.575  23.867  27.416  1.00  0.00    -0.077 C 
ATOM     29  C   UNL     1       0.448  22.387  27.677  1.00  0.00     0.039 C 
ATOM     30  C   UNL     1      -0.487  24.505  26.892  1.00  0.00     0.008 C 
ENDBRANCH   1  28
BRANCH  13  31
ATOM     31  O   UNL     1      -2.989  26.402  37.524  1.00  0.00    -0.393 OA
ATOM     32  H   UNL     1      -3.343  25.479  37.597  1.00  0.00     0.210 HD
ENDBRANCH  13  31
TORSDOF 2
ENDMDL
MODEL 2
REMARK VINA RESULT:    -5.814      2.629      8.393
REMARK INTER + INTRA:          -6.749
REMARK INTER:                  -6.320
REMARK INTRA:                  -0.429
REMARK UNBOUND:                -0.426
REMARK SMILES C=C(C)[C@H]1CC[C@@]2(C)CC[C@]3(C)[C@@H](CC[C@H]4[C@@]5(C)CC[C@@H](O)C(C)(C)[C@H]5CC[C@@]43C)[C@@H]12
REMARK SMILES IDX 4 1 5 2 6 3 7 4 31 5 13 6 14 7 15 8 16 9 17 10 19 11 20 12
REMARK SMILES IDX 21 13 23 14 26 15 27 16 28 17 29 18 11 19 10 20 9 21 12 22
REMARK SMILES IDX 30 23 24 24 25 25 18 26 8 27 2 28 3 29 1 30 22 31
REMARK H PARENT 22 32
REMARK Flexibility Score: inf
ROOT
ATOM      1  C   UNL     1      -1.606  24.106  39.438  1.00  0.00     0.018 C 
ATOM      2  C   UNL     1      -2.003  25.520  39.846  1.00  0.00     0.009 C 
ATOM      3  C   UNL     1      -3.376  25.736  39.224  1.00  0.00     0.008 C 
ATOM      4  C   UNL     1      -3.483  24.788  37.991  1.00  0.00    -0.029 C 
ATOM      5  C   UNL     1      -2.177  23.933  38.011  1.00  0.00     0.006 C 
ATOM      6  C   UNL     1      -1.203  24.205  36.804  1.00  0.00    -0.000 C 
ATOM      7  C   UNL     1      -0.408  25.533  36.919  1.00  0.00     0.005 C 
ATOM      8  C   UNL     1       0.507  25.791  35.727  1.00  0.00     0.005 C 
ATOM      9  C   UNL     1      -0.268  25.763  34.387  1.00  0.00     0.002 C 
ATOM     10  C   UNL     1       0.525  26.443  33.154  1.00  0.00    -0.026 C 
ATOM     11  C   UNL     1       2.071  26.252  33.269  1.00  0.00     0.010 C 
ATOM     12  C   UNL     1       2.904  26.954  32.175  1.00  0.00     0.033 C 
ATOM     13  C   UNL     1       2.188  27.127  30.811  1.00  0.00     0.120 C 
ATOM     14  C   UNL     1       1.131  26.023  30.524  1.00  0.00    -0.006 C 
ATOM     15  C   UNL     1       0.034  25.973  31.697  1.00  0.00     0.003 C 
ATOM     16  C   UNL     1      -0.765  24.640  31.643  1.00  0.00     0.005 C 
ATOM     17  C   UNL     1      -1.702  24.436  32.820  1.00  0.00     0.008 C 
ATOM     18  C   UNL     1      -0.937  24.361  34.179  1.00  0.00    -0.024 C 
ATOM     19  C   UNL     1      -1.942  24.030  35.413  1.00  0.00    -0.024 C 
ATOM     20  C   UNL     1      -3.262  24.909  35.385  1.00  0.00     0.008 C 
ATOM     21  C   UNL     1      -3.664  25.620  36.691  1.00  0.00     0.007 C 
ATOM     22  C   UNL     1      -2.399  22.533  35.311  1.00  0.00     0.012 C 
ATOM     23  C   UNL     1       0.155  23.240  34.078  1.00  0.00     0.012 C 
ATOM     24  C   UNL     1       1.859  24.663  30.296  1.00  0.00     0.014 C 
ATOM     25  C   UNL     1       0.422  26.383  29.190  1.00  0.00     0.014 C 
ATOM     26  C   UNL     1       0.241  27.980  33.319  1.00  0.00     0.012 C 
ATOM     27  C   UNL     1      -4.722  23.874  38.170  1.00  0.00     0.011 C 
ENDROOT
BRANCH   1  28
ATOM     28  C   UNL     1      -0.147  23.694  39.647  1.00  0.00    -0.077 C 
ATOM     29  C   UNL     1       0.263  22.271  39.362  1.00  0.00     0.039 C 
ATOM     30  C   UNL     1       0.765  24.508  40.209  1.00  0.00     0.008 C 
ENDBRANCH   1  28
BRANCH  13  31
ATOM     31  O   UNL     1       3.115  27.271  29.756  1.00  0.00    -0.393 OA
ATOM     32  H   UNL     1       4.015  27.455  30.129  1.00  0.00     0.210 HD
ENDBRANCH  13  31
TORSDOF 2
ENDMDL
MODEL 3
REMARK VINA RESULT:    -5.706      2.478      5.405
REMARK INTER + INTRA:          -6.632
REMARK INTER:                  -6.247
REMARK INTRA:                  -0.385
REMARK UNBOUND:                -0.426
REMARK SMILES C=C(C)[C@H]1CC[C@@]2(C)CC[C@]3(C)[C@@H](CC[C@H]4[C@@]5(C)CC[C@@H](O)C(C)(C)[C@H]5CC[C@@]43C)[C@@H]12
REMARK SMILES IDX 4 1 5 2 6 3 7 4 31 5 13 6 14 7 15 8 16 9 17 10 19 11 20 12
REMARK SMILES IDX 21 13 23 14 26 15 27 16 28 17 29 18 11 19 10 20 9 21 12 22
REMARK SMILES IDX 30 23 24 24 25 25 18 26 8 27 2 28 3 29 1 30 22 31
REMARK H PARENT 22 32
REMARK Flexibility Score: inf
ROOT
ATOM      1  C   UNL     1       0.884  26.476  31.357  1.00  0.00     0.018 C 
ATOM      2  C   UNL     1       1.586  25.183  30.959  1.00  0.00     0.009 C 
ATOM      3  C   UNL     1       0.462  24.209  30.637  1.00  0.00     0.008 C 
ATOM      4  C   UNL     1      -0.798  24.673  31.428  1.00  0.00    -0.029 C 
ATOM      5  C   UNL     1      -0.388  26.018  32.108  1.00  0.00     0.006 C 
ATOM      6  C   UNL     1      -0.317  25.956  33.680  1.00  0.00    -0.000 C 
ATOM      7  C   UNL     1       0.937  25.225  34.229  1.00  0.00     0.005 C 
ATOM      8  C   UNL     1       0.972  25.151  35.751  1.00  0.00     0.005 C 
ATOM      9  C   UNL     1      -0.306  24.494  36.327  1.00  0.00     0.002 C 
ATOM     10  C   UNL     1      -0.156  23.994  37.857  1.00  0.00    -0.026 C 
ATOM     11  C   UNL     1       0.801  24.908  38.686  1.00  0.00     0.010 C 
ATOM     12  C   UNL     1       1.066  24.441  40.133  1.00  0.00     0.033 C 
ATOM     13  C   UNL     1      -0.084  23.634  40.787  1.00  0.00     0.120 C 
ATOM     14  C   UNL     1      -1.491  24.011  40.240  1.00  0.00    -0.006 C 
ATOM     15  C   UNL     1      -1.547  23.818  38.645  1.00  0.00     0.003 C 
ATOM     16  C   UNL     1      -2.771  24.566  38.046  1.00  0.00     0.005 C 
ATOM     17  C   UNL     1      -2.801  24.580  36.529  1.00  0.00     0.008 C 
ATOM     18  C   UNL     1      -1.571  25.325  35.920  1.00  0.00    -0.024 C 
ATOM     19  C   UNL     1      -1.676  25.428  34.301  1.00  0.00    -0.024 C 
ATOM     20  C   UNL     1      -2.088  24.056  33.621  1.00  0.00     0.008 C 
ATOM     21  C   UNL     1      -1.233  23.572  32.434  1.00  0.00     0.007 C 
ATOM     22  C   UNL     1      -2.795  26.465  33.928  1.00  0.00     0.012 C 
ATOM     23  C   UNL     1      -1.504  26.767  36.533  1.00  0.00     0.012 C 
ATOM     24  C   UNL     1      -1.851  25.455  40.704  1.00  0.00     0.014 C 
ATOM     25  C   UNL     1      -2.525  23.057  40.897  1.00  0.00     0.014 C 
ATOM     26  C   UNL     1       0.542  22.592  37.733  1.00  0.00     0.012 C 
ATOM     27  C   UNL     1      -1.957  24.913  30.426  1.00  0.00     0.011 C 
ENDROOT
BRANCH   1  28
ATOM     28  C   UNL     1       1.726  27.559  32.033  1.00  0.00    -0.077 C 
ATOM     29  C   UNL     1       1.055  28.825  32.506  1.00  0.00     0.039 C 
ATOM     30  C   UNL     1       3.068  27.498  32.103  1.00  0.00     0.008 C 
ENDBRANCH   1  28
BRANCH  13  31
ATOM     31  O   UNL     1      -0.022  23.696  42.197  1.00  0.00    -0.393 OA
ATOM     32  H   UNL     1      -0.901  23.981  42.554  1.00  0.00     0.210 HD
ENDBRANCH  13  31
TORSDOF 2
ENDMDL
MODEL 4
REMARK VINA RESULT:    -5.264      2.001      2.956
REMARK INTER + INTRA:          -6.151
REMARK INTER:                  -5.720
REMARK INTRA:                  -0.431
REMARK UNBOUND:                -0.426
REMARK SMILES C=C(C)[C@H]1CC[C@@]2(C)CC[C@]3(C)[C@@H](CC[C@H]4[C@@]5(C)CC[C@@H](O)C(C)(C)[C@H]5CC[C@@]43C)[C@@H]12
REMARK SMILES IDX 4 1 5 2 6 3 7 4 31 5 13 6 14 7 15 8 16 9 17 10 19 11 20 12
REMARK SMILES IDX 21 13 23 14 26 15 27 16 28 17 29 18 11 19 10 20 9 21 12 22
REMARK SMILES IDX 30 23 24 24 25 25 18 26 8 27 2 28 3 29 1 30 22 31
REMARK H PARENT 22 32
REMARK Flexibility Score: inf
ROOT
ATOM      1  C   UNL     1       2.284  26.149  29.297  1.00  0.00     0.018 C 
ATOM      2  C   UNL     1       1.543  27.334  28.690  1.00  0.00     0.009 C 
ATOM      3  C   UNL     1       1.876  28.511  29.596  1.00  0.00     0.008 C 
ATOM      4  C   UNL     1       2.230  27.933  31.000  1.00  0.00    -0.029 C 
ATOM      5  C   UNL     1       2.213  26.382  30.825  1.00  0.00     0.006 C 
ATOM      6  C   UNL     1       1.064  25.650  31.615  1.00  0.00    -0.000 C 
ATOM      7  C   UNL     1      -0.340  25.799  30.972  1.00  0.00     0.005 C 
ATOM      8  C   UNL     1      -1.442  25.109  31.768  1.00  0.00     0.005 C 
ATOM      9  C   UNL     1      -1.488  25.599  33.236  1.00  0.00     0.002 C 
ATOM     10  C   UNL     1      -2.867  25.249  34.003  1.00  0.00    -0.026 C 
ATOM     11  C   UNL     1      -3.490  23.902  33.515  1.00  0.00     0.010 C 
ATOM     12  C   UNL     1      -4.857  23.547  34.137  1.00  0.00     0.033 C 
ATOM     13  C   UNL     1      -5.099  24.105  35.562  1.00  0.00     0.120 C 
ATOM     14  C   UNL     1      -3.790  24.284  36.385  1.00  0.00    -0.006 C 
ATOM     15  C   UNL     1      -2.761  25.242  35.607  1.00  0.00     0.003 C 
ATOM     16  C   UNL     1      -1.329  25.099  36.196  1.00  0.00     0.005 C 
ATOM     17  C   UNL     1      -0.263  25.837  35.407  1.00  0.00     0.008 C 
ATOM     18  C   UNL     1      -0.126  25.297  33.949  1.00  0.00    -0.024 C 
ATOM     19  C   UNL     1       1.095  26.020  33.156  1.00  0.00    -0.024 C 
ATOM     20  C   UNL     1       1.098  27.596  33.336  1.00  0.00     0.008 C 
ATOM     21  C   UNL     1       1.220  28.453  32.061  1.00  0.00     0.007 C 
ATOM     22  C   UNL     1       2.458  25.502  33.735  1.00  0.00     0.012 C 
ATOM     23  C   UNL     1       0.134  23.751  34.009  1.00  0.00     0.012 C 
ATOM     24  C   UNL     1      -3.201  22.880  36.722  1.00  0.00     0.014 C 
ATOM     25  C   UNL     1      -4.169  24.948  37.737  1.00  0.00     0.014 C 
ATOM     26  C   UNL     1      -3.849  26.394  33.561  1.00  0.00     0.012 C 
ATOM     27  C   UNL     1       3.651  28.411  31.393  1.00  0.00     0.011 C 
ENDROOT
BRANCH   1  28
ATOM     28  C   UNL     1       1.912  24.751  28.799  1.00  0.00    -0.077 C 
ATOM     29  C   UNL     1       2.719  23.565  29.265  1.00  0.00     0.039 C 
ATOM     30  C   UNL     1       0.981  24.542  27.850  1.00  0.00     0.008 C 
ENDBRANCH   1  28
BRANCH  13  31
ATOM     31  O   UNL     1      -6.071  23.350  36.255  1.00  0.00    -0.393 OA
ATOM     32  H   UNL     1      -6.000  23.533  37.227  1.00  0.00     0.210 HD
ENDBRANCH  13  31
TORSDOF 2
ENDMDL
MODEL 5
REMARK VINA RESULT:    -5.218      2.540      8.020
REMARK INTER + INTRA:          -6.101
REMARK INTER:                  -5.670
REMARK INTRA:                  -0.432
REMARK UNBOUND:                -0.426
REMARK SMILES C=C(C)[C@H]1CC[C@@]2(C)CC[C@]3(C)[C@@H](CC[C@H]4[C@@]5(C)CC[C@@H](O)C(C)(C)[C@H]5CC[C@@]43C)[C@@H]12
REMARK SMILES IDX 4 1 5 2 6 3 7 4 31 5 13 6 14 7 15 8 16 9 17 10 19 11 20 12
REMARK SMILES IDX 21 13 23 14 26 15 27 16 28 17 29 18 11 19 10 20 9 21 12 22
REMARK SMILES IDX 30 23 24 24 25 25 18 26 8 27 2 28 3 29 1 30 22 31
REMARK H PARENT 22 32
REMARK Flexibility Score: inf
ROOT
ATOM      1  C   UNL     1      -0.815  24.554  38.360  1.00  0.00     0.018 C 
ATOM      2  C   UNL     1      -0.754  26.016  38.786  1.00  0.00     0.009 C 
ATOM      3  C   UNL     1      -2.056  26.625  38.285  1.00  0.00     0.008 C 
ATOM      4  C   UNL     1      -2.538  25.765  37.077  1.00  0.00    -0.029 C 
ATOM      5  C   UNL     1      -1.534  24.572  36.991  1.00  0.00     0.006 C 
ATOM      6  C   UNL     1      -0.633  24.572  35.700  1.00  0.00    -0.000 C 
ATOM      7  C   UNL     1       0.515  25.616  35.730  1.00  0.00     0.005 C 
ATOM      8  C   UNL     1       1.357  25.619  34.459  1.00  0.00     0.005 C 
ATOM      9  C   UNL     1       0.493  25.834  33.193  1.00  0.00     0.002 C 
ATOM     10  C   UNL     1       1.336  26.277  31.888  1.00  0.00    -0.026 C 
ATOM     11  C   UNL     1       2.767  25.650  31.868  1.00  0.00     0.010 C 
ATOM     12  C   UNL     1       3.666  26.100  30.697  1.00  0.00     0.033 C 
ATOM     13  C   UNL     1       2.913  26.492  29.400  1.00  0.00     0.120 C 
ATOM     14  C   UNL     1       1.563  25.740  29.219  1.00  0.00    -0.006 C 
ATOM     15  C   UNL     1       0.605  25.988  30.485  1.00  0.00     0.003 C 
ATOM     16  C   UNL     1      -0.543  24.940  30.517  1.00  0.00     0.005 C 
ATOM     17  C   UNL     1      -1.392  24.995  31.773  1.00  0.00     0.008 C 
ATOM     18  C   UNL     1      -0.564  24.685  33.060  1.00  0.00    -0.024 C 
ATOM     19  C   UNL     1      -1.510  24.637  34.381  1.00  0.00    -0.024 C 
ATOM     20  C   UNL     1      -2.521  25.856  34.460  1.00  0.00     0.008 C 
ATOM     21  C   UNL     1      -2.587  26.634  35.789  1.00  0.00     0.007 C 
ATOM     22  C   UNL     1      -2.384  23.334  34.336  1.00  0.00     0.012 C 
ATOM     23  C   UNL     1       0.147  23.299  32.876  1.00  0.00     0.012 C 
ATOM     24  C   UNL     1       1.849  24.232  28.942  1.00  0.00     0.014 C 
ATOM     25  C   UNL     1       0.873  26.307  27.949  1.00  0.00     0.014 C 
ATOM     26  C   UNL     1       1.519  27.828  32.060  1.00  0.00     0.012 C 
ATOM     27  C   UNL     1      -3.966  25.241  37.375  1.00  0.00     0.011 C 
ENDROOT
BRANCH   1  28
ATOM     28  C   UNL     1       0.478  23.739  38.445  1.00  0.00    -0.077 C 
ATOM     29  C   UNL     1       0.429  22.254  38.184  1.00  0.00     0.039 C 
ATOM     30  C   UNL     1       1.639  24.261  38.878  1.00  0.00     0.008 C 
ENDBRANCH   1  28
BRANCH  13  31
ATOM     31  O   UNL     1       3.746  26.380  28.265  1.00  0.00    -0.393 OA
ATOM     32  H   UNL     1       3.355  25.727  27.631  1.00  0.00     0.210 HD
ENDBRANCH  13  31
TORSDOF 2
ENDMDL
MODEL 6
REMARK VINA RESULT:    -5.196      2.706      7.819
REMARK INTER + INTRA:          -6.078
REMARK INTER:                  -5.648
REMARK INTRA:                  -0.430
REMARK UNBOUND:                -0.426
REMARK SMILES C=C(C)[C@H]1CC[C@@]2(C)CC[C@]3(C)[C@@H](CC[C@H]4[C@@]5(C)CC[C@@H](O)C(C)(C)[C@H]5CC[C@@]43C)[C@@H]12
REMARK SMILES IDX 4 1 5 2 6 3 7 4 31 5 13 6 14 7 15 8 16 9 17 10 19 11 20 12
REMARK SMILES IDX 21 13 23 14 26 15 27 16 28 17 29 18 11 19 10 20 9 21 12 22
REMARK SMILES IDX 30 23 24 24 25 25 18 26 8 27 2 28 3 29 1 30 22 31
REMARK H PARENT 22 32
REMARK Flexibility Score: inf
ROOT
ATOM      1  C   UNL     1      -0.983  24.990  37.091  1.00  0.00     0.018 C 
ATOM      2  C   UNL     1      -0.246  26.146  37.757  1.00  0.00     0.009 C 
ATOM      3  C   UNL     1      -0.884  27.402  37.179  1.00  0.00     0.008 C 
ATOM      4  C   UNL     1      -1.479  27.025  35.788  1.00  0.00    -0.029 C 
ATOM      5  C   UNL     1      -1.272  25.483  35.653  1.00  0.00     0.006 C 
ATOM      6  C   UNL     1      -0.259  25.059  34.526  1.00  0.00    -0.000 C 
ATOM      7  C   UNL     1       1.231  25.288  34.894  1.00  0.00     0.005 C 
ATOM      8  C   UNL     1       2.193  24.898  33.778  1.00  0.00     0.005 C 
ATOM      9  C   UNL     1       1.868  25.629  32.453  1.00  0.00     0.002 C 
ATOM     10  C   UNL     1       3.072  25.605  31.376  1.00  0.00    -0.026 C 
ATOM     11  C   UNL     1       3.916  24.293  31.461  1.00  0.00     0.010 C 
ATOM     12  C   UNL     1       5.142  24.238  30.524  1.00  0.00     0.033 C 
ATOM     13  C   UNL     1       5.008  25.055  29.214  1.00  0.00     0.120 C 
ATOM     14  C   UNL     1       3.540  25.189  28.717  1.00  0.00    -0.006 C 
ATOM     15  C   UNL     1       2.618  25.852  29.853  1.00  0.00     0.003 C 
ATOM     16  C   UNL     1       1.112  25.616  29.543  1.00  0.00     0.005 C 
ATOM     17  C   UNL     1       0.179  26.058  30.655  1.00  0.00     0.008 C 
ATOM     18  C   UNL     1       0.419  25.267  31.979  1.00  0.00    -0.024 C 
ATOM     19  C   UNL     1      -0.663  25.674  33.122  1.00  0.00    -0.024 C 
ATOM     20  C   UNL     1      -0.860  27.242  33.254  1.00  0.00     0.008 C 
ATOM     21  C   UNL     1      -0.783  27.848  34.669  1.00  0.00     0.007 C 
ATOM     22  C   UNL     1      -2.063  25.079  32.736  1.00  0.00     0.012 C 
ATOM     23  C   UNL     1       0.305  23.733  31.674  1.00  0.00     0.012 C 
ATOM     24  C   UNL     1       3.032  23.794  28.240  1.00  0.00     0.014 C 
ATOM     25  C   UNL     1       3.546  26.115  27.471  1.00  0.00     0.014 C 
ATOM     26  C   UNL     1       4.010  26.782  31.826  1.00  0.00     0.012 C 
ATOM     27  C   UNL     1      -2.992  27.363  35.784  1.00  0.00     0.011 C 
ENDROOT
BRANCH   1  28
ATOM     28  C   UNL     1      -0.375  23.593  37.227  1.00  0.00    -0.077 C 
ATOM     29  C   UNL     1      -1.150  22.401  36.722  1.00  0.00     0.039 C 
ATOM     30  C   UNL     1       0.764  23.358  37.903  1.00  0.00     0.008 C 
ENDBRANCH   1  28
BRANCH  13  31
ATOM     31  O   UNL     1       5.874  24.567  28.210  1.00  0.00    -0.393 OA
ATOM     32  H   UNL     1       6.458  25.302  27.892  1.00  0.00     0.210 HD
ENDBRANCH  13  31
TORSDOF 2
ENDMDL
MODEL 7
REMARK VINA RESULT:    -5.082      3.054      7.782
REMARK INTER + INTRA:          -5.954
REMARK INTER:                  -5.585
REMARK INTRA:                  -0.369
REMARK UNBOUND:                -0.426
REMARK SMILES C=C(C)[C@H]1CC[C@@]2(C)CC[C@]3(C)[C@@H](CC[C@H]4[C@@]5(C)CC[C@@H](O)C(C)(C)[C@H]5CC[C@@]43C)[C@@H]12
REMARK SMILES IDX 4 1 5 2 6 3 7 4 31 5 13 6 14 7 15 8 16 9 17 10 19 11 20 12
REMARK SMILES IDX 21 13 23 14 26 15 27 16 28 17 29 18 11 19 10 20 9 21 12 22
REMARK SMILES IDX 30 23 24 24 25 25 18 26 8 27 2 28 3 29 1 30 22 31
REMARK H PARENT 22 32
REMARK Flexibility Score: inf
ROOT
ATOM      1  C   UNL     1       0.422  25.945  34.967  1.00  0.00     0.018 C 
ATOM      2  C   UNL     1      -0.152  24.586  35.350  1.00  0.00     0.009 C 
ATOM      3  C   UNL     1       1.044  23.775  35.828  1.00  0.00     0.008 C 
ATOM      4  C   UNL     1       2.313  24.372  35.147  1.00  0.00    -0.029 C 
ATOM      5  C   UNL     1       1.813  25.630  34.369  1.00  0.00     0.006 C 
ATOM      6  C   UNL     1       1.917  25.509  32.802  1.00  0.00    -0.000 C 
ATOM      7  C   UNL     1       0.829  24.605  32.164  1.00  0.00     0.005 C 
ATOM      8  C   UNL     1       0.965  24.478  30.651  1.00  0.00     0.005 C 
ATOM      9  C   UNL     1       2.368  23.972  30.237  1.00  0.00     0.002 C 
ATOM     10  C   UNL     1       2.444  23.408  28.725  1.00  0.00    -0.026 C 
ATOM     11  C   UNL     1       1.474  24.164  27.762  1.00  0.00     0.010 C 
ATOM     12  C   UNL     1       1.423  23.619  26.318  1.00  0.00     0.033 C 
ATOM     13  C   UNL     1       2.728  22.947  25.821  1.00  0.00     0.120 C 
ATOM     14  C   UNL     1       4.010  23.519  26.490  1.00  0.00    -0.006 C 
ATOM     15  C   UNL     1       3.921  23.387  28.089  1.00  0.00     0.003 C 
ATOM     16  C   UNL     1       4.972  24.305  28.774  1.00  0.00     0.005 C 
ATOM     17  C   UNL     1       4.839  24.372  30.284  1.00  0.00     0.008 C 
ATOM     18  C   UNL     1       3.469  24.971  30.731  1.00  0.00    -0.024 C 
ATOM     19  C   UNL     1       3.389  25.140  32.346  1.00  0.00    -0.024 C 
ATOM     20  C   UNL     1       3.894  23.855  33.126  1.00  0.00     0.008 C 
ATOM     21  C   UNL     1       2.986  23.304  34.241  1.00  0.00     0.007 C 
ATOM     22  C   UNL     1       4.324  26.323  32.782  1.00  0.00     0.012 C 
ATOM     23  C   UNL     1       3.288  26.372  30.049  1.00  0.00     0.012 C 
ATOM     24  C   UNL     1       4.235  24.981  25.999  1.00  0.00     0.014 C 
ATOM     25  C   UNL     1       5.219  22.685  25.984  1.00  0.00     0.014 C 
ATOM     26  C   UNL     1       1.916  21.932  28.841  1.00  0.00     0.012 C 
ATOM     27  C   UNL     1       3.320  24.792  36.249  1.00  0.00     0.011 C 
ENDROOT
BRANCH   1  28
ATOM     28  C   UNL     1      -0.473  26.888  34.160  1.00  0.00    -0.077 C 
ATOM     29  C   UNL     1       0.094  28.195  33.665  1.00  0.00     0.039 C 
ATOM     30  C   UNL     1      -1.789  26.671  33.988  1.00  0.00     0.008 C 
ENDBRANCH   1  28
BRANCH  13  31
ATOM     31  O   UNL     1       2.808  22.954  24.411  1.00  0.00    -0.393 OA
ATOM     32  H   UNL     1       3.344  23.732  24.115  1.00  0.00     0.210 HD
ENDBRANCH  13  31
TORSDOF 2
ENDMDL
MODEL 8
REMARK VINA RESULT:    -5.009      1.508      3.474
REMARK INTER + INTRA:          -5.875
REMARK INTER:                  -5.443
REMARK INTRA:                  -0.432
REMARK UNBOUND:                -0.426
REMARK SMILES C=C(C)[C@H]1CC[C@@]2(C)CC[C@]3(C)[C@@H](CC[C@H]4[C@@]5(C)CC[C@@H](O)C(C)(C)[C@H]5CC[C@@]43C)[C@@H]12
REMARK SMILES IDX 4 1 5 2 6 3 7 4 31 5 13 6 14 7 15 8 16 9 17 10 19 11 20 12
REMARK SMILES IDX 21 13 23 14 26 15 27 16 28 17 29 18 11 19 10 20 9 21 12 22
REMARK SMILES IDX 30 23 24 24 25 25 18 26 8 27 2 28 3 29 1 30 22 31
REMARK H PARENT 22 32
REMARK Flexibility Score: inf
ROOT
ATOM      1  C   UNL     1       4.760  24.577  28.350  1.00  0.00     0.018 C 
ATOM      2  C   UNL     1       3.884  23.670  27.495  1.00  0.00     0.009 C 
ATOM      3  C   UNL     1       2.836  24.593  26.889  1.00  0.00     0.008 C 
ATOM      4  C   UNL     1       2.693  25.822  27.838  1.00  0.00    -0.029 C 
ATOM      5  C   UNL     1       3.787  25.628  28.936  1.00  0.00     0.006 C 
ATOM      6  C   UNL     1       3.219  25.361  30.380  1.00  0.00    -0.000 C 
ATOM      7  C   UNL     1       2.668  23.926  30.589  1.00  0.00     0.005 C 
ATOM      8  C   UNL     1       2.097  23.699  31.984  1.00  0.00     0.005 C 
ATOM      9  C   UNL     1       1.000  24.732  32.335  1.00  0.00     0.002 C 
ATOM     10  C   UNL     1       0.066  24.303  33.582  1.00  0.00    -0.026 C 
ATOM     11  C   UNL     1       0.848  23.470  34.647  1.00  0.00     0.010 C 
ATOM     12  C   UNL     1      -0.001  22.944  35.824  1.00  0.00     0.033 C 
ATOM     13  C   UNL     1      -1.230  23.814  36.191  1.00  0.00     0.120 C 
ATOM     14  C   UNL     1      -1.037  25.323  35.863  1.00  0.00    -0.006 C 
ATOM     15  C   UNL     1      -0.690  25.523  34.307  1.00  0.00     0.003 C 
ATOM     16  C   UNL     1      -0.100  26.939  34.055  1.00  0.00     0.005 C 
ATOM     17  C   UNL     1       0.416  27.148  32.644  1.00  0.00     0.008 C 
ATOM     18  C   UNL     1       1.592  26.183  32.294  1.00  0.00    -0.024 C 
ATOM     19  C   UNL     1       2.206  26.497  30.822  1.00  0.00    -0.024 C 
ATOM     20  C   UNL     1       1.086  26.686  29.716  1.00  0.00     0.008 C 
ATOM     21  C   UNL     1       1.247  25.894  28.404  1.00  0.00     0.007 C 
ATOM     22  C   UNL     1       3.009  27.844  30.881  1.00  0.00     0.012 C 
ATOM     23  C   UNL     1       2.716  26.350  33.375  1.00  0.00     0.012 C 
ATOM     24  C   UNL     1       0.036  25.923  36.822  1.00  0.00     0.014 C 
ATOM     25  C   UNL     1      -2.374  26.048  36.176  1.00  0.00     0.014 C 
ATOM     26  C   UNL     1      -1.003  23.344  32.946  1.00  0.00     0.012 C 
ATOM     27  C   UNL     1       2.972  27.114  27.029  1.00  0.00     0.011 C 
ENDROOT
BRANCH   1  28
ATOM     28  C   UNL     1       5.721  23.909  29.335  1.00  0.00    -0.077 C 
ATOM     29  C   UNL     1       6.715  24.760  30.086  1.00  0.00     0.039 C 
ATOM     30  C   UNL     1       5.817  22.573  29.464  1.00  0.00     0.008 C 
ENDBRANCH   1  28
BRANCH  13  31
ATOM     31  O   UNL     1      -1.633  23.602  37.528  1.00  0.00    -0.393 OA
ATOM     32  H   UNL     1      -2.605  23.777  37.611  1.00  0.00     0.210 HD
ENDBRANCH  13  31
TORSDOF 2
ENDMDL
MODEL 9
REMARK VINA RESULT:    -4.996      5.402      9.058
REMARK INTER + INTRA:          -5.860
REMARK INTER:                  -5.526
REMARK INTRA:                  -0.334
REMARK UNBOUND:                -0.426
REMARK SMILES C=C(C)[C@H]1CC[C@@]2(C)CC[C@]3(C)[C@@H](CC[C@H]4[C@@]5(C)CC[C@@H](O)C(C)(C)[C@H]5CC[C@@]43C)[C@@H]12
REMARK SMILES IDX 4 1 5 2 6 3 7 4 31 5 13 6 14 7 15 8 16 9 17 10 19 11 20 12
REMARK SMILES IDX 21 13 23 14 26 15 27 16 28 17 29 18 11 19 10 20 9 21 12 22
REMARK SMILES IDX 30 23 24 24 25 25 18 26 8 27 2 28 3 29 1 30 22 31
REMARK H PARENT 22 32
REMARK Flexibility Score: inf
ROOT
ATOM      1  C   UNL     1      -0.604  26.041  37.606  1.00  0.00     0.018 C 
ATOM      2  C   UNL     1      -1.129  27.293  38.298  1.00  0.00     0.009 C 
ATOM      3  C   UNL     1      -1.805  26.787  39.564  1.00  0.00     0.008 C 
ATOM      4  C   UNL     1      -2.237  25.312  39.304  1.00  0.00    -0.029 C 
ATOM      5  C   UNL     1      -1.668  24.956  37.894  1.00  0.00     0.006 C 
ATOM      6  C   UNL     1      -2.766  24.709  36.793  1.00  0.00    -0.000 C 
ATOM      7  C   UNL     1      -3.435  26.006  36.264  1.00  0.00     0.005 C 
ATOM      8  C   UNL     1      -4.515  25.742  35.221  1.00  0.00     0.005 C 
ATOM      9  C   UNL     1      -5.602  24.774  35.747  1.00  0.00     0.002 C 
ATOM     10  C   UNL     1      -6.970  24.791  34.886  1.00  0.00    -0.026 C 
ATOM     11  C   UNL     1      -6.711  25.067  33.370  1.00  0.00     0.010 C 
ATOM     12  C   UNL     1      -7.979  25.190  32.498  1.00  0.00     0.033 C 
ATOM     13  C   UNL     1      -9.203  24.381  32.997  1.00  0.00     0.120 C 
ATOM     14  C   UNL     1      -8.814  23.100  33.790  1.00  0.00    -0.006 C 
ATOM     15  C   UNL     1      -7.879  23.474  35.043  1.00  0.00     0.003 C 
ATOM     16  C   UNL     1      -7.159  22.207  35.585  1.00  0.00     0.005 C 
ATOM     17  C   UNL     1      -6.124  22.500  36.656  1.00  0.00     0.008 C 
ATOM     18  C   UNL     1      -4.961  23.396  36.125  1.00  0.00    -0.024 C 
ATOM     19  C   UNL     1      -3.807  23.605  37.251  1.00  0.00    -0.024 C 
ATOM     20  C   UNL     1      -4.396  23.971  38.677  1.00  0.00     0.008 C 
ATOM     21  C   UNL     1      -3.782  25.183  39.405  1.00  0.00     0.007 C 
ATOM     22  C   UNL     1      -3.015  22.261  37.426  1.00  0.00     0.012 C 
ATOM     23  C   UNL     1      -4.338  22.711  34.859  1.00  0.00     0.012 C 
ATOM     24  C   UNL     1      -8.166  22.070  32.816  1.00  0.00     0.014 C 
ATOM     25  C   UNL     1     -10.125  22.456  34.318  1.00  0.00     0.014 C 
ATOM     26  C   UNL     1      -7.760  26.027  35.448  1.00  0.00     0.012 C 
ATOM     27  C   UNL     1      -1.593  24.405  40.384  1.00  0.00     0.011 C 
ENDROOT
BRANCH   1  28
ATOM     28  C   UNL     1      -0.141  26.178  36.154  1.00  0.00    -0.077 C 
ATOM     29  C   UNL     1       0.793  25.142  35.579  1.00  0.00     0.039 C 
ATOM     30  C   UNL     1      -0.417  27.258  35.401  1.00  0.00     0.008 C 
ENDBRANCH   1  28
BRANCH  13  31
ATOM     31  O   UNL     1     -10.105  24.108  31.945  1.00  0.00    -0.393 OA
ATOM     32  H   UNL     1     -10.544  23.234  32.105  1.00  0.00     0.210 HD
ENDBRANCH  13  31
TORSDOF 2
ENDMDL
