MODEL 1
REMARK VINA RESULT:    -4.145      0.000      0.000
REMARK INTER + INTRA:          -4.266
REMARK INTER:                  -4.266
REMARK INTRA:                   0.000
REMARK UNBOUND:                 0.000
REMARK SMILES O=c1ccc2ccc(O)cc2o1
REMARK SMILES IDX 6 1 7 2 8 3 10 4 11 5 5 6 4 7 3 8 2 9 1 10 12 11 9 12
REMARK H PARENT 9 13
REMARK Flexibility Score: inf
ROOT
ATOM      1  C   UNL     1      15.335 -17.870  19.254  1.00  0.00     0.016 A 
ATOM      2  C   UNL     1      16.333 -17.921  20.233  1.00  0.00     0.047 A 
ATOM      3  C   UNL     1      15.991 -18.053  21.584  1.00  0.00     0.119 A 
ATOM      4  C   UNL     1      14.642 -18.134  21.961  1.00  0.00     0.094 A 
ATOM      5  C   UNL     1      13.637 -18.083  20.987  1.00  0.00     0.142 A 
ATOM      6  C   UNL     1      13.986 -17.950  19.625  1.00  0.00     0.018 A 
ATOM      7  C   UNL     1      12.961 -17.902  18.676  1.00  0.00     0.019 A 
ATOM      8  C   UNL     1      11.635 -17.986  19.098  1.00  0.00     0.094 A 
ATOM      9  C   UNL     1      11.364 -18.117  20.464  1.00  0.00     0.336 A 
ATOM     10  O   UNL     1      10.172 -18.194  20.864  1.00  0.00    -0.246 OA
ATOM     11  O   UNL     1      12.358 -18.160  21.347  1.00  0.00    -0.423 OA
ENDROOT
BRANCH   3  12
ATOM     12  O   UNL     1      16.999 -18.103  22.545  1.00  0.00    -0.508 OA
ATOM     13  H   UNL     1      17.869 -18.594  22.376  1.00  0.00     0.293 HD
ENDBRANCH   3  12
TORSDOF 1
ENDMDL
MODEL 2
REMARK VINA RESULT:    -4.122      0.791      4.224
REMARK INTER + INTRA:          -4.242
REMARK INTER:                  -4.242
REMARK INTRA:                   0.000
REMARK UNBOUND:                 0.000
REMARK SMILES O=c1ccc2ccc(O)cc2o1
REMARK SMILES IDX 6 1 7 2 8 3 10 4 11 5 5 6 4 7 3 8 2 9 1 10 12 11 9 12
REMARK H PARENT 9 13
REMARK Flexibility Score: inf
ROOT
ATOM      1  C   UNL     1      13.133 -17.967  18.509  1.00  0.00     0.016 A 
ATOM      2  C   UNL     1      11.767 -17.937  18.813  1.00  0.00     0.047 A 
ATOM      3  C   UNL     1      11.340 -17.964  20.146  1.00  0.00     0.119 A 
ATOM      4  C   UNL     1      12.283 -18.024  21.183  1.00  0.00     0.094 A 
ATOM      5  C   UNL     1      13.651 -18.054  20.888  1.00  0.00     0.142 A 
ATOM      6  C   UNL     1      14.079 -18.026  19.542  1.00  0.00     0.018 A 
ATOM      7  C   UNL     1      15.451 -18.059  19.278  1.00  0.00     0.019 A 
ATOM      8  C   UNL     1      16.350 -18.117  20.341  1.00  0.00     0.094 A 
ATOM      9  C   UNL     1      15.855 -18.142  21.649  1.00  0.00     0.336 A 
ATOM     10  O   UNL     1      16.652 -18.194  22.622  1.00  0.00    -0.246 OA
ATOM     11  O   UNL     1      14.543 -18.110  21.873  1.00  0.00    -0.423 OA
ENDROOT
BRANCH   3  12
ATOM     12  O   UNL     1       9.976 -17.933  20.430  1.00  0.00    -0.508 OA
ATOM     13  H   UNL     1       9.482 -18.757  20.752  1.00  0.00     0.293 HD
ENDBRANCH   3  12
TORSDOF 1
ENDMDL
MODEL 3
REMARK VINA RESULT:    -4.016     17.882     18.625
REMARK INTER + INTRA:          -4.133
REMARK INTER:                  -4.133
REMARK INTRA:                   0.000
REMARK UNBOUND:                 0.000
REMARK SMILES O=c1ccc2ccc(O)cc2o1
REMARK SMILES IDX 6 1 7 2 8 3 10 4 11 5 5 6 4 7 3 8 2 9 1 10 12 11 9 12
REMARK H PARENT 9 13
REMARK Flexibility Score: inf
ROOT
ATOM      1  C   UNL     1      16.729  -4.135   5.739  1.00  0.00     0.016 A 
ATOM      2  C   UNL     1      18.125  -4.046   5.761  1.00  0.00     0.047 A 
ATOM      3  C   UNL     1      18.878  -4.941   6.531  1.00  0.00     0.119 A 
ATOM      4  C   UNL     1      18.232  -5.932   7.286  1.00  0.00     0.094 A 
ATOM      5  C   UNL     1      16.835  -6.028   7.269  1.00  0.00     0.142 A 
ATOM      6  C   UNL     1      16.079  -5.124   6.491  1.00  0.00     0.018 A 
ATOM      7  C   UNL     1      14.687  -5.243   6.495  1.00  0.00     0.019 A 
ATOM      8  C   UNL     1      14.089  -6.244   7.260  1.00  0.00     0.094 A 
ATOM      9  C   UNL     1      14.901  -7.104   8.007  1.00  0.00     0.336 A 
ATOM     10  O   UNL     1      14.379  -8.014   8.704  1.00  0.00    -0.246 OA
ATOM     11  O   UNL     1      16.224  -6.968   7.986  1.00  0.00    -0.423 OA
ENDROOT
BRANCH   3  12
ATOM     12  O   UNL     1      20.267  -4.838   6.540  1.00  0.00    -0.508 OA
ATOM     13  H   UNL     1      20.732  -3.940   6.613  1.00  0.00     0.293 HD
ENDBRANCH   3  12
TORSDOF 1
ENDMDL
MODEL 4
REMARK VINA RESULT:    -3.839      2.049      2.661
REMARK INTER + INTRA:          -3.951
REMARK INTER:                  -3.951
REMARK INTRA:                   0.000
REMARK UNBOUND:                 0.000
REMARK SMILES O=c1ccc2ccc(O)cc2o1
REMARK SMILES IDX 6 1 7 2 8 3 10 4 11 5 5 6 4 7 3 8 2 9 1 10 12 11 9 12
REMARK H PARENT 9 13
REMARK Flexibility Score: inf
ROOT
ATOM      1  C   UNL     1      14.448 -18.231  20.622  1.00  0.00     0.016 A 
ATOM      2  C   UNL     1      15.522 -17.754  19.863  1.00  0.00     0.047 A 
ATOM      3  C   UNL     1      15.300 -16.860  18.809  1.00  0.00     0.119 A 
ATOM      4  C   UNL     1      13.995 -16.440  18.509  1.00  0.00     0.094 A 
ATOM      5  C   UNL     1      12.915 -16.913  19.264  1.00  0.00     0.142 A 
ATOM      6  C   UNL     1      13.143 -17.815  20.327  1.00  0.00     0.018 A 
ATOM      7  C   UNL     1      12.045 -18.270  21.062  1.00  0.00     0.019 A 
ATOM      8  C   UNL     1      10.766 -17.825  20.727  1.00  0.00     0.094 A 
ATOM      9  C   UNL     1      10.616 -16.931  19.661  1.00  0.00     0.336 A 
ATOM     10  O   UNL     1       9.470 -16.518  19.344  1.00  0.00    -0.246 OA
ATOM     11  O   UNL     1      11.678 -16.514  18.977  1.00  0.00    -0.423 OA
ENDROOT
BRANCH   3  12
ATOM     12  O   UNL     1      16.382 -16.395  18.065  1.00  0.00    -0.508 OA
ATOM     13  H   UNL     1      17.133 -17.012  17.777  1.00  0.00     0.293 HD
ENDBRANCH   3  12
TORSDOF 1
ENDMDL
MODEL 5
REMARK VINA RESULT:    -3.836     15.123     15.749
REMARK INTER + INTRA:          -3.948
REMARK INTER:                  -3.948
REMARK INTRA:                   0.000
REMARK UNBOUND:                 0.000
REMARK SMILES O=c1ccc2ccc(O)cc2o1
REMARK SMILES IDX 6 1 7 2 8 3 10 4 11 5 5 6 4 7 3 8 2 9 1 10 12 11 9 12
REMARK H PARENT 9 13
REMARK Flexibility Score: inf
ROOT
ATOM      1  C   UNL     1      14.127  -4.903  11.897  1.00  0.00     0.016 A 
ATOM      2  C   UNL     1      14.712  -6.160  11.706  1.00  0.00     0.047 A 
ATOM      3  C   UNL     1      15.722  -6.606  12.565  1.00  0.00     0.119 A 
ATOM      4  C   UNL     1      16.154  -5.792  13.623  1.00  0.00     0.094 A 
ATOM      5  C   UNL     1      15.573  -4.534  13.822  1.00  0.00     0.142 A 
ATOM      6  C   UNL     1      14.553  -4.086  12.953  1.00  0.00     0.018 A 
ATOM      7  C   UNL     1      13.994  -2.825  13.176  1.00  0.00     0.019 A 
ATOM      8  C   UNL     1      14.454  -2.051  14.241  1.00  0.00     0.094 A 
ATOM      9  C   UNL     1      15.468  -2.559  15.060  1.00  0.00     0.336 A 
ATOM     10  O   UNL     1      15.896  -1.875  16.027  1.00  0.00    -0.246 OA
ATOM     11  O   UNL     1      15.984  -3.763  14.826  1.00  0.00    -0.423 OA
ENDROOT
BRANCH   3  12
ATOM     12  O   UNL     1      16.293  -7.861  12.359  1.00  0.00    -0.508 OA
ATOM     13  H   UNL     1      17.298  -7.994  12.364  1.00  0.00     0.293 HD
ENDBRANCH   3  12
TORSDOF 1
ENDMDL
MODEL 6
REMARK VINA RESULT:    -3.830      1.675      4.688
REMARK INTER + INTRA:          -3.942
REMARK INTER:                  -3.942
REMARK INTRA:                   0.000
REMARK UNBOUND:                 0.000
REMARK SMILES O=c1ccc2ccc(O)cc2o1
REMARK SMILES IDX 6 1 7 2 8 3 10 4 11 5 5 6 4 7 3 8 2 9 1 10 12 11 9 12
REMARK H PARENT 9 13
REMARK Flexibility Score: inf
ROOT
ATOM      1  C   UNL     1      11.724 -17.990  20.735  1.00  0.00     0.016 A 
ATOM      2  C   UNL     1      11.150 -17.978  19.459  1.00  0.00     0.047 A 
ATOM      3  C   UNL     1      11.962 -17.962  18.319  1.00  0.00     0.119 A 
ATOM      4  C   UNL     1      13.358 -17.956  18.453  1.00  0.00     0.094 A 
ATOM      5  C   UNL     1      13.941 -17.969  19.726  1.00  0.00     0.142 A 
ATOM      6  C   UNL     1      13.119 -17.985  20.874  1.00  0.00     0.018 A 
ATOM      7  C   UNL     1      13.730 -17.996  22.131  1.00  0.00     0.019 A 
ATOM      8  C   UNL     1      15.121 -17.990  22.215  1.00  0.00     0.094 A 
ATOM      9  C   UNL     1      15.872 -17.974  21.035  1.00  0.00     0.336 A 
ATOM     10  O   UNL     1      17.130 -17.968  21.091  1.00  0.00    -0.246 OA
ATOM     11  O   UNL     1      15.266 -17.963  19.851  1.00  0.00    -0.423 OA
ENDROOT
BRANCH   3  12
ATOM     12  O   UNL     1      11.371 -17.951  17.057  1.00  0.00    -0.508 OA
ATOM     13  H   UNL     1      10.369 -17.852  16.941  1.00  0.00     0.293 HD
ENDBRANCH   3  12
TORSDOF 1
ENDMDL
MODEL 7
REMARK VINA RESULT:    -3.789     13.404     14.271
REMARK INTER + INTRA:          -3.899
REMARK INTER:                  -3.899
REMARK INTRA:                   0.000
REMARK UNBOUND:                 0.000
REMARK SMILES O=c1ccc2ccc(O)cc2o1
REMARK SMILES IDX 6 1 7 2 8 3 10 4 11 5 5 6 4 7 3 8 2 9 1 10 12 11 9 12
REMARK H PARENT 9 13
REMARK Flexibility Score: inf
ROOT
ATOM      1  C   UNL     1      14.777  -9.116  12.387  1.00  0.00     0.016 A 
ATOM      2  C   UNL     1      14.851  -9.302  11.002  1.00  0.00     0.047 A 
ATOM      3  C   UNL     1      15.208  -8.239  10.164  1.00  0.00     0.119 A 
ATOM      4  C   UNL     1      15.492  -6.980  10.712  1.00  0.00     0.094 A 
ATOM      5  C   UNL     1      15.421  -6.785  12.097  1.00  0.00     0.142 A 
ATOM      6  C   UNL     1      15.061  -7.859  12.939  1.00  0.00     0.018 A 
ATOM      7  C   UNL     1      14.997  -7.634  14.317  1.00  0.00     0.019 A 
ATOM      8  C   UNL     1      15.289  -6.365  14.816  1.00  0.00     0.094 A 
ATOM      9  C   UNL     1      15.638  -5.348  13.922  1.00  0.00     0.336 A 
ATOM     10  O   UNL     1      15.905  -4.195  14.354  1.00  0.00    -0.246 OA
ATOM     11  O   UNL     1      15.691  -5.589  12.615  1.00  0.00    -0.423 OA
ENDROOT
BRANCH   3  12
ATOM     12  O   UNL     1      15.277  -8.444   8.787  1.00  0.00    -0.508 OA
ATOM     13  H   UNL     1      14.723  -9.159   8.329  1.00  0.00     0.293 HD
ENDBRANCH   3  12
TORSDOF 1
ENDMDL
MODEL 8
REMARK VINA RESULT:    -3.775      2.240      4.741
REMARK INTER + INTRA:          -3.885
REMARK INTER:                  -3.885
REMARK INTRA:                   0.000
REMARK UNBOUND:                 0.000
REMARK SMILES O=c1ccc2ccc(O)cc2o1
REMARK SMILES IDX 6 1 7 2 8 3 10 4 11 5 5 6 4 7 3 8 2 9 1 10 12 11 9 12
REMARK H PARENT 9 13
REMARK Flexibility Score: inf
ROOT
ATOM      1  C   UNL     1      12.982 -18.036  20.065  1.00  0.00     0.016 A 
ATOM      2  C   UNL     1      12.557 -17.434  18.876  1.00  0.00     0.047 A 
ATOM      3  C   UNL     1      13.395 -16.543  18.197  1.00  0.00     0.119 A 
ATOM      4  C   UNL     1      14.668 -16.249  18.708  1.00  0.00     0.094 A 
ATOM      5  C   UNL     1      15.102 -16.847  19.897  1.00  0.00     0.142 A 
ATOM      6  C   UNL     1      14.253 -17.746  20.581  1.00  0.00     0.018 A 
ATOM      7  C   UNL     1      14.713 -18.327  21.766  1.00  0.00     0.019 A 
ATOM      8  C   UNL     1      15.986 -18.005  22.236  1.00  0.00     0.094 A 
ATOM      9  C   UNL     1      16.771 -17.106  21.507  1.00  0.00     0.336 A 
ATOM     10  O   UNL     1      17.923 -16.803  21.915  1.00  0.00    -0.246 OA
ATOM     11  O   UNL     1      16.309 -16.567  20.381  1.00  0.00    -0.423 OA
ENDROOT
BRANCH   3  12
ATOM     12  O   UNL     1      12.955 -15.953  17.013  1.00  0.00    -0.508 OA
ATOM     13  H   UNL     1      11.970 -15.789  16.837  1.00  0.00     0.293 HD
ENDBRANCH   3  12
TORSDOF 1
ENDMDL
MODEL 9
REMARK VINA RESULT:    -3.681      1.514      2.250
REMARK INTER + INTRA:          -3.789
REMARK INTER:                  -3.789
REMARK INTRA:                   0.000
REMARK UNBOUND:                 0.000
REMARK SMILES O=c1ccc2ccc(O)cc2o1
REMARK SMILES IDX 6 1 7 2 8 3 10 4 11 5 5 6 4 7 3 8 2 9 1 10 12 11 9 12
REMARK H PARENT 9 13
REMARK Flexibility Score: inf
ROOT
ATOM      1  C   UNL     1      14.231 -17.712  22.525  1.00  0.00     0.016 A 
ATOM      2  C   UNL     1      15.628 -17.766  22.578  1.00  0.00     0.047 A 
ATOM      3  C   UNL     1      16.374 -17.913  21.403  1.00  0.00     0.119 A 
ATOM      4  C   UNL     1      15.721 -18.008  20.165  1.00  0.00     0.094 A 
ATOM      5  C   UNL     1      14.324 -17.955  20.103  1.00  0.00     0.142 A 
ATOM      6  C   UNL     1      13.574 -17.806  21.291  1.00  0.00     0.018 A 
ATOM      7  C   UNL     1      12.180 -17.757  21.197  1.00  0.00     0.019 A 
ATOM      8  C   UNL     1      11.575 -17.854  19.945  1.00  0.00     0.094 A 
ATOM      9  C   UNL     1      12.381 -18.001  18.811  1.00  0.00     0.336 A 
ATOM     10  O   UNL     1      11.853 -18.091  17.672  1.00  0.00    -0.246 OA
ATOM     11  O   UNL     1      13.706 -18.045  18.928  1.00  0.00    -0.423 OA
ENDROOT
BRANCH   3  12
ATOM     12  O   UNL     1      17.765 -17.965  21.475  1.00  0.00    -0.508 OA
ATOM     13  H   UNL     1      18.243 -18.696  21.990  1.00  0.00     0.293 HD
ENDBRANCH   3  12
TORSDOF 1
ENDMDL
