MODEL 1
REMARK VINA RESULT:    -4.692      0.000      0.000
REMARK INTER + INTRA:          -5.026
REMARK INTER:                  -4.967
REMARK INTRA:                  -0.059
REMARK UNBOUND:                -0.059
REMARK SMILES CC(=O)c1ccccc1
REMARK SMILES IDX 4 1 5 2 6 3 7 4 8 5 9 6 2 7 1 8 3 9
REMARK H PARENT
REMARK Flexibility Score: inf
ROOT
ATOM      1  C   UNL     1      44.901  31.550  52.936  1.00  0.00     0.017 A 
ATOM      2  C   UNL     1      44.428  32.876  53.004  1.00  0.00     0.012 A 
ATOM      3  C   UNL     1      44.235  33.623  51.837  1.00  0.00     0.001 A 
ATOM      4  C   UNL     1      44.511  33.058  50.591  1.00  0.00     0.000 A 
ATOM      5  C   UNL     1      44.980  31.747  50.507  1.00  0.00     0.001 A 
ATOM      6  C   UNL     1      45.176  30.995  51.670  1.00  0.00     0.012 A 
ENDROOT
BRANCH   1   7
ATOM      7  C   UNL     1      45.101  30.767  54.186  1.00  0.00     0.159 C 
ATOM      8  C   UNL     1      46.273  31.005  55.090  1.00  0.00     0.093 C 
ATOM      9  O   UNL     1      44.269  29.875  54.506  1.00  0.00    -0.295 OA
ENDBRANCH   1   7
TORSDOF 1
ENDMDL
MODEL 2
REMARK VINA RESULT:    -4.685      0.021      1.614
REMARK INTER + INTRA:          -5.018
REMARK INTER:                  -4.959
REMARK INTRA:                  -0.059
REMARK UNBOUND:                -0.059
REMARK SMILES CC(=O)c1ccccc1
REMARK SMILES IDX 4 1 5 2 6 3 7 4 8 5 9 6 2 7 1 8 3 9
REMARK H PARENT
REMARK Flexibility Score: inf
ROOT
ATOM      1  C   UNL     1      44.905  31.566  52.940  1.00  0.00     0.017 A 
ATOM      2  C   UNL     1      45.185  30.995  51.683  1.00  0.00     0.012 A 
ATOM      3  C   UNL     1      44.997  31.730  50.509  1.00  0.00     0.001 A 
ATOM      4  C   UNL     1      44.528  33.044  50.573  1.00  0.00     0.000 A 
ATOM      5  C   UNL     1      44.246  33.624  51.810  1.00  0.00     0.001 A 
ATOM      6  C   UNL     1      44.431  32.894  52.988  1.00  0.00     0.012 A 
ENDROOT
BRANCH   1   7
ATOM      7  C   UNL     1      45.110  30.772  54.182  1.00  0.00     0.159 C 
ATOM      8  C   UNL     1      46.283  31.004  55.086  1.00  0.00     0.093 C 
ATOM      9  O   UNL     1      44.280  29.875  54.495  1.00  0.00    -0.295 OA
ENDBRANCH   1   7
TORSDOF 1
ENDMDL
MODEL 3
REMARK VINA RESULT:    -4.416      2.050      4.058
REMARK INTER + INTRA:          -4.733
REMARK INTER:                  -4.662
REMARK INTRA:                  -0.071
REMARK UNBOUND:                -0.059
REMARK SMILES CC(=O)c1ccccc1
REMARK SMILES IDX 4 1 5 2 6 3 7 4 8 5 9 6 2 7 1 8 3 9
REMARK H PARENT
REMARK Flexibility Score: inf
ROOT
ATOM      1  C   UNL     1      44.406  32.107  52.332  1.00  0.00     0.017 A 
ATOM      2  C   UNL     1      44.622  30.725  52.163  1.00  0.00     0.012 A 
ATOM      3  C   UNL     1      44.696  29.875  53.272  1.00  0.00     0.001 A 
ATOM      4  C   UNL     1      44.554  30.393  54.561  1.00  0.00     0.000 A 
ATOM      5  C   UNL     1      44.340  31.759  54.745  1.00  0.00     0.001 A 
ATOM      6  C   UNL     1      44.266  32.614  53.640  1.00  0.00     0.012 A 
ENDROOT
BRANCH   1   7
ATOM      7  C   UNL     1      44.330  32.999  51.144  1.00  0.00     0.159 C 
ATOM      8  C   UNL     1      44.704  32.524  49.771  1.00  0.00     0.093 C 
ATOM      9  O   UNL     1      43.941  34.191  51.279  1.00  0.00    -0.295 OA
ENDBRANCH   1   7
TORSDOF 1
ENDMDL
MODEL 4
REMARK VINA RESULT:    -4.332      6.312      7.063
REMARK INTER + INTRA:          -4.644
REMARK INTER:                  -4.574
REMARK INTRA:                  -0.070
REMARK UNBOUND:                -0.059
REMARK SMILES CC(=O)c1ccccc1
REMARK SMILES IDX 4 1 5 2 6 3 7 4 8 5 9 6 2 7 1 8 3 9
REMARK H PARENT
REMARK Flexibility Score: inf
ROOT
ATOM      1  C   UNL     1      41.928  37.434  51.047  1.00  0.00     0.017 A 
ATOM      2  C   UNL     1      43.110  36.980  50.429  1.00  0.00     0.012 A 
ATOM      3  C   UNL     1      43.053  36.221  49.256  1.00  0.00     0.001 A 
ATOM      4  C   UNL     1      41.819  35.906  48.684  1.00  0.00     0.000 A 
ATOM      5  C   UNL     1      40.640  36.348  49.284  1.00  0.00     0.001 A 
ATOM      6  C   UNL     1      40.689  37.107  50.458  1.00  0.00     0.012 A 
ENDROOT
BRANCH   1   7
ATOM      7  C   UNL     1      42.002  38.240  52.295  1.00  0.00     0.159 C 
ATOM      8  C   UNL     1      40.771  38.729  52.997  1.00  0.00     0.093 C 
ATOM      9  O   UNL     1      43.127  38.527  52.789  1.00  0.00    -0.295 OA
ENDBRANCH   1   7
TORSDOF 1
ENDMDL
MODEL 5
REMARK VINA RESULT:    -4.323      6.359      7.031
REMARK INTER + INTRA:          -4.635
REMARK INTER:                  -4.563
REMARK INTRA:                  -0.072
REMARK UNBOUND:                -0.059
REMARK SMILES CC(=O)c1ccccc1
REMARK SMILES IDX 4 1 5 2 6 3 7 4 8 5 9 6 2 7 1 8 3 9
REMARK H PARENT
REMARK Flexibility Score: inf
ROOT
ATOM      1  C   UNL     1      41.903  37.455  51.055  1.00  0.00     0.017 A 
ATOM      2  C   UNL     1      40.664  37.114  50.477  1.00  0.00     0.012 A 
ATOM      3  C   UNL     1      40.611  36.361  49.300  1.00  0.00     0.001 A 
ATOM      4  C   UNL     1      41.791  35.939  48.685  1.00  0.00     0.000 A 
ATOM      5  C   UNL     1      43.026  36.268  49.245  1.00  0.00     0.001 A 
ATOM      6  C   UNL     1      43.086  37.022  50.422  1.00  0.00     0.012 A 
ENDROOT
BRANCH   1   7
ATOM      7  C   UNL     1      41.944  38.258  52.308  1.00  0.00     0.159 C 
ATOM      8  C   UNL     1      40.693  38.710  53.000  1.00  0.00     0.093 C 
ATOM      9  O   UNL     1      43.055  38.573  52.813  1.00  0.00    -0.295 OA
ENDBRANCH   1   7
TORSDOF 1
ENDMDL
MODEL 6
REMARK VINA RESULT:    -4.195      6.707      7.728
REMARK INTER + INTRA:          -4.499
REMARK INTER:                  -4.431
REMARK INTRA:                  -0.069
REMARK UNBOUND:                -0.059
REMARK SMILES CC(=O)c1ccccc1
REMARK SMILES IDX 4 1 5 2 6 3 7 4 8 5 9 6 2 7 1 8 3 9
REMARK H PARENT
REMARK Flexibility Score: inf
ROOT
ATOM      1  C   UNL     1      40.756  36.818  49.608  1.00  0.00     0.017 A 
ATOM      2  C   UNL     1      41.013  37.152  50.953  1.00  0.00     0.012 A 
ATOM      3  C   UNL     1      42.326  37.259  51.421  1.00  0.00     0.001 A 
ATOM      4  C   UNL     1      43.398  37.036  50.555  1.00  0.00     0.000 A 
ATOM      5  C   UNL     1      43.161  36.705  49.221  1.00  0.00     0.001 A 
ATOM      6  C   UNL     1      41.850  36.595  48.747  1.00  0.00     0.012 A 
ENDROOT
BRANCH   1   7
ATOM      7  C   UNL     1      39.353  36.706  49.124  1.00  0.00     0.159 C 
ATOM      8  C   UNL     1      38.231  36.302  50.033  1.00  0.00     0.093 C 
ATOM      9  O   UNL     1      39.086  36.956  47.917  1.00  0.00    -0.295 OA
ENDBRANCH   1   7
TORSDOF 1
ENDMDL
MODEL 7
REMARK VINA RESULT:    -4.189      6.622      7.834
REMARK INTER + INTRA:          -4.493
REMARK INTER:                  -4.428
REMARK INTRA:                  -0.065
REMARK UNBOUND:                -0.059
REMARK SMILES CC(=O)c1ccccc1
REMARK SMILES IDX 4 1 5 2 6 3 7 4 8 5 9 6 2 7 1 8 3 9
REMARK H PARENT
REMARK Flexibility Score: inf
ROOT
ATOM      1  C   UNL     1      40.751  36.778  49.631  1.00  0.00     0.017 A 
ATOM      2  C   UNL     1      41.824  36.410  48.796  1.00  0.00     0.012 A 
ATOM      3  C   UNL     1      43.143  36.489  49.256  1.00  0.00     0.001 A 
ATOM      4  C   UNL     1      43.406  36.934  50.552  1.00  0.00     0.000 A 
ATOM      5  C   UNL     1      42.354  37.302  51.391  1.00  0.00     0.001 A 
ATOM      6  C   UNL     1      41.033  37.226  50.937  1.00  0.00     0.012 A 
ENDROOT
BRANCH   1   7
ATOM      7  C   UNL     1      39.353  36.690  49.128  1.00  0.00     0.159 C 
ATOM      8  C   UNL     1      38.218  36.270  50.013  1.00  0.00     0.093 C 
ATOM      9  O   UNL     1      39.101  36.974  47.925  1.00  0.00    -0.295 OA
ENDBRANCH   1   7
TORSDOF 1
ENDMDL
MODEL 8
REMARK VINA RESULT:    -4.161      6.351      7.495
REMARK INTER + INTRA:          -4.463
REMARK INTER:                  -4.395
REMARK INTRA:                  -0.068
REMARK UNBOUND:                -0.059
REMARK SMILES CC(=O)c1ccccc1
REMARK SMILES IDX 4 1 5 2 6 3 7 4 8 5 9 6 2 7 1 8 3 9
REMARK H PARENT
REMARK Flexibility Score: inf
ROOT
ATOM      1  C   UNL     1      40.562  36.737  50.133  1.00  0.00     0.017 A 
ATOM      2  C   UNL     1      39.199  36.616  50.472  1.00  0.00     0.012 A 
ATOM      3  C   UNL     1      38.280  36.102  49.552  1.00  0.00     0.001 A 
ATOM      4  C   UNL     1      38.707  35.704  48.284  1.00  0.00     0.000 A 
ATOM      5  C   UNL     1      40.052  35.817  47.933  1.00  0.00     0.001 A 
ATOM      6  C   UNL     1      40.977  36.331  48.848  1.00  0.00     0.012 A 
ENDROOT
BRANCH   1   7
ATOM      7  C   UNL     1      41.529  37.286  51.122  1.00  0.00     0.159 C 
ATOM      8  C   UNL     1      42.998  37.001  51.034  1.00  0.00     0.093 C 
ATOM      9  O   UNL     1      41.116  38.014  52.065  1.00  0.00    -0.295 OA
ENDBRANCH   1   7
TORSDOF 1
ENDMDL
MODEL 9
REMARK VINA RESULT:    -3.767      5.981      6.922
REMARK INTER + INTRA:          -4.046
REMARK INTER:                  -3.987
REMARK INTRA:                  -0.059
REMARK UNBOUND:                -0.059
REMARK SMILES CC(=O)c1ccccc1
REMARK SMILES IDX 4 1 5 2 6 3 7 4 8 5 9 6 2 7 1 8 3 9
REMARK H PARENT
REMARK Flexibility Score: inf
ROOT
ATOM      1  C   UNL     1      42.538  36.661  50.128  1.00  0.00     0.017 A 
ATOM      2  C   UNL     1      41.133  36.660  50.241  1.00  0.00     0.012 A 
ATOM      3  C   UNL     1      40.502  37.374  51.265  1.00  0.00     0.001 A 
ATOM      4  C   UNL     1      41.261  38.097  52.186  1.00  0.00     0.000 A 
ATOM      5  C   UNL     1      42.653  38.108  52.088  1.00  0.00     0.001 A 
ATOM      6  C   UNL     1      43.291  37.395  51.067  1.00  0.00     0.012 A 
ENDROOT
BRANCH   1   7
ATOM      7  C   UNL     1      43.197  35.896  49.035  1.00  0.00     0.159 C 
ATOM      8  C   UNL     1      43.856  36.581  47.875  1.00  0.00     0.093 C 
ATOM      9  O   UNL     1      43.210  34.636  49.071  1.00  0.00    -0.295 OA
ENDBRANCH   1   7
TORSDOF 1
ENDMDL
