MODEL 1
REMARK VINA RESULT:    -4.405      0.000      0.000
REMARK INTER + INTRA:          -9.339
REMARK INTER:                  -7.753
REMARK INTRA:                  -1.587
REMARK UNBOUND:                -1.587
REMARK SMILES CCCCCCCCCCCCCCC(=O)[O-]
REMARK SMILES IDX 9 1 10 2 11 3 12 4 13 5 14 6 15 7 16 8 17 9 8 10 7 11 6 12
REMARK SMILES IDX 5 13 4 14 3 15 2 16 1 17
REMARK H PARENT
REMARK Flexibility Score: inf
ROOT
ATOM      1  C   UNL     1      37.560 -12.677  29.926  1.00  0.00     0.000 C 
ENDROOT
BRANCH   1   2
ATOM      2  C   UNL     1      36.923 -11.562  29.082  1.00  0.00     0.000 C 
BRANCH   2   3
ATOM      3  C   UNL     1      37.495 -11.504  27.655  1.00  0.00     0.000 C 
BRANCH   3   4
ATOM      4  C   UNL     1      38.856 -12.214  27.527  1.00  0.00     0.000 C 
BRANCH   4   5
ATOM      5  C   UNL     1      40.024 -11.311  27.088  1.00  0.00     0.006 C 
BRANCH   5   6
ATOM      6  C   UNL     1      39.603  -9.852  26.873  1.00  0.00     0.053 C 
BRANCH   6   7
ATOM      7  C   UNL     1      39.799  -9.457  25.444  1.00  0.00     0.041 C 
ATOM      8  O   UNL     1      38.828  -9.029  24.765  1.00  0.00    -0.550 OA
ATOM      9  O   UNL     1      41.065  -9.512  24.876  1.00  0.00    -0.550 OA
ENDBRANCH   6   7
ENDBRANCH   5   6
ENDBRANCH   4   5
ENDBRANCH   3   4
ENDBRANCH   2   3
ENDBRANCH   1   2
BRANCH   1  10
ATOM     10  C   UNL     1      37.782 -12.255  31.388  1.00  0.00     0.000 C 
BRANCH  10  11
ATOM     11  C   UNL     1      39.228 -12.486  31.867  1.00  0.00    -0.000 C 
BRANCH  11  12
ATOM     12  C   UNL     1      40.115 -13.295  30.903  1.00  0.00    -0.000 C 
BRANCH  12  13
ATOM     13  C   UNL     1      41.288 -12.474  30.339  1.00  0.00    -0.000 C 
BRANCH  13  14
ATOM     14  C   UNL     1      42.448 -13.354  29.843  1.00  0.00    -0.000 C 
BRANCH  14  15
ATOM     15  C   UNL     1      42.355 -13.790  28.368  1.00  0.00    -0.000 C 
BRANCH  15  16
ATOM     16  C   UNL     1      43.647 -13.544  27.562  1.00  0.00    -0.003 C 
ATOM     17  C   UNL     1      43.373 -12.913  26.196  1.00  0.00     0.004 C 
ENDBRANCH  15  16
ENDBRANCH  14  15
ENDBRANCH  13  14
ENDBRANCH  12  13
ENDBRANCH  11  12
ENDBRANCH  10  11
ENDBRANCH   1  10
TORSDOF 13
ENDMDL
MODEL 2
REMARK VINA RESULT:    -4.239      1.447      2.732
REMARK INTER + INTRA:          -9.047
REMARK INTER:                  -7.869
REMARK INTRA:                  -1.178
REMARK UNBOUND:                -1.587
REMARK SMILES CCCCCCCCCCCCCCC(=O)[O-]
REMARK SMILES IDX 9 1 10 2 11 3 12 4 13 5 14 6 15 7 16 8 17 9 8 10 7 11 6 12
REMARK SMILES IDX 5 13 4 14 3 15 2 16 1 17
REMARK H PARENT
REMARK Flexibility Score: inf
ROOT
ATOM      1  C   UNL     1      37.333 -11.604  27.350  1.00  0.00     0.000 C 
ENDROOT
BRANCH   1   2
ATOM      2  C   UNL     1      36.237 -11.130  26.381  1.00  0.00     0.000 C 
BRANCH   2   3
ATOM      3  C   UNL     1      36.314  -9.619  26.100  1.00  0.00     0.000 C 
BRANCH   3   4
ATOM      4  C   UNL     1      36.656  -9.298  24.633  1.00  0.00     0.000 C 
BRANCH   4   5
ATOM      5  C   UNL     1      38.128  -8.929  24.372  1.00  0.00     0.006 C 
BRANCH   5   6
ATOM      6  C   UNL     1      38.932  -8.729  25.663  1.00  0.00     0.053 C 
BRANCH   6   7
ATOM      7  C   UNL     1      40.220  -9.487  25.600  1.00  0.00     0.041 C 
ATOM      8  O   UNL     1      41.137  -9.116  24.821  1.00  0.00    -0.550 OA
ATOM      9  O   UNL     1      40.427 -10.575  26.439  1.00  0.00    -0.550 OA
ENDBRANCH   6   7
ENDBRANCH   5   6
ENDBRANCH   4   5
ENDBRANCH   3   4
ENDBRANCH   2   3
ENDBRANCH   1   2
BRANCH   1  10
ATOM     10  C   UNL     1      36.905 -11.486  28.823  1.00  0.00     0.000 C 
BRANCH  10  11
ATOM     11  C   UNL     1      37.504 -12.593  29.711  1.00  0.00    -0.000 C 
BRANCH  11  12
ATOM     12  C   UNL     1      37.817 -12.174  31.159  1.00  0.00    -0.000 C 
BRANCH  12  13
ATOM     13  C   UNL     1      39.286 -12.412  31.547  1.00  0.00    -0.000 C 
BRANCH  13  14
ATOM     14  C   UNL     1      40.096 -13.093  30.430  1.00  0.00    -0.000 C 
BRANCH  14  15
ATOM     15  C   UNL     1      41.133 -12.191  29.731  1.00  0.00    -0.000 C 
BRANCH  15  16
ATOM     16  C   UNL     1      41.915 -12.897  28.605  1.00  0.00    -0.003 C 
ATOM     17  C   UNL     1      41.018 -13.774  27.730  1.00  0.00     0.004 C 
ENDBRANCH  15  16
ENDBRANCH  14  15
ENDBRANCH  13  14
ENDBRANCH  12  13
ENDBRANCH  11  12
ENDBRANCH  10  11
ENDBRANCH   1  10
TORSDOF 13
ENDMDL
MODEL 3
REMARK VINA RESULT:    -4.237     12.052     15.493
REMARK INTER + INTRA:          -9.044
REMARK INTER:                  -7.286
REMARK INTRA:                  -1.758
REMARK UNBOUND:                -1.587
REMARK SMILES CCCCCCCCCCCCCCC(=O)[O-]
REMARK SMILES IDX 9 1 10 2 11 3 12 4 13 5 14 6 15 7 16 8 17 9 8 10 7 11 6 12
REMARK SMILES IDX 5 13 4 14 3 15 2 16 1 17
REMARK H PARENT
REMARK Flexibility Score: inf
ROOT
ATOM      1  C   UNL     1      42.249  -1.196  20.495  1.00  0.00     0.000 C 
ENDROOT
BRANCH   1   2
ATOM      2  C   UNL     1      42.650  -0.423  21.762  1.00  0.00     0.000 C 
BRANCH   2   3
ATOM      3  C   UNL     1      44.172  -0.422  21.991  1.00  0.00     0.000 C 
BRANCH   3   4
ATOM      4  C   UNL     1      44.678   0.879  22.642  1.00  0.00     0.000 C 
BRANCH   4   5
ATOM      5  C   UNL     1      44.660   0.887  24.182  1.00  0.00     0.006 C 
BRANCH   5   6
ATOM      6  C   UNL     1      44.952  -0.490  24.791  1.00  0.00     0.053 C 
BRANCH   6   7
ATOM      7  C   UNL     1      43.685  -1.133  25.260  1.00  0.00     0.041 C 
ATOM      8  O   UNL     1      42.683  -0.427  25.548  1.00  0.00    -0.550 OA
ATOM      9  O   UNL     1      43.594  -2.517  25.329  1.00  0.00    -0.550 OA
ENDBRANCH   6   7
ENDBRANCH   5   6
ENDBRANCH   4   5
ENDBRANCH   3   4
ENDBRANCH   2   3
ENDBRANCH   1   2
BRANCH   1  10
ATOM     10  C   UNL     1      41.179  -0.459  19.671  1.00  0.00     0.000 C 
BRANCH  10  11
ATOM     11  C   UNL     1      41.738   0.151  18.371  1.00  0.00    -0.000 C 
BRANCH  11  12
ATOM     12  C   UNL     1      41.716   1.688  18.306  1.00  0.00    -0.000 C 
BRANCH  12  13
ATOM     13  C   UNL     1      42.724   2.343  19.265  1.00  0.00    -0.000 C 
BRANCH  13  14
ATOM     14  C   UNL     1      42.052   2.991  20.487  1.00  0.00    -0.000 C 
BRANCH  14  15
ATOM     15  C   UNL     1      42.993   3.806  21.396  1.00  0.00    -0.000 C 
BRANCH  15  16
ATOM     16  C   UNL     1      42.482   3.962  22.844  1.00  0.00    -0.003 C 
ATOM     17  C   UNL     1      41.524   2.841  23.250  1.00  0.00     0.004 C 
ENDBRANCH  15  16
ENDBRANCH  14  15
ENDBRANCH  13  14
ENDBRANCH  12  13
ENDBRANCH  11  12
ENDBRANCH  10  11
ENDBRANCH   1  10
TORSDOF 13
ENDMDL
MODEL 4
REMARK VINA RESULT:    -4.226     14.109     16.590
REMARK INTER + INTRA:          -9.024
REMARK INTER:                  -8.265
REMARK INTRA:                  -0.758
REMARK UNBOUND:                -1.587
REMARK SMILES CCCCCCCCCCCCCCC(=O)[O-]
REMARK SMILES IDX 9 1 10 2 11 3 12 4 13 5 14 6 15 7 16 8 17 9 8 10 7 11 6 12
REMARK SMILES IDX 5 13 4 14 3 15 2 16 1 17
REMARK H PARENT
REMARK Flexibility Score: inf
ROOT
ATOM      1  C   UNL     1      47.009   0.804  21.704  1.00  0.00     0.000 C 
ENDROOT
BRANCH   1   2
ATOM      2  C   UNL     1      47.932   1.881  21.110  1.00  0.00     0.000 C 
BRANCH   2   3
ATOM      3  C   UNL     1      49.407   1.444  21.088  1.00  0.00     0.000 C 
BRANCH   3   4
ATOM      4  C   UNL     1      49.594  -0.050  21.415  1.00  0.00     0.000 C 
BRANCH   4   5
ATOM      5  C   UNL     1      50.984  -0.622  21.081  1.00  0.00     0.006 C 
BRANCH   5   6
ATOM      6  C   UNL     1      51.022  -1.353  19.733  1.00  0.00     0.053 C 
BRANCH   6   7
ATOM      7  C   UNL     1      51.892  -0.617  18.764  1.00  0.00     0.041 C 
ATOM      8  O   UNL     1      52.461   0.453  19.107  1.00  0.00    -0.550 OA
ATOM      9  O   UNL     1      52.115  -1.140  17.496  1.00  0.00    -0.550 OA
ENDBRANCH   6   7
ENDBRANCH   5   6
ENDBRANCH   4   5
ENDBRANCH   3   4
ENDBRANCH   2   3
ENDBRANCH   1   2
BRANCH   1  10
ATOM     10  C   UNL     1      45.833   1.407  22.490  1.00  0.00     0.000 C 
BRANCH  10  11
ATOM     11  C   UNL     1      45.400   0.535  23.684  1.00  0.00    -0.000 C 
BRANCH  11  12
ATOM     12  C   UNL     1      43.981  -0.054  23.586  1.00  0.00    -0.000 C 
BRANCH  12  13
ATOM     13  C   UNL     1      43.651  -0.588  22.182  1.00  0.00    -0.000 C 
BRANCH  13  14
ATOM     14  C   UNL     1      42.265  -0.145  21.684  1.00  0.00    -0.000 C 
BRANCH  14  15
ATOM     15  C   UNL     1      42.206   0.278  20.203  1.00  0.00    -0.000 C 
BRANCH  15  16
ATOM     16  C   UNL     1      41.648  -0.813  19.265  1.00  0.00    -0.003 C 
ATOM     17  C   UNL     1      40.659  -1.742  19.970  1.00  0.00     0.004 C 
ENDBRANCH  15  16
ENDBRANCH  14  15
ENDBRANCH  13  14
ENDBRANCH  12  13
ENDBRANCH  11  12
ENDBRANCH  10  11
ENDBRANCH   1  10
TORSDOF 13
ENDMDL
MODEL 5
REMARK VINA RESULT:    -4.224      1.222      3.923
REMARK INTER + INTRA:          -9.020
REMARK INTER:                  -7.404
REMARK INTRA:                  -1.616
REMARK UNBOUND:                -1.587
REMARK SMILES CCCCCCCCCCCCCCC(=O)[O-]
REMARK SMILES IDX 9 1 10 2 11 3 12 4 13 5 14 6 15 7 16 8 17 9 8 10 7 11 6 12
REMARK SMILES IDX 5 13 4 14 3 15 2 16 1 17
REMARK H PARENT
REMARK Flexibility Score: inf
ROOT
ATOM      1  C   UNL     1      41.129 -11.876  30.175  1.00  0.00     0.000 C 
ENDROOT
BRANCH   1   2
ATOM      2  C   UNL     1      41.372 -13.209  29.448  1.00  0.00     0.000 C 
BRANCH   2   3
ATOM      3  C   UNL     1      40.756 -13.231  28.039  1.00  0.00     0.000 C 
BRANCH   3   4
ATOM      4  C   UNL     1      41.781 -12.922  26.932  1.00  0.00     0.000 C 
BRANCH   4   5
ATOM      5  C   UNL     1      41.712 -11.494  26.359  1.00  0.00     0.006 C 
BRANCH   5   6
ATOM      6  C   UNL     1      40.374 -10.800  26.644  1.00  0.00     0.053 C 
BRANCH   6   7
ATOM      7  C   UNL     1      40.204  -9.609  25.755  1.00  0.00     0.041 C 
ATOM      8  O   UNL     1      39.138  -8.939  25.788  1.00  0.00    -0.550 OA
ATOM      9  O   UNL     1      41.244  -9.208  24.925  1.00  0.00    -0.550 OA
ENDBRANCH   6   7
ENDBRANCH   5   6
ENDBRANCH   4   5
ENDBRANCH   3   4
ENDBRANCH   2   3
ENDBRANCH   1   2
BRANCH   1  10
ATOM     10  C   UNL     1      40.887 -12.064  31.682  1.00  0.00     0.000 C 
BRANCH  10  11
ATOM     11  C   UNL     1      39.392 -12.160  32.042  1.00  0.00    -0.000 C 
BRANCH  11  12
ATOM     12  C   UNL     1      38.745 -13.534  31.791  1.00  0.00    -0.000 C 
BRANCH  12  13
ATOM     13  C   UNL     1      37.658 -13.494  30.704  1.00  0.00    -0.000 C 
BRANCH  13  14
ATOM     14  C   UNL     1      37.347 -12.066  30.222  1.00  0.00    -0.000 C 
BRANCH  14  15
ATOM     15  C   UNL     1      37.471 -11.847  28.701  1.00  0.00    -0.000 C 
BRANCH  15  16
ATOM     16  C   UNL     1      36.247 -11.153  28.069  1.00  0.00    -0.003 C 
ATOM     17  C   UNL     1      36.408 -10.941  26.563  1.00  0.00     0.004 C 
ENDBRANCH  15  16
ENDBRANCH  14  15
ENDBRANCH  13  14
ENDBRANCH  12  13
ENDBRANCH  11  12
ENDBRANCH  10  11
ENDBRANCH   1  10
TORSDOF 13
ENDMDL
MODEL 6
REMARK VINA RESULT:    -4.200     13.769     15.447
REMARK INTER + INTRA:          -8.978
REMARK INTER:                  -6.995
REMARK INTRA:                  -1.983
REMARK UNBOUND:                -1.587
REMARK SMILES CCCCCCCCCCCCCCC(=O)[O-]
REMARK SMILES IDX 9 1 10 2 11 3 12 4 13 5 14 6 15 7 16 8 17 9 8 10 7 11 6 12
REMARK SMILES IDX 5 13 4 14 3 15 2 16 1 17
REMARK H PARENT
REMARK Flexibility Score: inf
ROOT
ATOM      1  C   UNL     1      45.073   0.549  24.958  1.00  0.00     0.000 C 
ENDROOT
BRANCH   1   2
ATOM      2  C   UNL     1      44.904   0.120  23.491  1.00  0.00     0.000 C 
BRANCH   2   3
ATOM      3  C   UNL     1      43.447  -0.238  23.147  1.00  0.00     0.000 C 
BRANCH   3   4
ATOM      4  C   UNL     1      43.256  -0.612  21.666  1.00  0.00     0.000 C 
BRANCH   4   5
ATOM      5  C   UNL     1      41.894  -0.218  21.064  1.00  0.00     0.006 C 
BRANCH   5   6
ATOM      6  C   UNL     1      41.768  -0.583  19.580  1.00  0.00     0.053 C 
BRANCH   6   7
ATOM      7  C   UNL     1      41.881   0.642  18.729  1.00  0.00     0.041 C 
ATOM      8  O   UNL     1      41.171   0.765  17.696  1.00  0.00    -0.550 OA
ATOM      9  O   UNL     1      42.733   1.672  19.105  1.00  0.00    -0.550 OA
ENDBRANCH   6   7
ENDBRANCH   5   6
ENDBRANCH   4   5
ENDBRANCH   3   4
ENDBRANCH   2   3
ENDBRANCH   1   2
BRANCH   1  10
ATOM     10  C   UNL     1      43.756   1.045  25.580  1.00  0.00     0.000 C 
BRANCH  10  11
ATOM     11  C   UNL     1      43.813   2.525  26.003  1.00  0.00    -0.000 C 
BRANCH  11  12
ATOM     12  C   UNL     1      44.565   3.455  25.034  1.00  0.00    -0.000 C 
BRANCH  12  13
ATOM     13  C   UNL     1      43.624   4.213  24.081  1.00  0.00    -0.000 C 
BRANCH  13  14
ATOM     14  C   UNL     1      43.492   3.534  22.707  1.00  0.00    -0.000 C 
BRANCH  14  15
ATOM     15  C   UNL     1      42.048   3.206  22.276  1.00  0.00    -0.000 C 
BRANCH  15  16
ATOM     16  C   UNL     1      41.155   2.694  23.425  1.00  0.00    -0.003 C 
ATOM     17  C   UNL     1      40.055   3.688  23.799  1.00  0.00     0.004 C 
ENDBRANCH  15  16
ENDBRANCH  14  15
ENDBRANCH  13  14
ENDBRANCH  12  13
ENDBRANCH  11  12
ENDBRANCH  10  11
ENDBRANCH   1  10
TORSDOF 13
ENDMDL
MODEL 7
REMARK VINA RESULT:    -4.158     13.668     16.535
REMARK INTER + INTRA:          -8.904
REMARK INTER:                  -7.487
REMARK INTRA:                  -1.417
REMARK UNBOUND:                -1.587
REMARK SMILES CCCCCCCCCCCCCCC(=O)[O-]
REMARK SMILES IDX 9 1 10 2 11 3 12 4 13 5 14 6 15 7 16 8 17 9 8 10 7 11 6 12
REMARK SMILES IDX 5 13 4 14 3 15 2 16 1 17
REMARK H PARENT
REMARK Flexibility Score: inf
ROOT
ATOM      1  C   UNL     1      47.712   1.471  20.293  1.00  0.00     0.000 C 
ENDROOT
BRANCH   1   2
ATOM      2  C   UNL     1      47.212   2.083  21.611  1.00  0.00     0.000 C 
BRANCH   2   3
ATOM      3  C   UNL     1      45.715   1.817  21.852  1.00  0.00     0.000 C 
BRANCH   3   4
ATOM      4  C   UNL     1      45.457   0.527  22.652  1.00  0.00     0.000 C 
BRANCH   4   5
ATOM      5  C   UNL     1      45.236   0.730  24.163  1.00  0.00     0.006 C 
BRANCH   5   6
ATOM      6  C   UNL     1      45.234  -0.587  24.949  1.00  0.00     0.053 C 
BRANCH   6   7
ATOM      7  C   UNL     1      43.837  -1.093  25.117  1.00  0.00     0.041 C 
ATOM      8  O   UNL     1      42.861  -0.301  25.039  1.00  0.00    -0.550 OA
ATOM      9  O   UNL     1      43.608  -2.450  25.309  1.00  0.00    -0.550 OA
ENDBRANCH   6   7
ENDBRANCH   5   6
ENDBRANCH   4   5
ENDBRANCH   3   4
ENDBRANCH   2   3
ENDBRANCH   1   2
BRANCH   1  10
ATOM     10  C   UNL     1      48.350   0.086  20.492  1.00  0.00     0.000 C 
BRANCH  10  11
ATOM     11  C   UNL     1      49.110  -0.038  21.827  1.00  0.00    -0.000 C 
BRANCH  11  12
ATOM     12  C   UNL     1      50.490  -0.714  21.735  1.00  0.00    -0.000 C 
BRANCH  12  13
ATOM     13  C   UNL     1      50.891  -1.063  20.292  1.00  0.00    -0.000 C 
BRANCH  13  14
ATOM     14  C   UNL     1      52.384  -0.820  20.011  1.00  0.00    -0.000 C 
BRANCH  14  15
ATOM     15  C   UNL     1      52.765   0.646  19.728  1.00  0.00    -0.000 C 
BRANCH  15  16
ATOM     16  C   UNL     1      51.632   1.474  19.088  1.00  0.00    -0.003 C 
ATOM     17  C   UNL     1      51.234   2.680  19.940  1.00  0.00     0.004 C 
ENDBRANCH  15  16
ENDBRANCH  14  15
ENDBRANCH  13  14
ENDBRANCH  12  13
ENDBRANCH  11  12
ENDBRANCH  10  11
ENDBRANCH   1  10
TORSDOF 13
ENDMDL
MODEL 8
REMARK VINA RESULT:    -4.124     13.684     16.486
REMARK INTER + INTRA:          -8.845
REMARK INTER:                  -7.813
REMARK INTRA:                  -1.032
REMARK UNBOUND:                -1.587
REMARK SMILES CCCCCCCCCCCCCCC(=O)[O-]
REMARK SMILES IDX 9 1 10 2 11 3 12 4 13 5 14 6 15 7 16 8 17 9 8 10 7 11 6 12
REMARK SMILES IDX 5 13 4 14 3 15 2 16 1 17
REMARK H PARENT
REMARK Flexibility Score: inf
ROOT
ATOM      1  C   UNL     1      47.311   1.070  21.686  1.00  0.00     0.000 C 
ENDROOT
BRANCH   1   2
ATOM      2  C   UNL     1      45.990   1.751  21.293  1.00  0.00     0.000 C 
BRANCH   2   3
ATOM      3  C   UNL     1      44.877   1.517  22.330  1.00  0.00     0.000 C 
BRANCH   3   4
ATOM      4  C   UNL     1      45.230   2.073  23.723  1.00  0.00     0.000 C 
BRANCH   4   5
ATOM      5  C   UNL     1      44.885   1.145  24.902  1.00  0.00     0.006 C 
BRANCH   5   6
ATOM      6  C   UNL     1      45.168  -0.333  24.603  1.00  0.00     0.053 C 
BRANCH   6   7
ATOM      7  C   UNL     1      43.904  -1.130  24.666  1.00  0.00     0.041 C 
ATOM      8  O   UNL     1      43.863  -2.204  25.322  1.00  0.00    -0.550 OA
ATOM      9  O   UNL     1      42.755  -0.661  24.042  1.00  0.00    -0.550 OA
ENDBRANCH   6   7
ENDBRANCH   5   6
ENDBRANCH   4   5
ENDBRANCH   3   4
ENDBRANCH   2   3
ENDBRANCH   1   2
BRANCH   1  10
ATOM     10  C   UNL     1      48.510   2.032  21.620  1.00  0.00     0.000 C 
BRANCH  10  11
ATOM     11  C   UNL     1      49.525   1.650  20.526  1.00  0.00    -0.000 C 
BRANCH  11  12
ATOM     12  C   UNL     1      49.593   0.150  20.189  1.00  0.00    -0.000 C 
BRANCH  12  13
ATOM     13  C   UNL     1      50.622  -0.609  21.044  1.00  0.00    -0.000 C 
BRANCH  13  14
ATOM     14  C   UNL     1      51.730  -1.266  20.203  1.00  0.00    -0.000 C 
BRANCH  14  15
ATOM     15  C   UNL     1      52.890  -0.331  19.805  1.00  0.00    -0.000 C 
BRANCH  15  16
ATOM     16  C   UNL     1      53.125  -0.242  18.283  1.00  0.00    -0.003 C 
ATOM     17  C   UNL     1      52.072  -1.009  17.482  1.00  0.00     0.004 C 
ENDBRANCH  15  16
ENDBRANCH  14  15
ENDBRANCH  13  14
ENDBRANCH  12  13
ENDBRANCH  11  12
ENDBRANCH  10  11
ENDBRANCH   1  10
TORSDOF 13
ENDMDL
MODEL 9
REMARK VINA RESULT:    -4.078     13.006     15.147
REMARK INTER + INTRA:          -8.765
REMARK INTER:                  -6.695
REMARK INTRA:                  -2.069
REMARK UNBOUND:                -1.587
REMARK SMILES CCCCCCCCCCCCCCC(=O)[O-]
REMARK SMILES IDX 9 1 10 2 11 3 12 4 13 5 14 6 15 7 16 8 17 9 8 10 7 11 6 12
REMARK SMILES IDX 5 13 4 14 3 15 2 16 1 17
REMARK H PARENT
REMARK Flexibility Score: inf
ROOT
ATOM      1  C   UNL     1      44.623   0.751  25.385  1.00  0.00     0.000 C 
ENDROOT
BRANCH   1   2
ATOM      2  C   UNL     1      43.449  -0.171  25.019  1.00  0.00     0.000 C 
BRANCH   2   3
ATOM      3  C   UNL     1      43.512  -0.652  23.558  1.00  0.00     0.000 C 
BRANCH   3   4
ATOM      4  C   UNL     1      42.614   0.173  22.617  1.00  0.00     0.000 C 
BRANCH   4   5
ATOM      5  C   UNL     1      42.624  -0.279  21.145  1.00  0.00     0.006 C 
BRANCH   5   6
ATOM      6  C   UNL     1      42.325   0.864  20.167  1.00  0.00     0.053 C 
BRANCH   6   7
ATOM      7  C   UNL     1      41.552   0.357  18.991  1.00  0.00     0.041 C 
ATOM      8  O   UNL     1      41.182   1.149  18.085  1.00  0.00    -0.550 OA
ATOM      9  O   UNL     1      41.284  -1.001  18.870  1.00  0.00    -0.550 OA
ENDBRANCH   6   7
ENDBRANCH   5   6
ENDBRANCH   4   5
ENDBRANCH   3   4
ENDBRANCH   2   3
ENDBRANCH   1   2
BRANCH   1  10
ATOM     10  C   UNL     1      44.155   2.101  25.954  1.00  0.00     0.000 C 
BRANCH  10  11
ATOM     11  C   UNL     1      43.603   3.049  24.873  1.00  0.00    -0.000 C 
BRANCH  11  12
ATOM     12  C   UNL     1      44.652   3.612  23.897  1.00  0.00    -0.000 C 
BRANCH  12  13
ATOM     13  C   UNL     1      44.222   3.499  22.425  1.00  0.00    -0.000 C 
BRANCH  13  14
ATOM     14  C   UNL     1      45.204   2.670  21.578  1.00  0.00    -0.000 C 
BRANCH  14  15
ATOM     15  C   UNL     1      46.337   1.989  22.370  1.00  0.00    -0.000 C 
BRANCH  15  16
ATOM     16  C   UNL     1      46.654   0.555  21.898  1.00  0.00    -0.003 C 
ATOM     17  C   UNL     1      48.082   0.414  21.371  1.00  0.00     0.004 C 
ENDBRANCH  15  16
ENDBRANCH  14  15
ENDBRANCH  13  14
ENDBRANCH  12  13
ENDBRANCH  11  12
ENDBRANCH  10  11
ENDBRANCH   1  10
TORSDOF 13
ENDMDL
