MODEL 1
REMARK VINA RESULT:    -4.217      0.000      0.000
REMARK INTER + INTRA:          -5.155
REMARK INTER:                  -4.833
REMARK INTRA:                  -0.322
REMARK UNBOUND:                -0.322
REMARK SMILES COc1ccc(C(C)=O)c(O)c1
REMARK SMILES IDX 6 1 10 2 12 3 3 4 4 5 5 6 7 7 8 8 9 9 11 10 2 12 1 13
REMARK H PARENT 11 11
REMARK Flexibility Score: inf
ROOT
ATOM      1  C   UNL     1       9.064 -31.824  16.289  1.00  0.00     0.059 A 
ATOM      2  C   UNL     1       9.772 -31.899  15.065  1.00  0.00     0.130 A 
ATOM      3  C   UNL     1       9.141 -32.418  13.927  1.00  0.00     0.093 A 
ATOM      4  C   UNL     1       7.820 -32.897  13.991  1.00  0.00     0.122 A 
ATOM      5  C   UNL     1       7.138 -32.848  15.208  1.00  0.00     0.047 A 
ATOM      6  C   UNL     1       7.749 -32.318  16.345  1.00  0.00     0.019 A 
ENDROOT
BRANCH   1   7
ATOM      7  C   UNL     1       9.655 -31.207  17.501  1.00  0.00     0.163 C 
ATOM      8  C   UNL     1       9.101 -31.494  18.863  1.00  0.00     0.093 C 
ATOM      9  O   UNL     1      10.583 -30.362  17.388  1.00  0.00    -0.294 OA
ENDBRANCH   1   7
BRANCH   2  10
ATOM     10  O   UNL     1      11.105 -31.500  14.946  1.00  0.00    -0.507 OA
ATOM     11  H   UNL     1      11.504 -30.729  15.463  1.00  0.00     0.293 HD
ENDBRANCH   2  10
BRANCH   4  12
ATOM     12  O   UNL     1       7.157 -33.431  12.875  1.00  0.00    -0.497 OA
ATOM     13  C   UNL     1       5.875 -34.048  12.921  1.00  0.00     0.278 C 
ENDBRANCH   4  12
TORSDOF 3
ENDMDL
MODEL 2
REMARK VINA RESULT:    -3.743      2.007      4.604
REMARK INTER + INTRA:          -4.612
REMARK INTER:                  -4.308
REMARK INTRA:                  -0.304
REMARK UNBOUND:                -0.322
REMARK SMILES COc1ccc(C(C)=O)c(O)c1
REMARK SMILES IDX 6 1 10 2 12 3 3 4 4 5 5 6 7 7 8 8 9 9 11 10 2 12 1 13
REMARK H PARENT 11 11
REMARK Flexibility Score: inf
ROOT
ATOM      1  C   UNL     1       8.687 -32.606  14.148  1.00  0.00     0.059 A 
ATOM      2  C   UNL     1       9.461 -31.941  15.130  1.00  0.00     0.130 A 
ATOM      3  C   UNL     1      10.844 -31.806  14.953  1.00  0.00     0.093 A 
ATOM      4  C   UNL     1      11.482 -32.352  13.825  1.00  0.00     0.122 A 
ATOM      5  C   UNL     1      10.719 -33.033  12.875  1.00  0.00     0.047 A 
ATOM      6  C   UNL     1       9.338 -33.159  13.031  1.00  0.00     0.019 A 
ENDROOT
BRANCH   1   7
ATOM      7  C   UNL     1       7.211 -32.702  14.244  1.00  0.00     0.163 C 
ATOM      8  C   UNL     1       6.363 -32.820  13.015  1.00  0.00     0.093 C 
ATOM      9  O   UNL     1       6.645 -32.600  15.365  1.00  0.00    -0.294 OA
ENDBRANCH   1   7
BRANCH   2  10
ATOM     10  O   UNL     1       8.902 -31.430  16.304  1.00  0.00    -0.507 OA
ATOM     11  H   UNL     1       7.955 -31.625  16.599  1.00  0.00     0.293 HD
ENDBRANCH   2  10
BRANCH   4  12
ATOM     12  O   UNL     1      12.866 -32.245  13.616  1.00  0.00    -0.497 OA
ATOM     13  C   UNL     1      13.651 -31.119  13.994  1.00  0.00     0.278 C 
ENDBRANCH   4  12
TORSDOF 3
ENDMDL
MODEL 3
REMARK VINA RESULT:    -3.410      1.817      3.139
REMARK INTER + INTRA:          -4.230
REMARK INTER:                  -3.925
REMARK INTRA:                  -0.305
REMARK UNBOUND:                -0.322
REMARK SMILES COc1ccc(C(C)=O)c(O)c1
REMARK SMILES IDX 6 1 10 2 12 3 3 4 4 5 5 6 7 7 8 8 9 9 11 10 2 12 1 13
REMARK H PARENT 11 11
REMARK Flexibility Score: inf
ROOT
ATOM      1  C   UNL     1       9.930 -32.655  14.306  1.00  0.00     0.059 A 
ATOM      2  C   UNL     1       9.196 -32.191  15.425  1.00  0.00     0.130 A 
ATOM      3  C   UNL     1       7.945 -32.750  15.717  1.00  0.00     0.093 A 
ATOM      4  C   UNL     1       7.391 -33.746  14.893  1.00  0.00     0.122 A 
ATOM      5  C   UNL     1       8.105 -34.178  13.775  1.00  0.00     0.047 A 
ATOM      6  C   UNL     1       9.360 -33.642  13.482  1.00  0.00     0.019 A 
ENDROOT
BRANCH   1   7
ATOM      7  C   UNL     1      11.293 -32.159  14.001  1.00  0.00     0.163 C 
ATOM      8  C   UNL     1      12.273 -33.007  13.250  1.00  0.00     0.093 C 
ATOM      9  O   UNL     1      11.672 -31.044  14.448  1.00  0.00    -0.294 OA
ENDBRANCH   1   7
BRANCH   2  10
ATOM     10  O   UNL     1       9.657 -31.161  16.248  1.00  0.00    -0.507 OA
ATOM     11  H   UNL     1       9.877 -31.287  17.227  1.00  0.00     0.293 HD
ENDBRANCH   2  10
BRANCH   4  12
ATOM     12  O   UNL     1       6.138 -34.324  15.149  1.00  0.00    -0.497 OA
ATOM     13  C   UNL     1       5.876 -35.723  15.117  1.00  0.00     0.278 C 
ENDBRANCH   4  12
TORSDOF 3
ENDMDL
MODEL 4
REMARK VINA RESULT:    -3.407      1.946      4.429
REMARK INTER + INTRA:          -4.227
REMARK INTER:                  -3.904
REMARK INTRA:                  -0.323
REMARK UNBOUND:                -0.322
REMARK SMILES COc1ccc(C(C)=O)c(O)c1
REMARK SMILES IDX 6 1 10 2 12 3 3 4 4 5 5 6 7 7 8 8 9 9 11 10 2 12 1 13
REMARK H PARENT 11 11
REMARK Flexibility Score: inf
ROOT
ATOM      1  C   UNL     1       9.290 -33.555  14.645  1.00  0.00     0.059 A 
ATOM      2  C   UNL     1       9.747 -32.239  14.900  1.00  0.00     0.130 A 
ATOM      3  C   UNL     1       9.417 -31.610  16.108  1.00  0.00     0.093 A 
ATOM      4  C   UNL     1       8.610 -32.257  17.060  1.00  0.00     0.122 A 
ATOM      5  C   UNL     1       8.138 -33.543  16.791  1.00  0.00     0.047 A 
ATOM      6  C   UNL     1       8.473 -34.187  15.599  1.00  0.00     0.019 A 
ENDROOT
BRANCH   1   7
ATOM      7  C   UNL     1       9.679 -34.298  13.423  1.00  0.00     0.163 C 
ATOM      8  C   UNL     1       8.815 -35.393  12.876  1.00  0.00     0.093 C 
ATOM      9  O   UNL     1      10.791 -34.071  12.875  1.00  0.00    -0.294 OA
ENDBRANCH   1   7
BRANCH   2  10
ATOM     10  O   UNL     1      10.498 -31.515  13.972  1.00  0.00    -0.507 OA
ATOM     11  H   UNL     1      11.366 -31.049  14.201  1.00  0.00     0.293 HD
ENDBRANCH   2  10
BRANCH   4  12
ATOM     12  O   UNL     1       8.253 -31.657  18.277  1.00  0.00    -0.497 OA
ATOM     13  C   UNL     1       9.101 -31.585  19.418  1.00  0.00     0.278 C 
ENDBRANCH   4  12
TORSDOF 3
ENDMDL
MODEL 5
REMARK VINA RESULT:    -3.323      1.928      4.468
REMARK INTER + INTRA:          -4.131
REMARK INTER:                  -3.797
REMARK INTRA:                  -0.334
REMARK UNBOUND:                -0.322
REMARK SMILES COc1ccc(C(C)=O)c(O)c1
REMARK SMILES IDX 6 1 10 2 12 3 3 4 4 5 5 6 7 7 8 8 9 9 11 10 2 12 1 13
REMARK H PARENT 11 11
REMARK Flexibility Score: inf
ROOT
ATOM      1  C   UNL     1       8.329 -33.224  14.998  1.00  0.00     0.059 A 
ATOM      2  C   UNL     1       8.653 -32.197  15.919  1.00  0.00     0.130 A 
ATOM      3  C   UNL     1       9.844 -31.475  15.764  1.00  0.00     0.093 A 
ATOM      4  C   UNL     1      10.740 -31.778  14.723  1.00  0.00     0.122 A 
ATOM      5  C   UNL     1      10.430 -32.810  13.837  1.00  0.00     0.047 A 
ATOM      6  C   UNL     1       9.239 -33.526  13.969  1.00  0.00     0.019 A 
ENDROOT
BRANCH   1   7
ATOM      7  C   UNL     1       7.045 -33.960  15.065  1.00  0.00     0.163 C 
ATOM      8  C   UNL     1       7.008 -35.457  15.008  1.00  0.00     0.093 C 
ATOM      9  O   UNL     1       5.956 -33.327  15.086  1.00  0.00    -0.294 OA
ENDBRANCH   1   7
BRANCH   2  10
ATOM     10  O   UNL     1       7.840 -31.887  17.011  1.00  0.00    -0.507 OA
ATOM     11  H   UNL     1       7.909 -32.353  17.906  1.00  0.00     0.293 HD
ENDBRANCH   2  10
BRANCH   4  12
ATOM     12  O   UNL     1      11.945 -31.082  14.541  1.00  0.00    -0.497 OA
ATOM     13  C   UNL     1      13.110 -31.636  13.938  1.00  0.00     0.278 C 
ENDBRANCH   4  12
TORSDOF 3
ENDMDL
MODEL 6
REMARK VINA RESULT:    -3.066      1.428      4.663
REMARK INTER + INTRA:          -3.836
REMARK INTER:                  -3.500
REMARK INTRA:                  -0.336
REMARK UNBOUND:                -0.322
REMARK SMILES COc1ccc(C(C)=O)c(O)c1
REMARK SMILES IDX 6 1 10 2 12 3 3 4 4 5 5 6 7 7 8 8 9 9 11 10 2 12 1 13
REMARK H PARENT 11 11
REMARK Flexibility Score: inf
ROOT
ATOM      1  C   UNL     1       8.034 -33.867  14.283  1.00  0.00     0.059 A 
ATOM      2  C   UNL     1       9.282 -33.232  14.072  1.00  0.00     0.130 A 
ATOM      3  C   UNL     1       9.771 -32.324  15.020  1.00  0.00     0.093 A 
ATOM      4  C   UNL     1       9.022 -32.008  16.167  1.00  0.00     0.122 A 
ATOM      5  C   UNL     1       7.779 -32.614  16.356  1.00  0.00     0.047 A 
ATOM      6  C   UNL     1       7.288 -33.533  15.428  1.00  0.00     0.019 A 
ENDROOT
BRANCH   1   7
ATOM      7  C   UNL     1       7.510 -34.897  13.356  1.00  0.00     0.163 C 
ATOM      8  C   UNL     1       6.092 -34.856  12.875  1.00  0.00     0.093 C 
ATOM      9  O   UNL     1       8.235 -35.874  13.026  1.00  0.00    -0.294 OA
ENDBRANCH   1   7
BRANCH   2  10
ATOM     10  O   UNL     1      10.048 -33.451  12.925  1.00  0.00    -0.507 OA
ATOM     11  H   UNL     1      10.323 -34.371  12.606  1.00  0.00     0.293 HD
ENDBRANCH   2  10
BRANCH   4  12
ATOM     12  O   UNL     1       9.474 -31.098  17.136  1.00  0.00    -0.497 OA
ATOM     13  C   UNL     1       9.366 -31.299  18.541  1.00  0.00     0.278 C 
ENDBRANCH   4  12
TORSDOF 3
ENDMDL
MODEL 7
REMARK VINA RESULT:    -3.056     16.165     17.541
REMARK INTER + INTRA:          -3.825
REMARK INTER:                  -3.576
REMARK INTRA:                  -0.249
REMARK UNBOUND:                -0.322
REMARK SMILES COc1ccc(C(C)=O)c(O)c1
REMARK SMILES IDX 6 1 10 2 12 3 3 4 4 5 5 6 7 7 8 8 9 9 11 10 2 12 1 13
REMARK H PARENT 11 11
REMARK Flexibility Score: inf
ROOT
ATOM      1  C   UNL     1      14.774 -35.486  31.780  1.00  0.00     0.059 A 
ATOM      2  C   UNL     1      15.483 -34.449  31.124  1.00  0.00     0.130 A 
ATOM      3  C   UNL     1      16.472 -34.767  30.185  1.00  0.00     0.093 A 
ATOM      4  C   UNL     1      16.796 -36.107  29.907  1.00  0.00     0.122 A 
ATOM      5  C   UNL     1      16.117 -37.125  30.578  1.00  0.00     0.047 A 
ATOM      6  C   UNL     1      15.116 -36.821  31.503  1.00  0.00     0.019 A 
ENDROOT
BRANCH   1   7
ATOM      7  C   UNL     1      13.661 -35.205  32.717  1.00  0.00     0.163 C 
ATOM      8  C   UNL     1      12.699 -36.281  33.118  1.00  0.00     0.093 C 
ATOM      9  O   UNL     1      13.462 -34.030  33.124  1.00  0.00    -0.294 OA
ENDBRANCH   1   7
BRANCH   2  10
ATOM     10  O   UNL     1      15.256 -33.098  31.399  1.00  0.00    -0.507 OA
ATOM     11  H   UNL     1      14.751 -32.773  32.213  1.00  0.00     0.293 HD
ENDBRANCH   2  10
BRANCH   4  12
ATOM     12  O   UNL     1      17.787 -36.466  28.980  1.00  0.00    -0.497 OA
ATOM     13  C   UNL     1      17.620 -36.417  27.567  1.00  0.00     0.278 C 
ENDBRANCH   4  12
TORSDOF 3
ENDMDL
MODEL 8
REMARK VINA RESULT:    -3.037      2.268      3.691
REMARK INTER + INTRA:          -3.802
REMARK INTER:                  -3.502
REMARK INTRA:                  -0.300
REMARK UNBOUND:                -0.322
REMARK SMILES COc1ccc(C(C)=O)c(O)c1
REMARK SMILES IDX 6 1 10 2 12 3 3 4 4 5 5 6 7 7 8 8 9 9 11 10 2 12 1 13
REMARK H PARENT 11 11
REMARK Flexibility Score: inf
ROOT
ATOM      1  C   UNL     1      11.756 -31.814  14.209  1.00  0.00     0.059 A 
ATOM      2  C   UNL     1      10.957 -31.354  15.285  1.00  0.00     0.130 A 
ATOM      3  C   UNL     1       9.649 -31.833  15.434  1.00  0.00     0.093 A 
ATOM      4  C   UNL     1       9.105 -32.742  14.510  1.00  0.00     0.122 A 
ATOM      5  C   UNL     1       9.887 -33.169  13.435  1.00  0.00     0.047 A 
ATOM      6  C   UNL     1      11.197 -32.714  13.284  1.00  0.00     0.019 A 
ENDROOT
BRANCH   1   7
ATOM      7  C   UNL     1      13.173 -31.406  14.053  1.00  0.00     0.163 C 
ATOM      8  C   UNL     1      14.152 -32.277  13.326  1.00  0.00     0.093 C 
ATOM      9  O   UNL     1      13.590 -30.355  14.607  1.00  0.00    -0.294 OA
ENDBRANCH   1   7
BRANCH   2  10
ATOM     10  O   UNL     1      11.412 -30.404  16.201  1.00  0.00    -0.507 OA
ATOM     11  H   UNL     1      11.259 -30.474  17.198  1.00  0.00     0.293 HD
ENDBRANCH   2  10
BRANCH   4  12
ATOM     12  O   UNL     1       7.797 -33.238  14.622  1.00  0.00    -0.497 OA
ATOM     13  C   UNL     1       6.766 -32.621  15.386  1.00  0.00     0.278 C 
ENDBRANCH   4  12
TORSDOF 3
ENDMDL
MODEL 9
REMARK VINA RESULT:    -2.770      1.397      1.678
REMARK INTER + INTRA:          -3.497
REMARK INTER:                  -3.212
REMARK INTRA:                  -0.284
REMARK UNBOUND:                -0.322
REMARK SMILES COc1ccc(C(C)=O)c(O)c1
REMARK SMILES IDX 6 1 10 2 12 3 3 4 4 5 5 6 7 7 8 8 9 9 11 10 2 12 1 13
REMARK H PARENT 11 11
REMARK Flexibility Score: inf
ROOT
ATOM      1  C   UNL     1       9.602 -31.872  15.196  1.00  0.00     0.059 A 
ATOM      2  C   UNL     1       9.435 -32.141  13.816  1.00  0.00     0.130 A 
ATOM      3  C   UNL     1       8.247 -32.728  13.360  1.00  0.00     0.093 A 
ATOM      4  C   UNL     1       7.228 -33.085  14.261  1.00  0.00     0.122 A 
ATOM      5  C   UNL     1       7.410 -32.845  15.624  1.00  0.00     0.047 A 
ATOM      6  C   UNL     1       8.582 -32.245  16.089  1.00  0.00     0.019 A 
ENDROOT
BRANCH   1   7
ATOM      7  C   UNL     1      10.800 -31.175  15.721  1.00  0.00     0.163 C 
ATOM      8  C   UNL     1      10.754 -30.428  17.018  1.00  0.00     0.093 C 
ATOM      9  O   UNL     1      11.856 -31.134  15.034  1.00  0.00    -0.294 OA
ENDBRANCH   1   7
BRANCH   2  10
ATOM     10  O   UNL     1      10.431 -31.871  12.875  1.00  0.00    -0.507 OA
ATOM     11  H   UNL     1      11.389 -32.179  12.975  1.00  0.00     0.293 HD
ENDBRANCH   2  10
BRANCH   4  12
ATOM     12  O   UNL     1       6.029 -33.682  13.844  1.00  0.00    -0.497 OA
ATOM     13  C   UNL     1       5.912 -35.031  13.405  1.00  0.00     0.278 C 
ENDBRANCH   4  12
TORSDOF 3
ENDMDL
