MODEL 1
REMARK VINA RESULT:    -3.941      0.000      0.000
REMARK INTER + INTRA:          -6.263
REMARK INTER:                  -6.014
REMARK INTRA:                  -0.248
REMARK UNBOUND:                -0.248
REMARK SMILES CC1=CCC[C@@H](C)C(=O)C[C@H](C(C)C)C(=O)C1
REMARK SMILES IDX 8 1 9 2 6 3 7 4 5 5 4 6 3 7 2 8 1 9 10 11 11 12 15 13 16 14
REMARK SMILES IDX 17 15 12 17 13 18 14 19
REMARK H PARENT
REMARK Flexibility Score: 70.00
ROOT
ATOM      1  C   UNL     1     -62.145 -77.738 222.355  1.00  0.00     0.136 C 
ATOM      2  O   UNL     1     -61.146 -77.043 222.472  1.00  0.00    -0.299 OA
ENDROOT
BRANCH   1   3
ATOM      3  C   UNL     1     -63.292 -77.232 221.492  1.00  0.00     0.053 C 
ATOM      4  C   UNL     1     -63.407 -75.709 221.606  1.00  0.00     0.016 C 
BRANCH   3   5
ATOM      5  C   UNL     1     -64.636 -77.911 221.836  1.00  0.00     0.015 C 
BRANCH   5   6
ATOM      6  C   UNL     1     -65.441 -77.097 222.863  1.00  0.00     0.028 C 
BRANCH   6   7
ATOM      7  C   UNL     1     -66.343 -77.944 223.726  1.00  0.00    -0.028 C 
ATOM      8  C   UNL     1     -65.986 -78.601 224.861  1.00  0.00    -0.070 CG0
ATOM      9  C   UNL     1     -67.005 -79.493 225.527  1.00  0.00     0.039 C 
ATOM     10  G   UNL     1     -64.672 -78.389 225.607  1.00  0.00     0.000 G0
ENDBRANCH   6   7
ENDBRANCH   5   6
ENDBRANCH   3   5
ENDBRANCH   1   3
BRANCH   1  11
ATOM     11  C   UNL     1     -62.240 -79.034 223.131  1.00  0.00     0.087 C 
BRANCH  11  12
ATOM     12  C   UNL     1     -62.256 -78.864 224.678  1.00  0.00     0.066 C 
BRANCH  12  13
ATOM     13  C   UNL     1     -63.575 -79.359 225.268  1.00  0.00     0.140 C 
ATOM     14  O   UNL     1     -63.727 -80.542 225.540  1.00  0.00    -0.299 OA
BRANCH  13  15
ATOM     15  C   UNL     1     -64.674 -78.378 225.596  1.00  0.00     0.106 CG0
ATOM     16  G   UNL     1     -65.983 -78.606 224.847  1.00  0.00     0.000 G0
ENDBRANCH  13  15
ENDBRANCH  12  13
BRANCH  12  17
ATOM     17  C   UNL     1     -61.007 -79.462 225.416  1.00  0.00    -0.006 C 
ATOM     18  C   UNL     1     -60.281 -80.545 224.596  1.00  0.00     0.008 C 
ATOM     19  C   UNL     1     -59.992 -78.354 225.760  1.00  0.00     0.008 C 
ENDBRANCH  12  17
ENDBRANCH  11  12
ENDBRANCH   1  11
TORSDOF 1
ENDMDL
MODEL 2
REMARK VINA RESULT:    -3.900      1.980      4.557
REMARK INTER + INTRA:          -6.200
REMARK INTER:                  -5.805
REMARK INTRA:                  -0.395
REMARK UNBOUND:                -0.248
REMARK SMILES CC1=CCC[C@@H](C)C(=O)C[C@H](C(C)C)C(=O)C1
REMARK SMILES IDX 8 1 9 2 6 3 7 4 5 5 4 6 3 7 2 8 1 9 10 11 11 12 15 13 16 14
REMARK SMILES IDX 17 15 12 17 13 18 14 19
REMARK H PARENT
REMARK Flexibility Score: 70.00
ROOT
ATOM      1  C   UNL     1     -65.368 -78.087 222.966  1.00  0.00     0.136 C 
ATOM      2  O   UNL     1     -66.186 -77.185 222.865  1.00  0.00    -0.299 OA
ENDROOT
BRANCH   1   3
ATOM      3  C   UNL     1     -65.544 -79.115 224.073  1.00  0.00     0.053 C 
ATOM      4  C   UNL     1     -66.931 -79.760 223.981  1.00  0.00     0.016 C 
BRANCH   3   5
ATOM      5  C   UNL     1     -65.309 -78.519 225.478  1.00  0.00     0.015 C 
BRANCH   5   6
ATOM      6  C   UNL     1     -63.829 -78.598 225.891  1.00  0.00     0.028 C 
BRANCH   6   7
ATOM      7  C   UNL     1     -63.126 -79.828 225.372  1.00  0.00    -0.028 C 
ATOM      8  C   UNL     1     -62.107 -79.852 224.472  1.00  0.00    -0.070 CG0
ATOM      9  C   UNL     1     -61.607 -81.191 223.987  1.00  0.00     0.039 C 
ATOM     10  G   UNL     1     -61.320 -78.625 224.022  1.00  0.00     0.000 G0
ENDBRANCH   6   7
ENDBRANCH   5   6
ENDBRANCH   3   5
ENDBRANCH   1   3
BRANCH   1  11
ATOM     11  C   UNL     1     -64.170 -78.105 222.042  1.00  0.00     0.087 C 
BRANCH  11  12
ATOM     12  C   UNL     1     -62.973 -77.229 222.513  1.00  0.00     0.066 C 
BRANCH  12  13
ATOM     13  C   UNL     1     -61.704 -78.067 222.654  1.00  0.00     0.140 C 
ATOM     14  O   UNL     1     -60.971 -78.248 221.691  1.00  0.00    -0.299 OA
BRANCH  13  15
ATOM     15  C   UNL     1     -61.302 -78.614 224.002  1.00  0.00     0.106 CG0
ATOM     16  G   UNL     1     -62.099 -79.828 224.467  1.00  0.00     0.000 G0
ENDBRANCH  13  15
ENDBRANCH  12  13
BRANCH  12  17
ATOM     17  C   UNL     1     -62.740 -75.927 221.668  1.00  0.00    -0.006 C 
ATOM     18  C   UNL     1     -63.179 -76.073 220.199  1.00  0.00     0.008 C 
ATOM     19  C   UNL     1     -63.498 -74.734 222.284  1.00  0.00     0.008 C 
ENDBRANCH  12  17
ENDBRANCH  11  12
ENDBRANCH   1  11
TORSDOF 1
ENDMDL
MODEL 3
REMARK VINA RESULT:    -3.622      1.510      3.902
REMARK INTER + INTRA:          -5.775
REMARK INTER:                  -5.456
REMARK INTRA:                  -0.319
REMARK UNBOUND:                -0.248
REMARK SMILES CC1=CCC[C@@H](C)C(=O)C[C@H](C(C)C)C(=O)C1
REMARK SMILES IDX 8 1 9 2 6 3 7 4 5 5 4 6 3 7 2 8 1 9 10 11 11 12 15 13 16 14
REMARK SMILES IDX 17 15 12 17 13 18 14 19
REMARK H PARENT
REMARK Flexibility Score: 70.00
ROOT
ATOM      1  C   UNL     1     -61.366 -78.516 223.518  1.00  0.00     0.136 C 
ATOM      2  O   UNL     1     -60.565 -78.882 222.671  1.00  0.00    -0.299 OA
ENDROOT
BRANCH   1   3
ATOM      3  C   UNL     1     -61.369 -79.211 224.871  1.00  0.00     0.053 C 
ATOM      4  C   UNL     1     -61.213 -80.724 224.690  1.00  0.00     0.016 C 
BRANCH   3   5
ATOM      5  C   UNL     1     -62.631 -78.885 225.701  1.00  0.00     0.015 C 
BRANCH   5   6
ATOM      6  C   UNL     1     -63.729 -79.944 225.510  1.00  0.00     0.028 C 
BRANCH   6   7
ATOM      7  C   UNL     1     -65.121 -79.416 225.758  1.00  0.00    -0.028 C 
ATOM      8  C   UNL     1     -65.931 -78.825 224.840  1.00  0.00    -0.070 CG0
ATOM      9  C   UNL     1     -67.250 -78.258 225.305  1.00  0.00     0.039 C 
ATOM     10  G   UNL     1     -65.679 -78.823 223.336  1.00  0.00     0.000 G0
ENDBRANCH   6   7
ENDBRANCH   5   6
ENDBRANCH   3   5
ENDBRANCH   1   3
BRANCH   1  11
ATOM     11  C   UNL     1     -62.374 -77.444 223.168  1.00  0.00     0.087 C 
BRANCH  11  12
ATOM     12  C   UNL     1     -63.496 -77.902 222.190  1.00  0.00     0.066 C 
BRANCH  12  13
ATOM     13  C   UNL     1     -64.878 -77.666 222.795  1.00  0.00     0.140 C 
ATOM     14  O   UNL     1     -65.367 -76.545 222.806  1.00  0.00    -0.299 OA
BRANCH  13  15
ATOM     15  C   UNL     1     -65.687 -78.830 223.315  1.00  0.00     0.106 CG0
ATOM     16  G   UNL     1     -65.914 -78.832 224.823  1.00  0.00     0.000 G0
ENDBRANCH  13  15
ENDBRANCH  12  13
BRANCH  12  17
ATOM     17  C   UNL     1     -63.373 -77.328 220.735  1.00  0.00    -0.006 C 
ATOM     18  C   UNL     1     -62.724 -75.932 220.689  1.00  0.00     0.008 C 
ATOM     19  C   UNL     1     -62.548 -78.275 219.842  1.00  0.00     0.008 C 
ENDBRANCH  12  17
ENDBRANCH  11  12
ENDBRANCH   1  11
TORSDOF 1
ENDMDL
MODEL 4
REMARK VINA RESULT:    -3.601      3.318      5.267
REMARK INTER + INTRA:          -5.745
REMARK INTER:                  -5.473
REMARK INTRA:                  -0.271
REMARK UNBOUND:                -0.248
REMARK SMILES CC1=CCC[C@@H](C)C(=O)C[C@H](C(C)C)C(=O)C1
REMARK SMILES IDX 8 1 9 2 6 3 7 4 5 5 4 6 3 7 2 8 1 9 10 11 11 12 15 13 16 14
REMARK SMILES IDX 17 15 12 17 13 18 14 19
REMARK H PARENT
REMARK Flexibility Score: 70.00
ROOT
ATOM      1  C   UNL     1     -61.129 -77.146 219.694  1.00  0.00     0.136 C 
ATOM      2  O   UNL     1     -62.081 -77.034 218.936  1.00  0.00    -0.299 OA
ENDROOT
BRANCH   1   3
ATOM      3  C   UNL     1     -59.852 -77.791 219.177  1.00  0.00     0.053 C 
ATOM      4  C   UNL     1     -59.235 -76.931 218.071  1.00  0.00     0.016 C 
BRANCH   3   5
ATOM      5  C   UNL     1     -60.077 -79.238 218.686  1.00  0.00     0.015 C 
BRANCH   5   6
ATOM      6  C   UNL     1     -59.499 -80.271 219.668  1.00  0.00     0.028 C 
BRANCH   6   7
ATOM      7  C   UNL     1     -60.549 -80.946 220.516  1.00  0.00    -0.028 C 
ATOM      8  C   UNL     1     -60.885 -80.618 221.792  1.00  0.00    -0.070 CG0
ATOM      9  C   UNL     1     -61.885 -81.485 222.517  1.00  0.00     0.039 C 
ATOM     10  G   UNL     1     -60.440 -79.346 222.505  1.00  0.00     0.000 G0
ENDBRANCH   6   7
ENDBRANCH   5   6
ENDBRANCH   3   5
ENDBRANCH   1   3
BRANCH   1  11
ATOM     11  C   UNL     1     -61.279 -76.714 221.137  1.00  0.00     0.087 C 
BRANCH  11  12
ATOM     12  C   UNL     1     -62.299 -77.551 221.963  1.00  0.00     0.066 C 
BRANCH  12  13
ATOM     13  C   UNL     1     -61.582 -78.446 222.972  1.00  0.00     0.140 C 
ATOM     14  O   UNL     1     -61.962 -78.498 224.134  1.00  0.00    -0.299 OA
BRANCH  13  15
ATOM     15  C   UNL     1     -60.447 -79.335 222.525  1.00  0.00     0.106 CG0
ATOM     16  G   UNL     1     -60.875 -80.612 221.810  1.00  0.00     0.000 G0
ENDBRANCH  13  15
ENDBRANCH  12  13
BRANCH  12  17
ATOM     17  C   UNL     1     -63.455 -76.716 222.617  1.00  0.00    -0.006 C 
ATOM     18  C   UNL     1     -63.500 -75.257 222.126  1.00  0.00     0.008 C 
ATOM     19  C   UNL     1     -64.825 -77.364 222.335  1.00  0.00     0.008 C 
ENDBRANCH  12  17
ENDBRANCH  11  12
ENDBRANCH   1  11
TORSDOF 1
ENDMDL
MODEL 5
REMARK VINA RESULT:    -3.592      1.888      4.200
REMARK INTER + INTRA:          -5.731
REMARK INTER:                  -6.062
REMARK INTRA:                   0.331
REMARK UNBOUND:                -0.248
REMARK SMILES CC1=CCC[C@@H](C)C(=O)C[C@H](C(C)C)C(=O)C1
REMARK SMILES IDX 8 1 9 2 6 3 7 4 5 5 4 6 3 7 2 8 1 9 10 11 11 12 15 13 16 14
REMARK SMILES IDX 17 15 12 17 13 18 14 19
REMARK H PARENT
REMARK Flexibility Score: 70.00
ROOT
ATOM      1  C   UNL     1     -65.129 -77.020 222.485  1.00  0.00     0.136 C 
ATOM      2  O   UNL     1     -65.080 -75.857 222.857  1.00  0.00    -0.299 OA
ENDROOT
BRANCH   1   3
ATOM      3  C   UNL     1     -66.200 -77.930 223.066  1.00  0.00     0.053 C 
ATOM      4  C   UNL     1     -67.310 -77.096 223.714  1.00  0.00     0.016 C 
BRANCH   3   5
ATOM      5  C   UNL     1     -65.627 -78.954 224.070  1.00  0.00     0.015 C 
BRANCH   5   6
ATOM      6  C   UNL     1     -64.606 -78.309 225.023  1.00  0.00     0.028 C 
BRANCH   6   7
ATOM      7  C   UNL     1     -63.437 -79.207 225.346  1.00  0.00    -0.028 C 
ATOM      8  C   UNL     1     -62.595 -79.784 224.448  1.00  0.00    -0.070 CG0
ATOM      9  C   UNL     1     -61.549 -80.745 224.959  1.00  0.00     0.039 C 
ATOM     10  G   UNL     1     -62.525 -79.421 222.969  1.00  0.00     0.000 G0
ENDBRANCH   6   7
ENDBRANCH   5   6
ENDBRANCH   3   5
ENDBRANCH   1   3
BRANCH   1  11
ATOM     11  C   UNL     1     -64.079 -77.534 221.524  1.00  0.00     0.087 C 
BRANCH  11  12
ATOM     12  C   UNL     1     -62.630 -77.051 221.827  1.00  0.00     0.066 C 
BRANCH  12  13
ATOM     13  C   UNL     1     -61.881 -78.071 222.682  1.00  0.00     0.140 C 
ATOM     14  O   UNL     1     -60.811 -77.781 223.198  1.00  0.00    -0.299 OA
BRANCH  13  15
ATOM     15  C   UNL     1     -62.495 -79.421 222.962  1.00  0.00     0.106 CG0
ATOM     16  G   UNL     1     -62.585 -79.792 224.439  1.00  0.00     0.000 G0
ENDBRANCH  13  15
ENDBRANCH  12  13
BRANCH  12  17
ATOM     17  C   UNL     1     -61.809 -76.608 220.564  1.00  0.00    -0.006 C 
ATOM     18  C   UNL     1     -60.758 -77.648 220.133  1.00  0.00     0.008 C 
ATOM     19  C   UNL     1     -62.745 -76.341 219.370  1.00  0.00     0.008 C 
ENDBRANCH  12  17
ENDBRANCH  11  12
ENDBRANCH   1  11
TORSDOF 1
ENDMDL
MODEL 6
REMARK VINA RESULT:    -3.561      1.750      2.543
REMARK INTER + INTRA:          -5.683
REMARK INTER:                  -5.398
REMARK INTRA:                  -0.284
REMARK UNBOUND:                -0.248
REMARK SMILES CC1=CCC[C@@H](C)C(=O)C[C@H](C(C)C)C(=O)C1
REMARK SMILES IDX 8 1 9 2 6 3 7 4 5 5 4 6 3 7 2 8 1 9 10 11 11 12 15 13 16 14
REMARK SMILES IDX 17 15 12 17 13 18 14 19
REMARK H PARENT
REMARK Flexibility Score: 70.00
ROOT
ATOM      1  C   UNL     1     -60.536 -78.864 221.511  1.00  0.00     0.136 C 
ATOM      2  O   UNL     1     -59.317 -78.830 221.436  1.00  0.00    -0.299 OA
ENDROOT
BRANCH   1   3
ATOM      3  C   UNL     1     -61.345 -77.804 220.779  1.00  0.00     0.053 C 
ATOM      4  C   UNL     1     -60.728 -77.522 219.405  1.00  0.00     0.016 C 
BRANCH   3   5
ATOM      5  C   UNL     1     -61.488 -76.500 221.594  1.00  0.00     0.015 C 
BRANCH   5   6
ATOM      6  C   UNL     1     -62.948 -76.238 222.000  1.00  0.00     0.028 C 
BRANCH   6   7
ATOM      7  C   UNL     1     -63.922 -77.230 221.413  1.00  0.00    -0.028 C 
ATOM      8  C   UNL     1     -64.425 -78.328 222.038  1.00  0.00    -0.070 CG0
ATOM      9  C   UNL     1     -65.301 -79.267 221.246  1.00  0.00     0.039 C 
ATOM     10  G   UNL     1     -64.295 -78.610 223.531  1.00  0.00     0.000 G0
ENDBRANCH   6   7
ENDBRANCH   5   6
ENDBRANCH   3   5
ENDBRANCH   1   3
BRANCH   1  11
ATOM     11  C   UNL     1     -61.194 -79.905 222.390  1.00  0.00     0.087 C 
BRANCH  11  12
ATOM     12  C   UNL     1     -61.771 -79.355 223.728  1.00  0.00     0.066 C 
BRANCH  12  13
ATOM     13  C   UNL     1     -63.258 -79.681 223.856  1.00  0.00     0.140 C 
ATOM     14  O   UNL     1     -63.620 -80.767 224.288  1.00  0.00    -0.299 OA
BRANCH  13  15
ATOM     15  C   UNL     1     -64.294 -78.634 223.526  1.00  0.00     0.106 CG0
ATOM     16  G   UNL     1     -64.442 -78.323 222.040  1.00  0.00     0.000 G0
ENDBRANCH  13  15
ENDBRANCH  12  13
BRANCH  12  17
ATOM     17  C   UNL     1     -60.957 -79.757 225.008  1.00  0.00    -0.006 C 
ATOM     18  C   UNL     1     -59.907 -80.851 224.737  1.00  0.00     0.008 C 
ATOM     19  C   UNL     1     -60.238 -78.532 225.605  1.00  0.00     0.008 C 
ENDBRANCH  12  17
ENDBRANCH  11  12
ENDBRANCH   1  11
TORSDOF 1
ENDMDL
MODEL 7
REMARK VINA RESULT:    -3.542      2.425      4.564
REMARK INTER + INTRA:          -5.654
REMARK INTER:                  -5.243
REMARK INTRA:                  -0.412
REMARK UNBOUND:                -0.248
REMARK SMILES CC1=CCC[C@@H](C)C(=O)C[C@H](C(C)C)C(=O)C1
REMARK SMILES IDX 8 1 9 2 6 3 7 4 5 5 4 6 3 7 2 8 1 9 10 11 11 12 15 13 16 14
REMARK SMILES IDX 17 15 12 17 13 18 14 19
REMARK H PARENT
REMARK Flexibility Score: 70.00
ROOT
ATOM      1  C   UNL     1     -63.847 -76.666 222.664  1.00  0.00     0.136 C 
ATOM      2  O   UNL     1     -64.995 -76.251 222.617  1.00  0.00    -0.299 OA
ENDROOT
BRANCH   1   3
ATOM      3  C   UNL     1     -62.876 -76.259 221.565  1.00  0.00     0.053 C 
ATOM      4  C   UNL     1     -63.417 -76.683 220.196  1.00  0.00     0.016 C 
BRANCH   3   5
ATOM      5  C   UNL     1     -61.455 -76.820 221.792  1.00  0.00     0.015 C 
BRANCH   5   6
ATOM      6  C   UNL     1     -61.182 -78.053 220.913  1.00  0.00     0.028 C 
BRANCH   6   7
ATOM      7  C   UNL     1     -60.229 -79.039 221.544  1.00  0.00    -0.028 C 
ATOM      8  C   UNL     1     -60.567 -80.083 222.346  1.00  0.00    -0.070 CG0
ATOM      9  C   UNL     1     -59.460 -80.893 222.975  1.00  0.00     0.039 C 
ATOM     10  G   UNL     1     -61.989 -80.598 222.545  1.00  0.00     0.000 G0
ENDBRANCH   6   7
ENDBRANCH   5   6
ENDBRANCH   3   5
ENDBRANCH   1   3
BRANCH   1  11
ATOM     11  C   UNL     1     -63.453 -77.630 223.761  1.00  0.00     0.087 C 
BRANCH  11  12
ATOM     12  C   UNL     1     -63.901 -79.102 223.524  1.00  0.00     0.066 C 
BRANCH  12  13
ATOM     13  C   UNL     1     -62.735 -80.068 223.727  1.00  0.00     0.140 C 
ATOM     14  O   UNL     1     -62.437 -80.452 224.850  1.00  0.00    -0.299 OA
BRANCH  13  15
ATOM     15  C   UNL     1     -61.991 -80.619 222.536  1.00  0.00     0.106 CG0
ATOM     16  G   UNL     1     -60.571 -80.089 222.363  1.00  0.00     0.000 G0
ENDBRANCH  13  15
ENDBRANCH  12  13
BRANCH  12  17
ATOM     17  C   UNL     1     -65.183 -79.534 224.321  1.00  0.00    -0.006 C 
ATOM     18  C   UNL     1     -65.386 -78.731 225.619  1.00  0.00     0.008 C 
ATOM     19  C   UNL     1     -66.445 -79.376 223.451  1.00  0.00     0.008 C 
ENDBRANCH  12  17
ENDBRANCH  11  12
ENDBRANCH   1  11
TORSDOF 1
ENDMDL
MODEL 8
REMARK VINA RESULT:    -3.530      2.339      5.042
REMARK INTER + INTRA:          -5.636
REMARK INTER:                  -5.338
REMARK INTRA:                  -0.298
REMARK UNBOUND:                -0.248
REMARK SMILES CC1=CCC[C@@H](C)C(=O)C[C@H](C(C)C)C(=O)C1
REMARK SMILES IDX 8 1 9 2 6 3 7 4 5 5 4 6 3 7 2 8 1 9 10 11 11 12 15 13 16 14
REMARK SMILES IDX 17 15 12 17 13 18 14 19
REMARK H PARENT
REMARK Flexibility Score: 70.00
ROOT
ATOM      1  C   UNL     1     -64.663 -78.405 223.841  1.00  0.00     0.136 C 
ATOM      2  O   UNL     1     -65.316 -77.403 224.093  1.00  0.00    -0.299 OA
ENDROOT
BRANCH   1   3
ATOM      3  C   UNL     1     -64.679 -79.559 224.833  1.00  0.00     0.053 C 
ATOM      4  C   UNL     1     -63.762 -79.249 226.020  1.00  0.00     0.016 C 
BRANCH   3   5
ATOM      5  C   UNL     1     -64.297 -80.906 224.182  1.00  0.00     0.015 C 
BRANCH   5   6
ATOM      6  C   UNL     1     -62.921 -81.401 224.659  1.00  0.00     0.028 C 
BRANCH   6   7
ATOM      7  C   UNL     1     -61.948 -81.647 223.532  1.00  0.00    -0.028 C 
ATOM      8  C   UNL     1     -61.173 -80.713 222.921  1.00  0.00    -0.070 CG0
ATOM      9  C   UNL     1     -60.342 -81.133 221.733  1.00  0.00     0.039 C 
ATOM     10  G   UNL     1     -60.957 -79.294 223.438  1.00  0.00     0.000 G0
ENDBRANCH   6   7
ENDBRANCH   5   6
ENDBRANCH   3   5
ENDBRANCH   1   3
BRANCH   1  11
ATOM     11  C   UNL     1     -63.802 -78.434 222.597  1.00  0.00     0.087 C 
BRANCH  11  12
ATOM     12  C   UNL     1     -62.607 -77.436 222.611  1.00  0.00     0.066 C 
BRANCH  12  13
ATOM     13  C   UNL     1     -61.277 -78.176 222.493  1.00  0.00     0.140 C 
ATOM     14  O   UNL     1     -60.447 -77.830 221.663  1.00  0.00    -0.299 OA
BRANCH  13  15
ATOM     15  C   UNL     1     -60.941 -79.291 223.453  1.00  0.00     0.106 CG0
ATOM     16  G   UNL     1     -61.162 -80.698 222.907  1.00  0.00     0.000 G0
ENDBRANCH  13  15
ENDBRANCH  12  13
BRANCH  12  17
ATOM     17  C   UNL     1     -62.728 -76.253 221.588  1.00  0.00    -0.006 C 
ATOM     18  C   UNL     1     -63.360 -76.675 220.248  1.00  0.00     0.008 C 
ATOM     19  C   UNL     1     -63.568 -75.103 222.179  1.00  0.00     0.008 C 
ENDBRANCH  12  17
ENDBRANCH  11  12
ENDBRANCH   1  11
TORSDOF 1
ENDMDL
MODEL 9
REMARK VINA RESULT:    -3.445      1.951      4.153
REMARK INTER + INTRA:          -5.506
REMARK INTER:                  -5.177
REMARK INTRA:                  -0.329
REMARK UNBOUND:                -0.248
REMARK SMILES CC1=CCC[C@@H](C)C(=O)C[C@H](C(C)C)C(=O)C1
REMARK SMILES IDX 8 1 9 2 6 3 7 4 5 5 4 6 3 7 2 8 1 9 10 11 11 12 15 13 16 14
REMARK SMILES IDX 17 15 12 17 13 18 14 19
REMARK H PARENT
REMARK Flexibility Score: 70.00
ROOT
ATOM      1  C   UNL     1     -62.996 -79.341 224.801  1.00  0.00     0.136 C 
ATOM      2  O   UNL     1     -62.926 -80.441 225.328  1.00  0.00    -0.299 OA
ENDROOT
BRANCH   1   3
ATOM      3  C   UNL     1     -64.302 -78.566 224.891  1.00  0.00     0.053 C 
ATOM      4  C   UNL     1     -64.796 -78.530 226.341  1.00  0.00     0.016 C 
BRANCH   3   5
ATOM      5  C   UNL     1     -65.392 -79.131 223.954  1.00  0.00     0.015 C 
BRANCH   5   6
ATOM      6  C   UNL     1     -65.227 -78.620 222.513  1.00  0.00     0.028 C 
BRANCH   6   7
ATOM      7  C   UNL     1     -64.858 -77.159 222.433  1.00  0.00    -0.028 C 
ATOM      8  C   UNL     1     -63.754 -76.641 221.831  1.00  0.00    -0.070 CG0
ATOM      9  C   UNL     1     -63.498 -75.159 221.954  1.00  0.00     0.039 C 
ATOM     10  G   UNL     1     -62.826 -77.421 220.906  1.00  0.00     0.000 G0
ENDBRANCH   6   7
ENDBRANCH   5   6
ENDBRANCH   3   5
ENDBRANCH   1   3
BRANCH   1  11
ATOM     11  C   UNL     1     -61.814 -78.823 224.010  1.00  0.00     0.087 C 
BRANCH  11  12
ATOM     12  C   UNL     1     -61.801 -79.242 222.511  1.00  0.00     0.066 C 
BRANCH  12  13
ATOM     13  C   UNL     1     -61.618 -78.026 221.606  1.00  0.00     0.140 C 
ATOM     14  O   UNL     1     -60.500 -77.583 221.381  1.00  0.00    -0.299 OA
BRANCH  13  15
ATOM     15  C   UNL     1     -62.810 -77.408 220.916  1.00  0.00     0.106 CG0
ATOM     16  G   UNL     1     -63.748 -76.628 221.830  1.00  0.00     0.000 G0
ENDBRANCH  13  15
ENDBRANCH  12  13
BRANCH  12  17
ATOM     17  C   UNL     1     -60.805 -80.404 222.163  1.00  0.00    -0.006 C 
ATOM     18  C   UNL     1     -59.638 -80.519 223.161  1.00  0.00     0.008 C 
ATOM     19  C   UNL     1     -61.540 -81.758 222.119  1.00  0.00     0.008 C 
ENDBRANCH  12  17
ENDBRANCH  11  12
ENDBRANCH   1  11
TORSDOF 1
ENDMDL
