MODEL 1
REMARK VINA RESULT:    -3.047      0.000      0.000
REMARK INTER + INTRA:          -8.812
REMARK INTER:                  -5.718
REMARK INTRA:                  -3.094
REMARK UNBOUND:                -3.094
REMARK SMILES CCCCCCCCC=CCCCCCCCC(=O)[O-]
REMARK SMILES IDX 10 1 9 2 11 3 12 4 13 5 14 6 15 7 16 8 17 9 18 10 19 11
REMARK SMILES IDX 20 12 8 13 7 14 6 15 5 16 4 17 3 18 2 19 1 20
REMARK H PARENT
REMARK Flexibility Score: inf
ROOT
ATOM      1  C   UNL     1     147.746 166.868 151.803  1.00  0.00    -0.031 C 
ATOM      2  C   UNL     1     149.006 166.575 152.172  1.00  0.00    -0.031 C 
ENDROOT
BRANCH   1   3
ATOM      3  C   UNL     1     146.943 166.096 150.780  1.00  0.00     0.027 C 
BRANCH   3   4
ATOM      4  C   UNL     1     146.040 165.050 151.457  1.00  0.00     0.004 C 
BRANCH   4   5
ATOM      5  C   UNL     1     146.294 163.632 150.917  1.00  0.00     0.000 C 
BRANCH   5   6
ATOM      6  C   UNL     1     145.911 162.530 151.917  1.00  0.00     0.000 C 
BRANCH   6   7
ATOM      7  C   UNL     1     146.934 161.382 151.960  1.00  0.00     0.000 C 
BRANCH   7   8
ATOM      8  C   UNL     1     148.375 161.866 151.719  1.00  0.00     0.006 C 
BRANCH   8   9
ATOM      9  C   UNL     1     149.390 160.710 151.699  1.00  0.00     0.053 C 
BRANCH   9  10
ATOM     10  C   UNL     1     150.098 160.601 153.015  1.00  0.00     0.041 C 
ATOM     11  O   UNL     1     151.250 161.105 153.167  1.00  0.00    -0.550 OA
ATOM     12  O   UNL     1     149.493 159.932 154.070  1.00  0.00    -0.550 OA
ENDBRANCH   9  10
ENDBRANCH   8   9
ENDBRANCH   7   8
ENDBRANCH   6   7
ENDBRANCH   5   6
ENDBRANCH   4   5
ENDBRANCH   3   4
ENDBRANCH   1   3
BRANCH   2  13
ATOM     13  C   UNL     1     149.758 165.352 151.696  1.00  0.00     0.027 C 
BRANCH  13  14
ATOM     14  C   UNL     1     150.467 164.599 152.837  1.00  0.00     0.004 C 
BRANCH  14  15
ATOM     15  C   UNL     1     149.956 164.925 154.255  1.00  0.00     0.000 C 
BRANCH  15  16
ATOM     16  C   UNL     1     149.906 163.692 155.177  1.00  0.00     0.000 C 
BRANCH  16  17
ATOM     17  C   UNL     1     148.475 163.146 155.341  1.00  0.00    -0.000 C 
BRANCH  17  18
ATOM     18  C   UNL     1     147.415 164.061 154.701  1.00  0.00    -0.000 C 
BRANCH  18  19
ATOM     19  C   UNL     1     146.650 164.891 155.743  1.00  0.00    -0.003 C 
ATOM     20  C   UNL     1     146.678 166.388 155.437  1.00  0.00     0.004 C 
ENDBRANCH  18  19
ENDBRANCH  17  18
ENDBRANCH  16  17
ENDBRANCH  15  16
ENDBRANCH  14  15
ENDBRANCH  13  14
ENDBRANCH   2  13
TORSDOF 15
ENDMDL
MODEL 2
REMARK VINA RESULT:    -2.842      2.323      4.518
REMARK INTER + INTRA:          -8.428
REMARK INTER:                  -5.487
REMARK INTRA:                  -2.940
REMARK UNBOUND:                -3.094
REMARK SMILES CCCCCCCCC=CCCCCCCCC(=O)[O-]
REMARK SMILES IDX 10 1 9 2 11 3 12 4 13 5 14 6 15 7 16 8 17 9 18 10 19 11
REMARK SMILES IDX 20 12 8 13 7 14 6 15 5 16 4 17 3 18 2 19 1 20
REMARK H PARENT
REMARK Flexibility Score: inf
ROOT
ATOM      1  C   UNL     1     147.840 165.959 153.499  1.00  0.00    -0.031 C 
ATOM      2  C   UNL     1     147.528 165.737 152.210  1.00  0.00    -0.031 C 
ENDROOT
BRANCH   1   3
ATOM      3  C   UNL     1     146.864 165.879 154.651  1.00  0.00     0.027 C 
BRANCH   3   4
ATOM      4  C   UNL     1     147.259 164.768 155.639  1.00  0.00     0.004 C 
BRANCH   4   5
ATOM      5  C   UNL     1     146.096 163.798 155.915  1.00  0.00     0.000 C 
BRANCH   5   6
ATOM      6  C   UNL     1     146.565 162.420 156.405  1.00  0.00     0.000 C 
BRANCH   6   7
ATOM      7  C   UNL     1     147.896 161.983 155.769  1.00  0.00     0.000 C 
BRANCH   7   8
ATOM      8  C   UNL     1     148.007 160.454 155.624  1.00  0.00     0.006 C 
BRANCH   8   9
ATOM      9  C   UNL     1     147.214 159.700 156.705  1.00  0.00     0.053 C 
BRANCH   9  10
ATOM     10  C   UNL     1     148.115 159.268 157.822  1.00  0.00     0.041 C 
ATOM     11  O   UNL     1     147.926 159.693 158.999  1.00  0.00    -0.550 OA
ATOM     12  O   UNL     1     149.171 158.405 157.562  1.00  0.00    -0.550 OA
ENDBRANCH   9  10
ENDBRANCH   8   9
ENDBRANCH   7   8
ENDBRANCH   6   7
ENDBRANCH   5   6
ENDBRANCH   4   5
ENDBRANCH   3   4
ENDBRANCH   1   3
BRANCH   2  13
ATOM     13  C   UNL     1     146.171 165.258 151.744  1.00  0.00     0.027 C 
BRANCH  13  14
ATOM     14  C   UNL     1     146.164 163.774 151.332  1.00  0.00     0.004 C 
BRANCH  14  15
ATOM     15  C   UNL     1     145.960 162.774 152.488  1.00  0.00     0.000 C 
BRANCH  15  16
ATOM     16  C   UNL     1     146.707 161.444 152.274  1.00  0.00     0.000 C 
BRANCH  16  17
ATOM     17  C   UNL     1     148.016 161.632 151.484  1.00  0.00    -0.000 C 
BRANCH  17  18
ATOM     18  C   UNL     1     149.255 161.686 152.395  1.00  0.00    -0.000 C 
BRANCH  18  19
ATOM     19  C   UNL     1     149.995 163.030 152.301  1.00  0.00    -0.003 C 
ATOM     20  C   UNL     1     150.618 163.452 153.631  1.00  0.00     0.004 C 
ENDBRANCH  18  19
ENDBRANCH  17  18
ENDBRANCH  16  17
ENDBRANCH  15  16
ENDBRANCH  14  15
ENDBRANCH  13  14
ENDBRANCH   2  13
TORSDOF 15
ENDMDL
MODEL 3
REMARK VINA RESULT:    -2.822      1.718      4.208
REMARK INTER + INTRA:          -8.390
REMARK INTER:                  -5.419
REMARK INTRA:                  -2.971
REMARK UNBOUND:                -3.094
REMARK SMILES CCCCCCCCC=CCCCCCCCC(=O)[O-]
REMARK SMILES IDX 10 1 9 2 11 3 12 4 13 5 14 6 15 7 16 8 17 9 18 10 19 11
REMARK SMILES IDX 20 12 8 13 7 14 6 15 5 16 4 17 3 18 2 19 1 20
REMARK H PARENT
REMARK Flexibility Score: inf
ROOT
ATOM      1  C   UNL     1     145.899 165.172 151.731  1.00  0.00    -0.031 C 
ATOM      2  C   UNL     1     146.240 164.131 150.952  1.00  0.00    -0.031 C 
ENDROOT
BRANCH   1   3
ATOM      3  C   UNL     1     145.914 165.161 153.244  1.00  0.00     0.027 C 
BRANCH   3   4
ATOM      4  C   UNL     1     147.032 166.062 153.795  1.00  0.00     0.004 C 
BRANCH   4   5
ATOM      5  C   UNL     1     147.649 165.495 155.085  1.00  0.00     0.000 C 
BRANCH   5   6
ATOM      6  C   UNL     1     149.030 164.860 154.863  1.00  0.00     0.000 C 
BRANCH   6   7
ATOM      7  C   UNL     1     149.095 163.396 155.333  1.00  0.00     0.000 C 
BRANCH   7   8
ATOM      8  C   UNL     1     147.704 162.811 155.637  1.00  0.00     0.006 C 
BRANCH   8   9
ATOM      9  C   UNL     1     147.479 161.445 154.965  1.00  0.00     0.053 C 
BRANCH   9  10
ATOM     10  C   UNL     1     148.366 160.401 155.571  1.00  0.00     0.041 C 
ATOM     11  O   UNL     1     148.216 160.056 156.780  1.00  0.00    -0.550 OA
ATOM     12  O   UNL     1     149.366 159.816 154.806  1.00  0.00    -0.550 OA
ENDBRANCH   9  10
ENDBRANCH   8   9
ENDBRANCH   7   8
ENDBRANCH   6   7
ENDBRANCH   5   6
ENDBRANCH   4   5
ENDBRANCH   3   4
ENDBRANCH   1   3
BRANCH   2  13
ATOM     13  C   UNL     1     146.801 162.831 151.483  1.00  0.00     0.027 C 
BRANCH  13  14
ATOM     14  C   UNL     1     148.341 162.791 151.476  1.00  0.00     0.004 C 
BRANCH  14  15
ATOM     15  C   UNL     1     149.018 163.797 150.522  1.00  0.00     0.000 C 
BRANCH  15  16
ATOM     16  C   UNL     1     149.818 164.885 151.262  1.00  0.00     0.000 C 
BRANCH  16  17
ATOM     17  C   UNL     1     149.382 166.306 150.854  1.00  0.00    -0.000 C 
BRANCH  17  18
ATOM     18  C   UNL     1     149.889 167.384 151.829  1.00  0.00    -0.000 C 
BRANCH  18  19
ATOM     19  C   UNL     1     151.124 166.926 152.621  1.00  0.00    -0.003 C 
ATOM     20  C   UNL     1     152.049 168.086 152.988  1.00  0.00     0.004 C 
ENDBRANCH  18  19
ENDBRANCH  17  18
ENDBRANCH  16  17
ENDBRANCH  15  16
ENDBRANCH  14  15
ENDBRANCH  13  14
ENDBRANCH   2  13
TORSDOF 15
ENDMDL
MODEL 4
REMARK VINA RESULT:    -2.796      1.293      3.025
REMARK INTER + INTRA:          -8.341
REMARK INTER:                  -5.199
REMARK INTRA:                  -3.142
REMARK UNBOUND:                -3.094
REMARK SMILES CCCCCCCCC=CCCCCCCCC(=O)[O-]
REMARK SMILES IDX 10 1 9 2 11 3 12 4 13 5 14 6 15 7 16 8 17 9 18 10 19 11
REMARK SMILES IDX 20 12 8 13 7 14 6 15 5 16 4 17 3 18 2 19 1 20
REMARK H PARENT
REMARK Flexibility Score: inf
ROOT
ATOM      1  C   UNL     1     147.018 166.013 152.195  1.00  0.00    -0.031 C 
ATOM      2  C   UNL     1     146.927 166.219 153.521  1.00  0.00    -0.031 C 
ENDROOT
BRANCH   1   3
ATOM      3  C   UNL     1     146.380 164.860 151.454  1.00  0.00     0.027 C 
BRANCH   3   4
ATOM      4  C   UNL     1     147.345 163.666 151.346  1.00  0.00     0.004 C 
BRANCH   4   5
ATOM      5  C   UNL     1     146.743 162.380 151.939  1.00  0.00     0.000 C 
BRANCH   5   6
ATOM      6  C   UNL     1     147.697 161.179 151.864  1.00  0.00     0.000 C 
BRANCH   6   7
ATOM      7  C   UNL     1     149.080 161.551 151.301  1.00  0.00     0.000 C 
BRANCH   7   8
ATOM      8  C   UNL     1     150.134 160.458 151.554  1.00  0.00     0.006 C 
BRANCH   8   9
ATOM      9  C   UNL     1     150.703 160.506 152.983  1.00  0.00     0.053 C 
BRANCH   9  10
ATOM     10  C   UNL     1     150.760 159.133 153.580  1.00  0.00     0.041 C 
ATOM     11  O   UNL     1     151.165 158.151 152.891  1.00  0.00    -0.550 OA
ATOM     12  O   UNL     1     150.356 158.934 154.893  1.00  0.00    -0.550 OA
ENDBRANCH   9  10
ENDBRANCH   8   9
ENDBRANCH   7   8
ENDBRANCH   6   7
ENDBRANCH   5   6
ENDBRANCH   4   5
ENDBRANCH   3   4
ENDBRANCH   1   3
BRANCH   2  13
ATOM     13  C   UNL     1     146.071 165.383 154.445  1.00  0.00     0.027 C 
BRANCH  13  14
ATOM     14  C   UNL     1     146.873 164.306 155.200  1.00  0.00     0.004 C 
BRANCH  14  15
ATOM     15  C   UNL     1     148.390 164.566 155.298  1.00  0.00     0.000 C 
BRANCH  15  16
ATOM     16  C   UNL     1     149.236 163.456 154.648  1.00  0.00     0.000 C 
BRANCH  16  17
ATOM     17  C   UNL     1     150.598 163.978 154.151  1.00  0.00    -0.000 C 
BRANCH  17  18
ATOM     18  C   UNL     1     150.529 165.434 153.654  1.00  0.00    -0.000 C 
BRANCH  18  19
ATOM     19  C   UNL     1     150.567 165.533 152.121  1.00  0.00    -0.003 C 
ATOM     20  C   UNL     1     151.341 164.384 151.477  1.00  0.00     0.004 C 
ENDBRANCH  18  19
ENDBRANCH  17  18
ENDBRANCH  16  17
ENDBRANCH  15  16
ENDBRANCH  14  15
ENDBRANCH  13  14
ENDBRANCH   2  13
TORSDOF 15
ENDMDL
MODEL 5
REMARK VINA RESULT:    -2.738      3.080      5.466
REMARK INTER + INTRA:          -8.232
REMARK INTER:                  -5.134
REMARK INTRA:                  -3.098
REMARK UNBOUND:                -3.094
REMARK SMILES CCCCCCCCC=CCCCCCCCC(=O)[O-]
REMARK SMILES IDX 10 1 9 2 11 3 12 4 13 5 14 6 15 7 16 8 17 9 18 10 19 11
REMARK SMILES IDX 20 12 8 13 7 14 6 15 5 16 4 17 3 18 2 19 1 20
REMARK H PARENT
REMARK Flexibility Score: inf
ROOT
ATOM      1  C   UNL     1     147.373 162.078 155.174  1.00  0.00    -0.031 C 
ATOM      2  C   UNL     1     147.503 161.579 153.932  1.00  0.00    -0.031 C 
ENDROOT
BRANCH   1   3
ATOM      3  C   UNL     1     146.315 163.070 155.600  1.00  0.00     0.027 C 
BRANCH   3   4
ATOM      4  C   UNL     1     146.888 164.496 155.679  1.00  0.00     0.004 C 
BRANCH   4   5
ATOM      5  C   UNL     1     145.987 165.522 154.969  1.00  0.00     0.000 C 
BRANCH   5   6
ATOM      6  C   UNL     1     145.875 165.279 153.457  1.00  0.00     0.000 C 
BRANCH   6   7
ATOM      7  C   UNL     1     147.000 165.961 152.659  1.00  0.00     0.000 C 
BRANCH   7   8
ATOM      8  C   UNL     1     146.701 166.020 151.150  1.00  0.00     0.006 C 
BRANCH   8   9
ATOM      9  C   UNL     1     147.927 166.445 150.322  1.00  0.00     0.053 C 
BRANCH   9  10
ATOM     10  C   UNL     1     147.507 167.004 148.997  1.00  0.00     0.041 C 
ATOM     11  O   UNL     1     148.185 166.764 147.955  1.00  0.00    -0.550 OA
ATOM     12  O   UNL     1     146.373 167.801 148.913  1.00  0.00    -0.550 OA
ENDBRANCH   9  10
ENDBRANCH   8   9
ENDBRANCH   7   8
ENDBRANCH   6   7
ENDBRANCH   5   6
ENDBRANCH   4   5
ENDBRANCH   3   4
ENDBRANCH   1   3
BRANCH   2  13
ATOM     13  C   UNL     1     146.528 161.854 152.809  1.00  0.00     0.027 C 
BRANCH  13  14
ATOM     14  C   UNL     1     147.218 162.313 151.511  1.00  0.00     0.004 C 
BRANCH  14  15
ATOM     15  C   UNL     1     148.744 162.094 151.466  1.00  0.00     0.000 C 
BRANCH  15  16
ATOM     16  C   UNL     1     149.544 163.409 151.511  1.00  0.00     0.000 C 
BRANCH  16  17
ATOM     17  C   UNL     1     150.529 163.451 152.695  1.00  0.00    -0.000 C 
BRANCH  17  18
ATOM     18  C   UNL     1     150.097 164.444 153.789  1.00  0.00    -0.000 C 
BRANCH  18  19
ATOM     19  C   UNL     1     150.515 163.988 155.195  1.00  0.00    -0.003 C 
ATOM     20  C   UNL     1     151.051 162.557 155.213  1.00  0.00     0.004 C 
ENDBRANCH  18  19
ENDBRANCH  17  18
ENDBRANCH  16  17
ENDBRANCH  15  16
ENDBRANCH  14  15
ENDBRANCH  13  14
ENDBRANCH   2  13
TORSDOF 15
ENDMDL
MODEL 6
REMARK VINA RESULT:    -2.694      2.076      3.042
REMARK INTER + INTRA:          -8.151
REMARK INTER:                  -5.527
REMARK INTRA:                  -2.624
REMARK UNBOUND:                -3.094
REMARK SMILES CCCCCCCCC=CCCCCCCCC(=O)[O-]
REMARK SMILES IDX 10 1 9 2 11 3 12 4 13 5 14 6 15 7 16 8 17 9 18 10 19 11
REMARK SMILES IDX 20 12 8 13 7 14 6 15 5 16 4 17 3 18 2 19 1 20
REMARK H PARENT
REMARK Flexibility Score: inf
ROOT
ATOM      1  C   UNL     1     148.427 165.773 152.544  1.00  0.00    -0.031 C 
ATOM      2  C   UNL     1     149.308 165.220 153.397  1.00  0.00    -0.031 C 
ENDROOT
BRANCH   1   3
ATOM      3  C   UNL     1     147.005 166.149 152.895  1.00  0.00     0.027 C 
BRANCH   3   4
ATOM      4  C   UNL     1     146.036 164.988 152.612  1.00  0.00     0.004 C 
BRANCH   4   5
ATOM      5  C   UNL     1     146.516 164.104 151.448  1.00  0.00     0.000 C 
BRANCH   5   6
ATOM      6  C   UNL     1     146.028 162.651 151.554  1.00  0.00     0.000 C 
BRANCH   6   7
ATOM      7  C   UNL     1     147.059 161.723 152.219  1.00  0.00     0.000 C 
BRANCH   7   8
ATOM      8  C   UNL     1     148.501 162.026 151.773  1.00  0.00     0.006 C 
BRANCH   8   9
ATOM      9  C   UNL     1     149.300 160.751 151.454  1.00  0.00     0.053 C 
BRANCH   9  10
ATOM     10  C   UNL     1     150.316 160.479 152.520  1.00  0.00     0.041 C 
ATOM     11  O   UNL     1     150.780 161.426 153.220  1.00  0.00    -0.550 OA
ATOM     12  O   UNL     1     150.761 159.181 152.734  1.00  0.00    -0.550 OA
ENDBRANCH   9  10
ENDBRANCH   8   9
ENDBRANCH   7   8
ENDBRANCH   6   7
ENDBRANCH   5   6
ENDBRANCH   4   5
ENDBRANCH   3   4
ENDBRANCH   1   3
BRANCH   2  13
ATOM     13  C   UNL     1     149.032 165.002 154.867  1.00  0.00     0.027 C 
BRANCH  13  14
ATOM     14  C   UNL     1     148.723 163.533 155.212  1.00  0.00     0.004 C 
BRANCH  14  15
ATOM     15  C   UNL     1     147.280 163.259 155.681  1.00  0.00     0.000 C 
BRANCH  15  16
ATOM     16  C   UNL     1     146.999 161.765 155.928  1.00  0.00     0.000 C 
BRANCH  16  17
ATOM     17  C   UNL     1     148.226 160.884 155.624  1.00  0.00    -0.000 C 
BRANCH  17  18
ATOM     18  C   UNL     1     148.362 159.701 156.601  1.00  0.00    -0.000 C 
BRANCH  18  19
ATOM     19  C   UNL     1     147.022 159.313 157.243  1.00  0.00    -0.003 C 
ATOM     20  C   UNL     1     147.063 159.372 158.770  1.00  0.00     0.004 C 
ENDBRANCH  18  19
ENDBRANCH  17  18
ENDBRANCH  16  17
ENDBRANCH  15  16
ENDBRANCH  14  15
ENDBRANCH  13  14
ENDBRANCH   2  13
TORSDOF 15
ENDMDL
MODEL 7
REMARK VINA RESULT:    -2.693      1.854      3.691
REMARK INTER + INTRA:          -8.149
REMARK INTER:                  -5.134
REMARK INTRA:                  -3.016
REMARK UNBOUND:                -3.094
REMARK SMILES CCCCCCCCC=CCCCCCCCC(=O)[O-]
REMARK SMILES IDX 10 1 9 2 11 3 12 4 13 5 14 6 15 7 16 8 17 9 18 10 19 11
REMARK SMILES IDX 20 12 8 13 7 14 6 15 5 16 4 17 3 18 2 19 1 20
REMARK H PARENT
REMARK Flexibility Score: inf
ROOT
ATOM      1  C   UNL     1     148.042 165.224 154.236  1.00  0.00    -0.031 C 
ATOM      2  C   UNL     1     148.181 164.160 155.047  1.00  0.00    -0.031 C 
ENDROOT
BRANCH   1   3
ATOM      3  C   UNL     1     146.735 165.930 153.954  1.00  0.00     0.027 C 
BRANCH   3   4
ATOM      4  C   UNL     1     145.875 165.132 152.959  1.00  0.00     0.004 C 
BRANCH   4   5
ATOM      5  C   UNL     1     146.337 165.331 151.505  1.00  0.00     0.000 C 
BRANCH   5   6
ATOM      6  C   UNL     1     146.568 164.008 150.760  1.00  0.00     0.000 C 
BRANCH   6   7
ATOM      7  C   UNL     1     146.251 162.775 151.623  1.00  0.00     0.000 C 
BRANCH   7   8
ATOM      8  C   UNL     1     147.499 161.925 151.920  1.00  0.00     0.006 C 
BRANCH   8   9
ATOM      9  C   UNL     1     148.809 162.679 151.631  1.00  0.00     0.053 C 
BRANCH   9  10
ATOM     10  C   UNL     1     149.845 161.751 151.073  1.00  0.00     0.041 C 
ATOM     11  O   UNL     1     150.933 162.207 150.612  1.00  0.00    -0.550 OA
ATOM     12  O   UNL     1     149.607 160.384 151.051  1.00  0.00    -0.550 OA
ENDBRANCH   9  10
ENDBRANCH   8   9
ENDBRANCH   7   8
ENDBRANCH   6   7
ENDBRANCH   5   6
ENDBRANCH   4   5
ENDBRANCH   3   4
ENDBRANCH   1   3
BRANCH   2  13
ATOM     13  C   UNL     1     147.060 163.590 155.886  1.00  0.00     0.027 C 
BRANCH  13  14
ATOM     14  C   UNL     1     146.781 162.104 155.591  1.00  0.00     0.004 C 
BRANCH  14  15
ATOM     15  C   UNL     1     147.103 161.135 156.746  1.00  0.00     0.000 C 
BRANCH  15  16
ATOM     16  C   UNL     1     148.239 160.150 156.410  1.00  0.00     0.000 C 
BRANCH  16  17
ATOM     17  C   UNL     1     148.684 160.256 154.938  1.00  0.00    -0.000 C 
BRANCH  17  18
ATOM     18  C   UNL     1     150.215 160.248 154.781  1.00  0.00    -0.000 C 
BRANCH  18  19
ATOM     19  C   UNL     1     150.801 161.663 154.659  1.00  0.00    -0.003 C 
ATOM     20  C   UNL     1     151.278 162.219 156.000  1.00  0.00     0.004 C 
ENDBRANCH  18  19
ENDBRANCH  17  18
ENDBRANCH  16  17
ENDBRANCH  15  16
ENDBRANCH  14  15
ENDBRANCH  13  14
ENDBRANCH   2  13
TORSDOF 15
ENDMDL
MODEL 8
REMARK VINA RESULT:    -2.687      1.679      2.830
REMARK INTER + INTRA:          -8.137
REMARK INTER:                  -4.914
REMARK INTRA:                  -3.223
REMARK UNBOUND:                -3.094
REMARK SMILES CCCCCCCCC=CCCCCCCCC(=O)[O-]
REMARK SMILES IDX 10 1 9 2 11 3 12 4 13 5 14 6 15 7 16 8 17 9 18 10 19 11
REMARK SMILES IDX 20 12 8 13 7 14 6 15 5 16 4 17 3 18 2 19 1 20
REMARK H PARENT
REMARK Flexibility Score: inf
ROOT
ATOM      1  C   UNL     1     146.034 165.057 151.914  1.00  0.00    -0.031 C 
ATOM      2  C   UNL     1     147.015 165.941 152.165  1.00  0.00    -0.031 C 
ENDROOT
BRANCH   1   3
ATOM      3  C   UNL     1     146.218 163.743 151.187  1.00  0.00     0.027 C 
BRANCH   3   4
ATOM      4  C   UNL     1     146.074 162.551 152.149  1.00  0.00     0.004 C 
BRANCH   4   5
ATOM      5  C   UNL     1     146.992 161.379 151.759  1.00  0.00     0.000 C 
BRANCH   5   6
ATOM      6  C   UNL     1     148.384 161.466 152.401  1.00  0.00     0.000 C 
BRANCH   6   7
ATOM      7  C   UNL     1     149.485 161.828 151.390  1.00  0.00     0.000 C 
BRANCH   7   8
ATOM      8  C   UNL     1     150.885 161.871 152.030  1.00  0.00     0.006 C 
BRANCH   8   9
ATOM      9  C   UNL     1     150.844 161.650 153.552  1.00  0.00     0.053 C 
BRANCH   9  10
ATOM     10  C   UNL     1     151.791 162.578 154.250  1.00  0.00     0.041 C 
ATOM     11  O   UNL     1     152.304 163.555 153.630  1.00  0.00    -0.550 OA
ATOM     12  O   UNL     1     152.116 162.358 155.582  1.00  0.00    -0.550 OA
ENDBRANCH   9  10
ENDBRANCH   8   9
ENDBRANCH   7   8
ENDBRANCH   6   7
ENDBRANCH   5   6
ENDBRANCH   4   5
ENDBRANCH   3   4
ENDBRANCH   1   3
BRANCH   2  13
ATOM     13  C   UNL     1     148.474 165.688 151.855  1.00  0.00     0.027 C 
BRANCH  13  14
ATOM     14  C   UNL     1     149.246 165.082 153.042  1.00  0.00     0.004 C 
BRANCH  14  15
ATOM     15  C   UNL     1     148.616 165.327 154.428  1.00  0.00     0.000 C 
BRANCH  15  16
ATOM     16  C   UNL     1     148.467 164.039 155.259  1.00  0.00     0.000 C 
BRANCH  16  17
ATOM     17  C   UNL     1     147.002 163.769 155.654  1.00  0.00    -0.000 C 
BRANCH  17  18
ATOM     18  C   UNL     1     146.700 162.268 155.817  1.00  0.00    -0.000 C 
BRANCH  18  19
ATOM     19  C   UNL     1     147.977 161.419 155.918  1.00  0.00    -0.003 C 
ATOM     20  C   UNL     1     147.682 159.944 156.186  1.00  0.00     0.004 C 
ENDBRANCH  18  19
ENDBRANCH  17  18
ENDBRANCH  16  17
ENDBRANCH  15  16
ENDBRANCH  14  15
ENDBRANCH  13  14
ENDBRANCH   2  13
TORSDOF 15
ENDMDL
MODEL 9
REMARK VINA RESULT:    -2.408      7.502     10.005
REMARK INTER + INTRA:          -7.613
REMARK INTER:                  -4.536
REMARK INTRA:                  -3.077
REMARK UNBOUND:                -3.094
REMARK SMILES CCCCCCCCC=CCCCCCCCC(=O)[O-]
REMARK SMILES IDX 10 1 9 2 11 3 12 4 13 5 14 6 15 7 16 8 17 9 18 10 19 11
REMARK SMILES IDX 20 12 8 13 7 14 6 15 5 16 4 17 3 18 2 19 1 20
REMARK H PARENT
REMARK Flexibility Score: inf
ROOT
ATOM      1  C   UNL     1     150.625 158.212 161.049  1.00  0.00    -0.031 C 
ATOM      2  C   UNL     1     150.733 157.300 160.067  1.00  0.00    -0.031 C 
ENDROOT
BRANCH   1   3
ATOM      3  C   UNL     1     149.887 159.527 160.931  1.00  0.00     0.027 C 
BRANCH   3   4
ATOM      4  C   UNL     1     148.687 159.580 161.893  1.00  0.00     0.004 C 
BRANCH   4   5
ATOM      5  C   UNL     1     147.456 160.239 161.248  1.00  0.00     0.000 C 
BRANCH   5   6
ATOM      6  C   UNL     1     146.293 159.260 161.031  1.00  0.00     0.000 C 
BRANCH   6   7
ATOM      7  C   UNL     1     146.161 158.806 159.568  1.00  0.00     0.000 C 
BRANCH   7   8
ATOM      8  C   UNL     1     146.891 159.744 158.590  1.00  0.00     0.006 C 
BRANCH   8   9
ATOM      9  C   UNL     1     146.921 159.193 157.154  1.00  0.00     0.053 C 
BRANCH   9  10
ATOM     10  C   UNL     1     147.811 160.026 156.282  1.00  0.00     0.041 C 
ATOM     11  O   UNL     1     148.946 159.594 155.926  1.00  0.00    -0.550 OA
ATOM     12  O   UNL     1     147.392 161.284 155.871  1.00  0.00    -0.550 OA
ENDBRANCH   9  10
ENDBRANCH   8   9
ENDBRANCH   7   8
ENDBRANCH   6   7
ENDBRANCH   5   6
ENDBRANCH   4   5
ENDBRANCH   3   4
ENDBRANCH   1   3
BRANCH   2  13
ATOM     13  C   UNL     1     150.027 157.412 158.734  1.00  0.00     0.027 C 
BRANCH  13  14
ATOM     14  C   UNL     1     148.802 156.484 158.621  1.00  0.00     0.004 C 
BRANCH  14  15
ATOM     15  C   UNL     1     148.695 155.403 159.715  1.00  0.00     0.000 C 
BRANCH  15  16
ATOM     16  C   UNL     1     147.247 154.943 159.970  1.00  0.00     0.000 C 
BRANCH  16  17
ATOM     17  C   UNL     1     146.715 155.426 161.333  1.00  0.00    -0.000 C 
BRANCH  17  18
ATOM     18  C   UNL     1     147.828 155.980 162.241  1.00  0.00    -0.000 C 
BRANCH  18  19
ATOM     19  C   UNL     1     147.274 156.648 163.509  1.00  0.00    -0.003 C 
ATOM     20  C   UNL     1     145.875 156.151 163.871  1.00  0.00     0.004 C 
ENDBRANCH  18  19
ENDBRANCH  17  18
ENDBRANCH  16  17
ENDBRANCH  15  16
ENDBRANCH  14  15
ENDBRANCH  13  14
ENDBRANCH   2  13
TORSDOF 15
ENDMDL
