MODEL 1
REMARK VINA RESULT:    -5.161      0.000      0.000
REMARK INTER + INTRA:         -11.156
REMARK INTER:                  -9.384
REMARK INTRA:                  -1.772
REMARK UNBOUND:                -1.772
REMARK SMILES CCCCCCCCCCCCCC[C@@H](C)C(=O)[O-]
REMARK SMILES IDX 9 1 10 2 11 3 12 4 13 5 14 6 15 7 16 8 17 9 18 10 19 11 8 12
REMARK SMILES IDX 7 13 6 14 5 15 4 16 3 17 2 18 1 19
REMARK H PARENT
REMARK Flexibility Score: inf
ROOT
ATOM      1  C   UNL     1      17.745 -43.169 -24.504  1.00  0.00     0.000 C 
ENDROOT
BRANCH   1   2
ATOM      2  C   UNL     1      18.606 -41.896 -24.422  1.00  0.00     0.000 C 
BRANCH   2   3
ATOM      3  C   UNL     1      19.928 -42.048 -23.648  1.00  0.00     0.000 C 
BRANCH   3   4
ATOM      4  C   UNL     1      19.787 -42.917 -22.386  1.00  0.00     0.000 C 
BRANCH   4   5
ATOM      5  C   UNL     1      19.125 -42.161 -21.222  1.00  0.00     0.001 C 
BRANCH   5   6
ATOM      6  C   UNL     1      17.751 -42.741 -20.840  1.00  0.00     0.009 C 
BRANCH   6   7
ATOM      7  C   UNL     1      16.688 -41.638 -20.655  1.00  0.00     0.032 C 
ATOM      8  C   UNL     1      15.611 -41.741 -21.739  1.00  0.00     0.014 C 
BRANCH   7   9
ATOM      9  C   UNL     1      16.048 -41.719 -19.295  1.00  0.00     0.044 C 
ATOM     10  O   UNL     1      16.757 -41.925 -18.275  1.00  0.00    -0.550 OA
ATOM     11  O   UNL     1      14.674 -41.566 -19.155  1.00  0.00    -0.550 OA
ENDBRANCH   7   9
ENDBRANCH   6   7
ENDBRANCH   5   6
ENDBRANCH   4   5
ENDBRANCH   3   4
ENDBRANCH   2   3
ENDBRANCH   1   2
BRANCH   1  12
ATOM     12  C   UNL     1      18.201 -44.132 -25.611  1.00  0.00     0.000 C 
BRANCH  12  13
ATOM     13  C   UNL     1      19.055 -45.269 -25.031  1.00  0.00    -0.000 C 
BRANCH  13  14
ATOM     14  C   UNL     1      18.220 -46.317 -24.274  1.00  0.00    -0.000 C 
BRANCH  14  15
ATOM     15  C   UNL     1      18.412 -46.318 -22.744  1.00  0.00    -0.000 C 
BRANCH  15  16
ATOM     16  C   UNL     1      17.113 -46.439 -21.922  1.00  0.00    -0.000 C 
BRANCH  16  17
ATOM     17  C   UNL     1      16.279 -47.705 -22.203  1.00  0.00    -0.000 C 
BRANCH  17  18
ATOM     18  C   UNL     1      15.172 -47.990 -21.174  1.00  0.00    -0.003 C 
ATOM     19  C   UNL     1      15.053 -49.473 -20.823  1.00  0.00     0.004 C 
ENDBRANCH  17  18
ENDBRANCH  16  17
ENDBRANCH  15  16
ENDBRANCH  14  15
ENDBRANCH  13  14
ENDBRANCH  12  13
ENDBRANCH   1  12
TORSDOF 14
ENDMDL
MODEL 2
REMARK VINA RESULT:    -5.103      1.304      2.192
REMARK INTER + INTRA:         -11.052
REMARK INTER:                  -9.126
REMARK INTRA:                  -1.926
REMARK UNBOUND:                -1.772
REMARK SMILES CCCCCCCCCCCCCC[C@@H](C)C(=O)[O-]
REMARK SMILES IDX 9 1 10 2 11 3 12 4 13 5 14 6 15 7 16 8 17 9 18 10 19 11 8 12
REMARK SMILES IDX 7 13 6 14 5 15 4 16 3 17 2 18 1 19
REMARK H PARENT
REMARK Flexibility Score: inf
ROOT
ATOM      1  C   UNL     1      20.940 -44.667 -22.149  1.00  0.00     0.000 C 
ENDROOT
BRANCH   1   2
ATOM      2  C   UNL     1      19.839 -43.592 -22.110  1.00  0.00     0.000 C 
BRANCH   2   3
ATOM      3  C   UNL     1      20.098 -42.355 -22.988  1.00  0.00     0.000 C 
BRANCH   3   4
ATOM      4  C   UNL     1      19.357 -42.410 -24.335  1.00  0.00     0.000 C 
BRANCH   4   5
ATOM      5  C   UNL     1      17.833 -42.290 -24.174  1.00  0.00     0.001 C 
BRANCH   5   6
ATOM      6  C   UNL     1      17.420 -41.097 -23.291  1.00  0.00     0.009 C 
BRANCH   6   7
ATOM      7  C   UNL     1      16.101 -41.364 -22.537  1.00  0.00     0.032 C 
ATOM      8  C   UNL     1      15.442 -42.651 -23.043  1.00  0.00     0.014 C 
BRANCH   7   9
ATOM      9  C   UNL     1      16.331 -41.462 -21.052  1.00  0.00     0.044 C 
ATOM     10  O   UNL     1      17.499 -41.378 -20.588  1.00  0.00    -0.550 OA
ATOM     11  O   UNL     1      15.260 -41.643 -20.186  1.00  0.00    -0.550 OA
ENDBRANCH   7   9
ENDBRANCH   6   7
ENDBRANCH   5   6
ENDBRANCH   4   5
ENDBRANCH   3   4
ENDBRANCH   2   3
ENDBRANCH   1   2
BRANCH   1  12
ATOM     12  C   UNL     1      20.436 -46.024 -22.665  1.00  0.00     0.000 C 
BRANCH  12  13
ATOM     13  C   UNL     1      19.818 -45.883 -24.064  1.00  0.00    -0.000 C 
BRANCH  13  14
ATOM     14  C   UNL     1      18.452 -46.583 -24.187  1.00  0.00    -0.000 C 
BRANCH  14  15
ATOM     15  C   UNL     1      17.275 -45.830 -23.536  1.00  0.00    -0.000 C 
BRANCH  15  16
ATOM     16  C   UNL     1      17.014 -46.177 -22.058  1.00  0.00    -0.000 C 
BRANCH  16  17
ATOM     17  C   UNL     1      16.793 -47.676 -21.769  1.00  0.00    -0.000 C 
BRANCH  17  18
ATOM     18  C   UNL     1      15.332 -48.073 -21.494  1.00  0.00    -0.003 C 
ATOM     19  C   UNL     1      15.204 -49.424 -20.792  1.00  0.00     0.004 C 
ENDBRANCH  17  18
ENDBRANCH  16  17
ENDBRANCH  15  16
ENDBRANCH  14  15
ENDBRANCH  13  14
ENDBRANCH  12  13
ENDBRANCH   1  12
TORSDOF 14
ENDMDL
MODEL 3
REMARK VINA RESULT:    -5.074      3.128      5.272
REMARK INTER + INTRA:         -10.998
REMARK INTER:                  -9.286
REMARK INTRA:                  -1.712
REMARK UNBOUND:                -1.772
REMARK SMILES CCCCCCCCCCCCCC[C@@H](C)C(=O)[O-]
REMARK SMILES IDX 9 1 10 2 11 3 12 4 13 5 14 6 15 7 16 8 17 9 18 10 19 11 8 12
REMARK SMILES IDX 7 13 6 14 5 15 4 16 3 17 2 18 1 19
REMARK H PARENT
REMARK Flexibility Score: inf
ROOT
ATOM      1  C   UNL     1      18.712 -41.789 -24.577  1.00  0.00     0.000 C 
ENDROOT
BRANCH   1   2
ATOM      2  C   UNL     1      17.695 -41.271 -23.545  1.00  0.00     0.000 C 
BRANCH   2   3
ATOM      3  C   UNL     1      16.228 -41.647 -23.823  1.00  0.00     0.000 C 
BRANCH   3   4
ATOM      4  C   UNL     1      15.635 -42.580 -22.753  1.00  0.00     0.000 C 
BRANCH   4   5
ATOM      5  C   UNL     1      16.671 -43.573 -22.199  1.00  0.00     0.001 C 
BRANCH   5   6
ATOM      6  C   UNL     1      16.580 -44.960 -22.863  1.00  0.00     0.009 C 
BRANCH   6   7
ATOM      7  C   UNL     1      17.029 -46.088 -21.912  1.00  0.00     0.032 C 
ATOM      8  C   UNL     1      16.139 -47.323 -22.082  1.00  0.00     0.014 C 
BRANCH   7   9
ATOM      9  C   UNL     1      18.467 -46.463 -22.149  1.00  0.00     0.044 C 
ATOM     10  O   UNL     1      18.757 -47.350 -22.995  1.00  0.00    -0.550 OA
ATOM     11  O   UNL     1      19.484 -45.833 -21.441  1.00  0.00    -0.550 OA
ENDBRANCH   7   9
ENDBRANCH   6   7
ENDBRANCH   5   6
ENDBRANCH   4   5
ENDBRANCH   3   4
ENDBRANCH   2   3
ENDBRANCH   1   2
BRANCH   1  12
ATOM     12  C   UNL     1      19.802 -42.674 -23.953  1.00  0.00     0.000 C 
BRANCH  12  13
ATOM     13  C   UNL     1      19.835 -44.056 -24.622  1.00  0.00    -0.000 C 
BRANCH  13  14
ATOM     14  C   UNL     1      19.056 -44.097 -25.949  1.00  0.00    -0.000 C 
BRANCH  14  15
ATOM     15  C   UNL     1      18.120 -45.310 -26.117  1.00  0.00    -0.000 C 
BRANCH  15  16
ATOM     16  C   UNL     1      17.400 -45.398 -27.476  1.00  0.00    -0.000 C 
BRANCH  16  17
ATOM     17  C   UNL     1      18.238 -46.002 -28.621  1.00  0.00    -0.000 C 
BRANCH  17  18
ATOM     18  C   UNL     1      17.422 -46.487 -29.832  1.00  0.00    -0.003 C 
ATOM     19  C   UNL     1      17.194 -47.998 -29.829  1.00  0.00     0.004 C 
ENDBRANCH  17  18
ENDBRANCH  16  17
ENDBRANCH  15  16
ENDBRANCH  14  15
ENDBRANCH  13  14
ENDBRANCH  12  13
ENDBRANCH   1  12
TORSDOF 14
ENDMDL
MODEL 4
REMARK VINA RESULT:    -5.072      2.873      5.385
REMARK INTER + INTRA:         -10.996
REMARK INTER:                  -8.666
REMARK INTRA:                  -2.330
REMARK UNBOUND:                -1.772
REMARK SMILES CCCCCCCCCCCCCC[C@@H](C)C(=O)[O-]
REMARK SMILES IDX 9 1 10 2 11 3 12 4 13 5 14 6 15 7 16 8 17 9 18 10 19 11 8 12
REMARK SMILES IDX 7 13 6 14 5 15 4 16 3 17 2 18 1 19
REMARK H PARENT
REMARK Flexibility Score: inf
ROOT
ATOM      1  C   UNL     1      20.021 -42.068 -24.700  1.00  0.00     0.000 C 
ENDROOT
BRANCH   1   2
ATOM      2  C   UNL     1      20.372 -43.406 -25.375  1.00  0.00     0.000 C 
BRANCH   2   3
ATOM      3  C   UNL     1      19.171 -44.311 -25.701  1.00  0.00     0.000 C 
BRANCH   3   4
ATOM      4  C   UNL     1      17.950 -44.028 -24.809  1.00  0.00     0.000 C 
BRANCH   4   5
ATOM      5  C   UNL     1      17.385 -45.304 -24.162  1.00  0.00     0.001 C 
BRANCH   5   6
ATOM      6  C   UNL     1      18.479 -46.189 -23.536  1.00  0.00     0.009 C 
BRANCH   6   7
ATOM      7  C   UNL     1      18.071 -46.719 -22.146  1.00  0.00     0.032 C 
ATOM      8  C   UNL     1      16.616 -47.199 -22.158  1.00  0.00     0.014 C 
BRANCH   7   9
ATOM      9  C   UNL     1      18.971 -47.842 -21.704  1.00  0.00     0.044 C 
ATOM     10  O   UNL     1      20.161 -47.602 -21.367  1.00  0.00    -0.550 OA
ATOM     11  O   UNL     1      18.497 -49.148 -21.663  1.00  0.00    -0.550 OA
ENDBRANCH   7   9
ENDBRANCH   6   7
ENDBRANCH   5   6
ENDBRANCH   4   5
ENDBRANCH   3   4
ENDBRANCH   2   3
ENDBRANCH   1   2
BRANCH   1  12
ATOM     12  C   UNL     1      20.750 -41.861 -23.363  1.00  0.00     0.000 C 
BRANCH  12  13
ATOM     13  C   UNL     1      20.912 -43.194 -22.616  1.00  0.00    -0.000 C 
BRANCH  13  14
ATOM     14  C   UNL     1      19.766 -43.468 -21.626  1.00  0.00    -0.000 C 
BRANCH  14  15
ATOM     15  C   UNL     1      18.955 -42.224 -21.211  1.00  0.00    -0.000 C 
BRANCH  15  16
ATOM     16  C   UNL     1      17.424 -42.388 -21.280  1.00  0.00    -0.000 C 
BRANCH  16  17
ATOM     17  C   UNL     1      16.670 -41.210 -21.928  1.00  0.00    -0.000 C 
BRANCH  17  18
ATOM     18  C   UNL     1      16.065 -41.511 -23.310  1.00  0.00    -0.003 C 
ATOM     19  C   UNL     1      14.726 -42.243 -23.227  1.00  0.00     0.004 C 
ENDBRANCH  17  18
ENDBRANCH  16  17
ENDBRANCH  15  16
ENDBRANCH  14  15
ENDBRANCH  13  14
ENDBRANCH  12  13
ENDBRANCH   1  12
TORSDOF 14
ENDMDL
MODEL 5
REMARK VINA RESULT:    -5.054      3.038      5.165
REMARK INTER + INTRA:         -10.962
REMARK INTER:                  -9.753
REMARK INTRA:                  -1.210
REMARK UNBOUND:                -1.772
REMARK SMILES CCCCCCCCCCCCCC[C@@H](C)C(=O)[O-]
REMARK SMILES IDX 9 1 10 2 11 3 12 4 13 5 14 6 15 7 16 8 17 9 18 10 19 11 8 12
REMARK SMILES IDX 7 13 6 14 5 15 4 16 3 17 2 18 1 19
REMARK H PARENT
REMARK Flexibility Score: inf
ROOT
ATOM      1  C   UNL     1      17.752 -46.859 -23.340  1.00  0.00     0.000 C 
ENDROOT
BRANCH   1   2
ATOM      2  C   UNL     1      18.023 -46.230 -21.962  1.00  0.00     0.000 C 
BRANCH   2   3
ATOM      3  C   UNL     1      19.463 -45.734 -21.739  1.00  0.00     0.000 C 
BRANCH   3   4
ATOM      4  C   UNL     1      19.554 -44.204 -21.601  1.00  0.00     0.000 C 
BRANCH   4   5
ATOM      5  C   UNL     1      18.181 -43.520 -21.715  1.00  0.00     0.001 C 
BRANCH   5   6
ATOM      6  C   UNL     1      18.266 -41.988 -21.576  1.00  0.00     0.009 C 
BRANCH   6   7
ATOM      7  C   UNL     1      17.381 -41.263 -22.610  1.00  0.00     0.032 C 
ATOM      8  C   UNL     1      17.844 -41.583 -24.035  1.00  0.00     0.014 C 
BRANCH   7   9
ATOM      9  C   UNL     1      15.933 -41.641 -22.451  1.00  0.00     0.044 C 
ATOM     10  O   UNL     1      15.257 -41.989 -23.455  1.00  0.00    -0.550 OA
ATOM     11  O   UNL     1      15.333 -41.612 -21.197  1.00  0.00    -0.550 OA
ENDBRANCH   7   9
ENDBRANCH   6   7
ENDBRANCH   5   6
ENDBRANCH   4   5
ENDBRANCH   3   4
ENDBRANCH   2   3
ENDBRANCH   1   2
BRANCH   1  12
ATOM     12  C   UNL     1      18.560 -46.201 -24.469  1.00  0.00     0.000 C 
BRANCH  12  13
ATOM     13  C   UNL     1      17.732 -45.116 -25.174  1.00  0.00    -0.000 C 
BRANCH  13  14
ATOM     14  C   UNL     1      18.172 -44.880 -26.631  1.00  0.00    -0.000 C 
BRANCH  14  15
ATOM     15  C   UNL     1      17.990 -46.091 -27.568  1.00  0.00    -0.000 C 
BRANCH  15  16
ATOM     16  C   UNL     1      17.373 -45.766 -28.942  1.00  0.00    -0.000 C 
BRANCH  16  17
ATOM     17  C   UNL     1      17.449 -46.907 -29.978  1.00  0.00    -0.000 C 
BRANCH  17  18
ATOM     18  C   UNL     1      18.782 -47.000 -30.740  1.00  0.00    -0.003 C 
ATOM     19  C   UNL     1      19.023 -48.379 -31.352  1.00  0.00     0.004 C 
ENDBRANCH  17  18
ENDBRANCH  16  17
ENDBRANCH  15  16
ENDBRANCH  14  15
ENDBRANCH  13  14
ENDBRANCH  12  13
ENDBRANCH   1  12
TORSDOF 14
ENDMDL
MODEL 6
REMARK VINA RESULT:    -4.975      1.424      2.658
REMARK INTER + INTRA:         -10.818
REMARK INTER:                  -8.622
REMARK INTRA:                  -2.196
REMARK UNBOUND:                -1.772
REMARK SMILES CCCCCCCCCCCCCC[C@@H](C)C(=O)[O-]
REMARK SMILES IDX 9 1 10 2 11 3 12 4 13 5 14 6 15 7 16 8 17 9 18 10 19 11 8 12
REMARK SMILES IDX 7 13 6 14 5 15 4 16 3 17 2 18 1 19
REMARK H PARENT
REMARK Flexibility Score: inf
ROOT
ATOM      1  C   UNL     1      19.759 -42.995 -24.681  1.00  0.00     0.000 C 
ENDROOT
BRANCH   1   2
ATOM      2  C   UNL     1      18.259 -42.649 -24.697  1.00  0.00     0.000 C 
BRANCH   2   3
ATOM      3  C   UNL     1      17.847 -41.475 -23.791  1.00  0.00     0.000 C 
BRANCH   3   4
ATOM      4  C   UNL     1      16.328 -41.397 -23.565  1.00  0.00     0.000 C 
BRANCH   4   5
ATOM      5  C   UNL     1      15.854 -42.310 -22.422  1.00  0.00     0.001 C 
BRANCH   5   6
ATOM      6  C   UNL     1      15.727 -41.566 -21.079  1.00  0.00     0.009 C 
BRANCH   6   7
ATOM      7  C   UNL     1      16.643 -42.169 -19.994  1.00  0.00     0.032 C 
ATOM      8  C   UNL     1      18.066 -41.617 -20.122  1.00  0.00     0.014 C 
BRANCH   7   9
ATOM      9  C   UNL     1      16.112 -41.888 -18.613  1.00  0.00     0.044 C 
ATOM     10  O   UNL     1      14.896 -41.604 -18.451  1.00  0.00    -0.550 OA
ATOM     11  O   UNL     1      16.957 -41.941 -17.511  1.00  0.00    -0.550 OA
ENDBRANCH   7   9
ENDBRANCH   6   7
ENDBRANCH   5   6
ENDBRANCH   4   5
ENDBRANCH   3   4
ENDBRANCH   2   3
ENDBRANCH   1   2
BRANCH   1  12
ATOM     12  C   UNL     1      20.454 -42.589 -23.373  1.00  0.00     0.000 C 
BRANCH  12  13
ATOM     13  C   UNL     1      21.168 -43.791 -22.737  1.00  0.00    -0.000 C 
BRANCH  13  14
ATOM     14  C   UNL     1      20.994 -45.088 -23.548  1.00  0.00    -0.000 C 
BRANCH  14  15
ATOM     15  C   UNL     1      19.966 -46.082 -22.971  1.00  0.00    -0.000 C 
BRANCH  15  16
ATOM     16  C   UNL     1      19.294 -45.638 -21.657  1.00  0.00    -0.000 C 
BRANCH  16  17
ATOM     17  C   UNL     1      17.845 -45.132 -21.803  1.00  0.00    -0.000 C 
BRANCH  17  18
ATOM     18  C   UNL     1      16.966 -45.956 -22.760  1.00  0.00    -0.003 C 
ATOM     19  C   UNL     1      16.351 -47.186 -22.093  1.00  0.00     0.004 C 
ENDBRANCH  17  18
ENDBRANCH  16  17
ENDBRANCH  15  16
ENDBRANCH  14  15
ENDBRANCH  13  14
ENDBRANCH  12  13
ENDBRANCH   1  12
TORSDOF 14
ENDMDL
MODEL 7
REMARK VINA RESULT:    -4.960      2.526      5.023
REMARK INTER + INTRA:         -10.792
REMARK INTER:                  -8.721
REMARK INTRA:                  -2.071
REMARK UNBOUND:                -1.772
REMARK SMILES CCCCCCCCCCCCCC[C@@H](C)C(=O)[O-]
REMARK SMILES IDX 9 1 10 2 11 3 12 4 13 5 14 6 15 7 16 8 17 9 18 10 19 11 8 12
REMARK SMILES IDX 7 13 6 14 5 15 4 16 3 17 2 18 1 19
REMARK H PARENT
REMARK Flexibility Score: inf
ROOT
ATOM      1  C   UNL     1      19.863 -42.936 -24.277  1.00  0.00     0.000 C 
ENDROOT
BRANCH   1   2
ATOM      2  C   UNL     1      20.786 -42.682 -23.072  1.00  0.00     0.000 C 
BRANCH   2   3
ATOM      3  C   UNL     1      20.334 -43.330 -21.751  1.00  0.00     0.000 C 
BRANCH   3   4
ATOM      4  C   UNL     1      20.828 -44.778 -21.594  1.00  0.00     0.000 C 
BRANCH   4   5
ATOM      5  C   UNL     1      19.789 -45.810 -22.066  1.00  0.00     0.001 C 
BRANCH   5   6
ATOM      6  C   UNL     1      18.348 -45.415 -21.694  1.00  0.00     0.009 C 
BRANCH   6   7
ATOM      7  C   UNL     1      17.308 -46.091 -22.611  1.00  0.00     0.032 C 
ATOM      8  C   UNL     1      17.917 -46.398 -23.983  1.00  0.00     0.014 C 
BRANCH   7   9
ATOM      9  C   UNL     1      16.780 -47.360 -21.995  1.00  0.00     0.044 C 
ATOM     10  O   UNL     1      15.547 -47.487 -21.772  1.00  0.00    -0.550 OA
ATOM     11  O   UNL     1      17.646 -48.397 -21.672  1.00  0.00    -0.550 OA
ENDBRANCH   7   9
ENDBRANCH   6   7
ENDBRANCH   5   6
ENDBRANCH   4   5
ENDBRANCH   3   4
ENDBRANCH   2   3
ENDBRANCH   1   2
BRANCH   1  12
ATOM     12  C   UNL     1      19.306 -41.642 -24.889  1.00  0.00     0.000 C 
BRANCH  12  13
ATOM     13  C   UNL     1      17.949 -41.280 -24.266  1.00  0.00    -0.000 C 
BRANCH  13  14
ATOM     14  C   UNL     1      17.160 -42.515 -23.795  1.00  0.00    -0.000 C 
BRANCH  14  15
ATOM     15  C   UNL     1      15.753 -42.214 -23.241  1.00  0.00    -0.000 C 
BRANCH  15  16
ATOM     16  C   UNL     1      15.714 -41.744 -21.774  1.00  0.00    -0.000 C 
BRANCH  16  17
ATOM     17  C   UNL     1      16.835 -42.310 -20.878  1.00  0.00    -0.000 C 
BRANCH  17  18
ATOM     18  C   UNL     1      16.922 -41.680 -19.477  1.00  0.00    -0.003 C 
ATOM     19  C   UNL     1      15.583 -41.673 -18.742  1.00  0.00     0.004 C 
ENDBRANCH  17  18
ENDBRANCH  16  17
ENDBRANCH  15  16
ENDBRANCH  14  15
ENDBRANCH  13  14
ENDBRANCH  12  13
ENDBRANCH   1  12
TORSDOF 14
ENDMDL
MODEL 8
REMARK VINA RESULT:    -4.950      1.901      4.176
REMARK INTER + INTRA:         -10.774
REMARK INTER:                  -8.737
REMARK INTRA:                  -2.037
REMARK UNBOUND:                -1.772
REMARK SMILES CCCCCCCCCCCCCC[C@@H](C)C(=O)[O-]
REMARK SMILES IDX 9 1 10 2 11 3 12 4 13 5 14 6 15 7 16 8 17 9 18 10 19 11 8 12
REMARK SMILES IDX 7 13 6 14 5 15 4 16 3 17 2 18 1 19
REMARK H PARENT
REMARK Flexibility Score: inf
ROOT
ATOM      1  C   UNL     1      19.649 -46.827 -22.190  1.00  0.00     0.000 C 
ENDROOT
BRANCH   1   2
ATOM      2  C   UNL     1      20.385 -45.584 -21.658  1.00  0.00     0.000 C 
BRANCH   2   3
ATOM      3  C   UNL     1      20.474 -44.403 -22.642  1.00  0.00     0.000 C 
BRANCH   3   4
ATOM      4  C   UNL     1      20.179 -43.048 -21.977  1.00  0.00     0.000 C 
BRANCH   4   5
ATOM      5  C   UNL     1      18.703 -42.899 -21.571  1.00  0.00     0.001 C 
BRANCH   5   6
ATOM      6  C   UNL     1      18.304 -41.436 -21.303  1.00  0.00     0.009 C 
BRANCH   6   7
ATOM      7  C   UNL     1      17.194 -40.954 -22.260  1.00  0.00     0.032 C 
ATOM      8  C   UNL     1      17.555 -41.282 -23.712  1.00  0.00     0.014 C 
BRANCH   7   9
ATOM      9  C   UNL     1      15.867 -41.575 -21.914  1.00  0.00     0.044 C 
ATOM     10  O   UNL     1      15.162 -42.100 -22.816  1.00  0.00    -0.550 OA
ATOM     11  O   UNL     1      15.411 -41.574 -20.601  1.00  0.00    -0.550 OA
ENDBRANCH   7   9
ENDBRANCH   6   7
ENDBRANCH   5   6
ENDBRANCH   4   5
ENDBRANCH   3   4
ENDBRANCH   2   3
ENDBRANCH   1   2
BRANCH   1  12
ATOM     12  C   UNL     1      18.199 -46.923 -21.692  1.00  0.00     0.000 C 
BRANCH  12  13
ATOM     13  C   UNL     1      17.209 -46.832 -22.864  1.00  0.00    -0.000 C 
BRANCH  13  14
ATOM     14  C   UNL     1      16.685 -45.403 -23.093  1.00  0.00    -0.000 C 
BRANCH  14  15
ATOM     15  C   UNL     1      17.131 -44.751 -24.417  1.00  0.00    -0.000 C 
BRANCH  15  16
ATOM     16  C   UNL     1      18.025 -45.633 -25.310  1.00  0.00    -0.000 C 
BRANCH  16  17
ATOM     17  C   UNL     1      18.375 -45.026 -26.684  1.00  0.00    -0.000 C 
BRANCH  17  18
ATOM     18  C   UNL     1      17.418 -45.414 -27.824  1.00  0.00    -0.003 C 
ATOM     19  C   UNL     1      18.088 -46.268 -28.900  1.00  0.00     0.004 C 
ENDBRANCH  17  18
ENDBRANCH  16  17
ENDBRANCH  15  16
ENDBRANCH  14  15
ENDBRANCH  13  14
ENDBRANCH  12  13
ENDBRANCH   1  12
TORSDOF 14
ENDMDL
MODEL 9
REMARK VINA RESULT:    -4.913      2.727      5.685
REMARK INTER + INTRA:         -10.706
REMARK INTER:                  -8.131
REMARK INTRA:                  -2.575
REMARK UNBOUND:                -1.772
REMARK SMILES CCCCCCCCCCCCCC[C@@H](C)C(=O)[O-]
REMARK SMILES IDX 9 1 10 2 11 3 12 4 13 5 14 6 15 7 16 8 17 9 18 10 19 11 8 12
REMARK SMILES IDX 7 13 6 14 5 15 4 16 3 17 2 18 1 19
REMARK H PARENT
REMARK Flexibility Score: inf
ROOT
ATOM      1  C   UNL     1      15.846 -41.644 -21.125  1.00  0.00     0.000 C 
ENDROOT
BRANCH   1   2
ATOM      2  C   UNL     1      16.370 -41.188 -22.498  1.00  0.00     0.000 C 
BRANCH   2   3
ATOM      3  C   UNL     1      16.315 -42.254 -23.608  1.00  0.00     0.000 C 
BRANCH   3   4
ATOM      4  C   UNL     1      15.772 -43.606 -23.113  1.00  0.00     0.000 C 
BRANCH   4   5
ATOM      5  C   UNL     1      16.762 -44.759 -23.346  1.00  0.00     0.001 C 
BRANCH   5   6
ATOM      6  C   UNL     1      17.320 -45.339 -22.033  1.00  0.00     0.009 C 
BRANCH   6   7
ATOM      7  C   UNL     1      18.336 -46.471 -22.285  1.00  0.00     0.032 C 
ATOM      8  C   UNL     1      19.668 -46.165 -21.592  1.00  0.00     0.014 C 
BRANCH   7   9
ATOM      9  C   UNL     1      17.808 -47.797 -21.804  1.00  0.00     0.044 C 
ATOM     10  O   UNL     1      18.600 -48.750 -21.585  1.00  0.00    -0.550 OA
ATOM     11  O   UNL     1      16.445 -47.977 -21.598  1.00  0.00    -0.550 OA
ENDBRANCH   7   9
ENDBRANCH   6   7
ENDBRANCH   5   6
ENDBRANCH   4   5
ENDBRANCH   3   4
ENDBRANCH   2   3
ENDBRANCH   1   2
BRANCH   1  12
ATOM     12  C   UNL     1      16.969 -42.040 -20.155  1.00  0.00     0.000 C 
BRANCH  12  13
ATOM     13  C   UNL     1      18.311 -41.436 -20.595  1.00  0.00    -0.000 C 
BRANCH  13  14
ATOM     14  C   UNL     1      19.276 -42.484 -21.178  1.00  0.00    -0.000 C 
BRANCH  14  15
ATOM     15  C   UNL     1      20.295 -41.934 -22.196  1.00  0.00    -0.000 C 
BRANCH  15  16
ATOM     16  C   UNL     1      20.107 -42.432 -23.642  1.00  0.00    -0.000 C 
BRANCH  16  17
ATOM     17  C   UNL     1      20.883 -43.717 -23.996  1.00  0.00    -0.000 C 
BRANCH  17  18
ATOM     18  C   UNL     1      20.242 -44.576 -25.100  1.00  0.00    -0.003 C 
ATOM     19  C   UNL     1      18.985 -43.942 -25.694  1.00  0.00     0.004 C 
ENDBRANCH  17  18
ENDBRANCH  16  17
ENDBRANCH  15  16
ENDBRANCH  14  15
ENDBRANCH  13  14
ENDBRANCH  12  13
ENDBRANCH   1  12
TORSDOF 14
ENDMDL
