MODEL 1
REMARK VINA RESULT:    -4.019      0.000      0.000
REMARK INTER + INTRA:         -13.006
REMARK INTER:                  -9.189
REMARK INTRA:                  -3.817
REMARK UNBOUND:                -3.817
REMARK SMILES CCCCCCCCCCCCCCCCCCCCCCCC(=O)[O-]
REMARK SMILES IDX 13 1 14 2 15 3 16 4 17 5 18 6 19 7 20 8 21 9 22 10 23 11
REMARK SMILES IDX 24 12 25 13 26 14 12 15 11 16 10 17 9 18 8 19 7 20 6 21 5 22
REMARK SMILES IDX 4 23 3 24 2 25 1 26
REMARK H PARENT
REMARK Flexibility Score: inf
ROOT
ATOM      1  C   UNL     1     -31.868  19.781  24.977  1.00  0.00     0.000 C 
ENDROOT
BRANCH   1   2
ATOM      2  C   UNL     1     -30.924  19.342  23.843  1.00  0.00     0.000 C 
BRANCH   2   3
ATOM      3  C   UNL     1     -30.533  20.455  22.854  1.00  0.00     0.000 C 
BRANCH   3   4
ATOM      4  C   UNL     1     -29.209  21.149  23.219  1.00  0.00     0.000 C 
BRANCH   4   5
ATOM      5  C   UNL     1     -28.346  20.317  24.183  1.00  0.00     0.000 C 
BRANCH   5   6
ATOM      6  C   UNL     1     -28.207  20.891  25.609  1.00  0.00     0.000 C 
BRANCH   6   7
ATOM      7  C   UNL     1     -28.361  22.425  25.692  1.00  0.00     0.000 C 
BRANCH   7   8
ATOM      8  C   UNL     1     -29.343  22.860  26.796  1.00  0.00     0.000 C 
BRANCH   8   9
ATOM      9  C   UNL     1     -29.721  21.710  27.744  1.00  0.00     0.000 C 
BRANCH   9  10
ATOM     10  C   UNL     1     -30.952  22.032  28.611  1.00  0.00     0.006 C 
BRANCH  10  11
ATOM     11  C   UNL     1     -31.009  23.522  28.951  1.00  0.00     0.053 C 
BRANCH  11  12
ATOM     12  C   UNL     1     -31.939  23.761  30.101  1.00  0.00     0.041 C 
ATOM     13  O   UNL     1     -32.559  22.796  30.622  1.00  0.00    -0.550 OA
ATOM     14  O   UNL     1     -32.087  25.040  30.623  1.00  0.00    -0.550 OA
ENDBRANCH  11  12
ENDBRANCH  10  11
ENDBRANCH   9  10
ENDBRANCH   8   9
ENDBRANCH   7   8
ENDBRANCH   6   7
ENDBRANCH   5   6
ENDBRANCH   4   5
ENDBRANCH   3   4
ENDBRANCH   2   3
ENDBRANCH   1   2
BRANCH   1  15
ATOM     15  C   UNL     1     -31.588  19.055  26.306  1.00  0.00     0.000 C 
BRANCH  15  16
ATOM     16  C   UNL     1     -30.436  18.044  26.198  1.00  0.00     0.000 C 
BRANCH  16  17
ATOM     17  C   UNL     1     -30.072  17.415  27.556  1.00  0.00     0.000 C 
BRANCH  17  18
ATOM     18  C   UNL     1     -30.698  16.017  27.758  1.00  0.00    -0.000 C 
BRANCH  18  19
ATOM     19  C   UNL     1     -31.923  16.003  28.694  1.00  0.00    -0.000 C 
BRANCH  19  20
ATOM     20  C   UNL     1     -32.817  14.756  28.593  1.00  0.00    -0.000 C 
BRANCH  20  21
ATOM     21  C   UNL     1     -33.829  14.839  27.436  1.00  0.00    -0.000 C 
BRANCH  21  22
ATOM     22  C   UNL     1     -34.436  16.243  27.282  1.00  0.00    -0.000 C 
BRANCH  22  23
ATOM     23  C   UNL     1     -34.337  16.774  25.840  1.00  0.00    -0.000 C 
BRANCH  23  24
ATOM     24  C   UNL     1     -33.226  16.084  25.027  1.00  0.00    -0.000 C 
BRANCH  24  25
ATOM     25  C   UNL     1     -33.348  16.345  23.518  1.00  0.00    -0.003 C 
ATOM     26  C   UNL     1     -32.015  16.117  22.805  1.00  0.00     0.004 C 
ENDBRANCH  24  25
ENDBRANCH  23  24
ENDBRANCH  22  23
ENDBRANCH  21  22
ENDBRANCH  20  21
ENDBRANCH  19  20
ENDBRANCH  18  19
ENDBRANCH  17  18
ENDBRANCH  16  17
ENDBRANCH  15  16
ENDBRANCH   1  15
TORSDOF 22
ENDMDL
MODEL 2
REMARK VINA RESULT:    -4.015      1.338      2.965
REMARK INTER + INTRA:         -12.996
REMARK INTER:                  -8.669
REMARK INTRA:                  -4.327
REMARK UNBOUND:                -3.817
REMARK SMILES CCCCCCCCCCCCCCCCCCCCCCCC(=O)[O-]
REMARK SMILES IDX 13 1 14 2 15 3 16 4 17 5 18 6 19 7 20 8 21 9 22 10 23 11
REMARK SMILES IDX 24 12 25 13 26 14 12 15 11 16 10 17 9 18 8 19 7 20 6 21 5 22
REMARK SMILES IDX 4 23 3 24 2 25 1 26
REMARK H PARENT
REMARK Flexibility Score: inf
ROOT
ATOM      1  C   UNL     1     -33.579  18.090  24.389  1.00  0.00     0.000 C 
ENDROOT
BRANCH   1   2
ATOM      2  C   UNL     1     -32.844  19.170  25.204  1.00  0.00     0.000 C 
BRANCH   2   3
ATOM      3  C   UNL     1     -31.859  20.037  24.398  1.00  0.00     0.000 C 
BRANCH   3   4
ATOM      4  C   UNL     1     -31.027  19.225  23.390  1.00  0.00     0.000 C 
BRANCH   4   5
ATOM      5  C   UNL     1     -29.657  19.861  23.100  1.00  0.00     0.000 C 
BRANCH   5   6
ATOM      6  C   UNL     1     -29.503  21.332  23.540  1.00  0.00     0.000 C 
BRANCH   6   7
ATOM      7  C   UNL     1     -28.278  21.598  24.442  1.00  0.00     0.000 C 
BRANCH   7   8
ATOM      8  C   UNL     1     -28.531  21.212  25.911  1.00  0.00     0.000 C 
BRANCH   8   9
ATOM      9  C   UNL     1     -29.405  22.237  26.654  1.00  0.00     0.000 C 
BRANCH   9  10
ATOM     10  C   UNL     1     -30.500  21.578  27.512  1.00  0.00     0.006 C 
BRANCH  10  11
ATOM     11  C   UNL     1     -30.004  21.331  28.938  1.00  0.00     0.053 C 
BRANCH  11  12
ATOM     12  C   UNL     1     -30.771  22.174  29.910  1.00  0.00     0.041 C 
ATOM     13  O   UNL     1     -32.005  22.367  29.743  1.00  0.00    -0.550 OA
ATOM     14  O   UNL     1     -30.133  22.711  31.022  1.00  0.00    -0.550 OA
ENDBRANCH  11  12
ENDBRANCH  10  11
ENDBRANCH   9  10
ENDBRANCH   8   9
ENDBRANCH   7   8
ENDBRANCH   6   7
ENDBRANCH   5   6
ENDBRANCH   4   5
ENDBRANCH   3   4
ENDBRANCH   2   3
ENDBRANCH   1   2
BRANCH   1  15
ATOM     15  C   UNL     1     -33.741  16.766  25.157  1.00  0.00     0.000 C 
BRANCH  15  16
ATOM     16  C   UNL     1     -34.617  16.910  26.412  1.00  0.00     0.000 C 
BRANCH  16  17
ATOM     17  C   UNL     1     -34.555  15.670  27.322  1.00  0.00     0.000 C 
BRANCH  17  18
ATOM     18  C   UNL     1     -33.561  14.601  26.816  1.00  0.00    -0.000 C 
BRANCH  18  19
ATOM     19  C   UNL     1     -32.860  13.809  27.939  1.00  0.00    -0.000 C 
BRANCH  19  20
ATOM     20  C   UNL     1     -31.483  14.346  28.365  1.00  0.00    -0.000 C 
BRANCH  20  21
ATOM     21  C   UNL     1     -31.573  15.394  29.488  1.00  0.00    -0.000 C 
BRANCH  21  22
ATOM     22  C   UNL     1     -30.790  16.677  29.163  1.00  0.00    -0.000 C 
BRANCH  22  23
ATOM     23  C   UNL     1     -31.117  17.228  27.764  1.00  0.00    -0.000 C 
BRANCH  23  24
ATOM     24  C   UNL     1     -29.939  17.995  27.135  1.00  0.00    -0.000 C 
BRANCH  24  25
ATOM     25  C   UNL     1     -29.242  17.200  26.021  1.00  0.00    -0.003 C 
ATOM     26  C   UNL     1     -30.189  16.181  25.388  1.00  0.00     0.004 C 
ENDBRANCH  24  25
ENDBRANCH  23  24
ENDBRANCH  22  23
ENDBRANCH  21  22
ENDBRANCH  20  21
ENDBRANCH  19  20
ENDBRANCH  18  19
ENDBRANCH  17  18
ENDBRANCH  16  17
ENDBRANCH  15  16
ENDBRANCH   1  15
TORSDOF 22
ENDMDL
MODEL 3
REMARK VINA RESULT:    -3.974      2.233      4.744
REMARK INTER + INTRA:         -12.903
REMARK INTER:                  -8.559
REMARK INTRA:                  -4.344
REMARK UNBOUND:                -3.817
REMARK SMILES CCCCCCCCCCCCCCCCCCCCCCCC(=O)[O-]
REMARK SMILES IDX 13 1 14 2 15 3 16 4 17 5 18 6 19 7 20 8 21 9 22 10 23 11
REMARK SMILES IDX 24 12 25 13 26 14 12 15 11 16 10 17 9 18 8 19 7 20 6 21 5 22
REMARK SMILES IDX 4 23 3 24 2 25 1 26
REMARK H PARENT
REMARK Flexibility Score: inf
ROOT
ATOM      1  C   UNL     1     -30.513  19.741  27.166  1.00  0.00     0.000 C 
ENDROOT
BRANCH   1   2
ATOM      2  C   UNL     1     -30.072  21.176  26.823  1.00  0.00     0.000 C 
BRANCH   2   3
ATOM      3  C   UNL     1     -28.549  21.393  26.764  1.00  0.00     0.000 C 
BRANCH   3   4
ATOM      4  C   UNL     1     -28.044  22.415  27.797  1.00  0.00     0.000 C 
BRANCH   4   5
ATOM      5  C   UNL     1     -27.307  21.757  28.975  1.00  0.00     0.000 C 
BRANCH   5   6
ATOM      6  C   UNL     1     -28.206  21.291  30.141  1.00  0.00     0.000 C 
BRANCH   6   7
ATOM      7  C   UNL     1     -29.379  22.244  30.455  1.00  0.00     0.000 C 
BRANCH   7   8
ATOM      8  C   UNL     1     -30.748  21.547  30.358  1.00  0.00     0.000 C 
BRANCH   8   9
ATOM      9  C   UNL     1     -31.862  22.487  29.866  1.00  0.00     0.000 C 
BRANCH   9  10
ATOM     10  C   UNL     1     -31.354  23.910  29.571  1.00  0.00     0.006 C 
BRANCH  10  11
ATOM     11  C   UNL     1     -32.206  24.956  30.292  1.00  0.00     0.053 C 
BRANCH  11  12
ATOM     12  C   UNL     1     -32.533  24.496  31.680  1.00  0.00     0.041 C 
ATOM     13  O   UNL     1     -31.647  24.511  32.576  1.00  0.00    -0.550 OA
ATOM     14  O   UNL     1     -33.825  24.090  31.993  1.00  0.00    -0.550 OA
ENDBRANCH  11  12
ENDBRANCH  10  11
ENDBRANCH   9  10
ENDBRANCH   8   9
ENDBRANCH   7   8
ENDBRANCH   6   7
ENDBRANCH   5   6
ENDBRANCH   4   5
ENDBRANCH   3   4
ENDBRANCH   2   3
ENDBRANCH   1   2
BRANCH   1  15
ATOM     15  C   UNL     1     -29.344  18.847  27.620  1.00  0.00     0.000 C 
BRANCH  15  16
ATOM     16  C   UNL     1     -29.199  17.579  26.763  1.00  0.00     0.000 C 
BRANCH  16  17
ATOM     17  C   UNL     1     -28.777  17.888  25.316  1.00  0.00     0.000 C 
BRANCH  17  18
ATOM     18  C   UNL     1     -27.248  18.050  25.156  1.00  0.00    -0.000 C 
BRANCH  18  19
ATOM     19  C   UNL     1     -26.829  19.206  24.226  1.00  0.00    -0.000 C 
BRANCH  19  20
ATOM     20  C   UNL     1     -27.800  19.512  23.073  1.00  0.00    -0.000 C 
BRANCH  20  21
ATOM     21  C   UNL     1     -28.152  21.007  22.970  1.00  0.00    -0.000 C 
BRANCH  21  22
ATOM     22  C   UNL     1     -29.649  21.278  23.197  1.00  0.00    -0.000 C 
BRANCH  22  23
ATOM     23  C   UNL     1     -30.527  20.059  22.861  1.00  0.00    -0.000 C 
BRANCH  23  24
ATOM     24  C   UNL     1     -31.745  19.928  23.794  1.00  0.00    -0.000 C 
BRANCH  24  25
ATOM     25  C   UNL     1     -32.140  18.466  24.050  1.00  0.00    -0.003 C 
ATOM     26  C   UNL     1     -33.475  18.371  24.788  1.00  0.00     0.004 C 
ENDBRANCH  24  25
ENDBRANCH  23  24
ENDBRANCH  22  23
ENDBRANCH  21  22
ENDBRANCH  20  21
ENDBRANCH  19  20
ENDBRANCH  18  19
ENDBRANCH  17  18
ENDBRANCH  16  17
ENDBRANCH  15  16
ENDBRANCH   1  15
TORSDOF 22
ENDMDL
MODEL 4
REMARK VINA RESULT:    -3.973      3.202      7.549
REMARK INTER + INTRA:         -12.901
REMARK INTER:                 -10.729
REMARK INTRA:                  -2.172
REMARK UNBOUND:                -3.817
REMARK SMILES CCCCCCCCCCCCCCCCCCCCCCCC(=O)[O-]
REMARK SMILES IDX 13 1 14 2 15 3 16 4 17 5 18 6 19 7 20 8 21 9 22 10 23 11
REMARK SMILES IDX 24 12 25 13 26 14 12 15 11 16 10 17 9 18 8 19 7 20 6 21 5 22
REMARK SMILES IDX 4 23 3 24 2 25 1 26
REMARK H PARENT
REMARK Flexibility Score: inf
ROOT
ATOM      1  C   UNL     1     -26.584  17.604  22.196  1.00  0.00     0.000 C 
ENDROOT
BRANCH   1   2
ATOM      2  C   UNL     1     -27.658  17.174  21.180  1.00  0.00     0.000 C 
BRANCH   2   3
ATOM      3  C   UNL     1     -28.993  16.719  21.797  1.00  0.00     0.000 C 
BRANCH   3   4
ATOM      4  C   UNL     1     -30.100  17.781  21.690  1.00  0.00     0.000 C 
BRANCH   4   5
ATOM      5  C   UNL     1     -30.652  18.207  23.061  1.00  0.00     0.000 C 
BRANCH   5   6
ATOM      6  C   UNL     1     -31.118  19.675  23.160  1.00  0.00     0.000 C 
BRANCH   6   7
ATOM      7  C   UNL     1     -31.818  20.028  24.490  1.00  0.00     0.000 C 
BRANCH   7   8
ATOM      8  C   UNL     1     -33.318  19.679  24.478  1.00  0.00     0.000 C 
BRANCH   8   9
ATOM      9  C   UNL     1     -33.655  18.469  25.365  1.00  0.00     0.000 C 
BRANCH   9  10
ATOM     10  C   UNL     1     -33.936  17.192  24.552  1.00  0.00     0.006 C 
BRANCH  10  11
ATOM     11  C   UNL     1     -33.015  16.050  24.989  1.00  0.00     0.053 C 
BRANCH  11  12
ATOM     12  C   UNL     1     -33.700  15.187  26.003  1.00  0.00     0.041 C 
ATOM     13  O   UNL     1     -34.553  15.685  26.785  1.00  0.00    -0.550 OA
ATOM     14  O   UNL     1     -33.427  13.825  26.056  1.00  0.00    -0.550 OA
ENDBRANCH  11  12
ENDBRANCH  10  11
ENDBRANCH   9  10
ENDBRANCH   8   9
ENDBRANCH   7   8
ENDBRANCH   6   7
ENDBRANCH   5   6
ENDBRANCH   4   5
ENDBRANCH   3   4
ENDBRANCH   2   3
ENDBRANCH   1   2
BRANCH   1  15
ATOM     15  C   UNL     1     -26.380  19.130  22.245  1.00  0.00     0.000 C 
BRANCH  15  16
ATOM     16  C   UNL     1     -27.206  19.804  23.351  1.00  0.00     0.000 C 
BRANCH  16  17
ATOM     17  C   UNL     1     -27.867  21.113  22.882  1.00  0.00     0.000 C 
BRANCH  17  18
ATOM     18  C   UNL     1     -27.836  22.222  23.957  1.00  0.00    -0.000 C 
BRANCH  18  19
ATOM     19  C   UNL     1     -28.810  21.992  25.130  1.00  0.00    -0.000 C 
BRANCH  19  20
ATOM     20  C   UNL     1     -28.362  22.566  26.484  1.00  0.00    -0.000 C 
BRANCH  20  21
ATOM     21  C   UNL     1     -28.980  21.823  27.681  1.00  0.00    -0.000 C 
BRANCH  21  22
ATOM     22  C   UNL     1     -30.425  22.263  27.968  1.00  0.00    -0.000 C 
BRANCH  22  23
ATOM     23  C   UNL     1     -30.540  23.114  29.246  1.00  0.00    -0.000 C 
BRANCH  23  24
ATOM     24  C   UNL     1     -31.998  23.463  29.599  1.00  0.00    -0.000 C 
BRANCH  24  25
ATOM     25  C   UNL     1     -32.123  24.800  30.345  1.00  0.00    -0.003 C 
ATOM     26  C   UNL     1     -33.579  25.256  30.430  1.00  0.00     0.004 C 
ENDBRANCH  24  25
ENDBRANCH  23  24
ENDBRANCH  22  23
ENDBRANCH  21  22
ENDBRANCH  20  21
ENDBRANCH  19  20
ENDBRANCH  18  19
ENDBRANCH  17  18
ENDBRANCH  16  17
ENDBRANCH  15  16
ENDBRANCH   1  15
TORSDOF 22
ENDMDL
MODEL 5
REMARK VINA RESULT:    -3.953      2.841      6.811
REMARK INTER + INTRA:         -12.854
REMARK INTER:                  -9.575
REMARK INTRA:                  -3.279
REMARK UNBOUND:                -3.817
REMARK SMILES CCCCCCCCCCCCCCCCCCCCCCCC(=O)[O-]
REMARK SMILES IDX 13 1 14 2 15 3 16 4 17 5 18 6 19 7 20 8 21 9 22 10 23 11
REMARK SMILES IDX 24 12 25 13 26 14 12 15 11 16 10 17 9 18 8 19 7 20 6 21 5 22
REMARK SMILES IDX 4 23 3 24 2 25 1 26
REMARK H PARENT
REMARK Flexibility Score: inf
ROOT
ATOM      1  C   UNL     1     -32.911  15.103  27.298  1.00  0.00     0.000 C 
ENDROOT
BRANCH   1   2
ATOM      2  C   UNL     1     -34.236  15.844  27.560  1.00  0.00     0.000 C 
BRANCH   2   3
ATOM      3  C   UNL     1     -34.606  16.906  26.508  1.00  0.00     0.000 C 
BRANCH   3   4
ATOM      4  C   UNL     1     -34.128  16.545  25.092  1.00  0.00     0.000 C 
BRANCH   4   5
ATOM      5  C   UNL     1     -33.248  17.639  24.463  1.00  0.00     0.000 C 
BRANCH   5   6
ATOM      6  C   UNL     1     -33.527  19.076  24.953  1.00  0.00     0.000 C 
BRANCH   6   7
ATOM      7  C   UNL     1     -32.593  20.144  24.344  1.00  0.00     0.000 C 
BRANCH   7   8
ATOM      8  C   UNL     1     -31.202  19.583  23.997  1.00  0.00     0.000 C 
BRANCH   8   9
ATOM      9  C   UNL     1     -30.388  20.525  23.094  1.00  0.00     0.000 C 
BRANCH   9  10
ATOM     10  C   UNL     1     -29.503  21.500  23.891  1.00  0.00     0.006 C 
BRANCH  10  11
ATOM     11  C   UNL     1     -28.102  21.590  23.284  1.00  0.00     0.053 C 
BRANCH  11  12
ATOM     12  C   UNL     1     -27.325  20.343  23.577  1.00  0.00     0.041 C 
ATOM     13  O   UNL     1     -26.612  19.818  22.681  1.00  0.00    -0.550 OA
ATOM     14  O   UNL     1     -27.355  19.786  24.850  1.00  0.00    -0.550 OA
ENDBRANCH  11  12
ENDBRANCH  10  11
ENDBRANCH   9  10
ENDBRANCH   8   9
ENDBRANCH   7   8
ENDBRANCH   6   7
ENDBRANCH   5   6
ENDBRANCH   4   5
ENDBRANCH   3   4
ENDBRANCH   2   3
ENDBRANCH   1   2
BRANCH   1  15
ATOM     15  C   UNL     1     -31.734  15.674  28.110  1.00  0.00     0.000 C 
BRANCH  15  16
ATOM     16  C   UNL     1     -30.780  16.524  27.256  1.00  0.00     0.000 C 
BRANCH  16  17
ATOM     17  C   UNL     1     -31.019  18.035  27.429  1.00  0.00     0.000 C 
BRANCH  17  18
ATOM     18  C   UNL     1     -29.727  18.869  27.277  1.00  0.00    -0.000 C 
BRANCH  18  19
ATOM     19  C   UNL     1     -29.038  19.215  28.612  1.00  0.00    -0.000 C 
BRANCH  19  20
ATOM     20  C   UNL     1     -28.396  20.611  28.682  1.00  0.00    -0.000 C 
BRANCH  20  21
ATOM     21  C   UNL     1     -28.871  21.543  27.553  1.00  0.00    -0.000 C 
BRANCH  21  22
ATOM     22  C   UNL     1     -29.885  22.592  28.039  1.00  0.00    -0.000 C 
BRANCH  22  23
ATOM     23  C   UNL     1     -31.256  21.976  28.373  1.00  0.00    -0.000 C 
BRANCH  23  24
ATOM     24  C   UNL     1     -31.846  22.514  29.689  1.00  0.00    -0.000 C 
BRANCH  24  25
ATOM     25  C   UNL     1     -30.975  23.609  30.325  1.00  0.00    -0.003 C 
ATOM     26  C   UNL     1     -31.706  24.950  30.362  1.00  0.00     0.004 C 
ENDBRANCH  24  25
ENDBRANCH  23  24
ENDBRANCH  22  23
ENDBRANCH  21  22
ENDBRANCH  20  21
ENDBRANCH  19  20
ENDBRANCH  18  19
ENDBRANCH  17  18
ENDBRANCH  16  17
ENDBRANCH  15  16
ENDBRANCH   1  15
TORSDOF 22
ENDMDL
MODEL 6
REMARK VINA RESULT:    -3.946      2.871      7.114
REMARK INTER + INTRA:         -12.838
REMARK INTER:                  -9.410
REMARK INTRA:                  -3.428
REMARK UNBOUND:                -3.817
REMARK SMILES CCCCCCCCCCCCCCCCCCCCCCCC(=O)[O-]
REMARK SMILES IDX 13 1 14 2 15 3 16 4 17 5 18 6 19 7 20 8 21 9 22 10 23 11
REMARK SMILES IDX 24 12 25 13 26 14 12 15 11 16 10 17 9 18 8 19 7 20 6 21 5 22
REMARK SMILES IDX 4 23 3 24 2 25 1 26
REMARK H PARENT
REMARK Flexibility Score: inf
ROOT
ATOM      1  C   UNL     1     -28.062  16.553  22.277  1.00  0.00     0.000 C 
ENDROOT
BRANCH   1   2
ATOM      2  C   UNL     1     -29.460  16.703  22.907  1.00  0.00     0.000 C 
BRANCH   2   3
ATOM      3  C   UNL     1     -30.460  17.533  22.083  1.00  0.00     0.000 C 
BRANCH   3   4
ATOM      4  C   UNL     1     -30.714  18.931  22.673  1.00  0.00     0.000 C 
BRANCH   4   5
ATOM      5  C   UNL     1     -30.470  18.991  24.190  1.00  0.00     0.000 C 
BRANCH   5   6
ATOM      6  C   UNL     1     -31.475  19.847  24.989  1.00  0.00     0.000 C 
BRANCH   6   7
ATOM      7  C   UNL     1     -32.918  19.805  24.441  1.00  0.00     0.000 C 
BRANCH   7   8
ATOM      8  C   UNL     1     -33.790  18.755  25.154  1.00  0.00     0.000 C 
BRANCH   8   9
ATOM      9  C   UNL     1     -33.844  17.415  24.402  1.00  0.00     0.000 C 
BRANCH   9  10
ATOM     10  C   UNL     1     -32.967  16.330  25.052  1.00  0.00     0.006 C 
BRANCH  10  11
ATOM     11  C   UNL     1     -32.649  16.681  26.507  1.00  0.00     0.053 C 
BRANCH  11  12
ATOM     12  C   UNL     1     -33.533  15.905  27.436  1.00  0.00     0.041 C 
ATOM     13  O   UNL     1     -34.681  15.545  27.062  1.00  0.00    -0.550 OA
ATOM     14  O   UNL     1     -33.072  15.545  28.697  1.00  0.00    -0.550 OA
ENDBRANCH  11  12
ENDBRANCH  10  11
ENDBRANCH   9  10
ENDBRANCH   8   9
ENDBRANCH   7   8
ENDBRANCH   6   7
ENDBRANCH   5   6
ENDBRANCH   4   5
ENDBRANCH   3   4
ENDBRANCH   2   3
ENDBRANCH   1   2
BRANCH   1  15
ATOM     15  C   UNL     1     -26.923  16.707  23.302  1.00  0.00     0.000 C 
BRANCH  15  16
ATOM     16  C   UNL     1     -25.989  17.883  22.978  1.00  0.00     0.000 C 
BRANCH  16  17
ATOM     17  C   UNL     1     -26.739  19.090  22.387  1.00  0.00     0.000 C 
BRANCH  17  18
ATOM     18  C   UNL     1     -27.126  20.140  23.453  1.00  0.00    -0.000 C 
BRANCH  18  19
ATOM     19  C   UNL     1     -27.909  21.346  22.896  1.00  0.00    -0.000 C 
BRANCH  19  20
ATOM     20  C   UNL     1     -28.725  22.138  23.931  1.00  0.00    -0.000 C 
BRANCH  20  21
ATOM     21  C   UNL     1     -28.369  21.769  25.382  1.00  0.00    -0.000 C 
BRANCH  21  22
ATOM     22  C   UNL     1     -28.964  22.750  26.405  1.00  0.00    -0.000 C 
BRANCH  22  23
ATOM     23  C   UNL     1     -29.150  22.114  27.794  1.00  0.00    -0.000 C 
BRANCH  23  24
ATOM     24  C   UNL     1     -30.630  21.982  28.196  1.00  0.00    -0.000 C 
BRANCH  24  25
ATOM     25  C   UNL     1     -31.119  23.161  29.050  1.00  0.00    -0.003 C 
ATOM     26  C   UNL     1     -30.747  22.975  30.521  1.00  0.00     0.004 C 
ENDBRANCH  24  25
ENDBRANCH  23  24
ENDBRANCH  22  23
ENDBRANCH  21  22
ENDBRANCH  20  21
ENDBRANCH  19  20
ENDBRANCH  18  19
ENDBRANCH  17  18
ENDBRANCH  16  17
ENDBRANCH  15  16
ENDBRANCH   1  15
TORSDOF 22
ENDMDL
MODEL 7
REMARK VINA RESULT:    -3.938      1.711      6.312
REMARK INTER + INTRA:         -12.819
REMARK INTER:                  -9.109
REMARK INTRA:                  -3.709
REMARK UNBOUND:                -3.817
REMARK SMILES CCCCCCCCCCCCCCCCCCCCCCCC(=O)[O-]
REMARK SMILES IDX 13 1 14 2 15 3 16 4 17 5 18 6 19 7 20 8 21 9 22 10 23 11
REMARK SMILES IDX 24 12 25 13 26 14 12 15 11 16 10 17 9 18 8 19 7 20 6 21 5 22
REMARK SMILES IDX 4 23 3 24 2 25 1 26
REMARK H PARENT
REMARK Flexibility Score: inf
ROOT
ATOM      1  C   UNL     1     -34.422  16.723  26.385  1.00  0.00     0.000 C 
ENDROOT
BRANCH   1   2
ATOM      2  C   UNL     1     -34.529  15.745  27.569  1.00  0.00     0.000 C 
BRANCH   2   3
ATOM      3  C   UNL     1     -33.538  14.567  27.534  1.00  0.00     0.000 C 
BRANCH   3   4
ATOM      4  C   UNL     1     -33.076  14.125  28.933  1.00  0.00     0.000 C 
BRANCH   4   5
ATOM      5  C   UNL     1     -31.597  14.452  29.203  1.00  0.00     0.000 C 
BRANCH   5   6
ATOM      6  C   UNL     1     -31.282  15.945  29.439  1.00  0.00     0.000 C 
BRANCH   6   7
ATOM      7  C   UNL     1     -30.275  16.545  28.434  1.00  0.00     0.000 C 
BRANCH   7   8
ATOM      8  C   UNL     1     -30.918  17.595  27.510  1.00  0.00     0.000 C 
BRANCH   8   9
ATOM      9  C   UNL     1     -29.909  18.238  26.544  1.00  0.00     0.000 C 
BRANCH   9  10
ATOM     10  C   UNL     1     -29.416  19.615  27.025  1.00  0.00     0.006 C 
BRANCH  10  11
ATOM     11  C   UNL     1     -30.593  20.551  27.304  1.00  0.00     0.053 C 
BRANCH  11  12
ATOM     12  C   UNL     1     -30.101  21.936  27.594  1.00  0.00     0.041 C 
ATOM     13  O   UNL     1     -30.629  22.614  28.516  1.00  0.00    -0.550 OA
ATOM     14  O   UNL     1     -29.034  22.461  26.876  1.00  0.00    -0.550 OA
ENDBRANCH  11  12
ENDBRANCH  10  11
ENDBRANCH   9  10
ENDBRANCH   8   9
ENDBRANCH   7   8
ENDBRANCH   6   7
ENDBRANCH   5   6
ENDBRANCH   4   5
ENDBRANCH   3   4
ENDBRANCH   2   3
ENDBRANCH   1   2
BRANCH   1  15
ATOM     15  C   UNL     1     -33.528  16.193  25.248  1.00  0.00     0.000 C 
BRANCH  15  16
ATOM     16  C   UNL     1     -33.094  17.295  24.270  1.00  0.00     0.000 C 
BRANCH  16  17
ATOM     17  C   UNL     1     -33.527  18.699  24.731  1.00  0.00     0.000 C 
BRANCH  17  18
ATOM     18  C   UNL     1     -32.508  19.797  24.353  1.00  0.00    -0.000 C 
BRANCH  18  19
ATOM     19  C   UNL     1     -31.329  19.296  23.493  1.00  0.00    -0.000 C 
BRANCH  19  20
ATOM     20  C   UNL     1     -30.556  20.386  22.733  1.00  0.00    -0.000 C 
BRANCH  20  21
ATOM     21  C   UNL     1     -29.686  21.255  23.658  1.00  0.00    -0.000 C 
BRANCH  21  22
ATOM     22  C   UNL     1     -28.491  21.887  22.924  1.00  0.00    -0.000 C 
BRANCH  22  23
ATOM     23  C   UNL     1     -27.177  21.124  23.170  1.00  0.00    -0.000 C 
BRANCH  23  24
ATOM     24  C   UNL     1     -27.392  19.795  23.916  1.00  0.00    -0.000 C 
BRANCH  24  25
ATOM     25  C   UNL     1     -27.191  18.568  23.013  1.00  0.00    -0.003 C 
ATOM     26  C   UNL     1     -27.732  17.299  23.669  1.00  0.00     0.004 C 
ENDBRANCH  24  25
ENDBRANCH  23  24
ENDBRANCH  22  23
ENDBRANCH  21  22
ENDBRANCH  20  21
ENDBRANCH  19  20
ENDBRANCH  18  19
ENDBRANCH  17  18
ENDBRANCH  16  17
ENDBRANCH  15  16
ENDBRANCH   1  15
TORSDOF 22
ENDMDL
MODEL 8
REMARK VINA RESULT:    -3.904      1.688      3.670
REMARK INTER + INTRA:         -12.743
REMARK INTER:                  -7.949
REMARK INTRA:                  -4.794
REMARK UNBOUND:                -3.817
REMARK SMILES CCCCCCCCCCCCCCCCCCCCCCCC(=O)[O-]
REMARK SMILES IDX 13 1 14 2 15 3 16 4 17 5 18 6 19 7 20 8 21 9 22 10 23 11
REMARK SMILES IDX 24 12 25 13 26 14 12 15 11 16 10 17 9 18 8 19 7 20 6 21 5 22
REMARK SMILES IDX 4 23 3 24 2 25 1 26
REMARK H PARENT
REMARK Flexibility Score: inf
ROOT
ATOM      1  C   UNL     1     -32.183  19.106  24.344  1.00  0.00     0.000 C 
ENDROOT
BRANCH   1   2
ATOM      2  C   UNL     1     -31.578  17.861  23.668  1.00  0.00     0.000 C 
BRANCH   2   3
ATOM      3  C   UNL     1     -30.041  17.782  23.705  1.00  0.00     0.000 C 
BRANCH   3   4
ATOM      4  C   UNL     1     -29.365  18.678  22.653  1.00  0.00     0.000 C 
BRANCH   4   5
ATOM      5  C   UNL     1     -28.094  19.364  23.181  1.00  0.00     0.000 C 
BRANCH   5   6
ATOM      6  C   UNL     1     -28.073  20.902  23.061  1.00  0.00     0.000 C 
BRANCH   6   7
ATOM      7  C   UNL     1     -29.349  21.595  23.586  1.00  0.00     0.000 C 
BRANCH   7   8
ATOM      8  C   UNL     1     -29.484  21.502  25.117  1.00  0.00     0.000 C 
BRANCH   8   9
ATOM      9  C   UNL     1     -28.358  22.239  25.861  1.00  0.00     0.000 C 
BRANCH   9  10
ATOM     10  C   UNL     1     -28.607  22.336  27.377  1.00  0.00     0.006 C 
BRANCH  10  11
ATOM     11  C   UNL     1     -30.103  22.280  27.691  1.00  0.00     0.053 C 
BRANCH  11  12
ATOM     12  C   UNL     1     -30.321  22.106  29.163  1.00  0.00     0.041 C 
ATOM     13  O   UNL     1     -29.337  21.946  29.933  1.00  0.00    -0.550 OA
ATOM     14  O   UNL     1     -31.607  22.161  29.687  1.00  0.00    -0.550 OA
ENDBRANCH  11  12
ENDBRANCH  10  11
ENDBRANCH   9  10
ENDBRANCH   8   9
ENDBRANCH   7   8
ENDBRANCH   6   7
ENDBRANCH   5   6
ENDBRANCH   4   5
ENDBRANCH   3   4
ENDBRANCH   2   3
ENDBRANCH   1   2
BRANCH   1  15
ATOM     15  C   UNL     1     -33.528  18.818  25.036  1.00  0.00     0.000 C 
BRANCH  15  16
ATOM     16  C   UNL     1     -33.907  17.329  25.002  1.00  0.00     0.000 C 
BRANCH  16  17
ATOM     17  C   UNL     1     -34.502  16.839  26.335  1.00  0.00     0.000 C 
BRANCH  17  18
ATOM     18  C   UNL     1     -33.484  16.063  27.200  1.00  0.00    -0.000 C 
BRANCH  18  19
ATOM     19  C   UNL     1     -32.240  15.579  26.428  1.00  0.00    -0.000 C 
BRANCH  19  20
ATOM     20  C   UNL     1     -30.893  16.112  26.945  1.00  0.00    -0.000 C 
BRANCH  20  21
ATOM     21  C   UNL     1     -31.050  17.327  27.877  1.00  0.00    -0.000 C 
BRANCH  21  22
ATOM     22  C   UNL     1     -30.284  18.561  27.372  1.00  0.00    -0.000 C 
BRANCH  22  23
ATOM     23  C   UNL     1     -28.816  18.574  27.836  1.00  0.00    -0.000 C 
BRANCH  23  24
ATOM     24  C   UNL     1     -27.821  18.625  26.661  1.00  0.00    -0.000 C 
BRANCH  24  25
ATOM     25  C   UNL     1     -27.156  17.267  26.390  1.00  0.00    -0.003 C 
ATOM     26  C   UNL     1     -27.243  16.350  27.610  1.00  0.00     0.004 C 
ENDBRANCH  24  25
ENDBRANCH  23  24
ENDBRANCH  22  23
ENDBRANCH  21  22
ENDBRANCH  20  21
ENDBRANCH  19  20
ENDBRANCH  18  19
ENDBRANCH  17  18
ENDBRANCH  16  17
ENDBRANCH  15  16
ENDBRANCH   1  15
TORSDOF 22
ENDMDL
MODEL 9
REMARK VINA RESULT:    -3.891      3.203      6.905
REMARK INTER + INTRA:         -12.712
REMARK INTER:                  -8.391
REMARK INTRA:                  -4.321
REMARK UNBOUND:                -3.817
REMARK SMILES CCCCCCCCCCCCCCCCCCCCCCCC(=O)[O-]
REMARK SMILES IDX 13 1 14 2 15 3 16 4 17 5 18 6 19 7 20 8 21 9 22 10 23 11
REMARK SMILES IDX 24 12 25 13 26 14 12 15 11 16 10 17 9 18 8 19 7 20 6 21 5 22
REMARK SMILES IDX 4 23 3 24 2 25 1 26
REMARK H PARENT
REMARK Flexibility Score: inf
ROOT
ATOM      1  C   UNL     1     -26.404  18.881  22.651  1.00  0.00     0.000 C 
ENDROOT
BRANCH   1   2
ATOM      2  C   UNL     1     -26.143  18.330  21.237  1.00  0.00     0.000 C 
BRANCH   2   3
ATOM      3  C   UNL     1     -26.895  17.031  20.895  1.00  0.00     0.000 C 
BRANCH   3   4
ATOM      4  C   UNL     1     -27.555  17.064  19.506  1.00  0.00     0.000 C 
BRANCH   4   5
ATOM      5  C   UNL     1     -29.005  16.550  19.522  1.00  0.00     0.000 C 
BRANCH   5   6
ATOM      6  C   UNL     1     -29.901  17.132  20.636  1.00  0.00     0.000 C 
BRANCH   6   7
ATOM      7  C   UNL     1     -30.536  16.069  21.558  1.00  0.00     0.000 C 
BRANCH   7   8
ATOM      8  C   UNL     1     -30.037  16.174  23.011  1.00  0.00     0.000 C 
BRANCH   8   9
ATOM      9  C   UNL     1     -31.123  15.819  24.041  1.00  0.00     0.000 C 
BRANCH   9  10
ATOM     10  C   UNL     1     -32.521  15.682  23.411  1.00  0.00     0.006 C 
BRANCH  10  11
ATOM     11  C   UNL     1     -33.460  16.779  23.917  1.00  0.00     0.053 C 
BRANCH  11  12
ATOM     12  C   UNL     1     -33.818  16.538  25.352  1.00  0.00     0.041 C 
ATOM     13  O   UNL     1     -33.771  15.372  25.828  1.00  0.00    -0.550 OA
ATOM     14  O   UNL     1     -34.162  17.606  26.173  1.00  0.00    -0.550 OA
ENDBRANCH  11  12
ENDBRANCH  10  11
ENDBRANCH   9  10
ENDBRANCH   8   9
ENDBRANCH   7   8
ENDBRANCH   6   7
ENDBRANCH   5   6
ENDBRANCH   4   5
ENDBRANCH   3   4
ENDBRANCH   2   3
ENDBRANCH   1   2
BRANCH   1  15
ATOM     15  C   UNL     1     -27.873  19.288  22.874  1.00  0.00     0.000 C 
BRANCH  15  16
ATOM     16  C   UNL     1     -28.036  20.788  23.165  1.00  0.00     0.000 C 
BRANCH  16  17
ATOM     17  C   UNL     1     -29.511  21.213  23.270  1.00  0.00     0.000 C 
BRANCH  17  18
ATOM     18  C   UNL     1     -30.478  20.201  22.615  1.00  0.00    -0.000 C 
BRANCH  18  19
ATOM     19  C   UNL     1     -31.405  19.477  23.613  1.00  0.00    -0.000 C 
BRANCH  19  20
ATOM     20  C   UNL     1     -31.783  20.282  24.867  1.00  0.00    -0.000 C 
BRANCH  20  21
ATOM     21  C   UNL     1     -31.263  19.641  26.166  1.00  0.00    -0.000 C 
BRANCH  21  22
ATOM     22  C   UNL     1     -30.136  18.625  25.914  1.00  0.00    -0.000 C 
BRANCH  22  23
ATOM     23  C   UNL     1     -28.777  19.105  26.453  1.00  0.00    -0.000 C 
BRANCH  23  24
ATOM     24  C   UNL     1     -28.901  20.338  27.367  1.00  0.00    -0.000 C 
BRANCH  24  25
ATOM     25  C   UNL     1     -28.154  21.562  26.814  1.00  0.00    -0.003 C 
ATOM     26  C   UNL     1     -29.104  22.739  26.590  1.00  0.00     0.004 C 
ENDBRANCH  24  25
ENDBRANCH  23  24
ENDBRANCH  22  23
ENDBRANCH  21  22
ENDBRANCH  20  21
ENDBRANCH  19  20
ENDBRANCH  18  19
ENDBRANCH  17  18
ENDBRANCH  16  17
ENDBRANCH  15  16
ENDBRANCH   1  15
TORSDOF 22
ENDMDL
