MODEL 1
REMARK VINA RESULT:    -6.438      0.000      0.000
REMARK INTER + INTRA:          -7.074
REMARK INTER:                  -6.814
REMARK INTRA:                  -0.260
REMARK UNBOUND:                -0.260
REMARK SMILES O=c1cc(-c2ccccc2)oc2ccccc12
REMARK SMILES IDX 4 1 3 2 2 3 1 4 17 5 16 6 15 7 14 8 13 9 12 10 11 11 5 12
REMARK SMILES IDX 8 13 7 14 9 15 6 16 10 17
REMARK H PARENT
REMARK Flexibility Score: inf
ROOT
ATOM      1  C   UNL     1      20.650  48.014  15.875  1.00  0.00     0.138 A 
ATOM      2  C   UNL     1      19.332  47.616  16.179  1.00  0.00     0.100 A 
ATOM      3  C   UNL     1      19.017  46.257  16.226  1.00  0.00     0.193 A 
ATOM      4  O   UNL     1      17.838  45.899  16.496  1.00  0.00    -0.289 OA
ATOM      5  C   UNL     1      20.017  45.307  15.972  1.00  0.00     0.065 A 
ATOM      6  C   UNL     1      19.767  43.923  16.003  1.00  0.00     0.016 A 
ATOM      7  C   UNL     1      20.802  43.019  15.742  1.00  0.00     0.001 A 
ATOM      8  C   UNL     1      22.086  43.486  15.448  1.00  0.00     0.004 A 
ATOM      9  C   UNL     1      22.344  44.860  15.414  1.00  0.00     0.048 A 
ATOM     10  C   UNL     1      21.315  45.773  15.674  1.00  0.00     0.138 A 
ATOM     11  O   UNL     1      21.570  47.077  15.640  1.00  0.00    -0.456 OA
ENDROOT
BRANCH   1  12
ATOM     12  C   UNL     1      21.071  49.448  15.804  1.00  0.00     0.017 A 
ATOM     13  C   UNL     1      21.958  52.125  15.686  1.00  0.00     0.000 A 
ATOM     14  C   UNL     1      22.870  51.098  15.920  1.00  0.00     0.001 A 
ATOM     15  C   UNL     1      20.607  51.829  15.510  1.00  0.00     0.001 A 
ATOM     16  C   UNL     1      22.434  49.770  15.979  1.00  0.00     0.012 A 
ATOM     17  C   UNL     1      20.161  50.505  15.567  1.00  0.00     0.012 A 
ENDBRANCH   1  12
TORSDOF 1
ENDMDL
MODEL 2
REMARK VINA RESULT:    -6.014      1.179      5.776
REMARK INTER + INTRA:          -6.626
REMARK INTER:                  -6.361
REMARK INTRA:                  -0.265
REMARK UNBOUND:                -0.260
REMARK SMILES O=c1cc(-c2ccccc2)oc2ccccc12
REMARK SMILES IDX 4 1 3 2 2 3 1 4 17 5 16 6 15 7 14 8 13 9 12 10 11 11 5 12
REMARK SMILES IDX 8 13 7 14 9 15 6 16 10 17
REMARK H PARENT
REMARK Flexibility Score: inf
ROOT
ATOM      1  C   UNL     1      20.342  47.190  15.949  1.00  0.00     0.138 A 
ATOM      2  C   UNL     1      19.119  47.752  16.372  1.00  0.00     0.100 A 
ATOM      3  C   UNL     1      18.988  49.140  16.443  1.00  0.00     0.193 A 
ATOM      4  O   UNL     1      17.896  49.644  16.822  1.00  0.00    -0.289 OA
ATOM      5  C   UNL     1      20.073  49.955  16.091  1.00  0.00     0.065 A 
ATOM      6  C   UNL     1      20.008  51.360  16.140  1.00  0.00     0.016 A 
ATOM      7  C   UNL     1      21.121  52.125  15.777  1.00  0.00     0.001 A 
ATOM      8  C   UNL     1      22.301  51.499  15.367  1.00  0.00     0.004 A 
ATOM      9  C   UNL     1      22.376  50.104  15.316  1.00  0.00     0.048 A 
ATOM     10  C   UNL     1      21.268  49.328  15.676  1.00  0.00     0.138 A 
ATOM     11  O   UNL     1      21.348  48.003  15.624  1.00  0.00    -0.456 OA
ENDROOT
BRANCH   1  12
ATOM     12  C   UNL     1      20.566  45.714  15.845  1.00  0.00     0.017 A 
ATOM     13  C   UNL     1      21.085  42.948  15.638  1.00  0.00     0.000 A 
ATOM     14  C   UNL     1      22.130  43.864  15.530  1.00  0.00     0.001 A 
ATOM     15  C   UNL     1      19.784  43.399  15.848  1.00  0.00     0.001 A 
ATOM     16  C   UNL     1      21.877  45.235  15.632  1.00  0.00     0.012 A 
ATOM     17  C   UNL     1      19.520  44.769  15.952  1.00  0.00     0.012 A 
ENDBRANCH   1  12
TORSDOF 1
ENDMDL
MODEL 3
REMARK VINA RESULT:    -5.659      1.825      6.169
REMARK INTER + INTRA:          -6.250
REMARK INTER:                  -5.986
REMARK INTRA:                  -0.264
REMARK UNBOUND:                -0.260
REMARK SMILES O=c1cc(-c2ccccc2)oc2ccccc12
REMARK SMILES IDX 4 1 3 2 2 3 1 4 17 5 16 6 15 7 14 8 13 9 12 10 11 11 5 12
REMARK SMILES IDX 8 13 7 14 9 15 6 16 10 17
REMARK H PARENT
REMARK Flexibility Score: inf
ROOT
ATOM      1  C   UNL     1      20.368  47.694  15.873  1.00  0.00     0.138 A 
ATOM      2  C   UNL     1      21.389  48.635  15.624  1.00  0.00     0.100 A 
ATOM      3  C   UNL     1      21.116  49.998  15.756  1.00  0.00     0.193 A 
ATOM      4  O   UNL     1      22.028  50.840  15.533  1.00  0.00    -0.289 OA
ATOM      5  C   UNL     1      19.831  50.412  16.136  1.00  0.00     0.065 A 
ATOM      6  C   UNL     1      19.490  51.768  16.287  1.00  0.00     0.016 A 
ATOM      7  C   UNL     1      18.193  52.125  16.668  1.00  0.00     0.001 A 
ATOM      8  C   UNL     1      17.231  51.138  16.899  1.00  0.00     0.004 A 
ATOM      9  C   UNL     1      17.560  49.787  16.751  1.00  0.00     0.048 A 
ATOM     10  C   UNL     1      18.856  49.419  16.370  1.00  0.00     0.138 A 
ATOM     11  O   UNL     1      19.160  48.133  16.232  1.00  0.00    -0.456 OA
ENDROOT
BRANCH   1  12
ATOM     12  C   UNL     1      20.575  46.217  15.755  1.00  0.00     0.017 A 
ATOM     13  C   UNL     1      21.062  43.447  15.527  1.00  0.00     0.000 A 
ATOM     14  C   UNL     1      22.127  44.345  15.525  1.00  0.00     0.001 A 
ATOM     15  C   UNL     1      19.755  43.918  15.642  1.00  0.00     0.001 A 
ATOM     16  C   UNL     1      21.890  45.718  15.638  1.00  0.00     0.012 A 
ATOM     17  C   UNL     1      19.507  45.290  15.755  1.00  0.00     0.012 A 
ENDBRANCH   1  12
TORSDOF 1
ENDMDL
MODEL 4
REMARK VINA RESULT:    -5.549      1.381      2.560
REMARK INTER + INTRA:          -6.134
REMARK INTER:                  -5.868
REMARK INTRA:                  -0.266
REMARK UNBOUND:                -0.260
REMARK SMILES O=c1cc(-c2ccccc2)oc2ccccc12
REMARK SMILES IDX 4 1 3 2 2 3 1 4 17 5 16 6 15 7 14 8 13 9 12 10 11 11 5 12
REMARK SMILES IDX 8 13 7 14 9 15 6 16 10 17
REMARK H PARENT
REMARK Flexibility Score: inf
ROOT
ATOM      1  C   UNL     1      20.308  47.467  15.914  1.00  0.00     0.138 A 
ATOM      2  C   UNL     1      21.322  46.539  15.598  1.00  0.00     0.100 A 
ATOM      3  C   UNL     1      21.039  45.173  15.628  1.00  0.00     0.193 A 
ATOM      4  O   UNL     1      21.945  44.343  15.346  1.00  0.00    -0.289 OA
ATOM      5  C   UNL     1      19.749  44.742  15.972  1.00  0.00     0.065 A 
ATOM      6  C   UNL     1      19.398  43.381  16.021  1.00  0.00     0.016 A 
ATOM      7  C   UNL     1      18.096  43.007  16.370  1.00  0.00     0.001 A 
ATOM      8  C   UNL     1      17.141  43.981  16.672  1.00  0.00     0.004 A 
ATOM      9  C   UNL     1      17.481  45.337  16.625  1.00  0.00     0.048 A 
ATOM     10  C   UNL     1      18.781  45.723  16.277  1.00  0.00     0.138 A 
ATOM     11  O   UNL     1      19.095  47.013  16.235  1.00  0.00    -0.456 OA
ENDROOT
BRANCH   1  12
ATOM     12  C   UNL     1      20.526  48.947  15.906  1.00  0.00     0.017 A 
ATOM     13  C   UNL     1      21.031  51.723  15.863  1.00  0.00     0.000 A 
ATOM     14  C   UNL     1      22.048  50.824  15.549  1.00  0.00     0.001 A 
ATOM     15  C   UNL     1      19.764  51.250  16.199  1.00  0.00     0.001 A 
ATOM     16  C   UNL     1      21.802  49.448  15.568  1.00  0.00     0.012 A 
ATOM     17  C   UNL     1      19.507  49.875  16.222  1.00  0.00     0.012 A 
ENDBRANCH   1  12
TORSDOF 1
ENDMDL
MODEL 5
REMARK VINA RESULT:    -5.411     11.478     13.354
REMARK INTER + INTRA:          -5.987
REMARK INTER:                  -5.733
REMARK INTRA:                  -0.254
REMARK UNBOUND:                -0.260
REMARK SMILES O=c1cc(-c2ccccc2)oc2ccccc12
REMARK SMILES IDX 4 1 3 2 2 3 1 4 17 5 16 6 15 7 14 8 13 9 12 10 11 11 5 12
REMARK SMILES IDX 8 13 7 14 9 15 6 16 10 17
REMARK H PARENT
REMARK Flexibility Score: inf
ROOT
ATOM      1  C   UNL     1      12.210  38.392  14.293  1.00  0.00     0.138 A 
ATOM      2  C   UNL     1      13.602  38.325  14.073  1.00  0.00     0.100 A 
ATOM      3  C   UNL     1      14.470  38.293  15.166  1.00  0.00     0.193 A 
ATOM      4  O   UNL     1      15.715  38.233  14.970  1.00  0.00    -0.289 OA
ATOM      5  C   UNL     1      13.946  38.326  16.466  1.00  0.00     0.065 A 
ATOM      6  C   UNL     1      14.765  38.297  17.610  1.00  0.00     0.016 A 
ATOM      7  C   UNL     1      14.189  38.332  18.883  1.00  0.00     0.001 A 
ATOM      8  C   UNL     1      12.801  38.398  19.026  1.00  0.00     0.004 A 
ATOM      9  C   UNL     1      11.979  38.428  17.895  1.00  0.00     0.048 A 
ATOM     10  C   UNL     1      12.545  38.393  16.615  1.00  0.00     0.138 A 
ATOM     11  O   UNL     1      11.756  38.421  15.547  1.00  0.00    -0.456 OA
ENDROOT
BRANCH   1  12
ATOM     12  C   UNL     1      11.211  38.430  13.180  1.00  0.00     0.017 A 
ATOM     13  C   UNL     1       9.265  38.453  11.136  1.00  0.00     0.000 A 
ATOM     14  C   UNL     1       8.995  37.824  12.350  1.00  0.00     0.001 A 
ATOM     15  C   UNL     1      10.497  39.071  10.932  1.00  0.00     0.001 A 
ATOM     16  C   UNL     1       9.957  37.811  13.365  1.00  0.00     0.012 A 
ATOM     17  C   UNL     1      11.467  39.063  11.941  1.00  0.00     0.012 A 
ENDBRANCH   1  12
TORSDOF 1
ENDMDL
MODEL 6
REMARK VINA RESULT:    -5.389     12.259     14.049
REMARK INTER + INTRA:          -5.964
REMARK INTER:                  -5.738
REMARK INTRA:                  -0.226
REMARK UNBOUND:                -0.260
REMARK SMILES O=c1cc(-c2ccccc2)oc2ccccc12
REMARK SMILES IDX 4 1 3 2 2 3 1 4 17 5 16 6 15 7 14 8 13 9 12 10 11 11 5 12
REMARK SMILES IDX 8 13 7 14 9 15 6 16 10 17
REMARK H PARENT
REMARK Flexibility Score: inf
ROOT
ATOM      1  C   UNL     1      12.306  37.786  15.243  1.00  0.00     0.138 A 
ATOM      2  C   UNL     1      13.364  38.248  14.431  1.00  0.00     0.100 A 
ATOM      3  C   UNL     1      13.110  38.599  13.104  1.00  0.00     0.193 A 
ATOM      4  O   UNL     1      14.056  39.011  12.378  1.00  0.00    -0.289 OA
ATOM      5  C   UNL     1      11.808  38.489  12.597  1.00  0.00     0.065 A 
ATOM      6  C   UNL     1      11.485  38.826  11.270  1.00  0.00     0.016 A 
ATOM      7  C   UNL     1      10.169  38.696  10.816  1.00  0.00     0.001 A 
ATOM      8  C   UNL     1       9.170  38.232  11.676  1.00  0.00     0.004 A 
ATOM      9  C   UNL     1       9.482  37.894  12.997  1.00  0.00     0.048 A 
ATOM     10  C   UNL     1      10.796  38.020  13.462  1.00  0.00     0.138 A 
ATOM     11  O   UNL     1      11.083  37.697  14.719  1.00  0.00    -0.456 OA
ENDROOT
BRANCH   1  12
ATOM     12  C   UNL     1      12.491  37.390  16.674  1.00  0.00     0.017 A 
ATOM     13  C   UNL     1      12.794  36.724  19.399  1.00  0.00     0.000 A 
ATOM     14  C   UNL     1      12.177  37.920  19.038  1.00  0.00     0.001 A 
ATOM     15  C   UNL     1      13.262  35.857  18.413  1.00  0.00     0.001 A 
ATOM     16  C   UNL     1      12.024  38.253  17.688  1.00  0.00     0.012 A 
ATOM     17  C   UNL     1      13.114  36.181  17.060  1.00  0.00     0.012 A 
ENDBRANCH   1  12
TORSDOF 1
ENDMDL
MODEL 7
REMARK VINA RESULT:    -5.366     11.332     13.543
REMARK INTER + INTRA:          -5.939
REMARK INTER:                  -5.691
REMARK INTRA:                  -0.249
REMARK UNBOUND:                -0.260
REMARK SMILES O=c1cc(-c2ccccc2)oc2ccccc12
REMARK SMILES IDX 4 1 3 2 2 3 1 4 17 5 16 6 15 7 14 8 13 9 12 10 11 11 5 12
REMARK SMILES IDX 8 13 7 14 9 15 6 16 10 17
REMARK H PARENT
REMARK Flexibility Score: inf
ROOT
ATOM      1  C   UNL     1      11.710  38.530  14.664  1.00  0.00     0.138 A 
ATOM      2  C   UNL     1      12.239  39.743  15.151  1.00  0.00     0.100 A 
ATOM      3  C   UNL     1      12.962  39.748  16.345  1.00  0.00     0.193 A 
ATOM      4  O   UNL     1      13.434  40.833  16.782  1.00  0.00    -0.289 OA
ATOM      5  C   UNL     1      13.153  38.547  17.042  1.00  0.00     0.065 A 
ATOM      6  C   UNL     1      13.871  38.482  18.251  1.00  0.00     0.016 A 
ATOM      7  C   UNL     1      14.031  37.257  18.904  1.00  0.00     0.001 A 
ATOM      8  C   UNL     1      13.479  36.093  18.362  1.00  0.00     0.004 A 
ATOM      9  C   UNL     1      12.763  36.147  17.162  1.00  0.00     0.048 A 
ATOM     10  C   UNL     1      12.597  37.369  16.499  1.00  0.00     0.138 A 
ATOM     11  O   UNL     1      11.916  37.411  15.359  1.00  0.00    -0.456 OA
ENDROOT
BRANCH   1  12
ATOM     12  C   UNL     1      10.924  38.436  13.394  1.00  0.00     0.017 A 
ATOM     13  C   UNL     1       9.381  38.198  11.043  1.00  0.00     0.000 A 
ATOM     14  C   UNL     1       9.022  37.489  12.188  1.00  0.00     0.001 A 
ATOM     15  C   UNL     1      10.502  39.025  11.060  1.00  0.00     0.001 A 
ATOM     16  C   UNL     1       9.784  37.605  13.355  1.00  0.00     0.012 A 
ATOM     17  C   UNL     1      11.271  39.148  12.222  1.00  0.00     0.012 A 
ENDBRANCH   1  12
TORSDOF 1
ENDMDL
MODEL 8
REMARK VINA RESULT:    -5.324     10.848     13.127
REMARK INTER + INTRA:          -5.896
REMARK INTER:                  -5.643
REMARK INTRA:                  -0.253
REMARK UNBOUND:                -0.260
REMARK SMILES O=c1cc(-c2ccccc2)oc2ccccc12
REMARK SMILES IDX 4 1 3 2 2 3 1 4 17 5 16 6 15 7 14 8 13 9 12 10 11 11 5 12
REMARK SMILES IDX 8 13 7 14 9 15 6 16 10 17
REMARK H PARENT
REMARK Flexibility Score: inf
ROOT
ATOM      1  C   UNL     1      12.545  38.706  16.654  1.00  0.00     0.138 A 
ATOM      2  C   UNL     1      13.586  39.618  16.923  1.00  0.00     0.100 A 
ATOM      3  C   UNL     1      14.021  39.799  18.237  1.00  0.00     0.193 A 
ATOM      4  O   UNL     1      14.952  40.615  18.478  1.00  0.00    -0.289 OA
ATOM      5  C   UNL     1      13.416  39.070  19.271  1.00  0.00     0.065 A 
ATOM      6  C   UNL     1      13.806  39.205  20.616  1.00  0.00     0.016 A 
ATOM      7  C   UNL     1      13.169  38.453  21.608  1.00  0.00     0.001 A 
ATOM      8  C   UNL     1      12.143  37.567  21.269  1.00  0.00     0.004 A 
ATOM      9  C   UNL     1      11.749  37.426  19.935  1.00  0.00     0.048 A 
ATOM     10  C   UNL     1      12.380  38.174  18.934  1.00  0.00     0.138 A 
ATOM     11  O   UNL     1      11.998  38.033  17.669  1.00  0.00    -0.456 OA
ENDROOT
BRANCH   1  12
ATOM     12  C   UNL     1      12.020  38.452  15.277  1.00  0.00     0.017 A 
ATOM     13  C   UNL     1      11.014  37.880  12.702  1.00  0.00     0.000 A 
ATOM     14  C   UNL     1      11.099  36.870  13.658  1.00  0.00     0.001 A 
ATOM     15  C   UNL     1      11.427  39.174  13.018  1.00  0.00     0.001 A 
ATOM     16  C   UNL     1      11.596  37.150  14.935  1.00  0.00     0.012 A 
ATOM     17  C   UNL     1      11.926  39.464  14.293  1.00  0.00     0.012 A 
ENDBRANCH   1  12
TORSDOF 1
ENDMDL
MODEL 9
REMARK VINA RESULT:    -5.281     11.006     12.416
REMARK INTER + INTRA:          -5.849
REMARK INTER:                  -5.601
REMARK INTRA:                  -0.248
REMARK UNBOUND:                -0.260
REMARK SMILES O=c1cc(-c2ccccc2)oc2ccccc12
REMARK SMILES IDX 4 1 3 2 2 3 1 4 17 5 16 6 15 7 14 8 13 9 12 10 11 11 5 12
REMARK SMILES IDX 8 13 7 14 9 15 6 16 10 17
REMARK H PARENT
REMARK Flexibility Score: inf
ROOT
ATOM      1  C   UNL     1      12.860  38.861  14.690  1.00  0.00     0.138 A 
ATOM      2  C   UNL     1      11.627  39.019  14.023  1.00  0.00     0.100 A 
ATOM      3  C   UNL     1      11.591  38.997  12.628  1.00  0.00     0.193 A 
ATOM      4  O   UNL     1      10.489  39.139  12.031  1.00  0.00    -0.289 OA
ATOM      5  C   UNL     1      12.781  38.816  11.909  1.00  0.00     0.065 A 
ATOM      6  C   UNL     1      12.815  38.784  10.503  1.00  0.00     0.016 A 
ATOM      7  C   UNL     1      14.031  38.601   9.837  1.00  0.00     0.001 A 
ATOM      8  C   UNL     1      15.215  38.450  10.563  1.00  0.00     0.004 A 
ATOM      9  C   UNL     1      15.191  38.481  11.960  1.00  0.00     0.048 A 
ATOM     10  C   UNL     1      13.980  38.664  12.638  1.00  0.00     0.138 A 
ATOM     11  O   UNL     1      13.967  38.691  13.966  1.00  0.00    -0.456 OA
ENDROOT
BRANCH   1  12
ATOM     12  C   UNL     1      12.987  38.872  16.181  1.00  0.00     0.017 A 
ATOM     13  C   UNL     1      13.145  38.841  18.998  1.00  0.00     0.000 A 
ATOM     14  C   UNL     1      12.091  38.198  18.351  1.00  0.00     0.001 A 
ATOM     15  C   UNL     1      14.121  39.499  18.252  1.00  0.00     0.001 A 
ATOM     16  C   UNL     1      12.010  38.212  16.955  1.00  0.00     0.012 A 
ATOM     17  C   UNL     1      14.048  39.519  16.855  1.00  0.00     0.012 A 
ENDBRANCH   1  12
TORSDOF 1
ENDMDL
