MODEL 1
REMARK VINA RESULT:    -5.709      0.000      0.000
REMARK INTER + INTRA:          -7.636
REMARK INTER:                  -7.043
REMARK INTRA:                  -0.592
REMARK UNBOUND:                -0.592
REMARK SMILES CC(C)=CCC[C@@H](C)c1ccc(C)cc1
REMARK SMILES IDX 6 1 7 2 8 3 9 4 13 5 12 6 11 7 14 8 10 9 15 10 5 11 4 12
REMARK SMILES IDX 2 13 1 14 3 15
REMARK H PARENT
REMARK Flexibility Score: inf
ROOT
ATOM      1  C   UNL     1       5.993 -16.907   8.485  1.00  0.00     0.012 C 
ENDROOT
BRANCH   1   2
ATOM      2  C   UNL     1       4.653 -16.229   8.109  1.00  0.00     0.016 C 
ATOM      3  C   UNL     1       3.624 -16.291   9.250  1.00  0.00     0.013 C 
BRANCH   2   4
ATOM      4  C   UNL     1       4.894 -14.790   7.690  1.00  0.00    -0.045 A 
ATOM      5  C   UNL     1       5.647 -10.716   6.470  1.00  0.00     0.044 C 
ATOM      6  C   UNL     1       5.356 -12.125   6.890  1.00  0.00    -0.051 A 
ATOM      7  C   UNL     1       5.367 -13.160   5.944  1.00  0.00     0.004 A 
ATOM      8  C   UNL     1       5.141 -12.431   8.241  1.00  0.00     0.004 A 
ATOM      9  C   UNL     1       5.134 -14.481   6.339  1.00  0.00     0.004 A 
ATOM     10  C   UNL     1       4.906 -13.750   8.639  1.00  0.00     0.004 A 
ENDBRANCH   2   4
ENDBRANCH   1   2
BRANCH   1  11
ATOM     11  C   UNL     1       6.503 -17.921   7.445  1.00  0.00     0.028 C 
BRANCH  11  12
ATOM     12  C   UNL     1       6.111 -19.340   7.785  1.00  0.00    -0.028 C 
ATOM     13  C   UNL     1       5.708 -20.263   6.885  1.00  0.00    -0.080 C 
ATOM     14  C   UNL     1       5.314 -21.629   7.388  1.00  0.00     0.039 C 
ATOM     15  C   UNL     1       5.666 -19.976   5.403  1.00  0.00     0.039 C 
ENDBRANCH  11  12
ENDBRANCH   1  11
TORSDOF 4
ENDMDL
MODEL 2
REMARK VINA RESULT:    -5.686      1.448      5.182
REMARK INTER + INTRA:          -7.608
REMARK INTER:                  -6.025
REMARK INTRA:                  -1.583
REMARK UNBOUND:                -0.592
REMARK SMILES CC(C)=CCC[C@@H](C)c1ccc(C)cc1
REMARK SMILES IDX 6 1 7 2 8 3 9 4 13 5 12 6 11 7 14 8 10 9 15 10 5 11 4 12
REMARK SMILES IDX 2 13 1 14 3 15
REMARK H PARENT
REMARK Flexibility Score: inf
ROOT
ATOM      1  C   UNL     1       5.207 -13.587   8.207  1.00  0.00     0.012 C 
ENDROOT
BRANCH   1   2
ATOM      2  C   UNL     1       4.237 -14.632   8.813  1.00  0.00     0.016 C 
ATOM      3  C   UNL     1       2.781 -14.406   8.373  1.00  0.00     0.013 C 
BRANCH   2   4
ATOM      4  C   UNL     1       4.688 -16.036   8.451  1.00  0.00    -0.045 A 
ATOM      5  C   UNL     1       6.017 -20.001   7.371  1.00  0.00     0.044 C 
ATOM      6  C   UNL     1       5.551 -18.634   7.774  1.00  0.00    -0.051 A 
ATOM      7  C   UNL     1       6.471 -17.681   8.232  1.00  0.00     0.004 A 
ATOM      8  C   UNL     1       4.203 -18.277   7.629  1.00  0.00     0.004 A 
ATOM      9  C   UNL     1       6.043 -16.394   8.572  1.00  0.00     0.004 A 
ATOM     10  C   UNL     1       3.773 -16.990   7.969  1.00  0.00     0.004 A 
ENDBRANCH   2   4
ENDBRANCH   1   2
BRANCH   1  11
ATOM     11  C   UNL     1       4.895 -13.207   6.748  1.00  0.00     0.028 C 
BRANCH  11  12
ATOM     12  C   UNL     1       5.776 -13.938   5.763  1.00  0.00    -0.028 C 
ATOM     13  C   UNL     1       5.347 -14.893   4.909  1.00  0.00    -0.080 C 
ATOM     14  C   UNL     1       6.358 -15.558   4.010  1.00  0.00     0.039 C 
ATOM     15  C   UNL     1       3.893 -15.291   4.814  1.00  0.00     0.039 C 
ENDBRANCH  11  12
ENDBRANCH   1  11
TORSDOF 4
ENDMDL
MODEL 3
REMARK VINA RESULT:    -5.597      1.751      3.629
REMARK INTER + INTRA:          -7.498
REMARK INTER:                  -5.937
REMARK INTRA:                  -1.561
REMARK UNBOUND:                -0.592
REMARK SMILES CC(C)=CCC[C@@H](C)c1ccc(C)cc1
REMARK SMILES IDX 6 1 7 2 8 3 9 4 13 5 12 6 11 7 14 8 10 9 15 10 5 11 4 12
REMARK SMILES IDX 2 13 1 14 3 15
REMARK H PARENT
REMARK Flexibility Score: inf
ROOT
ATOM      1  C   UNL     1       5.002 -17.761   8.119  1.00  0.00     0.012 C 
ENDROOT
BRANCH   1   2
ATOM      2  C   UNL     1       6.022 -16.981   7.253  1.00  0.00     0.016 C 
ATOM      3  C   UNL     1       6.085 -17.502   5.808  1.00  0.00     0.013 C 
BRANCH   2   4
ATOM      4  C   UNL     1       5.695 -15.499   7.269  1.00  0.00    -0.045 A 
ATOM      5  C   UNL     1       4.823 -11.268   7.274  1.00  0.00     0.044 C 
ATOM      6  C   UNL     1       5.096 -12.742   7.275  1.00  0.00    -0.051 A 
ATOM      7  C   UNL     1       5.159 -13.450   6.067  1.00  0.00     0.004 A 
ATOM      8  C   UNL     1       5.362 -13.411   8.479  1.00  0.00     0.004 A 
ATOM      9  C   UNL     1       5.451 -14.817   6.063  1.00  0.00     0.004 A 
ATOM     10  C   UNL     1       5.654 -14.778   8.478  1.00  0.00     0.004 A 
ENDBRANCH   2   4
ENDBRANCH   1   2
BRANCH   1  11
ATOM     11  C   UNL     1       3.544 -17.644   7.638  1.00  0.00     0.028 C 
BRANCH  11  12
ATOM     12  C   UNL     1       2.702 -16.793   8.560  1.00  0.00    -0.028 C 
ATOM     13  C   UNL     1       1.992 -15.712   8.172  1.00  0.00    -0.080 C 
ATOM     14  C   UNL     1       1.229 -14.943   9.221  1.00  0.00     0.039 C 
ATOM     15  C   UNL     1       1.922 -15.271   6.729  1.00  0.00     0.039 C 
ENDBRANCH  11  12
ENDBRANCH   1  11
TORSDOF 4
ENDMDL
MODEL 4
REMARK VINA RESULT:    -5.590      1.745      4.227
REMARK INTER + INTRA:          -7.489
REMARK INTER:                  -6.229
REMARK INTRA:                  -1.260
REMARK UNBOUND:                -0.592
REMARK SMILES CC(C)=CCC[C@@H](C)c1ccc(C)cc1
REMARK SMILES IDX 6 1 7 2 8 3 9 4 13 5 12 6 11 7 14 8 10 9 15 10 5 11 4 12
REMARK SMILES IDX 2 13 1 14 3 15
REMARK H PARENT
REMARK Flexibility Score: inf
ROOT
ATOM      1  C   UNL     1       4.109 -17.295   8.197  1.00  0.00     0.012 C 
ENDROOT
BRANCH   1   2
ATOM      2  C   UNL     1       5.529 -16.681   8.114  1.00  0.00     0.016 C 
ATOM      3  C   UNL     1       6.486 -17.531   7.263  1.00  0.00     0.013 C 
BRANCH   2   4
ATOM      4  C   UNL     1       5.454 -15.264   7.573  1.00  0.00    -0.045 A 
ATOM      5  C   UNL     1       5.188 -11.218   6.083  1.00  0.00     0.044 C 
ATOM      6  C   UNL     1       5.310 -12.624   6.592  1.00  0.00    -0.051 A 
ATOM      7  C   UNL     1       5.621 -12.862   7.938  1.00  0.00     0.004 A 
ATOM      8  C   UNL     1       5.043 -13.708   5.744  1.00  0.00     0.004 A 
ATOM      9  C   UNL     1       5.697 -14.171   8.424  1.00  0.00     0.004 A 
ATOM     10  C   UNL     1       5.119 -15.018   6.228  1.00  0.00     0.004 A 
ENDBRANCH   2   4
ENDBRANCH   1   2
BRANCH   1  11
ATOM     11  C   UNL     1       3.191 -16.627   9.237  1.00  0.00     0.028 C 
BRANCH  11  12
ATOM     12  C   UNL     1       1.795 -16.399   8.709  1.00  0.00    -0.028 C 
ATOM     13  C   UNL     1       1.270 -15.188   8.420  1.00  0.00    -0.080 C 
ATOM     14  C   UNL     1      -0.156 -15.122   7.935  1.00  0.00     0.039 C 
ATOM     15  C   UNL     1       2.072 -13.914   8.547  1.00  0.00     0.039 C 
ENDBRANCH  11  12
ENDBRANCH   1  11
TORSDOF 4
ENDMDL
MODEL 5
REMARK VINA RESULT:    -5.583      1.466      2.258
REMARK INTER + INTRA:          -7.480
REMARK INTER:                  -6.275
REMARK INTRA:                  -1.206
REMARK UNBOUND:                -0.592
REMARK SMILES CC(C)=CCC[C@@H](C)c1ccc(C)cc1
REMARK SMILES IDX 6 1 7 2 8 3 9 4 13 5 12 6 11 7 14 8 10 9 15 10 5 11 4 12
REMARK SMILES IDX 2 13 1 14 3 15
REMARK H PARENT
REMARK Flexibility Score: inf
ROOT
ATOM      1  C   UNL     1       5.578 -17.239   8.398  1.00  0.00     0.012 C 
ENDROOT
BRANCH   1   2
ATOM      2  C   UNL     1       4.287 -16.457   8.049  1.00  0.00     0.016 C 
ATOM      3  C   UNL     1       3.268 -16.464   9.200  1.00  0.00     0.013 C 
BRANCH   2   4
ATOM      4  C   UNL     1       4.630 -15.032   7.652  1.00  0.00    -0.045 A 
ATOM      5  C   UNL     1       5.643 -11.004   6.465  1.00  0.00     0.044 C 
ATOM      6  C   UNL     1       5.266 -12.392   6.890  1.00  0.00    -0.051 A 
ATOM      7  C   UNL     1       4.549 -13.226   6.020  1.00  0.00     0.004 A 
ATOM      8  C   UNL     1       5.688 -12.891   8.130  1.00  0.00     0.004 A 
ATOM      9  C   UNL     1       4.229 -14.534   6.399  1.00  0.00     0.004 A 
ATOM     10  C   UNL     1       5.369 -14.198   8.512  1.00  0.00     0.004 A 
ENDBRANCH   2   4
ENDBRANCH   1   2
BRANCH   1  11
ATOM     11  C   UNL     1       6.134 -18.089   7.241  1.00  0.00     0.028 C 
BRANCH  11  12
ATOM     12  C   UNL     1       6.817 -17.250   6.188  1.00  0.00    -0.028 C 
ATOM     13  C   UNL     1       6.351 -17.060   4.934  1.00  0.00    -0.080 C 
ATOM     14  C   UNL     1       7.170 -16.223   3.985  1.00  0.00     0.039 C 
ATOM     15  C   UNL     1       5.035 -17.638   4.470  1.00  0.00     0.039 C 
ENDBRANCH  11  12
ENDBRANCH   1  11
TORSDOF 4
ENDMDL
MODEL 6
REMARK VINA RESULT:    -5.572      1.658      5.012
REMARK INTER + INTRA:          -7.467
REMARK INTER:                  -5.897
REMARK INTRA:                  -1.570
REMARK UNBOUND:                -0.592
REMARK SMILES CC(C)=CCC[C@@H](C)c1ccc(C)cc1
REMARK SMILES IDX 6 1 7 2 8 3 9 4 13 5 12 6 11 7 14 8 10 9 15 10 5 11 4 12
REMARK SMILES IDX 2 13 1 14 3 15
REMARK H PARENT
REMARK Flexibility Score: inf
ROOT
ATOM      1  C   UNL     1       3.925 -13.898   6.487  1.00  0.00     0.012 C 
ENDROOT
BRANCH   1   2
ATOM      2  C   UNL     1       5.336 -14.144   7.077  1.00  0.00     0.016 C 
ATOM      3  C   UNL     1       5.538 -13.435   8.426  1.00  0.00     0.013 C 
BRANCH   2   4
ATOM      4  C   UNL     1       5.591 -15.634   7.216  1.00  0.00    -0.045 A 
ATOM      5  C   UNL     1       6.252 -19.886   7.589  1.00  0.00     0.044 C 
ATOM      6  C   UNL     1       6.052 -18.406   7.454  1.00  0.00    -0.051 A 
ATOM      7  C   UNL     1       5.678 -17.854   6.220  1.00  0.00     0.004 A 
ATOM      8  C   UNL     1       6.168 -17.571   8.574  1.00  0.00     0.004 A 
ATOM      9  C   UNL     1       5.454 -16.479   6.101  1.00  0.00     0.004 A 
ATOM     10  C   UNL     1       5.945 -16.196   8.457  1.00  0.00     0.004 A 
ENDBRANCH   2   4
ENDBRANCH   1   2
BRANCH   1  11
ATOM     11  C   UNL     1       2.770 -14.229   7.449  1.00  0.00     0.028 C 
BRANCH  11  12
ATOM     12  C   UNL     1       2.100 -15.540   7.113  1.00  0.00    -0.028 C 
ATOM     13  C   UNL     1       2.042 -16.608   7.939  1.00  0.00    -0.080 C 
ATOM     14  C   UNL     1       1.368 -17.862   7.442  1.00  0.00     0.039 C 
ATOM     15  C   UNL     1       2.606 -16.572   9.339  1.00  0.00     0.039 C 
ENDBRANCH  11  12
ENDBRANCH   1  11
TORSDOF 4
ENDMDL
MODEL 7
REMARK VINA RESULT:    -5.569      1.984      5.596
REMARK INTER + INTRA:          -7.463
REMARK INTER:                  -6.313
REMARK INTRA:                  -1.150
REMARK UNBOUND:                -0.592
REMARK SMILES CC(C)=CCC[C@@H](C)c1ccc(C)cc1
REMARK SMILES IDX 6 1 7 2 8 3 9 4 13 5 12 6 11 7 14 8 10 9 15 10 5 11 4 12
REMARK SMILES IDX 2 13 1 14 3 15
REMARK H PARENT
REMARK Flexibility Score: inf
ROOT
ATOM      1  C   UNL     1       5.483 -15.301   7.495  1.00  0.00     0.012 C 
ENDROOT
BRANCH   1   2
ATOM      2  C   UNL     1       4.844 -16.286   8.505  1.00  0.00     0.016 C 
ATOM      3  C   UNL     1       3.397 -15.906   8.860  1.00  0.00     0.013 C 
BRANCH   2   4
ATOM      4  C   UNL     1       4.901 -17.703   7.961  1.00  0.00    -0.045 A 
ATOM      5  C   UNL     1       5.012 -21.750   6.457  1.00  0.00     0.044 C 
ATOM      6  C   UNL     1       4.984 -20.335   6.952  1.00  0.00    -0.051 A 
ATOM      7  C   UNL     1       3.813 -19.572   6.843  1.00  0.00     0.004 A 
ATOM      8  C   UNL     1       6.105 -19.788   7.592  1.00  0.00     0.004 A 
ATOM      9  C   UNL     1       3.773 -18.265   7.338  1.00  0.00     0.004 A 
ATOM     10  C   UNL     1       6.067 -18.481   8.088  1.00  0.00     0.004 A 
ENDBRANCH   2   4
ENDBRANCH   1   2
BRANCH   1  11
ATOM     11  C   UNL     1       4.838 -15.320   6.097  1.00  0.00     0.028 C 
BRANCH  11  12
ATOM     12  C   UNL     1       5.845 -15.091   4.996  1.00  0.00    -0.028 C 
ATOM     13  C   UNL     1       6.458 -16.073   4.299  1.00  0.00    -0.080 C 
ATOM     14  C   UNL     1       7.471 -15.683   3.252  1.00  0.00     0.039 C 
ATOM     15  C   UNL     1       6.142 -17.533   4.520  1.00  0.00     0.039 C 
ENDBRANCH  11  12
ENDBRANCH   1  11
TORSDOF 4
ENDMDL
MODEL 8
REMARK VINA RESULT:    -5.556      1.239      6.576
REMARK INTER + INTRA:          -7.448
REMARK INTER:                  -6.554
REMARK INTRA:                  -0.893
REMARK UNBOUND:                -0.592
REMARK SMILES CC(C)=CCC[C@@H](C)c1ccc(C)cc1
REMARK SMILES IDX 6 1 7 2 8 3 9 4 13 5 12 6 11 7 14 8 10 9 15 10 5 11 4 12
REMARK SMILES IDX 2 13 1 14 3 15
REMARK H PARENT
REMARK Flexibility Score: inf
ROOT
ATOM      1  C   UNL     1       3.942 -16.332   9.010  1.00  0.00     0.012 C 
ENDROOT
BRANCH   1   2
ATOM      2  C   UNL     1       5.180 -16.778   8.195  1.00  0.00     0.016 C 
ATOM      3  C   UNL     1       6.493 -16.598   8.975  1.00  0.00     0.013 C 
BRANCH   2   4
ATOM      4  C   UNL     1       5.021 -18.221   7.750  1.00  0.00    -0.045 A 
ATOM      5  C   UNL     1       4.628 -22.320   6.445  1.00  0.00     0.044 C 
ATOM      6  C   UNL     1       4.751 -20.905   6.924  1.00  0.00    -0.051 A 
ATOM      7  C   UNL     1       5.902 -20.487   7.608  1.00  0.00     0.004 A 
ATOM      8  C   UNL     1       3.747 -19.970   6.631  1.00  0.00     0.004 A 
ATOM      9  C   UNL     1       6.034 -19.158   8.021  1.00  0.00     0.004 A 
ATOM     10  C   UNL     1       3.878 -18.641   7.044  1.00  0.00     0.004 A 
ENDBRANCH   2   4
ENDBRANCH   1   2
BRANCH   1  11
ATOM     11  C   UNL     1       3.160 -15.162   8.385  1.00  0.00     0.028 C 
BRANCH  11  12
ATOM     12  C   UNL     1       3.919 -14.502   7.258  1.00  0.00    -0.028 C 
ATOM     13  C   UNL     1       4.704 -13.411   7.396  1.00  0.00    -0.080 C 
ATOM     14  C   UNL     1       5.367 -12.846   6.166  1.00  0.00     0.039 C 
ATOM     15  C   UNL     1       4.951 -12.763   8.738  1.00  0.00     0.039 C 
ENDBRANCH  11  12
ENDBRANCH   1  11
TORSDOF 4
ENDMDL
MODEL 9
REMARK VINA RESULT:    -5.554      2.279      4.375
REMARK INTER + INTRA:          -7.445
REMARK INTER:                  -5.850
REMARK INTRA:                  -1.595
REMARK UNBOUND:                -0.592
REMARK SMILES CC(C)=CCC[C@@H](C)c1ccc(C)cc1
REMARK SMILES IDX 6 1 7 2 8 3 9 4 13 5 12 6 11 7 14 8 10 9 15 10 5 11 4 12
REMARK SMILES IDX 2 13 1 14 3 15
REMARK H PARENT
REMARK Flexibility Score: inf
ROOT
ATOM      1  C   UNL     1       4.480 -15.947   9.291  1.00  0.00     0.012 C 
ENDROOT
BRANCH   1   2
ATOM      2  C   UNL     1       5.607 -15.499   8.327  1.00  0.00     0.016 C 
ATOM      3  C   UNL     1       5.777 -16.457   7.137  1.00  0.00     0.013 C 
BRANCH   2   4
ATOM      4  C   UNL     1       5.343 -14.086   7.837  1.00  0.00    -0.045 A 
ATOM      5  C   UNL     1       4.526 -10.071   6.469  1.00  0.00     0.044 C 
ATOM      6  C   UNL     1       4.839 -11.457   6.947  1.00  0.00    -0.051 A 
ATOM      7  C   UNL     1       4.741 -11.774   8.309  1.00  0.00     0.004 A 
ATOM      8  C   UNL     1       5.163 -12.465   6.027  1.00  0.00     0.004 A 
ATOM      9  C   UNL     1       4.996 -13.076   8.751  1.00  0.00     0.004 A 
ATOM     10  C   UNL     1       5.418 -13.768   6.467  1.00  0.00     0.004 A 
ENDBRANCH   2   4
ENDBRANCH   1   2
BRANCH   1  11
ATOM     11  C   UNL     1       3.139 -16.249   8.598  1.00  0.00     0.028 C 
BRANCH  11  12
ATOM     12  C   UNL     1       2.066 -15.252   8.965  1.00  0.00    -0.028 C 
ATOM     13  C   UNL     1       1.508 -14.371   8.106  1.00  0.00    -0.080 C 
ATOM     14  C   UNL     1       0.472 -13.412   8.635  1.00  0.00     0.039 C 
ATOM     15  C   UNL     1       1.873 -14.338   6.641  1.00  0.00     0.039 C 
ENDBRANCH  11  12
ENDBRANCH   1  11
TORSDOF 4
ENDMDL
