MODEL 1
REMARK VINA RESULT:    -4.579      0.000      0.000
REMARK INTER + INTRA:          -5.299
REMARK INTER:                  -5.248
REMARK INTRA:                  -0.051
REMARK UNBOUND:                -0.051
REMARK SMILES COc1ccc(C=O)c(O)c1
REMARK SMILES IDX 3 1 11 2 9 3 6 4 5 5 4 6 2 7 1 8 10 9 7 11 8 12
REMARK H PARENT 10 10
REMARK Flexibility Score: inf
ROOT
ATOM      1  C   UNL     1      -7.733   7.598  -3.730  1.00  0.00     0.122 A 
ATOM      2  C   UNL     1      -6.617   8.325  -4.180  1.00  0.00     0.093 A 
ATOM      3  C   UNL     1      -5.348   7.736  -4.233  1.00  0.00     0.129 A 
ATOM      4  C   UNL     1      -5.176   6.391  -3.815  1.00  0.00     0.056 A 
ATOM      5  C   UNL     1      -6.303   5.673  -3.371  1.00  0.00     0.019 A 
ATOM      6  C   UNL     1      -7.563   6.271  -3.330  1.00  0.00     0.047 A 
ENDROOT
BRANCH   1   7
ATOM      7  O   UNL     1      -9.019   8.153  -3.666  1.00  0.00    -0.497 OA
ATOM      8  C   UNL     1      -9.611   8.678  -2.482  1.00  0.00     0.278 C 
ENDBRANCH   1   7
BRANCH   3   9
ATOM      9  O   UNL     1      -4.296   8.521  -4.713  1.00  0.00    -0.507 OA
ATOM     10  H   UNL     1      -4.311   9.018  -5.592  1.00  0.00     0.293 HD
ENDBRANCH   3   9
BRANCH   4  11
ATOM     11  C   UNL     1      -3.852   5.723  -3.818  1.00  0.00     0.263 C 
ATOM     12  O   UNL     1      -3.445   5.095  -2.804  1.00  0.00    -0.298 OA
ENDBRANCH   4  11
TORSDOF 3
ENDMDL
MODEL 2
REMARK VINA RESULT:    -4.560      1.132      1.132
REMARK INTER + INTRA:          -5.277
REMARK INTER:                  -5.216
REMARK INTRA:                  -0.060
REMARK UNBOUND:                -0.051
REMARK SMILES COc1ccc(C=O)c(O)c1
REMARK SMILES IDX 3 1 11 2 9 3 6 4 5 5 4 6 2 7 1 8 10 9 7 11 8 12
REMARK H PARENT 10 10
REMARK Flexibility Score: inf
ROOT
ATOM      1  C   UNL     1      -8.043   7.334  -2.732  1.00  0.00     0.122 A 
ATOM      2  C   UNL     1      -6.975   8.248  -2.731  1.00  0.00     0.093 A 
ATOM      3  C   UNL     1      -5.683   7.844  -3.090  1.00  0.00     0.129 A 
ATOM      4  C   UNL     1      -5.439   6.493  -3.447  1.00  0.00     0.056 A 
ATOM      5  C   UNL     1      -6.519   5.589  -3.447  1.00  0.00     0.019 A 
ATOM      6  C   UNL     1      -7.803   6.007  -3.094  1.00  0.00     0.047 A 
ENDROOT
BRANCH   1   7
ATOM      7  O   UNL     1      -9.350   7.702  -2.382  1.00  0.00    -0.497 OA
ATOM      8  C   UNL     1     -10.008   7.298  -1.184  1.00  0.00     0.278 C 
ENDBRANCH   1   7
BRANCH   3   9
ATOM      9  O   UNL     1      -4.682   8.819  -3.085  1.00  0.00    -0.507 OA
ATOM     10  H   UNL     1      -4.028   8.961  -2.329  1.00  0.00     0.293 HD
ENDBRANCH   3   9
BRANCH   4  11
ATOM     11  C   UNL     1      -4.088   5.998  -3.804  1.00  0.00     0.263 C 
ATOM     12  O   UNL     1      -3.461   5.221  -3.036  1.00  0.00    -0.298 OA
ENDBRANCH   4  11
TORSDOF 3
ENDMDL
MODEL 3
REMARK VINA RESULT:    -4.160     17.831     19.122
REMARK INTER + INTRA:          -4.819
REMARK INTER:                  -4.626
REMARK INTRA:                  -0.192
REMARK UNBOUND:                -0.051
REMARK SMILES COc1ccc(C=O)c(O)c1
REMARK SMILES IDX 3 1 11 2 9 3 6 4 5 5 4 6 2 7 1 8 10 9 7 11 8 12
REMARK H PARENT 10 10
REMARK Flexibility Score: inf
ROOT
ATOM      1  C   UNL     1       3.124  -7.599   4.638  1.00  0.00     0.122 A 
ATOM      2  C   UNL     1       2.200  -6.639   5.088  1.00  0.00     0.093 A 
ATOM      3  C   UNL     1       0.822  -6.873   5.004  1.00  0.00     0.129 A 
ATOM      4  C   UNL     1       0.345  -8.086   4.445  1.00  0.00     0.056 A 
ATOM      5  C   UNL     1       1.281  -9.040   4.002  1.00  0.00     0.019 A 
ATOM      6  C   UNL     1       2.652  -8.797   4.099  1.00  0.00     0.047 A 
ENDROOT
BRANCH   1   7
ATOM      7  O   UNL     1       4.511  -7.402   4.709  1.00  0.00    -0.497 OA
ATOM      8  C   UNL     1       5.469  -8.146   3.964  1.00  0.00     0.278 C 
ENDBRANCH   1   7
BRANCH   3   9
ATOM      9  O   UNL     1      -0.028  -5.877   5.493  1.00  0.00    -0.507 OA
ATOM     10  H   UNL     1      -1.036  -5.930   5.477  1.00  0.00     0.293 HD
ENDBRANCH   3   9
BRANCH   4  11
ATOM     11  C   UNL     1      -1.102  -8.377   4.299  1.00  0.00     0.263 C 
ATOM     12  O   UNL     1      -1.817  -7.711   3.503  1.00  0.00    -0.298 OA
ENDBRANCH   4  11
TORSDOF 3
ENDMDL
MODEL 4
REMARK VINA RESULT:    -4.160     18.156     19.846
REMARK INTER + INTRA:          -4.819
REMARK INTER:                  -4.548
REMARK INTRA:                  -0.271
REMARK UNBOUND:                -0.051
REMARK SMILES COc1ccc(C=O)c(O)c1
REMARK SMILES IDX 3 1 11 2 9 3 6 4 5 5 4 6 2 7 1 8 10 9 7 11 8 12
REMARK H PARENT 10 10
REMARK Flexibility Score: inf
ROOT
ATOM      1  C   UNL     1       4.220  -8.125   4.325  1.00  0.00     0.122 A 
ATOM      2  C   UNL     1       3.351  -9.096   3.795  1.00  0.00     0.093 A 
ATOM      3  C   UNL     1       1.962  -8.963   3.920  1.00  0.00     0.129 A 
ATOM      4  C   UNL     1       1.419  -7.844   4.602  1.00  0.00     0.056 A 
ATOM      5  C   UNL     1       2.300  -6.878   5.124  1.00  0.00     0.019 A 
ATOM      6  C   UNL     1       3.681  -7.019   4.985  1.00  0.00     0.047 A 
ENDROOT
BRANCH   1   7
ATOM      7  O   UNL     1       5.614  -8.222   4.216  1.00  0.00    -0.497 OA
ATOM      8  C   UNL     1       6.485  -7.113   4.017  1.00  0.00     0.278 C 
ENDBRANCH   1   7
BRANCH   3   9
ATOM      9  O   UNL     1       1.169  -9.961   3.347  1.00  0.00    -0.507 OA
ATOM     10  H   UNL     1       0.208  -9.833   3.066  1.00  0.00     0.293 HD
ENDBRANCH   3   9
BRANCH   4  11
ATOM     11  C   UNL     1      -0.041  -7.666   4.795  1.00  0.00     0.263 C 
ATOM     12  O   UNL     1      -0.849  -7.904   3.858  1.00  0.00    -0.298 OA
ENDBRANCH   4  11
TORSDOF 3
ENDMDL
MODEL 5
REMARK VINA RESULT:    -4.158      2.081      4.024
REMARK INTER + INTRA:          -4.816
REMARK INTER:                  -4.553
REMARK INTRA:                  -0.264
REMARK UNBOUND:                -0.051
REMARK SMILES COc1ccc(C=O)c(O)c1
REMARK SMILES IDX 3 1 11 2 9 3 6 4 5 5 4 6 2 7 1 8 10 9 7 11 8 12
REMARK H PARENT 10 10
REMARK Flexibility Score: inf
ROOT
ATOM      1  C   UNL     1      -5.210   8.983  -5.002  1.00  0.00     0.122 A 
ATOM      2  C   UNL     1      -6.615   9.045  -5.021  1.00  0.00     0.093 A 
ATOM      3  C   UNL     1      -7.387   8.047  -4.412  1.00  0.00     0.129 A 
ATOM      4  C   UNL     1      -6.749   6.949  -3.779  1.00  0.00     0.056 A 
ATOM      5  C   UNL     1      -5.342   6.903  -3.763  1.00  0.00     0.019 A 
ATOM      6  C   UNL     1      -4.585   7.908  -4.368  1.00  0.00     0.047 A 
ENDROOT
BRANCH   1   7
ATOM      7  O   UNL     1      -4.405   9.965  -5.597  1.00  0.00    -0.497 OA
ATOM      8  C   UNL     1      -3.694   9.790  -6.819  1.00  0.00     0.278 C 
ENDBRANCH   1   7
BRANCH   3   9
ATOM      9  O   UNL     1      -8.776   8.194  -4.457  1.00  0.00    -0.507 OA
ATOM     10  H   UNL     1      -9.278   8.631  -5.216  1.00  0.00     0.293 HD
ENDBRANCH   3   9
BRANCH   4  11
ATOM     11  C   UNL     1      -7.512   5.846  -3.146  1.00  0.00     0.263 C 
ATOM     12  O   UNL     1      -8.555   6.083  -2.480  1.00  0.00    -0.298 OA
ENDBRANCH   4  11
TORSDOF 3
ENDMDL
MODEL 6
REMARK VINA RESULT:    -4.142     13.533     15.130
REMARK INTER + INTRA:          -4.798
REMARK INTER:                  -4.534
REMARK INTRA:                  -0.264
REMARK UNBOUND:                -0.051
REMARK SMILES COc1ccc(C=O)c(O)c1
REMARK SMILES IDX 3 1 11 2 9 3 6 4 5 5 4 6 2 7 1 8 10 9 7 11 8 12
REMARK H PARENT 10 10
REMARK Flexibility Score: inf
ROOT
ATOM      1  C   UNL     1       5.704   7.440   6.412  1.00  0.00     0.122 A 
ATOM      2  C   UNL     1       6.372   6.323   5.881  1.00  0.00     0.093 A 
ATOM      3  C   UNL     1       5.657   5.259   5.315  1.00  0.00     0.129 A 
ATOM      4  C   UNL     1       4.240   5.298   5.285  1.00  0.00     0.056 A 
ATOM      5  C   UNL     1       3.584   6.426   5.816  1.00  0.00     0.019 A 
ATOM      6  C   UNL     1       4.309   7.481   6.371  1.00  0.00     0.047 A 
ENDROOT
BRANCH   1   7
ATOM      7  O   UNL     1       6.385   8.524   6.984  1.00  0.00    -0.497 OA
ATOM      8  C   UNL     1       5.817   9.814   7.190  1.00  0.00     0.278 C 
ENDBRANCH   1   7
BRANCH   3   9
ATOM      9  O   UNL     1       6.398   4.197   4.790  1.00  0.00    -0.507 OA
ATOM     10  H   UNL     1       6.140   3.674   3.966  1.00  0.00     0.293 HD
ENDBRANCH   3   9
BRANCH   4  11
ATOM     11  C   UNL     1       3.427   4.190   4.729  1.00  0.00     0.263 C 
ATOM     12  O   UNL     1       3.845   3.002   4.769  1.00  0.00    -0.298 OA
ENDBRANCH   4  11
TORSDOF 3
ENDMDL
MODEL 7
REMARK VINA RESULT:    -4.101      1.403      2.146
REMARK INTER + INTRA:          -4.751
REMARK INTER:                  -4.524
REMARK INTRA:                  -0.228
REMARK UNBOUND:                -0.051
REMARK SMILES COc1ccc(C=O)c(O)c1
REMARK SMILES IDX 3 1 11 2 9 3 6 4 5 5 4 6 2 7 1 8 10 9 7 11 8 12
REMARK H PARENT 10 10
REMARK Flexibility Score: inf
ROOT
ATOM      1  C   UNL     1      -7.178   8.456  -4.031  1.00  0.00     0.122 A 
ATOM      2  C   UNL     1      -7.393   7.112  -3.677  1.00  0.00     0.093 A 
ATOM      3  C   UNL     1      -6.325   6.209  -3.599  1.00  0.00     0.129 A 
ATOM      4  C   UNL     1      -5.008   6.646  -3.893  1.00  0.00     0.056 A 
ATOM      5  C   UNL     1      -4.806   7.996  -4.241  1.00  0.00     0.019 A 
ATOM      6  C   UNL     1      -5.879   8.886  -4.308  1.00  0.00     0.047 A 
ENDROOT
BRANCH   1   7
ATOM      7  O   UNL     1      -8.221   9.389  -4.116  1.00  0.00    -0.497 OA
ATOM      8  C   UNL     1      -9.446   9.295  -3.394  1.00  0.00     0.278 C 
ENDBRANCH   1   7
BRANCH   3   9
ATOM      9  O   UNL     1      -6.621   4.897  -3.220  1.00  0.00    -0.507 OA
ATOM     10  H   UNL     1      -5.932   4.170  -3.094  1.00  0.00     0.293 HD
ENDBRANCH   3   9
BRANCH   4  11
ATOM     11  C   UNL     1      -3.842   5.730  -3.859  1.00  0.00     0.263 C 
ATOM     12  O   UNL     1      -3.510   5.149  -2.792  1.00  0.00    -0.298 OA
ENDBRANCH   4  11
TORSDOF 3
ENDMDL
MODEL 8
REMARK VINA RESULT:    -3.990      1.066      4.230
REMARK INTER + INTRA:          -4.623
REMARK INTER:                  -4.570
REMARK INTRA:                  -0.053
REMARK UNBOUND:                -0.051
REMARK SMILES COc1ccc(C=O)c(O)c1
REMARK SMILES IDX 3 1 11 2 9 3 6 4 5 5 4 6 2 7 1 8 10 9 7 11 8 12
REMARK H PARENT 10 10
REMARK Flexibility Score: inf
ROOT
ATOM      1  C   UNL     1      -4.884   6.446  -3.824  1.00  0.00     0.122 A 
ATOM      2  C   UNL     1      -4.907   7.799  -4.206  1.00  0.00     0.093 A 
ATOM      3  C   UNL     1      -6.106   8.523  -4.219  1.00  0.00     0.129 A 
ATOM      4  C   UNL     1      -7.320   7.884  -3.857  1.00  0.00     0.056 A 
ATOM      5  C   UNL     1      -7.282   6.530  -3.472  1.00  0.00     0.019 A 
ATOM      6  C   UNL     1      -6.079   5.823  -3.457  1.00  0.00     0.047 A 
ENDROOT
BRANCH   1   7
ATOM      7  O   UNL     1      -3.703   5.691  -3.795  1.00  0.00    -0.497 OA
ATOM      8  C   UNL     1      -3.288   4.887  -2.695  1.00  0.00     0.278 C 
ENDBRANCH   1   7
BRANCH   3   9
ATOM      9  O   UNL     1      -6.039   9.868  -4.590  1.00  0.00    -0.507 OA
ATOM     10  H   UNL     1      -5.182  10.394  -4.673  1.00  0.00     0.293 HD
ENDBRANCH   3   9
BRANCH   4  11
ATOM     11  C   UNL     1      -8.625   8.588  -3.883  1.00  0.00     0.263 C 
ATOM     12  O   UNL     1      -9.570   8.222  -3.133  1.00  0.00    -0.298 OA
ENDBRANCH   4  11
TORSDOF 3
ENDMDL
MODEL 9
REMARK VINA RESULT:    -3.988     13.325     14.738
REMARK INTER + INTRA:          -4.622
REMARK INTER:                  -4.373
REMARK INTRA:                  -0.248
REMARK UNBOUND:                -0.051
REMARK SMILES COc1ccc(C=O)c(O)c1
REMARK SMILES IDX 3 1 11 2 9 3 6 4 5 5 4 6 2 7 1 8 10 9 7 11 8 12
REMARK H PARENT 10 10
REMARK Flexibility Score: inf
ROOT
ATOM      1  C   UNL     1       4.396   5.623   5.913  1.00  0.00     0.122 A 
ATOM      2  C   UNL     1       3.689   4.933   4.912  1.00  0.00     0.093 A 
ATOM      3  C   UNL     1       3.364   3.579   5.065  1.00  0.00     0.129 A 
ATOM      4  C   UNL     1       3.762   2.886   6.237  1.00  0.00     0.056 A 
ATOM      5  C   UNL     1       4.465   3.590   7.233  1.00  0.00     0.019 A 
ATOM      6  C   UNL     1       4.776   4.941   7.070  1.00  0.00     0.047 A 
ENDROOT
BRANCH   1   7
ATOM      7  O   UNL     1       4.736   6.979   5.797  1.00  0.00    -0.497 OA
ATOM      8  C   UNL     1       5.927   7.558   6.320  1.00  0.00     0.278 C 
ENDBRANCH   1   7
BRANCH   3   9
ATOM      9  O   UNL     1       2.641   2.973   4.034  1.00  0.00    -0.507 OA
ATOM     10  H   UNL     1       2.042   2.170   4.153  1.00  0.00     0.293 HD
ENDBRANCH   3   9
BRANCH   4  11
ATOM     11  C   UNL     1       3.476   1.445   6.441  1.00  0.00     0.263 C 
ATOM     12  O   UNL     1       3.852   0.587   5.599  1.00  0.00    -0.298 OA
ENDBRANCH   4  11
TORSDOF 3
ENDMDL
