MODEL 1
REMARK VINA RESULT:    -3.581      0.000      0.000
REMARK INTER + INTRA:         -14.798
REMARK INTER:                  -9.024
REMARK INTRA:                  -5.774
REMARK UNBOUND:                -5.774
REMARK SMILES CCCCCCCCCCCCCCCCCCCCCCCCCCCC(=O)[O-]
REMARK SMILES IDX 15 1 16 2 17 3 18 4 19 5 20 6 21 7 22 8 23 9 24 10 25 11
REMARK SMILES IDX 26 12 27 13 28 14 29 15 30 16 14 17 13 18 12 19 11 20 10 21
REMARK SMILES IDX 9 22 8 23 7 24 6 25 5 26 4 27 3 28 2 29 1 30
REMARK H PARENT
REMARK Flexibility Score: inf
ROOT
ATOM      1  C   UNL     1     164.518 174.321 183.460  1.00  0.00     0.000 C 
ENDROOT
BRANCH   1   2
ATOM      2  C   UNL     1     163.713 174.674 184.726  1.00  0.00     0.000 C 
BRANCH   2   3
ATOM      3  C   UNL     1     164.464 174.397 186.043  1.00  0.00     0.000 C 
BRANCH   3   4
ATOM      4  C   UNL     1     164.390 175.544 187.074  1.00  0.00     0.000 C 
BRANCH   4   5
ATOM      5  C   UNL     1     165.192 176.800 186.682  1.00  0.00     0.000 C 
BRANCH   5   6
ATOM      6  C   UNL     1     164.336 178.088 186.654  1.00  0.00     0.000 C 
BRANCH   6   7
ATOM      7  C   UNL     1     163.056 177.946 187.490  1.00  0.00     0.000 C 
BRANCH   7   8
ATOM      8  C   UNL     1     161.807 178.070 186.606  1.00  0.00     0.000 C 
BRANCH   8   9
ATOM      9  C   UNL     1     160.644 177.184 187.084  1.00  0.00     0.000 C 
BRANCH   9  10
ATOM     10  C   UNL     1     160.612 175.770 186.472  1.00  0.00     0.000 C 
BRANCH  10  11
ATOM     11  C   UNL     1     160.859 174.641 187.496  1.00  0.00     0.000 C 
BRANCH  11  12
ATOM     12  C   UNL     1     160.516 173.255 186.929  1.00  0.00     0.006 C 
BRANCH  12  13
ATOM     13  C   UNL     1     160.945 172.142 187.893  1.00  0.00     0.053 C 
BRANCH  13  14
ATOM     14  C   UNL     1     162.427 171.897 187.866  1.00  0.00     0.041 C 
ATOM     15  O   UNL     1     162.945 171.345 186.860  1.00  0.00    -0.550 OA
ATOM     16  O   UNL     1     163.241 172.284 188.924  1.00  0.00    -0.550 OA
ENDBRANCH  13  14
ENDBRANCH  12  13
ENDBRANCH  11  12
ENDBRANCH  10  11
ENDBRANCH   9  10
ENDBRANCH   8   9
ENDBRANCH   7   8
ENDBRANCH   6   7
ENDBRANCH   5   6
ENDBRANCH   4   5
ENDBRANCH   3   4
ENDBRANCH   2   3
ENDBRANCH   1   2
BRANCH   1  17
ATOM     17  C   UNL     1     164.465 175.442 182.408  1.00  0.00     0.000 C 
BRANCH  17  18
ATOM     18  C   UNL     1     164.742 176.813 183.047  1.00  0.00     0.000 C 
BRANCH  18  19
ATOM     19  C   UNL     1     163.724 177.885 182.618  1.00  0.00     0.000 C 
BRANCH  19  20
ATOM     20  C   UNL     1     162.302 177.673 183.166  1.00  0.00     0.000 C 
BRANCH  20  21
ATOM     21  C   UNL     1     161.216 177.905 182.099  1.00  0.00     0.000 C 
BRANCH  21  22
ATOM     22  C   UNL     1     161.763 178.568 180.825  1.00  0.00    -0.000 C 
BRANCH  22  23
ATOM     23  C   UNL     1     161.357 177.822 179.542  1.00  0.00    -0.000 C 
BRANCH  23  24
ATOM     24  C   UNL     1     161.723 176.327 179.577  1.00  0.00    -0.000 C 
BRANCH  24  25
ATOM     25  C   UNL     1     160.567 175.358 179.255  1.00  0.00    -0.000 C 
BRANCH  25  26
ATOM     26  C   UNL     1     160.028 174.557 180.453  1.00  0.00    -0.000 C 
BRANCH  26  27
ATOM     27  C   UNL     1     161.070 174.376 181.568  1.00  0.00    -0.000 C 
BRANCH  27  28
ATOM     28  C   UNL     1     160.411 174.436 182.952  1.00  0.00    -0.000 C 
BRANCH  28  29
ATOM     29  C   UNL     1     159.875 173.061 183.364  1.00  0.00    -0.003 C 
ATOM     30  C   UNL     1     160.987 172.015 183.374  1.00  0.00     0.004 C 
ENDBRANCH  28  29
ENDBRANCH  27  28
ENDBRANCH  26  27
ENDBRANCH  25  26
ENDBRANCH  24  25
ENDBRANCH  23  24
ENDBRANCH  22  23
ENDBRANCH  21  22
ENDBRANCH  20  21
ENDBRANCH  19  20
ENDBRANCH  18  19
ENDBRANCH  17  18
ENDBRANCH   1  17
TORSDOF 26
ENDMDL
MODEL 2
REMARK VINA RESULT:    -3.551      2.869      5.956
REMARK INTER + INTRA:         -14.722
REMARK INTER:                  -8.943
REMARK INTRA:                  -5.779
REMARK UNBOUND:                -5.774
REMARK SMILES CCCCCCCCCCCCCCCCCCCCCCCCCCCC(=O)[O-]
REMARK SMILES IDX 15 1 16 2 17 3 18 4 19 5 20 6 21 7 22 8 23 9 24 10 25 11
REMARK SMILES IDX 26 12 27 13 28 14 29 15 30 16 14 17 13 18 12 19 11 20 10 21
REMARK SMILES IDX 9 22 8 23 7 24 6 25 5 26 4 27 3 28 2 29 1 30
REMARK H PARENT
REMARK Flexibility Score: inf
ROOT
ATOM      1  C   UNL     1     166.020 176.721 183.830  1.00  0.00     0.000 C 
ENDROOT
BRANCH   1   2
ATOM      2  C   UNL     1     164.540 177.138 183.942  1.00  0.00     0.000 C 
BRANCH   2   3
ATOM      3  C   UNL     1     164.273 178.221 185.005  1.00  0.00     0.000 C 
BRANCH   3   4
ATOM      4  C   UNL     1     163.024 177.968 185.876  1.00  0.00     0.000 C 
BRANCH   4   5
ATOM      5  C   UNL     1     163.255 178.160 187.387  1.00  0.00     0.000 C 
BRANCH   5   6
ATOM      6  C   UNL     1     162.221 177.416 188.264  1.00  0.00     0.000 C 
BRANCH   6   7
ATOM      7  C   UNL     1     161.047 176.875 187.435  1.00  0.00     0.000 C 
BRANCH   7   8
ATOM      8  C   UNL     1     160.937 175.350 187.572  1.00  0.00     0.000 C 
BRANCH   8   9
ATOM      9  C   UNL     1     160.497 174.662 186.269  1.00  0.00     0.000 C 
BRANCH   9  10
ATOM     10  C   UNL     1     160.681 175.509 184.993  1.00  0.00     0.000 C 
BRANCH  10  11
ATOM     11  C   UNL     1     161.572 174.840 183.924  1.00  0.00     0.000 C 
BRANCH  11  12
ATOM     12  C   UNL     1     161.396 175.479 182.538  1.00  0.00     0.006 C 
BRANCH  12  13
ATOM     13  C   UNL     1     161.166 176.992 182.652  1.00  0.00     0.053 C 
BRANCH  13  14
ATOM     14  C   UNL     1     161.706 177.746 181.470  1.00  0.00     0.041 C 
ATOM     15  O   UNL     1     162.151 177.108 180.480  1.00  0.00    -0.550 OA
ATOM     16  O   UNL     1     161.707 179.135 181.440  1.00  0.00    -0.550 OA
ENDBRANCH  13  14
ENDBRANCH  12  13
ENDBRANCH  11  12
ENDBRANCH  10  11
ENDBRANCH   9  10
ENDBRANCH   8   9
ENDBRANCH   7   8
ENDBRANCH   6   7
ENDBRANCH   5   6
ENDBRANCH   4   5
ENDBRANCH   3   4
ENDBRANCH   2   3
ENDBRANCH   1   2
BRANCH   1  17
ATOM     17  C   UNL     1     166.905 177.441 184.860  1.00  0.00     0.000 C 
BRANCH  17  18
ATOM     18  C   UNL     1     167.541 176.440 185.838  1.00  0.00     0.000 C 
BRANCH  18  19
ATOM     19  C   UNL     1     166.656 176.164 187.067  1.00  0.00     0.000 C 
BRANCH  19  20
ATOM     20  C   UNL     1     166.077 174.740 187.131  1.00  0.00     0.000 C 
BRANCH  20  21
ATOM     21  C   UNL     1     164.560 174.706 186.865  1.00  0.00     0.000 C 
BRANCH  21  22
ATOM     22  C   UNL     1     164.146 173.576 185.909  1.00  0.00    -0.000 C 
BRANCH  22  23
ATOM     23  C   UNL     1     163.732 172.291 186.647  1.00  0.00    -0.000 C 
BRANCH  23  24
ATOM     24  C   UNL     1     163.342 172.544 188.115  1.00  0.00    -0.000 C 
BRANCH  24  25
ATOM     25  C   UNL     1     162.259 171.601 188.680  1.00  0.00    -0.000 C 
BRANCH  25  26
ATOM     26  C   UNL     1     161.059 171.348 187.749  1.00  0.00    -0.000 C 
BRANCH  26  27
ATOM     27  C   UNL     1     160.925 169.874 187.335  1.00  0.00    -0.000 C 
BRANCH  27  28
ATOM     28  C   UNL     1     160.684 169.747 185.826  1.00  0.00    -0.000 C 
BRANCH  28  29
ATOM     29  C   UNL     1     160.632 171.126 185.160  1.00  0.00    -0.003 C 
ATOM     30  C   UNL     1     161.475 171.158 183.888  1.00  0.00     0.004 C 
ENDBRANCH  28  29
ENDBRANCH  27  28
ENDBRANCH  26  27
ENDBRANCH  25  26
ENDBRANCH  24  25
ENDBRANCH  23  24
ENDBRANCH  22  23
ENDBRANCH  21  22
ENDBRANCH  20  21
ENDBRANCH  19  20
ENDBRANCH  18  19
ENDBRANCH  17  18
ENDBRANCH   1  17
TORSDOF 26
ENDMDL
MODEL 3
REMARK VINA RESULT:    -3.529      3.283      6.793
REMARK INTER + INTRA:         -14.666
REMARK INTER:                  -9.219
REMARK INTRA:                  -5.447
REMARK UNBOUND:                -5.774
REMARK SMILES CCCCCCCCCCCCCCCCCCCCCCCCCCCC(=O)[O-]
REMARK SMILES IDX 15 1 16 2 17 3 18 4 19 5 20 6 21 7 22 8 23 9 24 10 25 11
REMARK SMILES IDX 26 12 27 13 28 14 29 15 30 16 14 17 13 18 12 19 11 20 10 21
REMARK SMILES IDX 9 22 8 23 7 24 6 25 5 26 4 27 3 28 2 29 1 30
REMARK H PARENT
REMARK Flexibility Score: inf
ROOT
ATOM      1  C   UNL     1     163.984 175.492 184.233  1.00  0.00     0.000 C 
ENDROOT
BRANCH   1   2
ATOM      2  C   UNL     1     164.438 176.431 183.099  1.00  0.00     0.000 C 
BRANCH   2   3
ATOM      3  C   UNL     1     163.752 177.811 183.116  1.00  0.00     0.000 C 
BRANCH   3   4
ATOM      4  C   UNL     1     162.888 178.110 181.873  1.00  0.00     0.000 C 
BRANCH   4   5
ATOM      5  C   UNL     1     161.388 177.807 182.056  1.00  0.00     0.000 C 
BRANCH   5   6
ATOM      6  C   UNL     1     161.011 177.440 183.510  1.00  0.00     0.000 C 
BRANCH   6   7
ATOM      7  C   UNL     1     160.449 176.015 183.616  1.00  0.00     0.000 C 
BRANCH   7   8
ATOM      8  C   UNL     1     160.273 175.390 182.224  1.00  0.00     0.000 C 
BRANCH   8   9
ATOM      9  C   UNL     1     161.242 174.225 181.966  1.00  0.00     0.000 C 
BRANCH   9  10
ATOM     10  C   UNL     1     161.709 174.080 180.504  1.00  0.00     0.000 C 
BRANCH  10  11
ATOM     11  C   UNL     1     163.047 174.789 180.203  1.00  0.00     0.000 C 
BRANCH  11  12
ATOM     12  C   UNL     1     162.971 175.664 178.943  1.00  0.00     0.006 C 
BRANCH  12  13
ATOM     13  C   UNL     1     161.557 176.226 178.744  1.00  0.00     0.053 C 
BRANCH  13  14
ATOM     14  C   UNL     1     161.564 177.590 178.115  1.00  0.00     0.041 C 
ATOM     15  O   UNL     1     162.273 177.798 177.095  1.00  0.00    -0.550 OA
ATOM     16  O   UNL     1     160.789 178.624 178.627  1.00  0.00    -0.550 OA
ENDBRANCH  13  14
ENDBRANCH  12  13
ENDBRANCH  11  12
ENDBRANCH  10  11
ENDBRANCH   9  10
ENDBRANCH   8   9
ENDBRANCH   7   8
ENDBRANCH   6   7
ENDBRANCH   5   6
ENDBRANCH   4   5
ENDBRANCH   3   4
ENDBRANCH   2   3
ENDBRANCH   1   2
BRANCH   1  17
ATOM     17  C   UNL     1     165.135 174.618 184.757  1.00  0.00     0.000 C 
BRANCH  17  18
ATOM     18  C   UNL     1     165.627 175.115 186.126  1.00  0.00     0.000 C 
BRANCH  18  19
ATOM     19  C   UNL     1     166.811 176.093 186.014  1.00  0.00     0.000 C 
BRANCH  19  20
ATOM     20  C   UNL     1     166.462 177.558 186.336  1.00  0.00     0.000 C 
BRANCH  20  21
ATOM     21  C   UNL     1     165.137 177.694 187.109  1.00  0.00     0.000 C 
BRANCH  21  22
ATOM     22  C   UNL     1     164.248 178.828 186.576  1.00  0.00    -0.000 C 
BRANCH  22  23
ATOM     23  C   UNL     1     162.757 178.452 186.541  1.00  0.00    -0.000 C 
BRANCH  23  24
ATOM     24  C   UNL     1     162.452 177.145 187.294  1.00  0.00    -0.000 C 
BRANCH  24  25
ATOM     25  C   UNL     1     160.962 176.745 187.342  1.00  0.00    -0.000 C 
BRANCH  25  26
ATOM     26  C   UNL     1     160.692 175.238 187.505  1.00  0.00    -0.000 C 
BRANCH  26  27
ATOM     27  C   UNL     1     161.951 174.380 187.308  1.00  0.00    -0.000 C 
BRANCH  27  28
ATOM     28  C   UNL     1     161.586 172.970 186.827  1.00  0.00    -0.000 C 
BRANCH  28  29
ATOM     29  C   UNL     1     160.463 172.373 187.682  1.00  0.00    -0.003 C 
ATOM     30  C   UNL     1     160.941 171.133 188.434  1.00  0.00     0.004 C 
ENDBRANCH  28  29
ENDBRANCH  27  28
ENDBRANCH  26  27
ENDBRANCH  25  26
ENDBRANCH  24  25
ENDBRANCH  23  24
ENDBRANCH  22  23
ENDBRANCH  21  22
ENDBRANCH  20  21
ENDBRANCH  19  20
ENDBRANCH  18  19
ENDBRANCH  17  18
ENDBRANCH   1  17
TORSDOF 26
ENDMDL
MODEL 4
REMARK VINA RESULT:    -3.518      6.621      9.501
REMARK INTER + INTRA:         -14.639
REMARK INTER:                 -10.251
REMARK INTRA:                  -4.388
REMARK UNBOUND:                -5.774
REMARK SMILES CCCCCCCCCCCCCCCCCCCCCCCCCCCC(=O)[O-]
REMARK SMILES IDX 15 1 16 2 17 3 18 4 19 5 20 6 21 7 22 8 23 9 24 10 25 11
REMARK SMILES IDX 26 12 27 13 28 14 29 15 30 16 14 17 13 18 12 19 11 20 10 21
REMARK SMILES IDX 9 22 8 23 7 24 6 25 5 26 4 27 3 28 2 29 1 30
REMARK H PARENT
REMARK Flexibility Score: inf
ROOT
ATOM      1  C   UNL     1     169.304 176.405 188.666  1.00  0.00     0.000 C 
ENDROOT
BRANCH   1   2
ATOM      2  C   UNL     1     170.774 176.602 188.248  1.00  0.00     0.000 C 
BRANCH   2   3
ATOM      3  C   UNL     1     171.197 175.758 187.030  1.00  0.00     0.000 C 
BRANCH   3   4
ATOM      4  C   UNL     1     171.717 176.580 185.832  1.00  0.00     0.000 C 
BRANCH   4   5
ATOM      5  C   UNL     1     170.679 177.545 185.227  1.00  0.00     0.000 C 
BRANCH   5   6
ATOM      6  C   UNL     1     171.122 179.025 185.269  1.00  0.00     0.000 C 
BRANCH   6   7
ATOM      7  C   UNL     1     170.457 179.792 186.422  1.00  0.00     0.000 C 
BRANCH   7   8
ATOM      8  C   UNL     1     171.463 180.066 187.550  1.00  0.00     0.000 C 
BRANCH   8   9
ATOM      9  C   UNL     1     172.924 179.887 187.105  1.00  0.00     0.000 C 
BRANCH   9  10
ATOM     10  C   UNL     1     173.742 178.887 187.946  1.00  0.00     0.000 C 
BRANCH  10  11
ATOM     11  C   UNL     1     174.950 178.284 187.198  1.00  0.00     0.000 C 
BRANCH  11  12
ATOM     12  C   UNL     1     174.933 178.621 185.699  1.00  0.00     0.006 C 
BRANCH  12  13
ATOM     13  C   UNL     1     176.023 177.848 184.946  1.00  0.00     0.053 C 
BRANCH  13  14
ATOM     14  C   UNL     1     176.065 176.395 185.327  1.00  0.00     0.041 C 
ATOM     15  O   UNL     1     175.113 175.641 184.993  1.00  0.00    -0.550 OA
ATOM     16  O   UNL     1     177.142 175.863 186.025  1.00  0.00    -0.550 OA
ENDBRANCH  13  14
ENDBRANCH  12  13
ENDBRANCH  11  12
ENDBRANCH  10  11
ENDBRANCH   9  10
ENDBRANCH   8   9
ENDBRANCH   7   8
ENDBRANCH   6   7
ENDBRANCH   5   6
ENDBRANCH   4   5
ENDBRANCH   3   4
ENDBRANCH   2   3
ENDBRANCH   1   2
BRANCH   1  17
ATOM     17  C   UNL     1     168.518 177.726 188.667  1.00  0.00     0.000 C 
BRANCH  17  18
ATOM     18  C   UNL     1     167.497 177.763 187.518  1.00  0.00     0.000 C 
BRANCH  18  19
ATOM     19  C   UNL     1     167.457 176.449 186.715  1.00  0.00     0.000 C 
BRANCH  19  20
ATOM     20  C   UNL     1     166.133 176.196 185.971  1.00  0.00     0.000 C 
BRANCH  20  21
ATOM     21  C   UNL     1     164.910 176.721 186.745  1.00  0.00     0.000 C 
BRANCH  21  22
ATOM     22  C   UNL     1     163.924 175.607 187.131  1.00  0.00    -0.000 C 
BRANCH  22  23
ATOM     23  C   UNL     1     162.868 176.071 188.149  1.00  0.00    -0.000 C 
BRANCH  23  24
ATOM     24  C   UNL     1     162.515 177.563 188.008  1.00  0.00    -0.000 C 
BRANCH  24  25
ATOM     25  C   UNL     1     161.010 177.873 187.869  1.00  0.00    -0.000 C 
BRANCH  25  26
ATOM     26  C   UNL     1     160.562 178.340 186.473  1.00  0.00    -0.000 C 
BRANCH  26  27
ATOM     27  C   UNL     1     160.739 177.259 185.396  1.00  0.00    -0.000 C 
BRANCH  27  28
ATOM     28  C   UNL     1     161.974 177.541 184.531  1.00  0.00    -0.000 C 
BRANCH  28  29
ATOM     29  C   UNL     1     162.401 176.288 183.760  1.00  0.00    -0.003 C 
ATOM     30  C   UNL     1     161.688 175.045 184.286  1.00  0.00     0.004 C 
ENDBRANCH  28  29
ENDBRANCH  27  28
ENDBRANCH  26  27
ENDBRANCH  25  26
ENDBRANCH  24  25
ENDBRANCH  23  24
ENDBRANCH  22  23
ENDBRANCH  21  22
ENDBRANCH  20  21
ENDBRANCH  19  20
ENDBRANCH  18  19
ENDBRANCH  17  18
ENDBRANCH   1  17
TORSDOF 26
ENDMDL
MODEL 5
REMARK VINA RESULT:    -3.515      5.964      8.610
REMARK INTER + INTRA:         -14.632
REMARK INTER:                 -11.071
REMARK INTRA:                  -3.561
REMARK UNBOUND:                -5.774
REMARK SMILES CCCCCCCCCCCCCCCCCCCCCCCCCCCC(=O)[O-]
REMARK SMILES IDX 15 1 16 2 17 3 18 4 19 5 20 6 21 7 22 8 23 9 24 10 25 11
REMARK SMILES IDX 26 12 27 13 28 14 29 15 30 16 14 17 13 18 12 19 11 20 10 21
REMARK SMILES IDX 9 22 8 23 7 24 6 25 5 26 4 27 3 28 2 29 1 30
REMARK H PARENT
REMARK Flexibility Score: inf
ROOT
ATOM      1  C   UNL     1     164.259 175.312 185.816  1.00  0.00     0.000 C 
ENDROOT
BRANCH   1   2
ATOM      2  C   UNL     1     164.461 176.415 186.874  1.00  0.00     0.000 C 
BRANCH   2   3
ATOM      3  C   UNL     1     165.519 177.467 186.487  1.00  0.00     0.000 C 
BRANCH   3   4
ATOM      4  C   UNL     1     166.973 177.056 186.801  1.00  0.00     0.000 C 
BRANCH   4   5
ATOM      5  C   UNL     1     167.641 177.887 187.913  1.00  0.00     0.000 C 
BRANCH   5   6
ATOM      6  C   UNL     1     169.072 177.413 188.255  1.00  0.00     0.000 C 
BRANCH   6   7
ATOM      7  C   UNL     1     170.039 177.605 187.077  1.00  0.00     0.000 C 
BRANCH   7   8
ATOM      8  C   UNL     1     171.447 177.959 187.575  1.00  0.00     0.000 C 
BRANCH   8   9
ATOM      9  C   UNL     1     171.769 179.457 187.443  1.00  0.00     0.000 C 
BRANCH   9  10
ATOM     10  C   UNL     1     173.253 179.823 187.645  1.00  0.00     0.000 C 
BRANCH  10  11
ATOM     11  C   UNL     1     174.093 179.758 186.350  1.00  0.00     0.000 C 
BRANCH  11  12
ATOM     12  C   UNL     1     175.595 179.613 186.637  1.00  0.00     0.006 C 
BRANCH  12  13
ATOM     13  C   UNL     1     175.863 178.450 187.601  1.00  0.00     0.053 C 
BRANCH  13  14
ATOM     14  C   UNL     1     175.950 177.127 186.895  1.00  0.00     0.041 C 
ATOM     15  O   UNL     1     174.938 176.379 186.854  1.00  0.00    -0.550 OA
ATOM     16  O   UNL     1     177.123 176.717 186.272  1.00  0.00    -0.550 OA
ENDBRANCH  13  14
ENDBRANCH  12  13
ENDBRANCH  11  12
ENDBRANCH  10  11
ENDBRANCH   9  10
ENDBRANCH   8   9
ENDBRANCH   7   8
ENDBRANCH   6   7
ENDBRANCH   5   6
ENDBRANCH   4   5
ENDBRANCH   3   4
ENDBRANCH   2   3
ENDBRANCH   1   2
BRANCH   1  17
ATOM     17  C   UNL     1     163.542 174.081 186.393  1.00  0.00     0.000 C 
BRANCH  17  18
ATOM     18  C   UNL     1     162.563 174.482 187.508  1.00  0.00     0.000 C 
BRANCH  18  19
ATOM     19  C   UNL     1     161.090 174.388 187.070  1.00  0.00     0.000 C 
BRANCH  19  20
ATOM     20  C   UNL     1     160.216 175.577 187.507  1.00  0.00     0.000 C 
BRANCH  20  21
ATOM     21  C   UNL     1     161.050 176.794 187.948  1.00  0.00     0.000 C 
BRANCH  21  22
ATOM     22  C   UNL     1     160.813 178.031 187.068  1.00  0.00    -0.000 C 
BRANCH  22  23
ATOM     23  C   UNL     1     161.331 177.850 185.630  1.00  0.00    -0.000 C 
BRANCH  23  24
ATOM     24  C   UNL     1     160.200 177.824 184.586  1.00  0.00    -0.000 C 
BRANCH  24  25
ATOM     25  C   UNL     1     160.444 176.901 183.374  1.00  0.00    -0.000 C 
BRANCH  25  26
ATOM     26  C   UNL     1     161.034 175.520 183.709  1.00  0.00    -0.000 C 
BRANCH  26  27
ATOM     27  C   UNL     1     161.963 174.983 182.610  1.00  0.00    -0.000 C 
BRANCH  27  28
ATOM     28  C   UNL     1     162.549 176.131 181.777  1.00  0.00    -0.000 C 
BRANCH  28  29
ATOM     29  C   UNL     1     163.958 176.495 182.260  1.00  0.00    -0.003 C 
ATOM     30  C   UNL     1     163.960 177.829 183.001  1.00  0.00     0.004 C 
ENDBRANCH  28  29
ENDBRANCH  27  28
ENDBRANCH  26  27
ENDBRANCH  25  26
ENDBRANCH  24  25
ENDBRANCH  23  24
ENDBRANCH  22  23
ENDBRANCH  21  22
ENDBRANCH  20  21
ENDBRANCH  19  20
ENDBRANCH  18  19
ENDBRANCH  17  18
ENDBRANCH   1  17
TORSDOF 26
ENDMDL
MODEL 6
REMARK VINA RESULT:    -3.490      1.916      5.097
REMARK INTER + INTRA:         -14.569
REMARK INTER:                  -9.402
REMARK INTRA:                  -5.168
REMARK UNBOUND:                -5.774
REMARK SMILES CCCCCCCCCCCCCCCCCCCCCCCCCCCC(=O)[O-]
REMARK SMILES IDX 15 1 16 2 17 3 18 4 19 5 20 6 21 7 22 8 23 9 24 10 25 11
REMARK SMILES IDX 26 12 27 13 28 14 29 15 30 16 14 17 13 18 12 19 11 20 10 21
REMARK SMILES IDX 9 22 8 23 7 24 6 25 5 26 4 27 3 28 2 29 1 30
REMARK H PARENT
REMARK Flexibility Score: inf
ROOT
ATOM      1  C   UNL     1     164.209 175.277 185.617  1.00  0.00     0.000 C 
ENDROOT
BRANCH   1   2
ATOM      2  C   UNL     1     164.425 174.859 187.084  1.00  0.00     0.000 C 
BRANCH   2   3
ATOM      3  C   UNL     1     163.156 174.329 187.778  1.00  0.00     0.000 C 
BRANCH   3   4
ATOM      4  C   UNL     1     161.994 173.995 186.818  1.00  0.00     0.000 C 
BRANCH   4   5
ATOM      5  C   UNL     1     160.747 173.412 187.511  1.00  0.00     0.000 C 
BRANCH   5   6
ATOM      6  C   UNL     1     160.608 171.882 187.334  1.00  0.00     0.000 C 
BRANCH   6   7
ATOM      7  C   UNL     1     160.848 171.127 188.650  1.00  0.00     0.000 C 
BRANCH   7   8
ATOM      8  C   UNL     1     162.344 171.096 188.998  1.00  0.00     0.000 C 
BRANCH   8   9
ATOM      9  C   UNL     1     163.144 170.126 188.114  1.00  0.00     0.000 C 
BRANCH   9  10
ATOM     10  C   UNL     1     164.026 170.800 187.044  1.00  0.00     0.000 C 
BRANCH  10  11
ATOM     11  C   UNL     1     163.496 170.633 185.603  1.00  0.00     0.000 C 
BRANCH  11  12
ATOM     12  C   UNL     1     164.222 171.549 184.606  1.00  0.00     0.006 C 
BRANCH  12  13
ATOM     13  C   UNL     1     163.223 172.370 183.781  1.00  0.00     0.053 C 
BRANCH  13  14
ATOM     14  C   UNL     1     161.992 171.588 183.423  1.00  0.00     0.041 C 
ATOM     15  O   UNL     1     160.866 171.987 183.823  1.00  0.00    -0.550 OA
ATOM     16  O   UNL     1     162.068 170.439 182.644  1.00  0.00    -0.550 OA
ENDBRANCH  13  14
ENDBRANCH  12  13
ENDBRANCH  11  12
ENDBRANCH  10  11
ENDBRANCH   9  10
ENDBRANCH   8   9
ENDBRANCH   7   8
ENDBRANCH   6   7
ENDBRANCH   5   6
ENDBRANCH   4   5
ENDBRANCH   3   4
ENDBRANCH   2   3
ENDBRANCH   1   2
BRANCH   1  17
ATOM     17  C   UNL     1     164.339 176.796 185.421  1.00  0.00     0.000 C 
BRANCH  17  18
ATOM     18  C   UNL     1     164.603 177.505 186.760  1.00  0.00     0.000 C 
BRANCH  18  19
ATOM     19  C   UNL     1     163.445 178.428 187.183  1.00  0.00     0.000 C 
BRANCH  19  20
ATOM     20  C   UNL     1     162.504 177.828 188.242  1.00  0.00     0.000 C 
BRANCH  20  21
ATOM     21  C   UNL     1     161.033 177.810 187.784  1.00  0.00     0.000 C 
BRANCH  21  22
ATOM     22  C   UNL     1     160.873 178.079 186.280  1.00  0.00    -0.000 C 
BRANCH  22  23
ATOM     23  C   UNL     1     160.579 176.803 185.473  1.00  0.00    -0.000 C 
BRANCH  23  24
ATOM     24  C   UNL     1     160.596 177.039 183.951  1.00  0.00    -0.000 C 
BRANCH  24  25
ATOM     25  C   UNL     1     160.779 175.772 183.090  1.00  0.00    -0.000 C 
BRANCH  25  26
ATOM     26  C   UNL     1     162.177 175.594 182.473  1.00  0.00    -0.000 C 
BRANCH  26  27
ATOM     27  C   UNL     1     162.153 175.556 180.938  1.00  0.00    -0.000 C 
BRANCH  27  28
ATOM     28  C   UNL     1     160.947 176.327 180.388  1.00  0.00    -0.000 C 
BRANCH  28  29
ATOM     29  C   UNL     1     161.388 177.637 179.727  1.00  0.00    -0.003 C 
ATOM     30  C   UNL     1     161.674 178.714 180.771  1.00  0.00     0.004 C 
ENDBRANCH  28  29
ENDBRANCH  27  28
ENDBRANCH  26  27
ENDBRANCH  25  26
ENDBRANCH  24  25
ENDBRANCH  23  24
ENDBRANCH  22  23
ENDBRANCH  21  22
ENDBRANCH  20  21
ENDBRANCH  19  20
ENDBRANCH  18  19
ENDBRANCH  17  18
ENDBRANCH   1  17
TORSDOF 26
ENDMDL
MODEL 7
REMARK VINA RESULT:    -3.449      2.896      5.750
REMARK INTER + INTRA:         -14.466
REMARK INTER:                  -9.362
REMARK INTRA:                  -5.104
REMARK UNBOUND:                -5.774
REMARK SMILES CCCCCCCCCCCCCCCCCCCCCCCCCCCC(=O)[O-]
REMARK SMILES IDX 15 1 16 2 17 3 18 4 19 5 20 6 21 7 22 8 23 9 24 10 25 11
REMARK SMILES IDX 26 12 27 13 28 14 29 15 30 16 14 17 13 18 12 19 11 20 10 21
REMARK SMILES IDX 9 22 8 23 7 24 6 25 5 26 4 27 3 28 2 29 1 30
REMARK H PARENT
REMARK Flexibility Score: inf
ROOT
ATOM      1  C   UNL     1     164.268 178.253 185.610  1.00  0.00     0.000 C 
ENDROOT
BRANCH   1   2
ATOM      2  C   UNL     1     163.615 178.301 187.006  1.00  0.00     0.000 C 
BRANCH   2   3
ATOM      3  C   UNL     1     162.076 178.223 186.981  1.00  0.00     0.000 C 
BRANCH   3   4
ATOM      4  C   UNL     1     161.479 177.094 187.848  1.00  0.00     0.000 C 
BRANCH   4   5
ATOM      5  C   UNL     1     160.714 176.020 187.052  1.00  0.00     0.000 C 
BRANCH   5   6
ATOM      6  C   UNL     1     161.248 174.588 187.285  1.00  0.00     0.000 C 
BRANCH   6   7
ATOM      7  C   UNL     1     162.670 174.592 187.864  1.00  0.00     0.000 C 
BRANCH   7   8
ATOM      8  C   UNL     1     163.701 174.223 186.788  1.00  0.00     0.000 C 
BRANCH   8   9
ATOM      9  C   UNL     1     165.080 174.856 187.037  1.00  0.00     0.000 C 
BRANCH   9  10
ATOM     10  C   UNL     1     166.034 174.832 185.827  1.00  0.00     0.000 C 
BRANCH  10  11
ATOM     11  C   UNL     1     167.291 175.711 186.006  1.00  0.00     0.000 C 
BRANCH  11  12
ATOM     12  C   UNL     1     167.332 176.393 187.382  1.00  0.00     0.006 C 
BRANCH  12  13
ATOM     13  C   UNL     1     167.583 177.900 187.245  1.00  0.00     0.053 C 
BRANCH  13  14
ATOM     14  C   UNL     1     168.883 178.207 186.557  1.00  0.00     0.041 C 
ATOM     15  O   UNL     1     169.915 177.555 186.866  1.00  0.00    -0.550 OA
ATOM     16  O   UNL     1     168.966 179.185 185.573  1.00  0.00    -0.550 OA
ENDBRANCH  13  14
ENDBRANCH  12  13
ENDBRANCH  11  12
ENDBRANCH  10  11
ENDBRANCH   9  10
ENDBRANCH   8   9
ENDBRANCH   7   8
ENDBRANCH   6   7
ENDBRANCH   5   6
ENDBRANCH   4   5
ENDBRANCH   3   4
ENDBRANCH   2   3
ENDBRANCH   1   2
BRANCH   1  17
ATOM     17  C   UNL     1     163.567 177.254 184.676  1.00  0.00     0.000 C 
BRANCH  17  18
ATOM     18  C   UNL     1     163.549 177.770 183.228  1.00  0.00     0.000 C 
BRANCH  18  19
ATOM     19  C   UNL     1     162.204 177.516 182.523  1.00  0.00     0.000 C 
BRANCH  19  20
ATOM     20  C   UNL     1     161.022 177.259 183.475  1.00  0.00     0.000 C 
BRANCH  20  21
ATOM     21  C   UNL     1     160.404 175.862 183.286  1.00  0.00     0.000 C 
BRANCH  21  22
ATOM     22  C   UNL     1     161.400 174.840 182.717  1.00  0.00    -0.000 C 
BRANCH  22  23
ATOM     23  C   UNL     1     161.661 173.663 183.673  1.00  0.00    -0.000 C 
BRANCH  23  24
ATOM     24  C   UNL     1     160.477 172.682 183.750  1.00  0.00    -0.000 C 
BRANCH  24  25
ATOM     25  C   UNL     1     160.303 171.966 185.106  1.00  0.00    -0.000 C 
BRANCH  25  26
ATOM     26  C   UNL     1     161.597 171.406 185.723  1.00  0.00    -0.000 C 
BRANCH  26  27
ATOM     27  C   UNL     1     161.334 170.333 186.791  1.00  0.00    -0.000 C 
BRANCH  27  28
ATOM     28  C   UNL     1     160.970 170.975 188.136  1.00  0.00    -0.000 C 
BRANCH  28  29
ATOM     29  C   UNL     1     162.218 171.174 189.004  1.00  0.00    -0.003 C 
ATOM     30  C   UNL     1     163.389 170.342 188.487  1.00  0.00     0.004 C 
ENDBRANCH  28  29
ENDBRANCH  27  28
ENDBRANCH  26  27
ENDBRANCH  25  26
ENDBRANCH  24  25
ENDBRANCH  23  24
ENDBRANCH  22  23
ENDBRANCH  21  22
ENDBRANCH  20  21
ENDBRANCH  19  20
ENDBRANCH  18  19
ENDBRANCH  17  18
ENDBRANCH   1  17
TORSDOF 26
ENDMDL
MODEL 8
REMARK VINA RESULT:    -3.437      8.244     11.636
REMARK INTER + INTRA:         -14.434
REMARK INTER:                  -8.865
REMARK INTRA:                  -5.569
REMARK UNBOUND:                -5.774
REMARK SMILES CCCCCCCCCCCCCCCCCCCCCCCCCCCC(=O)[O-]
REMARK SMILES IDX 15 1 16 2 17 3 18 4 19 5 20 6 21 7 22 8 23 9 24 10 25 11
REMARK SMILES IDX 26 12 27 13 28 14 29 15 30 16 14 17 13 18 12 19 11 20 10 21
REMARK SMILES IDX 9 22 8 23 7 24 6 25 5 26 4 27 3 28 2 29 1 30
REMARK H PARENT
REMARK Flexibility Score: inf
ROOT
ATOM      1  C   UNL     1     173.785 179.953 186.394  1.00  0.00     0.000 C 
ENDROOT
BRANCH   1   2
ATOM      2  C   UNL     1     175.262 179.890 186.832  1.00  0.00     0.000 C 
BRANCH   2   3
ATOM      3  C   UNL     1     175.598 178.685 187.732  1.00  0.00     0.000 C 
BRANCH   3   4
ATOM      4  C   UNL     1     176.557 177.658 187.093  1.00  0.00     0.000 C 
BRANCH   4   5
ATOM      5  C   UNL     1     176.300 177.398 185.596  1.00  0.00     0.000 C 
BRANCH   5   6
ATOM      6  C   UNL     1     175.808 175.963 185.300  1.00  0.00     0.000 C 
BRANCH   6   7
ATOM      7  C   UNL     1     174.393 175.717 185.845  1.00  0.00     0.000 C 
BRANCH   7   8
ATOM      8  C   UNL     1     173.379 176.661 185.182  1.00  0.00     0.000 C 
BRANCH   8   9
ATOM      9  C   UNL     1     172.985 176.215 183.764  1.00  0.00     0.000 C 
BRANCH   9  10
ATOM     10  C   UNL     1     173.383 177.195 182.642  1.00  0.00     0.000 C 
BRANCH  10  11
ATOM     11  C   UNL     1     173.787 178.596 183.151  1.00  0.00     0.000 C 
BRANCH  11  12
ATOM     12  C   UNL     1     173.084 179.721 182.376  1.00  0.00     0.006 C 
BRANCH  12  13
ATOM     13  C   UNL     1     171.865 179.189 181.613  1.00  0.00     0.053 C 
BRANCH  13  14
ATOM     14  C   UNL     1     171.893 179.556 180.156  1.00  0.00     0.041 C 
ATOM     15  O   UNL     1     172.999 179.764 179.592  1.00  0.00    -0.550 OA
ATOM     16  O   UNL     1     170.722 179.653 179.414  1.00  0.00    -0.550 OA
ENDBRANCH  13  14
ENDBRANCH  12  13
ENDBRANCH  11  12
ENDBRANCH  10  11
ENDBRANCH   9  10
ENDBRANCH   8   9
ENDBRANCH   7   8
ENDBRANCH   6   7
ENDBRANCH   5   6
ENDBRANCH   4   5
ENDBRANCH   3   4
ENDBRANCH   2   3
ENDBRANCH   1   2
BRANCH   1  17
ATOM     17  C   UNL     1     172.822 179.701 187.565  1.00  0.00     0.000 C 
BRANCH  17  18
ATOM     18  C   UNL     1     171.358 179.841 187.117  1.00  0.00     0.000 C 
BRANCH  18  19
ATOM     19  C   UNL     1     171.112 179.282 185.704  1.00  0.00     0.000 C 
BRANCH  19  20
ATOM     20  C   UNL     1     169.667 179.438 185.197  1.00  0.00     0.000 C 
BRANCH  20  21
ATOM     21  C   UNL     1     169.325 178.447 184.070  1.00  0.00     0.000 C 
BRANCH  21  22
ATOM     22  C   UNL     1     168.739 177.126 184.594  1.00  0.00    -0.000 C 
BRANCH  22  23
ATOM     23  C   UNL     1     167.263 177.252 185.009  1.00  0.00    -0.000 C 
BRANCH  23  24
ATOM     24  C   UNL     1     167.000 176.754 186.443  1.00  0.00    -0.000 C 
BRANCH  24  25
ATOM     25  C   UNL     1     166.990 177.850 187.528  1.00  0.00    -0.000 C 
BRANCH  25  26
ATOM     26  C   UNL     1     168.315 178.032 188.290  1.00  0.00    -0.000 C 
BRANCH  26  27
ATOM     27  C   UNL     1     168.927 176.700 188.749  1.00  0.00    -0.000 C 
BRANCH  27  28
ATOM     28  C   UNL     1     170.392 176.588 188.309  1.00  0.00    -0.000 C 
BRANCH  28  29
ATOM     29  C   UNL     1     170.567 175.483 187.261  1.00  0.00    -0.003 C 
ATOM     30  C   UNL     1     169.600 174.328 187.509  1.00  0.00     0.004 C 
ENDBRANCH  28  29
ENDBRANCH  27  28
ENDBRANCH  26  27
ENDBRANCH  25  26
ENDBRANCH  24  25
ENDBRANCH  23  24
ENDBRANCH  22  23
ENDBRANCH  21  22
ENDBRANCH  20  21
ENDBRANCH  19  20
ENDBRANCH  18  19
ENDBRANCH  17  18
ENDBRANCH   1  17
TORSDOF 26
ENDMDL
MODEL 9
REMARK VINA RESULT:    -3.424      2.059      5.650
REMARK INTER + INTRA:         -14.403
REMARK INTER:                  -8.693
REMARK INTRA:                  -5.711
REMARK UNBOUND:                -5.774
REMARK SMILES CCCCCCCCCCCCCCCCCCCCCCCCCCCC(=O)[O-]
REMARK SMILES IDX 15 1 16 2 17 3 18 4 19 5 20 6 21 7 22 8 23 9 24 10 25 11
REMARK SMILES IDX 26 12 27 13 28 14 29 15 30 16 14 17 13 18 12 19 11 20 10 21
REMARK SMILES IDX 9 22 8 23 7 24 6 25 5 26 4 27 3 28 2 29 1 30
REMARK H PARENT
REMARK Flexibility Score: inf
ROOT
ATOM      1  C   UNL     1     160.304 174.617 187.078  1.00  0.00     0.000 C 
ENDROOT
BRANCH   1   2
ATOM      2  C   UNL     1     159.922 173.276 187.734  1.00  0.00     0.000 C 
BRANCH   2   3
ATOM      3  C   UNL     1     161.118 172.337 187.984  1.00  0.00     0.000 C 
BRANCH   3   4
ATOM      4  C   UNL     1     160.729 170.878 188.306  1.00  0.00     0.000 C 
BRANCH   4   5
ATOM      5  C   UNL     1     160.805 169.921 187.101  1.00  0.00     0.000 C 
BRANCH   5   6
ATOM      6  C   UNL     1     161.712 170.442 185.962  1.00  0.00     0.000 C 
BRANCH   6   7
ATOM      7  C   UNL     1     160.954 170.558 184.631  1.00  0.00     0.000 C 
BRANCH   7   8
ATOM      8  C   UNL     1     160.672 172.027 184.287  1.00  0.00     0.000 C 
BRANCH   8   9
ATOM      9  C   UNL     1     161.337 172.472 182.974  1.00  0.00     0.000 C 
BRANCH   9  10
ATOM     10  C   UNL     1     162.611 173.322 183.146  1.00  0.00     0.000 C 
BRANCH  10  11
ATOM     11  C   UNL     1     162.953 173.642 184.618  1.00  0.00     0.000 C 
BRANCH  11  12
ATOM     12  C   UNL     1     164.304 173.049 185.044  1.00  0.00     0.006 C 
BRANCH  12  13
ATOM     13  C   UNL     1     165.390 173.339 183.999  1.00  0.00     0.053 C 
BRANCH  13  14
ATOM     14  C   UNL     1     166.600 173.999 184.595  1.00  0.00     0.041 C 
ATOM     15  O   UNL     1     167.599 174.236 183.866  1.00  0.00    -0.550 OA
ATOM     16  O   UNL     1     166.633 174.369 185.935  1.00  0.00    -0.550 OA
ENDBRANCH  13  14
ENDBRANCH  12  13
ENDBRANCH  11  12
ENDBRANCH  10  11
ENDBRANCH   9  10
ENDBRANCH   8   9
ENDBRANCH   7   8
ENDBRANCH   6   7
ENDBRANCH   5   6
ENDBRANCH   4   5
ENDBRANCH   3   4
ENDBRANCH   2   3
ENDBRANCH   1   2
BRANCH   1  17
ATOM     17  C   UNL     1     161.700 175.096 187.508  1.00  0.00     0.000 C 
BRANCH  17  18
ATOM     18  C   UNL     1     161.696 176.602 187.819  1.00  0.00     0.000 C 
BRANCH  18  19
ATOM     19  C   UNL     1     160.525 177.345 187.151  1.00  0.00     0.000 C 
BRANCH  19  20
ATOM     20  C   UNL     1     160.932 178.255 185.978  1.00  0.00     0.000 C 
BRANCH  20  21
ATOM     21  C   UNL     1     160.253 177.852 184.655  1.00  0.00     0.000 C 
BRANCH  21  22
ATOM     22  C   UNL     1     160.626 176.433 184.201  1.00  0.00    -0.000 C 
BRANCH  22  23
ATOM     23  C   UNL     1     160.625 176.276 182.670  1.00  0.00    -0.000 C 
BRANCH  23  24
ATOM     24  C   UNL     1     161.462 177.355 181.958  1.00  0.00    -0.000 C 
BRANCH  24  25
ATOM     25  C   UNL     1     162.988 177.128 181.984  1.00  0.00    -0.000 C 
BRANCH  25  26
ATOM     26  C   UNL     1     163.764 177.992 182.994  1.00  0.00    -0.000 C 
BRANCH  26  27
ATOM     27  C   UNL     1     164.768 177.181 183.827  1.00  0.00    -0.000 C 
BRANCH  27  28
ATOM     28  C   UNL     1     164.201 176.868 185.218  1.00  0.00    -0.000 C 
BRANCH  28  29
ATOM     29  C   UNL     1     165.052 177.517 186.315  1.00  0.00    -0.003 C 
ATOM     30  C   UNL     1     164.458 178.853 186.756  1.00  0.00     0.004 C 
ENDBRANCH  28  29
ENDBRANCH  27  28
ENDBRANCH  26  27
ENDBRANCH  25  26
ENDBRANCH  24  25
ENDBRANCH  23  24
ENDBRANCH  22  23
ENDBRANCH  21  22
ENDBRANCH  20  21
ENDBRANCH  19  20
ENDBRANCH  18  19
ENDBRANCH  17  18
ENDBRANCH   1  17
TORSDOF 26
ENDMDL
