MODEL 1
REMARK VINA RESULT:    -8.430      0.000      0.000
REMARK INTER + INTRA:          -9.169
REMARK INTER:                  -9.169
REMARK INTRA:                   0.000
REMARK UNBOUND:                 0.000
REMARK SMILES Cc1cc(O)c2c(c1)C(=O)c1cc(O)cc(O)c1C2=O
REMARK SMILES IDX 1 1 2 2 8 3 7 4 6 5 4 6 3 7 19 8 20 9 18 10 11 11 9 12 10 13
REMARK SMILES IDX 12 14 13 15 15 16 16 17 5 18 17 20 14 22
REMARK H PARENT 5 19 17 21 14 23
REMARK Flexibility Score: inf
ROOT
ATOM      1  C   UNL     1      -3.404   6.956 -10.950  1.00  0.00     0.044 C 
ATOM      2  C   UNL     1      -3.572   5.549 -10.458  1.00  0.00    -0.047 A 
ATOM      3  C   UNL     1      -4.785   4.878 -10.646  1.00  0.00     0.016 A 
ATOM      4  C   UNL     1      -4.943   3.550 -10.215  1.00  0.00     0.038 A 
ATOM      5  C   UNL     1      -3.868   2.883  -9.585  1.00  0.00     0.076 A 
ATOM      6  C   UNL     1      -2.617   3.540  -9.474  1.00  0.00     0.127 A 
ATOM      7  C   UNL     1      -2.489   4.868  -9.893  1.00  0.00     0.050 A 
ATOM      8  C   UNL     1      -4.118   1.536  -9.010  1.00  0.00     0.201 C 
ATOM      9  O   UNL     1      -3.463   1.153  -8.005  1.00  0.00    -0.288 OA
ATOM     10  C   UNL     1      -5.260   0.723  -9.502  1.00  0.00     0.076 A 
ATOM     11  C   UNL     1      -6.333   1.394 -10.134  1.00  0.00     0.041 A 
ATOM     12  C   UNL     1      -6.229   2.844 -10.424  1.00  0.00     0.194 C 
ATOM     13  O   UNL     1      -7.228   3.471 -10.872  1.00  0.00    -0.289 OA
ATOM     14  C   UNL     1      -7.490   0.681 -10.489  1.00  0.00     0.059 A 
ATOM     15  C   UNL     1      -7.584  -0.690 -10.238  1.00  0.00     0.120 A 
ATOM     16  C   UNL     1      -6.512  -1.362  -9.651  1.00  0.00     0.093 A 
ATOM     17  C   UNL     1      -5.342  -0.680  -9.307  1.00  0.00     0.131 A 
ENDROOT
BRANCH   6  18
ATOM     18  O   UNL     1      -1.469   2.904  -8.992  1.00  0.00    -0.507 OA
ATOM     19  H   UNL     1      -1.153   2.002  -9.319  1.00  0.00     0.293 HD
ENDBRANCH   6  18
BRANCH  17  20
ATOM     20  O   UNL     1      -4.278  -1.436  -8.809  1.00  0.00    -0.507 OA
ATOM     21  H   UNL     1      -4.256  -1.824  -7.877  1.00  0.00     0.293 HD
ENDBRANCH  17  20
BRANCH  15  22
ATOM     22  O   UNL     1      -8.736  -1.397 -10.577  1.00  0.00    -0.508 OA
ATOM     23  H   UNL     1      -9.567  -0.927 -10.917  1.00  0.00     0.293 HD
ENDBRANCH  15  22
TORSDOF 3
ENDMDL
MODEL 2
REMARK VINA RESULT:    -8.289      2.986      5.386
REMARK INTER + INTRA:          -9.015
REMARK INTER:                  -9.015
REMARK INTRA:                   0.000
REMARK UNBOUND:                 0.000
REMARK SMILES Cc1cc(O)c2c(c1)C(=O)c1cc(O)cc(O)c1C2=O
REMARK SMILES IDX 1 1 2 2 8 3 7 4 6 5 4 6 3 7 19 8 20 9 18 10 11 11 9 12 10 13
REMARK SMILES IDX 12 14 13 15 15 16 16 17 5 18 17 20 14 22
REMARK H PARENT 5 19 17 21 14 23
REMARK Flexibility Score: inf
ROOT
ATOM      1  C   UNL     1      -7.071   9.708 -12.294  1.00  0.00     0.044 C 
ATOM      2  C   UNL     1      -6.540   8.305 -12.267  1.00  0.00    -0.047 A 
ATOM      3  C   UNL     1      -5.463   7.976 -11.436  1.00  0.00     0.016 A 
ATOM      4  C   UNL     1      -4.978   6.659 -11.382  1.00  0.00     0.038 A 
ATOM      5  C   UNL     1      -5.581   5.654 -12.173  1.00  0.00     0.076 A 
ATOM      6  C   UNL     1      -6.724   5.977 -12.946  1.00  0.00     0.127 A 
ATOM      7  C   UNL     1      -7.177   7.298 -13.000  1.00  0.00     0.050 A 
ATOM      8  C   UNL     1      -4.948   4.310 -12.202  1.00  0.00     0.201 C 
ATOM      9  O   UNL     1      -5.045   3.595 -13.234  1.00  0.00    -0.288 OA
ATOM     10  C   UNL     1      -4.051   3.891 -11.093  1.00  0.00     0.076 A 
ATOM     11  C   UNL     1      -3.452   4.900 -10.303  1.00  0.00     0.041 A 
ATOM     12  C   UNL     1      -3.841   6.317 -10.495  1.00  0.00     0.194 C 
ATOM     13  O   UNL     1      -3.221   7.230  -9.883  1.00  0.00    -0.289 OA
ATOM     14  C   UNL     1      -2.493   4.552  -9.337  1.00  0.00     0.059 A 
ATOM     15  C   UNL     1      -2.139   3.215  -9.138  1.00  0.00     0.120 A 
ATOM     16  C   UNL     1      -2.757   2.215  -9.888  1.00  0.00     0.093 A 
ATOM     17  C   UNL     1      -3.729   2.533 -10.842  1.00  0.00     0.131 A 
ENDROOT
BRANCH   6  18
ATOM     18  O   UNL     1      -7.460   5.015 -13.644  1.00  0.00    -0.507 OA
ATOM     19  H   UNL     1      -7.310   4.021 -13.549  1.00  0.00     0.293 HD
ENDBRANCH   6  18
BRANCH  17  20
ATOM     20  O   UNL     1      -4.369   1.473 -11.487  1.00  0.00    -0.507 OA
ATOM     21  H   UNL     1      -4.697   1.515 -12.441  1.00  0.00     0.293 HD
ENDBRANCH  17  20
BRANCH  15  22
ATOM     22  O   UNL     1      -1.179   2.868  -8.190  1.00  0.00    -0.508 OA
ATOM     23  H   UNL     1      -1.140   3.320  -7.283  1.00  0.00     0.293 HD
ENDBRANCH  15  22
TORSDOF 3
ENDMDL
MODEL 3
REMARK VINA RESULT:    -8.213      2.073      3.953
REMARK INTER + INTRA:          -8.933
REMARK INTER:                  -8.933
REMARK INTRA:                   0.000
REMARK UNBOUND:                 0.000
REMARK SMILES Cc1cc(O)c2c(c1)C(=O)c1cc(O)cc(O)c1C2=O
REMARK SMILES IDX 1 1 2 2 8 3 7 4 6 5 4 6 3 7 19 8 20 9 18 10 11 11 9 12 10 13
REMARK SMILES IDX 12 14 13 15 15 16 16 17 5 18 17 20 14 22
REMARK H PARENT 5 19 17 21 14 23
REMARK Flexibility Score: inf
ROOT
ATOM      1  C   UNL     1      -5.592   8.377 -14.011  1.00  0.00     0.044 C 
ATOM      2  C   UNL     1      -4.905   7.589 -12.936  1.00  0.00    -0.047 A 
ATOM      3  C   UNL     1      -5.359   6.308 -12.602  1.00  0.00     0.016 A 
ATOM      4  C   UNL     1      -4.705   5.551 -11.617  1.00  0.00     0.038 A 
ATOM      5  C   UNL     1      -3.576   6.084 -10.954  1.00  0.00     0.076 A 
ATOM      6  C   UNL     1      -3.071   7.346 -11.356  1.00  0.00     0.127 A 
ATOM      7  C   UNL     1      -3.750   8.090 -12.325  1.00  0.00     0.050 A 
ATOM      8  C   UNL     1      -3.002   5.318  -9.818  1.00  0.00     0.201 C 
ATOM      9  O   UNL     1      -2.433   5.929  -8.874  1.00  0.00    -0.288 OA
ATOM     10  C   UNL     1      -3.263   3.860  -9.703  1.00  0.00     0.076 A 
ATOM     11  C   UNL     1      -4.392   3.329 -10.370  1.00  0.00     0.041 A 
ATOM     12  C   UNL     1      -5.189   4.193 -11.274  1.00  0.00     0.194 C 
ATOM     13  O   UNL     1      -6.266   3.762 -11.771  1.00  0.00    -0.289 OA
ATOM     14  C   UNL     1      -4.750   1.985 -10.175  1.00  0.00     0.059 A 
ATOM     15  C   UNL     1      -3.990   1.162  -9.341  1.00  0.00     0.120 A 
ATOM     16  C   UNL     1      -2.853   1.671  -8.714  1.00  0.00     0.093 A 
ATOM     17  C   UNL     1      -2.463   3.000  -8.907  1.00  0.00     0.131 A 
ENDROOT
BRANCH   6  18
ATOM     18  O   UNL     1      -1.883   7.880 -10.851  1.00  0.00    -0.507 OA
ATOM     19  H   UNL     1      -1.811   8.327  -9.948  1.00  0.00     0.293 HD
ENDBRANCH   6  18
BRANCH  17  20
ATOM     20  O   UNL     1      -1.265   3.411  -8.321  1.00  0.00    -0.507 OA
ATOM     21  H   UNL     1      -0.774   2.878  -7.618  1.00  0.00     0.293 HD
ENDBRANCH  17  20
BRANCH  15  22
ATOM     22  O   UNL     1      -4.350  -0.168  -9.136  1.00  0.00    -0.508 OA
ATOM     23  H   UNL     1      -3.835  -0.930  -9.562  1.00  0.00     0.293 HD
ENDBRANCH  15  22
TORSDOF 3
ENDMDL
MODEL 4
REMARK VINA RESULT:    -7.939      1.436      5.515
REMARK INTER + INTRA:          -8.635
REMARK INTER:                  -8.635
REMARK INTRA:                   0.000
REMARK UNBOUND:                 0.000
REMARK SMILES Cc1cc(O)c2c(c1)C(=O)c1cc(O)cc(O)c1C2=O
REMARK SMILES IDX 1 1 2 2 8 3 7 4 6 5 4 6 3 7 19 8 20 9 18 10 11 11 9 12 10 13
REMARK SMILES IDX 12 14 13 15 15 16 16 17 5 18 17 20 14 22
REMARK H PARENT 5 19 17 21 14 23
REMARK Flexibility Score: inf
ROOT
ATOM      1  C   UNL     1      -8.702  -1.000 -10.125  1.00  0.00     0.044 C 
ATOM      2  C   UNL     1      -7.431  -0.235  -9.904  1.00  0.00    -0.047 A 
ATOM      3  C   UNL     1      -7.264   1.033 -10.474  1.00  0.00     0.016 A 
ATOM      4  C   UNL     1      -6.089   1.769 -10.249  1.00  0.00     0.038 A 
ATOM      5  C   UNL     1      -5.063   1.228  -9.441  1.00  0.00     0.076 A 
ATOM      6  C   UNL     1      -5.275  -0.018  -8.799  1.00  0.00     0.127 A 
ATOM      7  C   UNL     1      -6.444  -0.742  -9.053  1.00  0.00     0.050 A 
ATOM      8  C   UNL     1      -3.779   1.968  -9.348  1.00  0.00     0.201 C 
ATOM      9  O   UNL     1      -2.705   1.337  -9.162  1.00  0.00    -0.288 OA
ATOM     10  C   UNL     1      -3.739   3.421  -9.659  1.00  0.00     0.076 A 
ATOM     11  C   UNL     1      -4.768   3.959 -10.466  1.00  0.00     0.041 A 
ATOM     12  C   UNL     1      -5.923   3.113 -10.851  1.00  0.00     0.194 C 
ATOM     13  O   UNL     1      -6.778   3.548 -11.671  1.00  0.00    -0.289 OA
ATOM     14  C   UNL     1      -4.693   5.294 -10.895  1.00  0.00     0.059 A 
ATOM     15  C   UNL     1      -3.616   6.101 -10.517  1.00  0.00     0.120 A 
ATOM     16  C   UNL     1      -2.620   5.586  -9.688  1.00  0.00     0.093 A 
ATOM     17  C   UNL     1      -2.682   4.266  -9.231  1.00  0.00     0.131 A 
ENDROOT
BRANCH   6  18
ATOM     18  O   UNL     1      -4.373  -0.555  -7.876  1.00  0.00    -0.507 OA
ATOM     19  H   UNL     1      -3.424  -0.226  -7.767  1.00  0.00     0.293 HD
ENDBRANCH   6  18
BRANCH  17  20
ATOM     20  O   UNL     1      -1.699   3.849  -8.331  1.00  0.00    -0.507 OA
ATOM     21  H   UNL     1      -0.857   4.373  -8.142  1.00  0.00     0.293 HD
ENDBRANCH  17  20
BRANCH  15  22
ATOM     22  O   UNL     1      -3.532   7.423 -10.952  1.00  0.00    -0.508 OA
ATOM     23  H   UNL     1      -4.362   7.970 -11.150  1.00  0.00     0.293 HD
ENDBRANCH  15  22
TORSDOF 3
ENDMDL
MODEL 5
REMARK VINA RESULT:    -7.025      5.935      8.561
REMARK INTER + INTRA:          -7.642
REMARK INTER:                  -7.642
REMARK INTRA:                   0.000
REMARK UNBOUND:                 0.000
REMARK SMILES Cc1cc(O)c2c(c1)C(=O)c1cc(O)cc(O)c1C2=O
REMARK SMILES IDX 1 1 2 2 8 3 7 4 6 5 4 6 3 7 19 8 20 9 18 10 11 11 9 12 10 13
REMARK SMILES IDX 12 14 13 15 15 16 16 17 5 18 17 20 14 22
REMARK H PARENT 5 19 17 21 14 23
REMARK Flexibility Score: inf
ROOT
ATOM      1  C   UNL     1      -4.626   3.803 -11.615  1.00  0.00     0.044 C 
ATOM      2  C   UNL     1      -5.205   5.038 -12.239  1.00  0.00    -0.047 A 
ATOM      3  C   UNL     1      -6.277   4.939 -13.133  1.00  0.00     0.016 A 
ATOM      4  C   UNL     1      -6.844   6.092 -13.700  1.00  0.00     0.038 A 
ATOM      5  C   UNL     1      -6.330   7.366 -13.367  1.00  0.00     0.076 A 
ATOM      6  C   UNL     1      -5.300   7.464 -12.397  1.00  0.00     0.127 A 
ATOM      7  C   UNL     1      -4.738   6.302 -11.861  1.00  0.00     0.050 A 
ATOM      8  C   UNL     1      -6.855   8.548 -14.098  1.00  0.00     0.201 C 
ATOM      9  O   UNL     1      -6.113   9.549 -14.286  1.00  0.00    -0.288 OA
ATOM     10  C   UNL     1      -8.181   8.476 -14.764  1.00  0.00     0.076 A 
ATOM     11  C   UNL     1      -8.693   7.199 -15.093  1.00  0.00     0.041 A 
ATOM     12  C   UNL     1      -7.983   5.980 -14.641  1.00  0.00     0.194 C 
ATOM     13  O   UNL     1      -8.365   4.844 -15.037  1.00  0.00    -0.289 OA
ATOM     14  C   UNL     1      -9.876   7.094 -15.844  1.00  0.00     0.059 A 
ATOM     15  C   UNL     1     -10.560   8.241 -16.255  1.00  0.00     0.120 A 
ATOM     16  C   UNL     1     -10.080   9.501 -15.898  1.00  0.00     0.093 A 
ATOM     17  C   UNL     1      -8.916   9.632 -15.134  1.00  0.00     0.131 A 
ENDROOT
BRANCH   6  18
ATOM     18  O   UNL     1      -4.834   8.688 -11.911  1.00  0.00    -0.507 OA
ATOM     19  H   UNL     1      -5.065   9.579 -12.328  1.00  0.00     0.293 HD
ENDBRANCH   6  18
BRANCH  17  20
ATOM     20  O   UNL     1      -8.547  10.920 -14.737  1.00  0.00    -0.507 OA
ATOM     21  H   UNL     1      -9.012  11.757 -15.057  1.00  0.00     0.293 HD
ENDBRANCH  17  20
BRANCH  15  22
ATOM     22  O   UNL     1     -11.726   8.140 -17.011  1.00  0.00    -0.508 OA
ATOM     23  H   UNL     1     -11.719   8.255 -18.018  1.00  0.00     0.293 HD
ENDBRANCH  15  22
TORSDOF 3
ENDMDL
MODEL 6
REMARK VINA RESULT:    -7.022      1.500      4.010
REMARK INTER + INTRA:          -7.638
REMARK INTER:                  -7.638
REMARK INTRA:                   0.000
REMARK UNBOUND:                 0.000
REMARK SMILES Cc1cc(O)c2c(c1)C(=O)c1cc(O)cc(O)c1C2=O
REMARK SMILES IDX 1 1 2 2 8 3 7 4 6 5 4 6 3 7 19 8 20 9 18 10 11 11 9 12 10 13
REMARK SMILES IDX 12 14 13 15 15 16 16 17 5 18 17 20 14 22
REMARK H PARENT 5 19 17 21 14 23
REMARK Flexibility Score: inf
ROOT
ATOM      1  C   UNL     1      -1.988   8.869 -10.704  1.00  0.00     0.044 C 
ATOM      2  C   UNL     1      -2.896   7.690 -10.892  1.00  0.00    -0.047 A 
ATOM      3  C   UNL     1      -2.616   6.476 -10.255  1.00  0.00     0.016 A 
ATOM      4  C   UNL     1      -3.476   5.375 -10.402  1.00  0.00     0.038 A 
ATOM      5  C   UNL     1      -4.636   5.490 -11.201  1.00  0.00     0.076 A 
ATOM      6  C   UNL     1      -4.958   6.746 -11.774  1.00  0.00     0.127 A 
ATOM      7  C   UNL     1      -4.077   7.822 -11.630  1.00  0.00     0.050 A 
ATOM      8  C   UNL     1      -5.439   4.266 -11.453  1.00  0.00     0.201 C 
ATOM      9  O   UNL     1      -6.083   4.150 -12.529  1.00  0.00    -0.288 OA
ATOM     10  C   UNL     1      -5.334   3.109 -10.526  1.00  0.00     0.076 A 
ATOM     11  C   UNL     1      -4.172   2.999  -9.727  1.00  0.00     0.041 A 
ATOM     12  C   UNL     1      -3.175   4.095  -9.718  1.00  0.00     0.194 C 
ATOM     13  O   UNL     1      -2.081   3.948  -9.107  1.00  0.00    -0.289 OA
ATOM     14  C   UNL     1      -3.972   1.851  -8.941  1.00  0.00     0.059 A 
ATOM     15  C   UNL     1      -4.920   0.825  -8.931  1.00  0.00     0.120 A 
ATOM     16  C   UNL     1      -6.085   0.949  -9.686  1.00  0.00     0.093 A 
ATOM     17  C   UNL     1      -6.318   2.089 -10.461  1.00  0.00     0.131 A 
ENDROOT
BRANCH   6  18
ATOM     18  O   UNL     1      -6.154   6.980 -12.458  1.00  0.00    -0.507 OA
ATOM     19  H   UNL     1      -6.839   7.663 -12.168  1.00  0.00     0.293 HD
ENDBRANCH   6  18
BRANCH  17  20
ATOM     20  O   UNL     1      -7.547   2.183 -11.117  1.00  0.00    -0.507 OA
ATOM     21  H   UNL     1      -7.808   1.602 -11.901  1.00  0.00     0.293 HD
ENDBRANCH  17  20
BRANCH  15  22
ATOM     22  O   UNL     1      -4.718  -0.320  -8.162  1.00  0.00    -0.508 OA
ATOM     23  H   UNL     1      -5.125  -0.419  -7.240  1.00  0.00     0.293 HD
ENDBRANCH  15  22
TORSDOF 3
ENDMDL
MODEL 7
REMARK VINA RESULT:    -6.976      3.713      6.114
REMARK INTER + INTRA:          -7.587
REMARK INTER:                  -7.587
REMARK INTRA:                   0.000
REMARK UNBOUND:                 0.000
REMARK SMILES Cc1cc(O)c2c(c1)C(=O)c1cc(O)cc(O)c1C2=O
REMARK SMILES IDX 1 1 2 2 8 3 7 4 6 5 4 6 3 7 19 8 20 9 18 10 11 11 9 12 10 13
REMARK SMILES IDX 12 14 13 15 15 16 16 17 5 18 17 20 14 22
REMARK H PARENT 5 19 17 21 14 23
REMARK Flexibility Score: inf
ROOT
ATOM      1  C   UNL     1      -2.330   2.407  -8.631  1.00  0.00     0.044 C 
ATOM      2  C   UNL     1      -2.868   3.551  -9.439  1.00  0.00    -0.047 A 
ATOM      3  C   UNL     1      -3.660   3.305 -10.567  1.00  0.00     0.016 A 
ATOM      4  C   UNL     1      -4.192   4.369 -11.314  1.00  0.00     0.038 A 
ATOM      5  C   UNL     1      -3.926   5.703 -10.926  1.00  0.00     0.076 A 
ATOM      6  C   UNL     1      -3.195   5.943  -9.736  1.00  0.00     0.127 A 
ATOM      7  C   UNL     1      -2.659   4.869  -9.020  1.00  0.00     0.050 A 
ATOM      8  C   UNL     1      -4.379   6.797 -11.822  1.00  0.00     0.201 C 
ATOM      9  O   UNL     1      -3.732   7.877 -11.868  1.00  0.00    -0.288 OA
ATOM     10  C   UNL     1      -5.477   6.551 -12.793  1.00  0.00     0.076 A 
ATOM     11  C   UNL     1      -5.741   5.216 -13.177  1.00  0.00     0.041 A 
ATOM     12  C   UNL     1      -5.035   4.101 -12.502  1.00  0.00     0.194 C 
ATOM     13  O   UNL     1      -5.173   2.919 -12.924  1.00  0.00    -0.289 OA
ATOM     14  C   UNL     1      -6.675   4.953 -14.192  1.00  0.00     0.059 A 
ATOM     15  C   UNL     1      -7.358   6.000 -14.817  1.00  0.00     0.120 A 
ATOM     16  C   UNL     1      -7.129   7.315 -14.413  1.00  0.00     0.093 A 
ATOM     17  C   UNL     1      -6.220   7.602 -13.390  1.00  0.00     0.131 A 
ENDROOT
BRANCH   6  18
ATOM     18  O   UNL     1      -3.009   7.224  -9.209  1.00  0.00    -0.507 OA
ATOM     19  H   UNL     1      -2.265   7.844  -9.498  1.00  0.00     0.293 HD
ENDBRANCH   6  18
BRANCH  17  20
ATOM     20  O   UNL     1      -6.112   8.932 -12.978  1.00  0.00    -0.507 OA
ATOM     21  H   UNL     1      -5.548   9.621 -13.455  1.00  0.00     0.293 HD
ENDBRANCH  17  20
BRANCH  15  22
ATOM     22  O   UNL     1      -8.275   5.743 -15.834  1.00  0.00    -0.508 OA
ATOM     23  H   UNL     1      -7.977   5.441 -16.754  1.00  0.00     0.293 HD
ENDBRANCH  15  22
TORSDOF 3
ENDMDL
MODEL 8
REMARK VINA RESULT:    -6.952      2.939      6.393
REMARK INTER + INTRA:          -7.561
REMARK INTER:                  -7.561
REMARK INTRA:                   0.000
REMARK UNBOUND:                 0.000
REMARK SMILES Cc1cc(O)c2c(c1)C(=O)c1cc(O)cc(O)c1C2=O
REMARK SMILES IDX 1 1 2 2 8 3 7 4 6 5 4 6 3 7 19 8 20 9 18 10 11 11 9 12 10 13
REMARK SMILES IDX 12 14 13 15 15 16 16 17 5 18 17 20 14 22
REMARK H PARENT 5 19 17 21 14 23
REMARK Flexibility Score: inf
ROOT
ATOM      1  C   UNL     1      -1.621   2.750  -8.554  1.00  0.00     0.044 C 
ATOM      2  C   UNL     1      -2.791   3.214  -9.370  1.00  0.00    -0.047 A 
ATOM      3  C   UNL     1      -2.833   4.524  -9.859  1.00  0.00     0.016 A 
ATOM      4  C   UNL     1      -3.910   4.960 -10.648  1.00  0.00     0.038 A 
ATOM      5  C   UNL     1      -4.965   4.069 -10.953  1.00  0.00     0.076 A 
ATOM      6  C   UNL     1      -4.874   2.720 -10.525  1.00  0.00     0.127 A 
ATOM      7  C   UNL     1      -3.802   2.315  -9.724  1.00  0.00     0.050 A 
ATOM      8  C   UNL     1      -6.155   4.605 -11.661  1.00  0.00     0.201 C 
ATOM      9  O   UNL     1      -7.287   4.089 -11.464  1.00  0.00    -0.288 OA
ATOM     10  C   UNL     1      -6.041   5.859 -12.451  1.00  0.00     0.076 A 
ATOM     11  C   UNL     1      -4.984   6.747 -12.145  1.00  0.00     0.041 A 
ATOM     12  C   UNL     1      -3.944   6.347 -11.168  1.00  0.00     0.194 C 
ATOM     13  O   UNL     1      -3.071   7.181 -10.799  1.00  0.00    -0.289 OA
ATOM     14  C   UNL     1      -4.922   8.002 -12.773  1.00  0.00     0.059 A 
ATOM     15  C   UNL     1      -5.889   8.375 -13.710  1.00  0.00     0.120 A 
ATOM     16  C   UNL     1      -6.911   7.486 -14.044  1.00  0.00     0.093 A 
ATOM     17  C   UNL     1      -6.983   6.223 -13.449  1.00  0.00     0.131 A 
ENDROOT
BRANCH   6  18
ATOM     18  O   UNL     1      -5.802   1.745 -10.901  1.00  0.00    -0.507 OA
ATOM     19  H   UNL     1      -5.961   0.895 -10.379  1.00  0.00     0.293 HD
ENDBRANCH   6  18
BRANCH  17  20
ATOM     20  O   UNL     1      -7.978   5.353 -13.900  1.00  0.00    -0.507 OA
ATOM     21  H   UNL     1      -8.966   5.555 -13.839  1.00  0.00     0.293 HD
ENDBRANCH  17  20
BRANCH  15  22
ATOM     22  O   UNL     1      -5.838   9.624 -14.325  1.00  0.00    -0.508 OA
ATOM     23  H   UNL     1      -6.195  10.456 -13.869  1.00  0.00     0.293 HD
ENDBRANCH  15  22
TORSDOF 3
ENDMDL
MODEL 9
REMARK VINA RESULT:    -6.852      4.261      7.632
REMARK INTER + INTRA:          -7.452
REMARK INTER:                  -7.452
REMARK INTRA:                   0.000
REMARK UNBOUND:                 0.000
REMARK SMILES Cc1cc(O)c2c(c1)C(=O)c1cc(O)cc(O)c1C2=O
REMARK SMILES IDX 1 1 2 2 8 3 7 4 6 5 4 6 3 7 19 8 20 9 18 10 11 11 9 12 10 13
REMARK SMILES IDX 12 14 13 15 15 16 16 17 5 18 17 20 14 22
REMARK H PARENT 5 19 17 21 14 23
REMARK Flexibility Score: inf
ROOT
ATOM      1  C   UNL     1      -4.984   1.639 -11.574  1.00  0.00     0.044 C 
ATOM      2  C   UNL     1      -4.834   3.129 -11.665  1.00  0.00    -0.047 A 
ATOM      3  C   UNL     1      -5.252   3.810 -12.814  1.00  0.00     0.016 A 
ATOM      4  C   UNL     1      -5.142   5.208 -12.897  1.00  0.00     0.038 A 
ATOM      5  C   UNL     1      -4.603   5.937 -11.812  1.00  0.00     0.076 A 
ATOM      6  C   UNL     1      -4.260   5.250 -10.621  1.00  0.00     0.127 A 
ATOM      7  C   UNL     1      -4.360   3.856 -10.568  1.00  0.00     0.050 A 
ATOM      8  C   UNL     1      -4.365   7.392 -11.994  1.00  0.00     0.201 C 
ATOM      9  O   UNL     1      -3.427   7.955 -11.370  1.00  0.00    -0.288 OA
ATOM     10  C   UNL     1      -5.105   8.137 -13.045  1.00  0.00     0.076 A 
ATOM     11  C   UNL     1      -5.645   7.403 -14.127  1.00  0.00     0.041 A 
ATOM     12  C   UNL     1      -5.594   5.922 -14.114  1.00  0.00     0.194 C 
ATOM     13  O   UNL     1      -5.959   5.269 -15.131  1.00  0.00    -0.289 OA
ATOM     14  C   UNL     1      -6.232   8.084 -15.208  1.00  0.00     0.059 A 
ATOM     15  C   UNL     1      -6.301   9.479 -15.214  1.00  0.00     0.120 A 
ATOM     16  C   UNL     1      -5.806  10.203 -14.130  1.00  0.00     0.093 A 
ATOM     17  C   UNL     1      -5.236   9.550 -13.034  1.00  0.00     0.131 A 
ENDROOT
BRANCH   6  18
ATOM     18  O   UNL     1      -3.854   5.911  -9.458  1.00  0.00    -0.507 OA
ATOM     19  H   UNL     1      -4.497   6.285  -8.775  1.00  0.00     0.293 HD
ENDBRANCH   6  18
BRANCH  17  20
ATOM     20  O   UNL     1      -4.847  10.335 -11.947  1.00  0.00    -0.507 OA
ATOM     21  H   UNL     1      -3.919  10.719 -11.838  1.00  0.00     0.293 HD
ENDBRANCH  17  20
BRANCH  15  22
ATOM     22  O   UNL     1      -6.871  10.157 -16.290  1.00  0.00    -0.508 OA
ATOM     23  H   UNL     1      -6.386  10.913 -16.759  1.00  0.00     0.293 HD
ENDBRANCH  15  22
TORSDOF 3
ENDMDL
