MODEL 1
REMARK VINA RESULT:    -3.886      0.000      0.000
REMARK INTER + INTRA:          -5.714
REMARK INTER:                  -5.476
REMARK INTRA:                  -0.238
REMARK UNBOUND:                -0.238
REMARK SMILES CCCCCCCCC(=O)[O-]
REMARK SMILES IDX 6 1 7 2 8 3 9 4 10 5 11 6 5 7 4 8 3 9 2 10 1 11
REMARK H PARENT
REMARK Flexibility Score: inf
ROOT
ATOM      1  C   UNL     1      18.294  -5.170  12.339  1.00  0.00     0.000 C 
ENDROOT
BRANCH   1   2
ATOM      2  C   UNL     1      18.337  -4.598  13.765  1.00  0.00     0.006 C 
BRANCH   2   3
ATOM      3  C   UNL     1      19.184  -3.324  13.863  1.00  0.00     0.053 C 
BRANCH   3   4
ATOM      4  C   UNL     1      18.610  -2.393  14.885  1.00  0.00     0.041 C 
ATOM      5  O   UNL     1      19.370  -1.711  15.620  1.00  0.00    -0.550 OA
ATOM      6  O   UNL     1      17.234  -2.317  15.058  1.00  0.00    -0.550 OA
ENDBRANCH   3   4
ENDBRANCH   2   3
ENDBRANCH   1   2
BRANCH   1   7
ATOM      7  C   UNL     1      16.875  -5.590  11.914  1.00  0.00     0.000 C 
BRANCH   7   8
ATOM      8  C   UNL     1      16.875  -6.556  10.718  1.00  0.00    -0.000 C 
BRANCH   8   9
ATOM      9  C   UNL     1      18.082  -6.341   9.788  1.00  0.00    -0.000 C 
BRANCH   9  10
ATOM     10  C   UNL     1      17.855  -6.929   8.385  1.00  0.00    -0.003 C 
ATOM     11  C   UNL     1      16.884  -6.100   7.545  1.00  0.00     0.004 C 
ENDBRANCH   9  10
ENDBRANCH   8   9
ENDBRANCH   7   8
ENDBRANCH   1   7
TORSDOF 7
ENDMDL
MODEL 2
REMARK VINA RESULT:    -3.812      2.328      2.725
REMARK INTER + INTRA:          -5.610
REMARK INTER:                  -5.378
REMARK INTRA:                  -0.232
REMARK UNBOUND:                -0.238
REMARK SMILES CCCCCCCCC(=O)[O-]
REMARK SMILES IDX 6 1 7 2 8 3 9 4 10 5 11 6 5 7 4 8 3 9 2 10 1 11
REMARK H PARENT
REMARK Flexibility Score: inf
ROOT
ATOM      1  C   UNL     1      19.150  -4.416  13.118  1.00  0.00     0.000 C 
ENDROOT
BRANCH   1   2
ATOM      2  C   UNL     1      18.893  -4.011  14.578  1.00  0.00     0.006 C 
BRANCH   2   3
ATOM      3  C   UNL     1      19.142  -5.161  15.562  1.00  0.00     0.053 C 
BRANCH   3   4
ATOM      4  C   UNL     1      20.596  -5.516  15.591  1.00  0.00     0.041 C 
ATOM      5  O   UNL     1      20.984  -6.638  15.173  1.00  0.00    -0.550 OA
ATOM      6  O   UNL     1      21.517  -4.623  16.125  1.00  0.00    -0.550 OA
ENDBRANCH   3   4
ENDBRANCH   2   3
ENDBRANCH   1   2
BRANCH   1   7
ATOM      7  C   UNL     1      17.871  -4.884  12.401  1.00  0.00     0.000 C 
BRANCH   7   8
ATOM      8  C   UNL     1      18.128  -6.043  11.425  1.00  0.00    -0.000 C 
BRANCH   8   9
ATOM      9  C   UNL     1      17.195  -6.001  10.202  1.00  0.00    -0.000 C 
BRANCH   9  10
ATOM     10  C   UNL     1      17.961  -6.133   8.875  1.00  0.00    -0.003 C 
ATOM     11  C   UNL     1      17.036  -6.324   7.673  1.00  0.00     0.004 C 
ENDBRANCH   9  10
ENDBRANCH   8   9
ENDBRANCH   7   8
ENDBRANCH   1   7
TORSDOF 7
ENDMDL
MODEL 3
REMARK VINA RESULT:    -3.361     18.276     19.437
REMARK INTER + INTRA:          -4.975
REMARK INTER:                  -4.692
REMARK INTRA:                  -0.283
REMARK UNBOUND:                -0.238
REMARK SMILES CCCCCCCCC(=O)[O-]
REMARK SMILES IDX 6 1 7 2 8 3 9 4 10 5 11 6 5 7 4 8 3 9 2 10 1 11
REMARK H PARENT
REMARK Flexibility Score: inf
ROOT
ATOM      1  C   UNL     1      36.917  -5.595  12.547  1.00  0.00     0.000 C 
ENDROOT
BRANCH   1   2
ATOM      2  C   UNL     1      37.103  -6.746  11.546  1.00  0.00     0.006 C 
BRANCH   2   3
ATOM      3  C   UNL     1      36.264  -7.979  11.904  1.00  0.00     0.053 C 
BRANCH   3   4
ATOM      4  C   UNL     1      35.603  -8.533  10.680  1.00  0.00     0.041 C 
ATOM      5  O   UNL     1      35.733  -7.952   9.571  1.00  0.00    -0.550 OA
ATOM      6  O   UNL     1      34.804  -9.665  10.775  1.00  0.00    -0.550 OA
ENDBRANCH   3   4
ENDBRANCH   2   3
ENDBRANCH   1   2
BRANCH   1   7
ATOM      7  C   UNL     1      36.782  -6.091  13.999  1.00  0.00     0.000 C 
BRANCH   7   8
ATOM      8  C   UNL     1      36.739  -4.940  15.017  1.00  0.00    -0.000 C 
BRANCH   8   9
ATOM      9  C   UNL     1      36.888  -3.560  14.353  1.00  0.00    -0.000 C 
BRANCH   9  10
ATOM     10  C   UNL     1      36.388  -2.418  15.254  1.00  0.00    -0.003 C 
ATOM     11  C   UNL     1      36.317  -1.076  14.526  1.00  0.00     0.004 C 
ENDBRANCH   9  10
ENDBRANCH   8   9
ENDBRANCH   7   8
ENDBRANCH   1   7
TORSDOF 7
ENDMDL
MODEL 4
REMARK VINA RESULT:    -3.217     20.804     22.186
REMARK INTER + INTRA:          -4.772
REMARK INTER:                  -4.531
REMARK INTRA:                  -0.241
REMARK UNBOUND:                -0.238
REMARK SMILES CCCCCCCCC(=O)[O-]
REMARK SMILES IDX 6 1 7 2 8 3 9 4 10 5 11 6 5 7 4 8 3 9 2 10 1 11
REMARK H PARENT
REMARK Flexibility Score: inf
ROOT
ATOM      1  C   UNL     1      31.570  -0.700  -1.990  1.00  0.00     0.000 C 
ENDROOT
BRANCH   1   2
ATOM      2  C   UNL     1      30.868   0.664  -2.078  1.00  0.00     0.006 C 
BRANCH   2   3
ATOM      3  C   UNL     1      30.813   1.207  -3.511  1.00  0.00     0.053 C 
BRANCH   3   4
ATOM      4  C   UNL     1      31.893   2.220  -3.727  1.00  0.00     0.041 C 
ATOM      5  O   UNL     1      33.040   1.856  -4.095  1.00  0.00    -0.550 OA
ATOM      6  O   UNL     1      31.645   3.563  -3.476  1.00  0.00    -0.550 OA
ENDBRANCH   3   4
ENDBRANCH   2   3
ENDBRANCH   1   2
BRANCH   1   7
ATOM      7  C   UNL     1      31.480  -1.496  -3.305  1.00  0.00     0.000 C 
BRANCH   7   8
ATOM      8  C   UNL     1      32.779  -1.438  -4.125  1.00  0.00    -0.000 C 
BRANCH   8   9
ATOM      9  C   UNL     1      34.019  -1.194  -3.248  1.00  0.00    -0.000 C 
BRANCH   9  10
ATOM     10  C   UNL     1      35.333  -1.456  -4.002  1.00  0.00    -0.003 C 
ATOM     11  C   UNL     1      36.015  -2.754  -3.570  1.00  0.00     0.004 C 
ENDBRANCH   9  10
ENDBRANCH   8   9
ENDBRANCH   7   8
ENDBRANCH   1   7
TORSDOF 7
ENDMDL
MODEL 5
REMARK VINA RESULT:    -3.192     12.820     15.046
REMARK INTER + INTRA:          -4.737
REMARK INTER:                  -4.519
REMARK INTRA:                  -0.217
REMARK UNBOUND:                -0.238
REMARK SMILES CCCCCCCCC(=O)[O-]
REMARK SMILES IDX 6 1 7 2 8 3 9 4 10 5 11 6 5 7 4 8 3 9 2 10 1 11
REMARK H PARENT
REMARK Flexibility Score: inf
ROOT
ATOM      1  C   UNL     1      20.607   9.618  10.542  1.00  0.00     0.000 C 
ENDROOT
BRANCH   1   2
ATOM      2  C   UNL     1      20.774  10.125   9.100  1.00  0.00     0.006 C 
BRANCH   2   3
ATOM      3  C   UNL     1      21.714   9.241   8.271  1.00  0.00     0.053 C 
BRANCH   3   4
ATOM      4  C   UNL     1      21.640   9.616   6.824  1.00  0.00     0.041 C 
ATOM      5  O   UNL     1      22.678   9.967   6.205  1.00  0.00    -0.550 OA
ATOM      6  O   UNL     1      20.414   9.623   6.171  1.00  0.00    -0.550 OA
ENDBRANCH   3   4
ENDBRANCH   2   3
ENDBRANCH   1   2
BRANCH   1   7
ATOM      7  C   UNL     1      19.202   9.896  11.106  1.00  0.00     0.000 C 
BRANCH   7   8
ATOM      8  C   UNL     1      18.737   8.818  12.099  1.00  0.00    -0.000 C 
BRANCH   8   9
ATOM      9  C   UNL     1      19.886   8.291  12.976  1.00  0.00    -0.000 C 
BRANCH   9  10
ATOM     10  C   UNL     1      19.403   7.290  14.038  1.00  0.00    -0.003 C 
ATOM     11  C   UNL     1      19.432   5.843  13.546  1.00  0.00     0.004 C 
ENDBRANCH   9  10
ENDBRANCH   8   9
ENDBRANCH   7   8
ENDBRANCH   1   7
TORSDOF 7
ENDMDL
MODEL 6
REMARK VINA RESULT:    -3.161     11.527     13.386
REMARK INTER + INTRA:          -4.693
REMARK INTER:                  -3.930
REMARK INTRA:                  -0.763
REMARK UNBOUND:                -0.238
REMARK SMILES CCCCCCCCC(=O)[O-]
REMARK SMILES IDX 6 1 7 2 8 3 9 4 10 5 11 6 5 7 4 8 3 9 2 10 1 11
REMARK H PARENT
REMARK Flexibility Score: inf
ROOT
ATOM      1  C   UNL     1      19.851   6.241  13.061  1.00  0.00     0.000 C 
ENDROOT
BRANCH   1   2
ATOM      2  C   UNL     1      18.923   6.908  12.033  1.00  0.00     0.006 C 
BRANCH   2   3
ATOM      3  C   UNL     1      18.943   8.439  12.129  1.00  0.00     0.053 C 
BRANCH   3   4
ATOM      4  C   UNL     1      20.264   8.973  11.672  1.00  0.00     0.041 C 
ATOM      5  O   UNL     1      21.121   9.352  12.513  1.00  0.00    -0.550 OA
ATOM      6  O   UNL     1      20.531   9.096  10.314  1.00  0.00    -0.550 OA
ENDBRANCH   3   4
ENDBRANCH   2   3
ENDBRANCH   1   2
BRANCH   1   7
ATOM      7  C   UNL     1      19.079   5.408  14.100  1.00  0.00     0.000 C 
BRANCH   7   8
ATOM      8  C   UNL     1      18.942   6.126  15.453  1.00  0.00    -0.000 C 
BRANCH   8   9
ATOM      9  C   UNL     1      17.704   7.038  15.514  1.00  0.00    -0.000 C 
BRANCH   9  10
ATOM     10  C   UNL     1      18.065   8.498  15.831  1.00  0.00    -0.003 C 
ATOM     11  C   UNL     1      19.571   8.756  15.806  1.00  0.00     0.004 C 
ENDBRANCH   9  10
ENDBRANCH   8   9
ENDBRANCH   7   8
ENDBRANCH   1   7
TORSDOF 7
ENDMDL
MODEL 7
REMARK VINA RESULT:    -3.097     21.143     22.644
REMARK INTER + INTRA:          -4.602
REMARK INTER:                  -4.366
REMARK INTRA:                  -0.236
REMARK UNBOUND:                -0.238
REMARK SMILES CCCCCCCCC(=O)[O-]
REMARK SMILES IDX 6 1 7 2 8 3 9 4 10 5 11 6 5 7 4 8 3 9 2 10 1 11
REMARK H PARENT
REMARK Flexibility Score: inf
ROOT
ATOM      1  C   UNL     1      33.860  -1.679  -4.125  1.00  0.00     0.000 C 
ENDROOT
BRANCH   1   2
ATOM      2  C   UNL     1      33.038  -0.382  -4.056  1.00  0.00     0.006 C 
BRANCH   2   3
ATOM      3  C   UNL     1      31.547  -0.642  -3.810  1.00  0.00     0.053 C 
BRANCH   3   4
ATOM      4  C   UNL     1      31.181  -0.287  -2.403  1.00  0.00     0.041 C 
ATOM      5  O   UNL     1      31.549  -1.019  -1.448  1.00  0.00    -0.550 OA
ATOM      6  O   UNL     1      30.391   0.828  -2.152  1.00  0.00    -0.550 OA
ENDBRANCH   3   4
ENDBRANCH   2   3
ENDBRANCH   1   2
BRANCH   1   7
ATOM      7  C   UNL     1      35.219  -1.556  -3.412  1.00  0.00     0.000 C 
BRANCH   7   8
ATOM      8  C   UNL     1      36.309  -2.426  -4.058  1.00  0.00    -0.000 C 
BRANCH   8   9
ATOM      9  C   UNL     1      36.762  -3.578  -3.144  1.00  0.00    -0.000 C 
BRANCH   9  10
ATOM     10  C   UNL     1      36.494  -4.960  -3.763  1.00  0.00    -0.003 C 
ATOM     11  C   UNL     1      36.411  -6.072  -2.718  1.00  0.00     0.004 C 
ENDBRANCH   9  10
ENDBRANCH   8   9
ENDBRANCH   7   8
ENDBRANCH   1   7
TORSDOF 7
ENDMDL
