MODEL 1
REMARK VINA RESULT:    -2.556      0.000      0.000
REMARK INTER + INTRA:          -2.556
REMARK INTER:                  -2.556
REMARK INTRA:                   0.000
REMARK UNBOUND:                 0.000
REMARK SMILES CC(=O)[O-]
REMARK SMILES IDX 1 1 2 2 3 3 4 4
REMARK H PARENT
REMARK Flexibility Score: inf
ROOT
ATOM      1  C   UNL     1      33.274  18.615  -4.084  1.00  0.00     0.063 C 
ATOM      2  C   UNL     1      33.037  17.143  -4.106  1.00  0.00     0.038 C 
ATOM      3  O   UNL     1      33.518  16.439  -5.032  1.00  0.00    -0.550 OA
ATOM      4  O   UNL     1      32.332  16.536  -3.074  1.00  0.00    -0.550 OA
ENDROOT
TORSDOF 0
ENDMDL
MODEL 2
REMARK VINA RESULT:    -2.479      0.277      1.643
REMARK INTER + INTRA:          -2.479
REMARK INTER:                  -2.479
REMARK INTRA:                   0.000
REMARK UNBOUND:                 0.000
REMARK SMILES CC(=O)[O-]
REMARK SMILES IDX 1 1 2 2 3 3 4 4
REMARK H PARENT
REMARK Flexibility Score: inf
ROOT
ATOM      1  C   UNL     1      33.142  18.589  -3.672  1.00  0.00     0.063 C 
ATOM      2  C   UNL     1      32.942  17.119  -3.829  1.00  0.00     0.038 C 
ATOM      3  O   UNL     1      32.296  16.473  -2.963  1.00  0.00    -0.550 OA
ATOM      4  O   UNL     1      33.423  16.468  -4.958  1.00  0.00    -0.550 OA
ENDROOT
TORSDOF 0
ENDMDL
MODEL 3
REMARK VINA RESULT:    -2.477      1.404      2.054
REMARK INTER + INTRA:          -2.477
REMARK INTER:                  -2.477
REMARK INTRA:                   0.000
REMARK UNBOUND:                 0.000
REMARK SMILES CC(=O)[O-]
REMARK SMILES IDX 1 1 2 2 3 3 4 4
REMARK H PARENT
REMARK Flexibility Score: inf
ROOT
ATOM      1  C   UNL     1      32.254  16.564  -2.694  1.00  0.00     0.063 C 
ATOM      2  C   UNL     1      32.889  17.153  -3.908  1.00  0.00     0.038 C 
ATOM      3  O   UNL     1      33.026  18.400  -4.008  1.00  0.00    -0.550 OA
ATOM      4  O   UNL     1      33.380  16.324  -4.909  1.00  0.00    -0.550 OA
ENDROOT
TORSDOF 0
ENDMDL
MODEL 4
REMARK VINA RESULT:    -2.323      9.318      9.619
REMARK INTER + INTRA:          -2.323
REMARK INTER:                  -2.323
REMARK INTRA:                   0.000
REMARK UNBOUND:                 0.000
REMARK SMILES CC(=O)[O-]
REMARK SMILES IDX 1 1 2 2 3 3 4 4
REMARK H PARENT
REMARK Flexibility Score: inf
ROOT
ATOM      1  C   UNL     1      26.668  20.223 -11.403  1.00  0.00     0.063 C 
ATOM      2  C   UNL     1      27.638  19.099 -11.548  1.00  0.00     0.038 C 
ATOM      3  O   UNL     1      28.108  18.534 -10.526  1.00  0.00    -0.550 OA
ATOM      4  O   UNL     1      27.983  18.636 -12.811  1.00  0.00    -0.550 OA
ENDROOT
TORSDOF 0
ENDMDL
MODEL 5
REMARK VINA RESULT:    -2.317      1.700      1.832
REMARK INTER + INTRA:          -2.317
REMARK INTER:                  -2.317
REMARK INTRA:                   0.000
REMARK UNBOUND:                 0.000
REMARK SMILES CC(=O)[O-]
REMARK SMILES IDX 1 1 2 2 3 3 4 4
REMARK H PARENT
REMARK Flexibility Score: inf
ROOT
ATOM      1  C   UNL     1      34.377  19.026  -4.925  1.00  0.00     0.063 C 
ATOM      2  C   UNL     1      33.334  18.479  -4.011  1.00  0.00     0.038 C 
ATOM      3  O   UNL     1      32.858  17.330  -4.210  1.00  0.00    -0.550 OA
ATOM      4  O   UNL     1      32.922  19.213  -2.906  1.00  0.00    -0.550 OA
ENDROOT
TORSDOF 0
ENDMDL
MODEL 6
REMARK VINA RESULT:    -2.261      9.659      9.874
REMARK INTER + INTRA:          -2.261
REMARK INTER:                  -2.261
REMARK INTRA:                   0.000
REMARK UNBOUND:                 0.000
REMARK SMILES CC(=O)[O-]
REMARK SMILES IDX 1 1 2 2 3 3 4 4
REMARK H PARENT
REMARK Flexibility Score: inf
ROOT
ATOM      1  C   UNL     1      27.439  18.280 -10.855  1.00  0.00     0.063 C 
ATOM      2  C   UNL     1      27.787  19.113 -12.043  1.00  0.00     0.038 C 
ATOM      3  O   UNL     1      28.120  18.563 -13.125  1.00  0.00    -0.550 OA
ATOM      4  O   UNL     1      27.693  20.497 -11.974  1.00  0.00    -0.550 OA
ENDROOT
TORSDOF 0
ENDMDL
MODEL 7
REMARK VINA RESULT:    -2.215      2.582      3.014
REMARK INTER + INTRA:          -2.215
REMARK INTER:                  -2.215
REMARK INTRA:                   0.000
REMARK UNBOUND:                 0.000
REMARK SMILES CC(=O)[O-]
REMARK SMILES IDX 1 1 2 2 3 3 4 4
REMARK H PARENT
REMARK Flexibility Score: inf
ROOT
ATOM      1  C   UNL     1      36.327  17.911  -6.010  1.00  0.00     0.063 C 
ATOM      2  C   UNL     1      34.898  17.869  -5.583  1.00  0.00     0.038 C 
ATOM      3  O   UNL     1      34.296  18.934  -5.286  1.00  0.00    -0.550 OA
ATOM      4  O   UNL     1      34.212  16.662  -5.564  1.00  0.00    -0.550 OA
ENDROOT
TORSDOF 0
ENDMDL
MODEL 8
REMARK VINA RESULT:    -2.196     11.026     11.144
REMARK INTER + INTRA:          -2.196
REMARK INTER:                  -2.196
REMARK INTRA:                   0.000
REMARK UNBOUND:                 0.000
REMARK SMILES CC(=O)[O-]
REMARK SMILES IDX 1 1 2 2 3 3 4 4
REMARK H PARENT
REMARK Flexibility Score: inf
ROOT
ATOM      1  C   UNL     1      36.017  19.497   6.596  1.00  0.00     0.063 C 
ATOM      2  C   UNL     1      36.699  18.208   6.286  1.00  0.00     0.038 C 
ATOM      3  O   UNL     1      36.130  17.114   6.542  1.00  0.00    -0.550 OA
ATOM      4  O   UNL     1      37.941  18.209   5.664  1.00  0.00    -0.550 OA
ENDROOT
TORSDOF 0
ENDMDL
