MODEL 1
REMARK VINA RESULT:    -3.767      0.000      0.000
REMARK INTER + INTRA:          -5.982
REMARK INTER:                  -5.749
REMARK INTRA:                  -0.233
REMARK UNBOUND:                -0.233
REMARK SMILES CC1=CCC[C@@H](C)C(=O)C[C@H](C(C)C)C(=O)C1
REMARK SMILES IDX 8 1 9 2 6 3 7 4 5 5 4 6 3 7 2 8 1 9 10 11 11 12 15 13 16 14
REMARK SMILES IDX 17 15 12 17 13 18 14 19
REMARK H PARENT
REMARK Flexibility Score: 70.00
ROOT
ATOM      1  C   UNL     1      19.081 -24.585 -24.213  1.00  0.00     0.136 C 
ATOM      2  O   UNL     1      18.943 -25.653 -24.792  1.00  0.00    -0.299 OA
ENDROOT
BRANCH   1   3
ATOM      3  C   UNL     1      19.376 -24.561 -22.728  1.00  0.00     0.053 C 
ATOM      4  C   UNL     1      20.608 -25.427 -22.446  1.00  0.00     0.016 C 
BRANCH   3   5
ATOM      5  C   UNL     1      18.180 -25.037 -21.869  1.00  0.00     0.015 C 
BRANCH   5   6
ATOM      6  C   UNL     1      17.301 -23.891 -21.335  1.00  0.00     0.028 C 
BRANCH   6   7
ATOM      7  C   UNL     1      18.139 -22.768 -20.772  1.00  0.00    -0.028 C 
ATOM      8  C   UNL     1      18.200 -21.509 -21.262  1.00  0.00    -0.070 CG0
ATOM      9  C   UNL     1      19.102 -20.522 -20.566  1.00  0.00     0.039 C 
ATOM     10  G   UNL     1      17.402 -21.052 -22.470  1.00  0.00     0.000 G0
ENDBRANCH   6   7
ENDBRANCH   5   6
ENDBRANCH   3   5
ENDBRANCH   1   3
BRANCH   1  11
ATOM     11  C   UNL     1      19.021 -23.302 -25.009  1.00  0.00     0.087 C 
BRANCH  11  12
ATOM     12  C   UNL     1      17.763 -22.470 -24.665  1.00  0.00     0.066 C 
BRANCH  12  13
ATOM     13  C   UNL     1      18.128 -21.290 -23.778  1.00  0.00     0.140 C 
ATOM     14  O   UNL     1      18.999 -20.511 -24.132  1.00  0.00    -0.299 OA
BRANCH  13  15
ATOM     15  C   UNL     1      17.408 -21.034 -22.478  1.00  0.00     0.106 CG0
ATOM     16  G   UNL     1      18.199 -21.518 -21.276  1.00  0.00     0.000 G0
ENDBRANCH  13  15
ENDBRANCH  12  13
BRANCH  12  17
ATOM     17  C   UNL     1      16.957 -22.001 -25.916  1.00  0.00    -0.006 C 
ATOM     18  C   UNL     1      17.160 -22.882 -27.161  1.00  0.00     0.008 C 
ATOM     19  C   UNL     1      15.456 -21.872 -25.608  1.00  0.00     0.008 C 
ENDBRANCH  12  17
ENDBRANCH  11  12
ENDBRANCH   1  11
TORSDOF 1
ENDMDL
MODEL 2
REMARK VINA RESULT:    -3.690      2.055      4.577
REMARK INTER + INTRA:          -5.865
REMARK INTER:                  -5.540
REMARK INTRA:                  -0.325
REMARK UNBOUND:                -0.233
REMARK SMILES CC1=CCC[C@@H](C)C(=O)C[C@H](C(C)C)C(=O)C1
REMARK SMILES IDX 8 1 9 2 6 3 7 4 5 5 4 6 3 7 2 8 1 9 10 11 11 12 15 13 16 14
REMARK SMILES IDX 17 15 12 17 13 18 14 19
REMARK H PARENT
REMARK Flexibility Score: 70.00
ROOT
ATOM      1  C   UNL     1      19.236 -23.780 -24.106  1.00  0.00     0.136 C 
ATOM      2  O   UNL     1      20.257 -24.233 -23.609  1.00  0.00    -0.299 OA
ENDROOT
BRANCH   1   3
ATOM      3  C   UNL     1      19.282 -23.139 -25.478  1.00  0.00     0.053 C 
ATOM      4  C   UNL     1      19.365 -21.617 -25.320  1.00  0.00     0.016 C 
BRANCH   3   5
ATOM      5  C   UNL     1      18.068 -23.519 -26.360  1.00  0.00     0.015 C 
BRANCH   5   6
ATOM      6  C   UNL     1      17.070 -22.366 -26.575  1.00  0.00     0.028 C 
BRANCH   6   7
ATOM      7  C   UNL     1      15.647 -22.814 -26.336  1.00  0.00    -0.028 C 
ATOM      8  C   UNL     1      14.898 -22.513 -25.251  1.00  0.00    -0.070 CG0
ATOM      9  C   UNL     1      13.495 -23.060 -25.186  1.00  0.00     0.039 C 
ATOM     10  G   UNL     1      15.406 -21.654 -24.108  1.00  0.00     0.000 G0
ENDBRANCH   6   7
ENDBRANCH   5   6
ENDBRANCH   3   5
ENDBRANCH   1   3
BRANCH   1  11
ATOM     11  C   UNL     1      17.927 -23.929 -23.367  1.00  0.00     0.087 C 
BRANCH  11  12
ATOM     12  C   UNL     1      17.456 -22.589 -22.755  1.00  0.00     0.066 C 
BRANCH  12  13
ATOM     13  C   UNL     1      15.957 -22.414 -22.939  1.00  0.00     0.140 C 
ATOM     14  O   UNL     1      15.185 -22.893 -22.122  1.00  0.00    -0.299 OA
BRANCH  13  15
ATOM     15  C   UNL     1      15.395 -21.626 -24.095  1.00  0.00     0.106 CG0
ATOM     16  G   UNL     1      14.907 -22.521 -25.220  1.00  0.00     0.000 G0
ENDBRANCH  13  15
ENDBRANCH  12  13
BRANCH  12  17
ATOM     17  C   UNL     1      17.861 -22.403 -21.259  1.00  0.00    -0.006 C 
ATOM     18  C   UNL     1      18.253 -23.710 -20.548  1.00  0.00     0.008 C 
ATOM     19  C   UNL     1      18.986 -21.367 -21.101  1.00  0.00     0.008 C 
ENDBRANCH  12  17
ENDBRANCH  11  12
ENDBRANCH   1  11
TORSDOF 1
ENDMDL
MODEL 3
REMARK VINA RESULT:    -3.516      2.155      4.401
REMARK INTER + INTRA:          -5.598
REMARK INTER:                  -5.676
REMARK INTRA:                   0.078
REMARK UNBOUND:                -0.233
REMARK SMILES CC1=CCC[C@@H](C)C(=O)C[C@H](C(C)C)C(=O)C1
REMARK SMILES IDX 8 1 9 2 6 3 7 4 5 5 4 6 3 7 2 8 1 9 10 11 11 12 15 13 16 14
REMARK SMILES IDX 17 15 12 17 13 18 14 19
REMARK H PARENT
REMARK Flexibility Score: 70.00
ROOT
ATOM      1  C   UNL     1      18.062 -24.694 -25.493  1.00  0.00     0.136 C 
ATOM      2  O   UNL     1      17.039 -25.282 -25.811  1.00  0.00    -0.299 OA
ENDROOT
BRANCH   1   3
ATOM      3  C   UNL     1      18.458 -23.420 -26.210  1.00  0.00     0.053 C 
ATOM      4  C   UNL     1      19.634 -22.772 -25.473  1.00  0.00     0.016 C 
BRANCH   3   5
ATOM      5  C   UNL     1      17.289 -22.414 -26.339  1.00  0.00     0.015 C 
BRANCH   5   6
ATOM      6  C   UNL     1      16.835 -21.811 -24.997  1.00  0.00     0.028 C 
BRANCH   6   7
ATOM      7  C   UNL     1      15.506 -22.377 -24.557  1.00  0.00    -0.028 C 
ATOM      8  C   UNL     1      15.275 -23.036 -23.399  1.00  0.00    -0.070 CG0
ATOM      9  C   UNL     1      13.877 -23.537 -23.136  1.00  0.00     0.039 C 
ATOM     10  G   UNL     1      16.354 -23.288 -22.361  1.00  0.00     0.000 G0
ENDBRANCH   6   7
ENDBRANCH   5   6
ENDBRANCH   3   5
ENDBRANCH   1   3
BRANCH   1  11
ATOM     11  C   UNL     1      18.882 -25.215 -24.337  1.00  0.00     0.087 C 
BRANCH  11  12
ATOM     12  C   UNL     1      18.646 -24.395 -23.047  1.00  0.00     0.066 C 
BRANCH  12  13
ATOM     13  C   UNL     1      17.195 -24.501 -22.604  1.00  0.00     0.140 C 
ATOM     14  O   UNL     1      16.692 -25.600 -22.426  1.00  0.00    -0.299 OA
BRANCH  13  15
ATOM     15  C   UNL     1      16.363 -23.270 -22.342  1.00  0.00     0.106 CG0
ATOM     16  G   UNL     1      15.278 -23.074 -23.385  1.00  0.00     0.000 G0
ENDBRANCH  13  15
ENDBRANCH  12  13
BRANCH  12  17
ATOM     17  C   UNL     1      19.614 -24.763 -21.880  1.00  0.00    -0.006 C 
ATOM     18  C   UNL     1      21.062 -25.029 -22.325  1.00  0.00     0.008 C 
ATOM     19  C   UNL     1      19.597 -23.697 -20.772  1.00  0.00     0.008 C 
ENDBRANCH  12  17
ENDBRANCH  11  12
ENDBRANCH   1  11
TORSDOF 1
ENDMDL
MODEL 4
REMARK VINA RESULT:    -3.414      2.077      4.476
REMARK INTER + INTRA:          -5.443
REMARK INTER:                  -5.377
REMARK INTRA:                  -0.066
REMARK UNBOUND:                -0.233
REMARK SMILES CC1=CCC[C@@H](C)C(=O)C[C@H](C(C)C)C(=O)C1
REMARK SMILES IDX 8 1 9 2 6 3 7 4 5 5 4 6 3 7 2 8 1 9 10 11 11 12 15 13 16 14
REMARK SMILES IDX 17 15 12 17 13 18 14 19
REMARK H PARENT
REMARK Flexibility Score: 70.00
ROOT
ATOM      1  C   UNL     1      16.244 -24.787 -23.349  1.00  0.00     0.136 C 
ATOM      2  O   UNL     1      15.871 -25.844 -22.860  1.00  0.00    -0.299 OA
ENDROOT
BRANCH   1   3
ATOM      3  C   UNL     1      15.875 -24.441 -24.776  1.00  0.00     0.053 C 
ATOM      4  C   UNL     1      14.478 -24.989 -25.082  1.00  0.00     0.016 C 
BRANCH   3   5
ATOM      5  C   UNL     1      16.897 -24.976 -25.808  1.00  0.00     0.015 C 
BRANCH   5   6
ATOM      6  C   UNL     1      17.738 -23.875 -26.480  1.00  0.00     0.028 C 
BRANCH   6   7
ATOM      7  C   UNL     1      17.027 -22.543 -26.458  1.00  0.00    -0.028 C 
ATOM      8  C   UNL     1      17.414 -21.456 -25.754  1.00  0.00    -0.070 CG0
ATOM      9  C   UNL     1      16.568 -20.211 -25.852  1.00  0.00     0.039 C 
ATOM     10  G   UNL     1      18.654 -21.434 -24.879  1.00  0.00     0.000 G0
ENDBRANCH   6   7
ENDBRANCH   5   6
ENDBRANCH   3   5
ENDBRANCH   1   3
BRANCH   1  11
ATOM     11  C   UNL     1      17.014 -23.810 -22.491  1.00  0.00     0.087 C 
BRANCH  11  12
ATOM     12  C   UNL     1      18.362 -23.414 -23.139  1.00  0.00     0.066 C 
BRANCH  12  13
ATOM     13  C   UNL     1      18.384 -21.929 -23.463  1.00  0.00     0.140 C 
ATOM     14  O   UNL     1      18.214 -21.110 -22.572  1.00  0.00    -0.299 OA
BRANCH  13  15
ATOM     15  C   UNL     1      18.648 -21.435 -24.863  1.00  0.00     0.106 CG0
ATOM     16  G   UNL     1      17.402 -21.460 -25.729  1.00  0.00     0.000 G0
ENDBRANCH  13  15
ENDBRANCH  12  13
BRANCH  12  17
ATOM     17  C   UNL     1      19.610 -23.821 -22.294  1.00  0.00    -0.006 C 
ATOM     18  C   UNL     1      19.320 -24.004 -20.795  1.00  0.00     0.008 C 
ATOM     19  C   UNL     1      20.285 -25.084 -22.853  1.00  0.00     0.008 C 
ENDBRANCH  12  17
ENDBRANCH  11  12
ENDBRANCH   1  11
TORSDOF 1
ENDMDL
MODEL 5
REMARK VINA RESULT:    -3.359      2.361      3.950
REMARK INTER + INTRA:          -5.359
REMARK INTER:                  -5.308
REMARK INTRA:                  -0.051
REMARK UNBOUND:                -0.233
REMARK SMILES CC1=CCC[C@@H](C)C(=O)C[C@H](C(C)C)C(=O)C1
REMARK SMILES IDX 8 1 9 2 6 3 7 4 5 5 4 6 3 7 2 8 1 9 10 11 11 12 15 13 16 14
REMARK SMILES IDX 17 15 12 17 13 18 14 19
REMARK H PARENT
REMARK Flexibility Score: 70.00
ROOT
ATOM      1  C   UNL     1      18.236 -21.798 -24.783  1.00  0.00     0.136 C 
ATOM      2  O   UNL     1      18.113 -20.752 -25.405  1.00  0.00    -0.299 OA
ENDROOT
BRANCH   1   3
ATOM      3  C   UNL     1      19.127 -22.898 -25.320  1.00  0.00     0.053 C 
ATOM      4  C   UNL     1      18.313 -23.787 -26.267  1.00  0.00     0.016 C 
BRANCH   3   5
ATOM      5  C   UNL     1      19.767 -23.754 -24.201  1.00  0.00     0.015 C 
BRANCH   5   6
ATOM      6  C   UNL     1      19.235 -25.198 -24.141  1.00  0.00     0.028 C 
BRANCH   6   7
ATOM      7  C   UNL     1      19.236 -25.730 -22.728  1.00  0.00    -0.028 C 
ATOM      8  C   UNL     1      18.155 -25.824 -21.921  1.00  0.00    -0.070 CG0
ATOM      9  C   UNL     1      18.353 -26.377 -20.532  1.00  0.00     0.039 C 
ATOM     10  G   UNL     1      16.761 -25.404 -22.353  1.00  0.00     0.000 G0
ENDBRANCH   6   7
ENDBRANCH   5   6
ENDBRANCH   3   5
ENDBRANCH   1   3
BRANCH   1  11
ATOM     11  C   UNL     1      17.546 -21.946 -23.448  1.00  0.00     0.087 C 
BRANCH  11  12
ATOM     12  C   UNL     1      16.455 -23.043 -23.483  1.00  0.00     0.066 C 
BRANCH  12  13
ATOM     13  C   UNL     1      16.539 -23.920 -22.243  1.00  0.00     0.140 C 
ATOM     14  O   UNL     1      16.400 -23.422 -21.136  1.00  0.00    -0.299 OA
BRANCH  13  15
ATOM     15  C   UNL     1      16.754 -25.408 -22.349  1.00  0.00     0.106 CG0
ATOM     16  G   UNL     1      18.158 -25.819 -21.943  1.00  0.00     0.000 G0
ENDBRANCH  13  15
ENDBRANCH  12  13
BRANCH  12  17
ATOM     17  C   UNL     1      15.010 -22.487 -23.677  1.00  0.00    -0.006 C 
ATOM     18  C   UNL     1      14.781 -21.099 -23.055  1.00  0.00     0.008 C 
ATOM     19  C   UNL     1      14.606 -22.466 -25.161  1.00  0.00     0.008 C 
ENDBRANCH  12  17
ENDBRANCH  11  12
ENDBRANCH   1  11
TORSDOF 1
ENDMDL
MODEL 6
REMARK VINA RESULT:    -3.326     13.520     15.443
REMARK INTER + INTRA:          -5.309
REMARK INTER:                  -5.131
REMARK INTRA:                  -0.178
REMARK UNBOUND:                -0.233
REMARK SMILES CC1=CCC[C@@H](C)C(=O)C[C@H](C(C)C)C(=O)C1
REMARK SMILES IDX 8 1 9 2 6 3 7 4 5 5 4 6 3 7 2 8 1 9 10 11 11 12 15 13 16 14
REMARK SMILES IDX 17 15 12 17 13 18 14 19
REMARK H PARENT
REMARK Flexibility Score: 70.00
ROOT
ATOM      1  C   UNL     1      24.451 -15.201 -14.339  1.00  0.00     0.136 C 
ATOM      2  O   UNL     1      24.393 -16.401 -14.564  1.00  0.00    -0.299 OA
ENDROOT
BRANCH   1   3
ATOM      3  C   UNL     1      23.220 -14.337 -14.517  1.00  0.00     0.053 C 
ATOM      4  C   UNL     1      23.376 -13.495 -15.787  1.00  0.00     0.016 C 
BRANCH   3   5
ATOM      5  C   UNL     1      22.946 -13.422 -13.299  1.00  0.00     0.015 C 
BRANCH   5   6
ATOM      6  C   UNL     1      23.085 -11.920 -13.605  1.00  0.00     0.028 C 
BRANCH   6   7
ATOM      7  C   UNL     1      24.111 -11.265 -12.711  1.00  0.00    -0.028 C 
ATOM      8  C   UNL     1      25.391 -10.991 -13.050  1.00  0.00    -0.070 CG0
ATOM      9  C   UNL     1      26.273 -10.338 -12.016  1.00  0.00     0.039 C 
ATOM     10  G   UNL     1      25.971 -11.307 -14.417  1.00  0.00     0.000 G0
ENDBRANCH   6   7
ENDBRANCH   5   6
ENDBRANCH   3   5
ENDBRANCH   1   3
BRANCH   1  11
ATOM     11  C   UNL     1      25.740 -14.610 -13.819  1.00  0.00     0.087 C 
BRANCH  11  12
ATOM     12  C   UNL     1      26.505 -13.840 -14.921  1.00  0.00     0.066 C 
BRANCH  12  13
ATOM     13  C   UNL     1      26.932 -12.470 -14.420  1.00  0.00     0.140 C 
ATOM     14  O   UNL     1      28.075 -12.294 -14.028  1.00  0.00    -0.299 OA
BRANCH  13  15
ATOM     15  C   UNL     1      25.979 -11.301 -14.426  1.00  0.00     0.106 CG0
ATOM     16  G   UNL     1      25.407 -11.014 -13.050  1.00  0.00     0.000 G0
ENDBRANCH  13  15
ENDBRANCH  12  13
BRANCH  12  17
ATOM     17  C   UNL     1      27.722 -14.623 -15.507  1.00  0.00    -0.006 C 
ATOM     18  C   UNL     1      28.264 -15.726 -14.581  1.00  0.00     0.008 C 
ATOM     19  C   UNL     1      27.403 -15.214 -16.890  1.00  0.00     0.008 C 
ENDBRANCH  12  17
ENDBRANCH  11  12
ENDBRANCH   1  11
TORSDOF 1
ENDMDL
MODEL 7
REMARK VINA RESULT:    -3.324      2.288      4.280
REMARK INTER + INTRA:          -5.305
REMARK INTER:                  -5.025
REMARK INTRA:                  -0.280
REMARK UNBOUND:                -0.233
REMARK SMILES CC1=CCC[C@@H](C)C(=O)C[C@H](C(C)C)C(=O)C1
REMARK SMILES IDX 8 1 9 2 6 3 7 4 5 5 4 6 3 7 2 8 1 9 10 11 11 12 15 13 16 14
REMARK SMILES IDX 17 15 12 17 13 18 14 19
REMARK H PARENT
REMARK Flexibility Score: 70.00
ROOT
ATOM      1  C   UNL     1      18.219 -24.196 -22.297  1.00  0.00     0.136 C 
ATOM      2  O   UNL     1      18.637 -24.141 -21.149  1.00  0.00    -0.299 OA
ENDROOT
BRANCH   1   3
ATOM      3  C   UNL     1      19.142 -24.624 -23.418  1.00  0.00     0.053 C 
ATOM      4  C   UNL     1      20.491 -25.047 -22.827  1.00  0.00     0.016 C 
BRANCH   3   5
ATOM      5  C   UNL     1      19.349 -23.518 -24.482  1.00  0.00     0.015 C 
BRANCH   5   6
ATOM      6  C   UNL     1      18.525 -23.727 -25.766  1.00  0.00     0.028 C 
BRANCH   6   7
ATOM      7  C   UNL     1      17.953 -22.425 -26.274  1.00  0.00    -0.028 C 
ATOM      8  C   UNL     1      16.709 -21.960 -26.020  1.00  0.00    -0.070 CG0
ATOM      9  C   UNL     1      16.312 -20.637 -26.624  1.00  0.00     0.039 C 
ATOM     10  G   UNL     1      15.706 -22.705 -25.158  1.00  0.00     0.000 G0
ENDBRANCH   6   7
ENDBRANCH   5   6
ENDBRANCH   3   5
ENDBRANCH   1   3
BRANCH   1  11
ATOM     11  C   UNL     1      16.763 -23.900 -22.566  1.00  0.00     0.087 C 
BRANCH  11  12
ATOM     12  C   UNL     1      16.492 -22.380 -22.654  1.00  0.00     0.066 C 
BRANCH  12  13
ATOM     13  C   UNL     1      15.526 -22.073 -23.787  1.00  0.00     0.140 C 
ATOM     14  O   UNL     1      14.609 -21.286 -23.608  1.00  0.00    -0.299 OA
BRANCH  13  15
ATOM     15  C   UNL     1      15.695 -22.694 -25.151  1.00  0.00     0.106 CG0
ATOM     16  G   UNL     1      16.724 -21.965 -25.995  1.00  0.00     0.000 G0
ENDBRANCH  13  15
ENDBRANCH  12  13
BRANCH  12  17
ATOM     17  C   UNL     1      15.998 -21.750 -21.314  1.00  0.00    -0.006 C 
ATOM     18  C   UNL     1      15.401 -22.765 -20.324  1.00  0.00     0.008 C 
ATOM     19  C   UNL     1      17.110 -20.942 -20.624  1.00  0.00     0.008 C 
ENDBRANCH  12  17
ENDBRANCH  11  12
ENDBRANCH   1  11
TORSDOF 1
ENDMDL
MODEL 8
REMARK VINA RESULT:    -3.295     12.929     15.174
REMARK INTER + INTRA:          -5.260
REMARK INTER:                  -5.001
REMARK INTRA:                  -0.259
REMARK UNBOUND:                -0.233
REMARK SMILES CC1=CCC[C@@H](C)C(=O)C[C@H](C(C)C)C(=O)C1
REMARK SMILES IDX 8 1 9 2 6 3 7 4 5 5 4 6 3 7 2 8 1 9 10 11 11 12 15 13 16 14
REMARK SMILES IDX 17 15 12 17 13 18 14 19
REMARK H PARENT
REMARK Flexibility Score: 70.00
ROOT
ATOM      1  C   UNL     1      26.853 -15.118 -14.105  1.00  0.00     0.136 C 
ATOM      2  O   UNL     1      27.943 -15.629 -14.319  1.00  0.00    -0.299 OA
ENDROOT
BRANCH   1   3
ATOM      3  C   UNL     1      25.592 -15.779 -14.621  1.00  0.00     0.053 C 
ATOM      4  C   UNL     1      25.660 -17.283 -14.337  1.00  0.00     0.016 C 
BRANCH   3   5
ATOM      5  C   UNL     1      25.357 -15.530 -16.130  1.00  0.00     0.015 C 
BRANCH   5   6
ATOM      6  C   UNL     1      24.158 -14.612 -16.431  1.00  0.00     0.028 C 
BRANCH   6   7
ATOM      7  C   UNL     1      23.302 -14.400 -15.204  1.00  0.00    -0.028 C 
ATOM      8  C   UNL     1      23.266 -13.275 -14.455  1.00  0.00    -0.070 CG0
ATOM      9  C   UNL     1      22.350 -13.251 -13.257  1.00  0.00     0.039 C 
ATOM     10  G   UNL     1      24.097 -12.044 -14.769  1.00  0.00     0.000 G0
ENDBRANCH   6   7
ENDBRANCH   5   6
ENDBRANCH   3   5
ENDBRANCH   1   3
BRANCH   1  11
ATOM     11  C   UNL     1      26.779 -13.864 -13.265  1.00  0.00     0.087 C 
BRANCH  11  12
ATOM     12  C   UNL     1      26.605 -12.598 -14.136  1.00  0.00     0.066 C 
BRANCH  12  13
ATOM     13  C   UNL     1      25.286 -11.910 -13.823  1.00  0.00     0.140 C 
ATOM     14  O   UNL     1      25.183 -11.219 -12.821  1.00  0.00    -0.299 OA
BRANCH  13  15
ATOM     15  C   UNL     1      24.100 -12.031 -14.746  1.00  0.00     0.106 CG0
ATOM     16  G   UNL     1      23.274 -13.274 -14.466  1.00  0.00     0.000 G0
ENDBRANCH  13  15
ENDBRANCH  12  13
BRANCH  12  17
ATOM     17  C   UNL     1      27.796 -11.595 -14.033  1.00  0.00    -0.006 C 
ATOM     18  C   UNL     1      28.993 -12.122 -13.223  1.00  0.00     0.008 C 
ATOM     19  C   UNL     1      28.269 -11.132 -15.420  1.00  0.00     0.008 C 
ENDBRANCH  12  17
ENDBRANCH  11  12
ENDBRANCH   1  11
TORSDOF 1
ENDMDL
MODEL 9
REMARK VINA RESULT:    -3.251      2.069      2.598
REMARK INTER + INTRA:          -5.194
REMARK INTER:                  -5.219
REMARK INTRA:                   0.025
REMARK UNBOUND:                -0.233
REMARK SMILES CC1=CCC[C@@H](C)C(=O)C[C@H](C(C)C)C(=O)C1
REMARK SMILES IDX 8 1 9 2 6 3 7 4 5 5 4 6 3 7 2 8 1 9 10 11 11 12 15 13 16 14
REMARK SMILES IDX 17 15 12 17 13 18 14 19
REMARK H PARENT
REMARK Flexibility Score: 70.00
ROOT
ATOM      1  C   UNL     1      19.278 -22.776 -24.896  1.00  0.00     0.136 C 
ATOM      2  O   UNL     1      19.930 -22.345 -25.837  1.00  0.00    -0.299 OA
ENDROOT
BRANCH   1   3
ATOM      3  C   UNL     1      19.477 -24.203 -24.428  1.00  0.00     0.053 C 
ATOM      4  C   UNL     1      18.372 -25.084 -25.019  1.00  0.00     0.016 C 
BRANCH   3   5
ATOM      5  C   UNL     1      19.498 -24.332 -22.886  1.00  0.00     0.015 C 
BRANCH   5   6
ATOM      6  C   UNL     1      18.415 -25.273 -22.326  1.00  0.00     0.028 C 
BRANCH   6   7
ATOM      7  C   UNL     1      17.801 -24.720 -21.062  1.00  0.00    -0.028 C 
ATOM      8  C   UNL     1      16.655 -24.007 -20.990  1.00  0.00    -0.070 CG0
ATOM      9  C   UNL     1      16.202 -23.530 -19.633  1.00  0.00     0.039 C 
ATOM     10  G   UNL     1      15.810 -23.672 -22.206  1.00  0.00     0.000 G0
ENDBRANCH   6   7
ENDBRANCH   5   6
ENDBRANCH   3   5
ENDBRANCH   1   3
BRANCH   1  11
ATOM     11  C   UNL     1      18.330 -21.851 -24.171  1.00  0.00     0.087 C 
BRANCH  11  12
ATOM     12  C   UNL     1      16.868 -22.349 -24.251  1.00  0.00     0.066 C 
BRANCH  12  13
ATOM     13  C   UNL     1      16.233 -22.368 -22.869  1.00  0.00     0.140 C 
ATOM     14  O   UNL     1      16.025 -21.318 -22.281  1.00  0.00    -0.299 OA
BRANCH  13  15
ATOM     15  C   UNL     1      15.817 -23.662 -22.215  1.00  0.00     0.106 CG0
ATOM     16  G   UNL     1      16.655 -23.985 -20.991  1.00  0.00     0.000 G0
ENDBRANCH  13  15
ENDBRANCH  12  13
BRANCH  12  17
ATOM     17  C   UNL     1      15.984 -21.551 -25.260  1.00  0.00    -0.006 C 
ATOM     18  C   UNL     1      16.786 -20.706 -26.265  1.00  0.00     0.008 C 
ATOM     19  C   UNL     1      15.011 -22.472 -26.013  1.00  0.00     0.008 C 
ENDBRANCH  12  17
ENDBRANCH  11  12
ENDBRANCH   1  11
TORSDOF 1
ENDMDL
