MODEL 1
REMARK VINA RESULT:    -5.340      0.000      0.000
REMARK INTER + INTRA:          -6.108
REMARK INTER:                  -5.964
REMARK INTRA:                  -0.144
REMARK UNBOUND:                -0.144
REMARK SMILES O=C([O-])C=Cc1ccccc1
REMARK SMILES IDX 4 1 5 2 2 3 1 4 3 5 6 6 7 7 11 8 8 9 10 10 9 11
REMARK H PARENT
REMARK Flexibility Score: inf
ROOT
ATOM      1  C   UNL     1      15.944  -3.410 -16.432  1.00  0.00     0.025 C 
ATOM      2  C   UNL     1      15.455  -3.813 -15.250  1.00  0.00     0.010 C 
ENDROOT
BRANCH   1   3
ATOM      3  C   UNL     1      15.258  -2.398 -17.252  1.00  0.00     0.064 C 
ATOM      4  O   UNL     1      14.637  -2.754 -18.287  1.00  0.00    -0.545 OA
ATOM      5  O   UNL     1      15.285  -1.052 -16.903  1.00  0.00    -0.545 OA
ENDBRANCH   1   3
BRANCH   2   6
ATOM      6  C   UNL     1      16.091  -4.829 -14.368  1.00  0.00    -0.026 A 
ATOM      7  C   UNL     1      17.105  -5.637 -14.913  1.00  0.00     0.008 A 
ATOM      8  C   UNL     1      15.727  -5.022 -13.016  1.00  0.00     0.008 A 
ATOM      9  C   UNL     1      17.740  -6.610 -14.134  1.00  0.00     0.001 A 
ATOM     10  C   UNL     1      16.366  -5.996 -12.243  1.00  0.00     0.001 A 
ATOM     11  C   UNL     1      17.370  -6.789 -12.800  1.00  0.00     0.000 A 
ENDBRANCH   2   6
TORSDOF 2
ENDMDL
MODEL 2
REMARK VINA RESULT:    -5.334      0.100      1.462
REMARK INTER + INTRA:          -6.102
REMARK INTER:                  -5.971
REMARK INTRA:                  -0.131
REMARK UNBOUND:                -0.144
REMARK SMILES O=C([O-])C=Cc1ccccc1
REMARK SMILES IDX 4 1 5 2 2 3 1 4 3 5 6 6 7 7 11 8 8 9 10 10 9 11
REMARK H PARENT
REMARK Flexibility Score: inf
ROOT
ATOM      1  C   UNL     1      15.965  -3.399 -16.486  1.00  0.00     0.025 C 
ATOM      2  C   UNL     1      15.522  -3.831 -15.296  1.00  0.00     0.010 C 
ENDROOT
BRANCH   1   3
ATOM      3  C   UNL     1      15.251  -2.362 -17.251  1.00  0.00     0.064 C 
ATOM      4  O   UNL     1      14.674  -2.670 -18.326  1.00  0.00    -0.545 OA
ATOM      5  O   UNL     1      15.204  -1.046 -16.805  1.00  0.00    -0.545 OA
ENDBRANCH   1   3
BRANCH   2   6
ATOM      6  C   UNL     1      16.189  -4.873 -14.468  1.00  0.00    -0.026 A 
ATOM      7  C   UNL     1      15.796  -5.003 -13.124  1.00  0.00     0.008 A 
ATOM      8  C   UNL     1      17.192  -5.735 -14.965  1.00  0.00     0.008 A 
ATOM      9  C   UNL     1      16.386  -5.963 -12.296  1.00  0.00     0.001 A 
ATOM     10  C   UNL     1      17.777  -6.694 -14.132  1.00  0.00     0.001 A 
ATOM     11  C   UNL     1      17.376  -6.808 -12.801  1.00  0.00     0.000 A 
ENDBRANCH   2   6
TORSDOF 2
ENDMDL
MODEL 3
REMARK VINA RESULT:    -5.290      4.658      6.088
REMARK INTER + INTRA:          -6.053
REMARK INTER:                  -5.909
REMARK INTRA:                  -0.144
REMARK UNBOUND:                -0.144
REMARK SMILES O=C([O-])C=Cc1ccccc1
REMARK SMILES IDX 4 1 5 2 2 3 1 4 3 5 6 6 7 7 11 8 8 9 10 10 9 11
REMARK H PARENT
REMARK Flexibility Score: inf
ROOT
ATOM      1  C   UNL     1      18.943  -7.587 -12.955  1.00  0.00     0.025 C 
ATOM      2  C   UNL     1      17.712  -7.147 -12.654  1.00  0.00     0.010 C 
ENDROOT
BRANCH   1   3
ATOM      3  C   UNL     1      19.635  -8.588 -12.125  1.00  0.00     0.064 C 
ATOM      4  O   UNL     1      20.604  -8.235 -11.405  1.00  0.00    -0.545 OA
ATOM      5  O   UNL     1      19.235  -9.920 -12.125  1.00  0.00    -0.545 OA
ENDBRANCH   1   3
BRANCH   2   6
ATOM      6  C   UNL     1      16.953  -6.139 -13.443  1.00  0.00    -0.026 A 
ATOM      7  C   UNL     1      17.655  -5.377 -14.395  1.00  0.00     0.008 A 
ATOM      8  C   UNL     1      15.568  -5.911 -13.284  1.00  0.00     0.008 A 
ATOM      9  C   UNL     1      16.996  -4.415 -15.166  1.00  0.00     0.001 A 
ATOM     10  C   UNL     1      14.915  -4.947 -14.059  1.00  0.00     0.001 A 
ATOM     11  C   UNL     1      15.627  -4.200 -14.998  1.00  0.00     0.000 A 
ENDBRANCH   2   6
TORSDOF 2
ENDMDL
MODEL 4
REMARK VINA RESULT:    -5.276      4.672      6.170
REMARK INTER + INTRA:          -6.037
REMARK INTER:                  -5.905
REMARK INTRA:                  -0.132
REMARK UNBOUND:                -0.144
REMARK SMILES O=C([O-])C=Cc1ccccc1
REMARK SMILES IDX 4 1 5 2 2 3 1 4 3 5 6 6 7 7 11 8 8 9 10 10 9 11
REMARK H PARENT
REMARK Flexibility Score: inf
ROOT
ATOM      1  C   UNL     1      18.952  -7.605 -12.929  1.00  0.00     0.025 C 
ATOM      2  C   UNL     1      17.721  -7.143 -12.666  1.00  0.00     0.010 C 
ENDROOT
BRANCH   1   3
ATOM      3  C   UNL     1      19.599  -8.619 -12.080  1.00  0.00     0.064 C 
ATOM      4  O   UNL     1      19.192  -9.808 -12.113  1.00  0.00    -0.545 OA
ATOM      5  O   UNL     1      20.655  -8.283 -11.239  1.00  0.00    -0.545 OA
ENDBRANCH   1   3
BRANCH   2   6
ATOM      6  C   UNL     1      17.005  -6.121 -13.477  1.00  0.00    -0.026 A 
ATOM      7  C   UNL     1      15.622  -5.961 -13.273  1.00  0.00     0.008 A 
ATOM      8  C   UNL     1      17.643  -5.306 -14.439  1.00  0.00     0.008 A 
ATOM      9  C   UNL     1      14.895  -5.018 -14.005  1.00  0.00     0.001 A 
ATOM     10  C   UNL     1      16.910  -4.364 -15.168  1.00  0.00     0.001 A 
ATOM     11  C   UNL     1      15.539  -4.219 -14.951  1.00  0.00     0.000 A 
ENDBRANCH   2   6
TORSDOF 2
ENDMDL
MODEL 5
REMARK VINA RESULT:    -4.953      2.845      3.399
REMARK INTER + INTRA:          -5.676
REMARK INTER:                  -5.537
REMARK INTRA:                  -0.139
REMARK UNBOUND:                -0.144
REMARK SMILES O=C([O-])C=Cc1ccccc1
REMARK SMILES IDX 4 1 5 2 2 3 1 4 3 5 6 6 7 7 11 8 8 9 10 10 9 11
REMARK H PARENT
REMARK Flexibility Score: inf
ROOT
ATOM      1  C   UNL     1      18.309  -3.991 -15.624  1.00  0.00     0.025 C 
ATOM      2  C   UNL     1      18.032  -5.089 -14.906  1.00  0.00     0.010 C 
ENDROOT
BRANCH   1   3
ATOM      3  C   UNL     1      19.510  -3.898 -16.470  1.00  0.00     0.064 C 
ATOM      4  O   UNL     1      19.641  -4.677 -17.450  1.00  0.00    -0.545 OA
ATOM      5  O   UNL     1      20.506  -2.965 -16.204  1.00  0.00    -0.545 OA
ENDBRANCH   1   3
BRANCH   2   6
ATOM      6  C   UNL     1      16.839  -5.254 -14.030  1.00  0.00    -0.026 A 
ATOM      7  C   UNL     1      15.597  -4.802 -14.510  1.00  0.00     0.008 A 
ATOM      8  C   UNL     1      16.894  -5.840 -12.746  1.00  0.00     0.008 A 
ATOM      9  C   UNL     1      14.441  -4.929 -13.733  1.00  0.00     0.001 A 
ATOM     10  C   UNL     1      15.735  -5.964 -11.974  1.00  0.00     0.001 A 
ATOM     11  C   UNL     1      14.511  -5.510 -12.466  1.00  0.00     0.000 A 
ENDBRANCH   2   6
TORSDOF 2
ENDMDL
MODEL 6
REMARK VINA RESULT:    -4.907      2.661      3.353
REMARK INTER + INTRA:          -5.624
REMARK INTER:                  -5.491
REMARK INTRA:                  -0.134
REMARK UNBOUND:                -0.144
REMARK SMILES O=C([O-])C=Cc1ccccc1
REMARK SMILES IDX 4 1 5 2 2 3 1 4 3 5 6 6 7 7 11 8 8 9 10 10 9 11
REMARK H PARENT
REMARK Flexibility Score: inf
ROOT
ATOM      1  C   UNL     1      17.952  -5.576 -15.988  1.00  0.00     0.025 C 
ATOM      2  C   UNL     1      17.193  -4.705 -15.307  1.00  0.00     0.010 C 
ENDROOT
BRANCH   1   3
ATOM      3  C   UNL     1      18.778  -5.158 -17.132  1.00  0.00     0.064 C 
ATOM      4  O   UNL     1      19.894  -4.614 -16.926  1.00  0.00    -0.545 OA
ATOM      5  O   UNL     1      18.346  -5.352 -18.439  1.00  0.00    -0.545 OA
ENDBRANCH   1   3
BRANCH   2   6
ATOM      6  C   UNL     1      16.333  -5.054 -14.143  1.00  0.00    -0.026 A 
ATOM      7  C   UNL     1      16.940  -5.662 -13.029  1.00  0.00     0.008 A 
ATOM      8  C   UNL     1      14.943  -4.807 -14.103  1.00  0.00     0.008 A 
ATOM      9  C   UNL     1      16.185  -6.013 -11.906  1.00  0.00     0.001 A 
ATOM     10  C   UNL     1      14.193  -5.161 -12.977  1.00  0.00     0.001 A 
ATOM     11  C   UNL     1      14.812  -5.762 -11.880  1.00  0.00     0.000 A 
ENDBRANCH   2   6
TORSDOF 2
ENDMDL
MODEL 7
REMARK VINA RESULT:    -4.895      3.302      3.765
REMARK INTER + INTRA:          -5.612
REMARK INTER:                  -5.468
REMARK INTRA:                  -0.144
REMARK UNBOUND:                -0.144
REMARK SMILES O=C([O-])C=Cc1ccccc1
REMARK SMILES IDX 4 1 5 2 2 3 1 4 3 5 6 6 7 7 11 8 8 9 10 10 9 11
REMARK H PARENT
REMARK Flexibility Score: inf
ROOT
ATOM      1  C   UNL     1      19.495  -4.549 -16.022  1.00  0.00     0.025 C 
ATOM      2  C   UNL     1      18.419  -3.969 -15.471  1.00  0.00     0.010 C 
ENDROOT
BRANCH   1   3
ATOM      3  C   UNL     1      20.602  -3.758 -16.586  1.00  0.00     0.064 C 
ATOM      4  O   UNL     1      21.175  -4.150 -17.634  1.00  0.00    -0.545 OA
ATOM      5  O   UNL     1      21.026  -2.582 -15.977  1.00  0.00    -0.545 OA
ENDBRANCH   1   3
BRANCH   2   6
ATOM      6  C   UNL     1      17.264  -4.702 -14.884  1.00  0.00    -0.026 A 
ATOM      7  C   UNL     1      17.466  -6.030 -14.465  1.00  0.00     0.008 A 
ATOM      8  C   UNL     1      15.981  -4.132 -14.727  1.00  0.00     0.008 A 
ATOM      9  C   UNL     1      16.420  -6.770 -13.906  1.00  0.00     0.001 A 
ATOM     10  C   UNL     1      14.939  -4.878 -14.167  1.00  0.00     0.001 A 
ATOM     11  C   UNL     1      15.158  -6.194 -13.757  1.00  0.00     0.000 A 
ENDBRANCH   2   6
TORSDOF 2
ENDMDL
MODEL 8
REMARK VINA RESULT:    -4.890      3.460      4.709
REMARK INTER + INTRA:          -5.606
REMARK INTER:                  -5.477
REMARK INTRA:                  -0.129
REMARK UNBOUND:                -0.144
REMARK SMILES O=C([O-])C=Cc1ccccc1
REMARK SMILES IDX 4 1 5 2 2 3 1 4 3 5 6 6 7 7 11 8 8 9 10 10 9 11
REMARK H PARENT
REMARK Flexibility Score: inf
ROOT
ATOM      1  C   UNL     1      15.774  -6.078 -13.799  1.00  0.00     0.025 C 
ATOM      2  C   UNL     1      17.077  -5.834 -13.999  1.00  0.00     0.010 C 
ENDROOT
BRANCH   1   3
ATOM      3  C   UNL     1      15.092  -5.688 -12.554  1.00  0.00     0.064 C 
ATOM      4  O   UNL     1      15.580  -6.028 -11.446  1.00  0.00    -0.545 OA
ATOM      5  O   UNL     1      13.914  -4.949 -12.582  1.00  0.00    -0.545 OA
ENDBRANCH   1   3
BRANCH   2   6
ATOM      6  C   UNL     1      17.833  -6.199 -15.228  1.00  0.00    -0.026 A 
ATOM      7  C   UNL     1      18.390  -7.488 -15.305  1.00  0.00     0.008 A 
ATOM      8  C   UNL     1      18.016  -5.318 -16.318  1.00  0.00     0.008 A 
ATOM      9  C   UNL     1      19.111  -7.889 -16.434  1.00  0.00     0.001 A 
ATOM     10  C   UNL     1      18.737  -5.725 -17.444  1.00  0.00     0.001 A 
ATOM     11  C   UNL     1      19.284  -7.008 -17.503  1.00  0.00     0.000 A 
ENDBRANCH   2   6
TORSDOF 2
ENDMDL
MODEL 9
REMARK VINA RESULT:    -4.821      3.473      4.457
REMARK INTER + INTRA:          -5.529
REMARK INTER:                  -5.399
REMARK INTRA:                  -0.130
REMARK UNBOUND:                -0.144
REMARK SMILES O=C([O-])C=Cc1ccccc1
REMARK SMILES IDX 4 1 5 2 2 3 1 4 3 5 6 6 7 7 11 8 8 9 10 10 9 11
REMARK H PARENT
REMARK Flexibility Score: inf
ROOT
ATOM      1  C   UNL     1      16.323  -4.871 -13.361  1.00  0.00     0.025 C 
ATOM      2  C   UNL     1      16.752  -4.990 -14.626  1.00  0.00     0.010 C 
ENDROOT
BRANCH   1   3
ATOM      3  C   UNL     1      14.959  -5.258 -12.964  1.00  0.00     0.064 C 
ATOM      4  O   UNL     1      13.994  -5.007 -13.731  1.00  0.00    -0.545 OA
ATOM      5  O   UNL     1      14.718  -5.896 -11.752  1.00  0.00    -0.545 OA
ENDBRANCH   1   3
BRANCH   2   6
ATOM      6  C   UNL     1      18.113  -4.619 -15.100  1.00  0.00    -0.026 A 
ATOM      7  C   UNL     1      19.145  -5.565 -14.958  1.00  0.00     0.008 A 
ATOM      8  C   UNL     1      18.419  -3.370 -15.684  1.00  0.00     0.008 A 
ATOM      9  C   UNL     1      20.445  -5.275 -15.385  1.00  0.00     0.001 A 
ATOM     10  C   UNL     1      19.721  -3.086 -16.109  1.00  0.00     0.001 A 
ATOM     11  C   UNL     1      20.732  -4.036 -15.960  1.00  0.00     0.000 A 
ENDBRANCH   2   6
TORSDOF 2
ENDMDL
