MODEL 1
REMARK VINA RESULT:    -5.116      0.000      0.000
REMARK INTER + INTRA:          -5.543
REMARK INTER:                  -5.415
REMARK INTRA:                  -0.128
REMARK UNBOUND:                -0.128
REMARK SMILES C=C(C)[C@H]1CC=C(C)CC1
REMARK SMILES IDX 8 1 7 2 6 3 5 4 4 5 10 6 9 7 2 8 1 9 3 10
REMARK H PARENT
REMARK Flexibility Score: inf
ROOT
ATOM      1  C   UNL     1     253.248 -25.252  55.373  1.00  0.00     0.039 C 
ATOM      2  C   UNL     1     253.368 -25.193  53.875  1.00  0.00    -0.077 C 
ATOM      3  C   UNL     1     252.678 -24.249  53.199  1.00  0.00    -0.027 C 
ATOM      4  C   UNL     1     252.689 -24.141  51.694  1.00  0.00     0.035 C 
ATOM      5  C   UNL     1     253.933 -24.804  51.073  1.00  0.00     0.018 C 
ATOM      6  C   UNL     1     254.130 -26.205  51.670  1.00  0.00     0.013 C 
ATOM      7  C   UNL     1     254.360 -26.109  53.183  1.00  0.00     0.031 C 
ENDROOT
BRANCH   5   8
ATOM      8  C   UNL     1     253.836 -24.849  49.555  1.00  0.00    -0.077 C 
ATOM      9  C   UNL     1     252.885 -25.589  48.962  1.00  0.00     0.008 C 
ATOM     10  C   UNL     1     254.801 -24.084  48.682  1.00  0.00     0.039 C 
ENDBRANCH   5   8
TORSDOF 1
ENDMDL
MODEL 2
REMARK VINA RESULT:    -5.108      1.190      4.442
REMARK INTER + INTRA:          -5.535
REMARK INTER:                  -5.407
REMARK INTRA:                  -0.128
REMARK UNBOUND:                -0.128
REMARK SMILES C=C(C)[C@H]1CC=C(C)CC1
REMARK SMILES IDX 8 1 7 2 6 3 5 4 4 5 10 6 9 7 2 8 1 9 3 10
REMARK H PARENT
REMARK Flexibility Score: inf
ROOT
ATOM      1  C   UNL     1     253.846 -24.252  47.804  1.00  0.00     0.039 C 
ATOM      2  C   UNL     1     253.854 -24.661  49.250  1.00  0.00    -0.077 C 
ATOM      3  C   UNL     1     253.174 -25.767  49.622  1.00  0.00    -0.027 C 
ATOM      4  C   UNL     1     253.076 -26.230  51.056  1.00  0.00     0.035 C 
ATOM      5  C   UNL     1     254.224 -25.682  51.923  1.00  0.00     0.018 C 
ATOM      6  C   UNL     1     254.379 -24.172  51.691  1.00  0.00     0.013 C 
ATOM      7  C   UNL     1     254.730 -23.895  50.224  1.00  0.00     0.031 C 
ENDROOT
BRANCH   5   8
ATOM      8  C   UNL     1     254.008 -26.003  53.395  1.00  0.00    -0.077 C 
ATOM      9  C   UNL     1     253.600 -27.228  53.765  1.00  0.00     0.008 C 
ATOM     10  C   UNL     1     254.232 -24.965  54.468  1.00  0.00     0.039 C 
ENDBRANCH   5   8
TORSDOF 1
ENDMDL
MODEL 3
REMARK VINA RESULT:    -5.074      1.668      4.371
REMARK INTER + INTRA:          -5.498
REMARK INTER:                  -5.367
REMARK INTRA:                  -0.132
REMARK UNBOUND:                -0.128
REMARK SMILES C=C(C)[C@H]1CC=C(C)CC1
REMARK SMILES IDX 8 1 7 2 6 3 5 4 4 5 10 6 9 7 2 8 1 9 3 10
REMARK H PARENT
REMARK Flexibility Score: inf
ROOT
ATOM      1  C   UNL     1     253.045 -21.252  49.346  1.00  0.00     0.039 C 
ATOM      2  C   UNL     1     253.282 -22.377  50.314  1.00  0.00    -0.077 C 
ATOM      3  C   UNL     1     254.248 -23.281  50.044  1.00  0.00    -0.027 C 
ATOM      4  C   UNL     1     254.527 -24.475  50.925  1.00  0.00     0.035 C 
ATOM      5  C   UNL     1     254.025 -24.265  52.365  1.00  0.00     0.018 C 
ATOM      6  C   UNL     1     252.582 -23.741  52.343  1.00  0.00     0.013 C 
ATOM      7  C   UNL     1     252.520 -22.388  51.626  1.00  0.00     0.031 C 
ENDROOT
BRANCH   5   8
ATOM      8  C   UNL     1     254.146 -25.541  53.186  1.00  0.00    -0.077 C 
ATOM      9  C   UNL     1     254.596 -26.670  52.614  1.00  0.00     0.008 C 
ATOM     10  C   UNL     1     253.758 -25.579  54.644  1.00  0.00     0.039 C 
ENDBRANCH   5   8
TORSDOF 1
ENDMDL
MODEL 4
REMARK VINA RESULT:    -5.060      8.632     10.498
REMARK INTER + INTRA:          -5.484
REMARK INTER:                  -5.352
REMARK INTRA:                  -0.132
REMARK UNBOUND:                -0.128
REMARK SMILES C=C(C)[C@H]1CC=C(C)CC1
REMARK SMILES IDX 8 1 7 2 6 3 5 4 4 5 10 6 9 7 2 8 1 9 3 10
REMARK H PARENT
REMARK Flexibility Score: inf
ROOT
ATOM      1  C   UNL     1     261.882 -26.697  55.107  1.00  0.00     0.039 C 
ATOM      2  C   UNL     1     261.157 -27.128  56.351  1.00  0.00    -0.077 C 
ATOM      3  C   UNL     1     260.030 -27.863  56.232  1.00  0.00    -0.027 C 
ATOM      4  C   UNL     1     259.202 -28.297  57.417  1.00  0.00     0.035 C 
ATOM      5  C   UNL     1     260.018 -28.313  58.722  1.00  0.00     0.018 C 
ATOM      6  C   UNL     1     260.798 -26.998  58.866  1.00  0.00     0.013 C 
ATOM      7  C   UNL     1     261.783 -26.836  57.702  1.00  0.00     0.031 C 
ENDROOT
BRANCH   5   8
ATOM      8  C   UNL     1     259.128 -28.572  59.930  1.00  0.00    -0.077 C 
ATOM      9  C   UNL     1     257.794 -28.628  59.784  1.00  0.00     0.008 C 
ATOM     10  C   UNL     1     259.709 -28.759  61.310  1.00  0.00     0.039 C 
ENDBRANCH   5   8
TORSDOF 1
ENDMDL
MODEL 5
REMARK VINA RESULT:    -5.055      8.113      9.804
REMARK INTER + INTRA:          -5.478
REMARK INTER:                  -5.351
REMARK INTRA:                  -0.127
REMARK UNBOUND:                -0.128
REMARK SMILES C=C(C)[C@H]1CC=C(C)CC1
REMARK SMILES IDX 8 1 7 2 6 3 5 4 4 5 10 6 9 7 2 8 1 9 3 10
REMARK H PARENT
REMARK Flexibility Score: inf
ROOT
ATOM      1  C   UNL     1     259.518 -28.359  62.125  1.00  0.00     0.039 C 
ATOM      2  C   UNL     1     259.611 -28.301  60.625  1.00  0.00    -0.077 C 
ATOM      3  C   UNL     1     260.798 -28.004  60.053  1.00  0.00    -0.027 C 
ATOM      4  C   UNL     1     260.981 -27.869  58.561  1.00  0.00     0.035 C 
ATOM      5  C   UNL     1     259.891 -28.617  57.772  1.00  0.00     0.018 C 
ATOM      6  C   UNL     1     258.506 -28.266  58.335  1.00  0.00     0.013 C 
ATOM      7  C   UNL     1     258.404 -28.705  59.800  1.00  0.00     0.031 C 
ENDROOT
BRANCH   5   8
ATOM      8  C   UNL     1     259.983 -28.318  56.282  1.00  0.00    -0.077 C 
ATOM      9  C   UNL     1     259.217 -28.994  55.411  1.00  0.00     0.008 C 
ATOM     10  C   UNL     1     260.933 -27.274  55.746  1.00  0.00     0.039 C 
ENDBRANCH   5   8
TORSDOF 1
ENDMDL
MODEL 6
REMARK VINA RESULT:    -5.033      8.166      9.711
REMARK INTER + INTRA:          -5.455
REMARK INTER:                  -5.323
REMARK INTRA:                  -0.132
REMARK UNBOUND:                -0.128
REMARK SMILES C=C(C)[C@H]1CC=C(C)CC1
REMARK SMILES IDX 8 1 7 2 6 3 5 4 4 5 10 6 9 7 2 8 1 9 3 10
REMARK H PARENT
REMARK Flexibility Score: inf
ROOT
ATOM      1  C   UNL     1     259.253 -28.234  62.125  1.00  0.00     0.039 C 
ATOM      2  C   UNL     1     259.489 -28.172  60.642  1.00  0.00    -0.077 C 
ATOM      3  C   UNL     1     258.520 -28.601  59.805  1.00  0.00    -0.027 C 
ATOM      4  C   UNL     1     258.681 -28.630  58.305  1.00  0.00     0.035 C 
ATOM      5  C   UNL     1     259.767 -27.653  57.818  1.00  0.00     0.018 C 
ATOM      6  C   UNL     1     261.041 -27.828  58.656  1.00  0.00     0.013 C 
ATOM      7  C   UNL     1     260.755 -27.511  60.128  1.00  0.00     0.031 C 
ENDROOT
BRANCH   5   8
ATOM      8  C   UNL     1     260.045 -27.829  56.331  1.00  0.00    -0.077 C 
ATOM      9  C   UNL     1     259.322 -28.700  55.610  1.00  0.00     0.008 C 
ATOM     10  C   UNL     1     261.134 -27.048  55.637  1.00  0.00     0.039 C 
ENDBRANCH   5   8
TORSDOF 1
ENDMDL
MODEL 7
REMARK VINA RESULT:    -5.022      0.390      1.636
REMARK INTER + INTRA:          -5.443
REMARK INTER:                  -5.323
REMARK INTRA:                  -0.121
REMARK UNBOUND:                -0.128
REMARK SMILES C=C(C)[C@H]1CC=C(C)CC1
REMARK SMILES IDX 8 1 7 2 6 3 5 4 4 5 10 6 9 7 2 8 1 9 3 10
REMARK H PARENT
REMARK Flexibility Score: inf
ROOT
ATOM      1  C   UNL     1     253.248 -25.276  55.314  1.00  0.00     0.039 C 
ATOM      2  C   UNL     1     253.381 -25.133  53.824  1.00  0.00    -0.077 C 
ATOM      3  C   UNL     1     254.176 -25.993  53.151  1.00  0.00    -0.027 C 
ATOM      4  C   UNL     1     254.417 -25.899  51.664  1.00  0.00     0.035 C 
ATOM      5  C   UNL     1     253.294 -25.133  50.940  1.00  0.00     0.018 C 
ATOM      6  C   UNL     1     252.997 -23.820  51.679  1.00  0.00     0.013 C 
ATOM      7  C   UNL     1     252.518 -24.112  53.106  1.00  0.00     0.031 C 
ENDROOT
BRANCH   5   8
ATOM      8  C   UNL     1     253.643 -24.888  49.479  1.00  0.00    -0.077 C 
ATOM      9  C   UNL     1     252.827 -25.327  48.508  1.00  0.00     0.008 C 
ATOM     10  C   UNL     1     254.907 -24.163  49.083  1.00  0.00     0.039 C 
ENDBRANCH   5   8
TORSDOF 1
ENDMDL
MODEL 8
REMARK VINA RESULT:    -4.964      8.481     10.148
REMARK INTER + INTRA:          -5.381
REMARK INTER:                  -5.255
REMARK INTRA:                  -0.126
REMARK UNBOUND:                -0.128
REMARK SMILES C=C(C)[C@H]1CC=C(C)CC1
REMARK SMILES IDX 8 1 7 2 6 3 5 4 4 5 10 6 9 7 2 8 1 9 3 10
REMARK H PARENT
REMARK Flexibility Score: inf
ROOT
ATOM      1  C   UNL     1     261.630 -26.985  54.325  1.00  0.00     0.039 C 
ATOM      2  C   UNL     1     261.030 -27.341  55.656  1.00  0.00    -0.077 C 
ATOM      3  C   UNL     1     261.385 -26.627  56.747  1.00  0.00    -0.027 C 
ATOM      4  C   UNL     1     260.880 -26.940  58.134  1.00  0.00     0.035 C 
ATOM      5  C   UNL     1     259.562 -27.735  58.108  1.00  0.00     0.018 C 
ATOM      6  C   UNL     1     259.683 -28.915  57.132  1.00  0.00     0.013 C 
ATOM      7  C   UNL     1     259.947 -28.402  55.712  1.00  0.00     0.031 C 
ENDROOT
BRANCH   5   8
ATOM      8  C   UNL     1     259.167 -28.200  59.503  1.00  0.00    -0.077 C 
ATOM      9  C   UNL     1     257.919 -28.634  59.740  1.00  0.00     0.008 C 
ATOM     10  C   UNL     1     260.150 -28.175  60.648  1.00  0.00     0.039 C 
ENDBRANCH   5   8
TORSDOF 1
ENDMDL
MODEL 9
REMARK VINA RESULT:    -4.874     19.890     20.285
REMARK INTER + INTRA:          -5.286
REMARK INTER:                  -5.157
REMARK INTRA:                  -0.130
REMARK UNBOUND:                -0.128
REMARK SMILES C=C(C)[C@H]1CC=C(C)CC1
REMARK SMILES IDX 8 1 7 2 6 3 5 4 4 5 10 6 9 7 2 8 1 9 3 10
REMARK H PARENT
REMARK Flexibility Score: inf
ROOT
ATOM      1  C   UNL     1     269.037 -35.290  61.350  1.00  0.00     0.039 C 
ATOM      2  C   UNL     1     269.064 -35.741  59.917  1.00  0.00    -0.077 C 
ATOM      3  C   UNL     1     269.960 -35.187  59.072  1.00  0.00    -0.027 C 
ATOM      4  C   UNL     1     270.031 -35.533  57.604  1.00  0.00     0.035 C 
ATOM      5  C   UNL     1     269.407 -36.907  57.301  1.00  0.00     0.018 C 
ATOM      6  C   UNL     1     268.032 -37.017  57.973  1.00  0.00     0.013 C 
ATOM      7  C   UNL     1     268.175 -36.896  59.495  1.00  0.00     0.031 C 
ENDROOT
BRANCH   5   8
ATOM      8  C   UNL     1     269.320 -37.157  55.801  1.00  0.00    -0.077 C 
ATOM      9  C   UNL     1     268.525 -38.128  55.325  1.00  0.00     0.008 C 
ATOM     10  C   UNL     1     270.122 -36.338  54.819  1.00  0.00     0.039 C 
ENDBRANCH   5   8
TORSDOF 1
ENDMDL
