MODEL 1
REMARK VINA RESULT:    72.599      0.000      0.000
REMARK INTER + INTRA:         119.480
REMARK INTER:                 119.284
REMARK INTRA:                   0.196
REMARK UNBOUND:                 0.196
REMARK SMILES COc1ccc([C@@H]2CC(=O)c3c(O)cc(O[C@@H]4O[C@@H](CO[C@@H]5O[C@@H](C)[C@H](O)[C@@H](O)[C@H]5O)[C@@H](O)[C@@H](O)[C@H]4O)cc3O2)cc1O
REMARK SMILES IDX 19 1 32 2 34 3 36 4 17 5 18 6 20 7 21 8 22 9 25 10 24 11
REMARK SMILES IDX 26 12 23 13 28 14 30 15 27 16 29 18 31 20 33 22 35 24 16 26
REMARK SMILES IDX 15 27 14 28 38 29 12 30 39 31 11 32 40 33 9 34 7 35 10 36
REMARK SMILES IDX 8 37 13 38 6 40 41 41 5 42 42 43 4 44 3 45 43 46 2 48 1 49
REMARK SMILES IDX 37 50
REMARK H PARENT 27 17 29 19 31 21 33 23 35 25 13 39 43 47 37 51
REMARK Flexibility Score: inf
ROOT
ATOM      1  C   UNL     1       9.721  10.009  34.076  1.00  0.00     0.180 C 
ATOM      2  C   UNL     1       9.199   8.588  33.687  1.00  0.00     0.177 C 
ATOM      3  C   UNL     1       7.992   8.640  32.730  1.00  0.00     0.180 C 
ATOM      4  C   UNL     1       8.269   9.625  31.576  1.00  0.00     0.214 C 
ATOM      5  C   UNL     1       8.790  10.979  32.104  1.00  0.00     0.339 C 
ATOM      6  O   UNL     1       9.942  10.818  32.924  1.00  0.00    -0.332 OA
ENDROOT
BRANCH   1   7
ATOM      7  C   UNL     1       8.985  10.767  35.209  1.00  0.00     0.198 C 
BRANCH   7   8
ATOM      8  O   UNL     1       9.844  11.739  35.773  1.00  0.00    -0.347 OA
BRANCH   8   9
ATOM      9  C   UNL     1       9.786  11.770  37.186  1.00  0.00     0.281 C 
ATOM     10  C   UNL     1       8.011  11.236  39.619  1.00  0.00     0.041 C 
ATOM     11  C   UNL     1       8.347  12.556  38.910  1.00  0.00     0.150 C 
ATOM     12  C   UNL     1       9.476  13.380  39.577  1.00  0.00     0.174 C 
ATOM     13  O   UNL     1       8.558  12.396  37.521  1.00  0.00    -0.344 OA
ATOM     14  C   UNL     1      10.872  12.842  39.219  1.00  0.00     0.179 C 
ATOM     15  C   UNL     1      10.987  12.597  37.703  1.00  0.00     0.202 C 
BRANCH  12  16
ATOM     16  O   UNL     1       9.384  14.746  39.238  1.00  0.00    -0.388 OA
ATOM     17  H   UNL     1       8.441  15.048  39.365  1.00  0.00     0.211 HD
ENDBRANCH  12  16
BRANCH  14  18
ATOM     18  O   UNL     1      11.135  11.652  39.924  1.00  0.00    -0.387 OA
ATOM     19  H   UNL     1      10.353  11.059  39.765  1.00  0.00     0.211 HD
ENDBRANCH  14  18
BRANCH  15  20
ATOM     20  O   UNL     1      12.189  11.938  37.413  1.00  0.00    -0.385 OA
ATOM     21  H   UNL     1      12.278  11.906  36.436  1.00  0.00     0.211 HD
ENDBRANCH  15  20
ENDBRANCH   8   9
ENDBRANCH   7   8
ENDBRANCH   1   7
BRANCH   2  22
ATOM     22  O   UNL     1       8.980   7.747  34.789  1.00  0.00    -0.387 OA
ATOM     23  H   UNL     1       9.845   7.318  35.045  1.00  0.00     0.211 HD
ENDBRANCH   2  22
BRANCH   3  24
ATOM     24  O   UNL     1       6.779   8.903  33.401  1.00  0.00    -0.387 OA
ATOM     25  H   UNL     1       6.269   8.058  33.509  1.00  0.00     0.211 HD
ENDBRANCH   3  24
BRANCH   5  26
ATOM     26  O   UNL     1       9.181  11.776  30.978  1.00  0.00    -0.462 OA
BRANCH  26  27
ATOM     27  C   UNL     1      10.496  11.848  30.509  1.00  0.00     0.130 A 
ATOM     28  C   UNL     1      11.095  10.750  29.890  1.00  0.00     0.093 A 
ATOM     29  C   UNL     1      11.210  13.048  30.649  1.00  0.00     0.094 A 
ATOM     30  C   UNL     1      12.447  10.796  29.511  1.00  0.00     0.133 A 
ATOM     31  C   UNL     1      12.500  13.133  30.117  1.00  0.00     0.138 A 
ATOM     32  C   UNL     1      13.164  11.991  29.670  1.00  0.00     0.102 A 
ATOM     33  O   UNL     1      13.077  14.386  29.868  1.00  0.00    -0.484 OA
ATOM     34  C   UNL     1      14.562  12.163  29.197  1.00  0.00     0.174 C 
ATOM     35  C   UNL     1      13.900  14.540  28.708  1.00  0.00     0.211 C 
ATOM     36  O   UNL     1      15.346  11.191  29.145  1.00  0.00    -0.294 OA
ATOM     37  C   UNL     1      15.068  13.535  28.828  1.00  0.00     0.131 C 
BRANCH  30  38
ATOM     38  O   UNL     1      13.043   9.669  28.950  1.00  0.00    -0.507 OA
ATOM     39  H   UNL     1      12.682   8.739  29.099  1.00  0.00     0.293 HD
ENDBRANCH  30  38
BRANCH  35  40
ATOM     40  C   UNL     1      12.998  14.357  27.484  1.00  0.00    -0.003 A 
ATOM     41  C   UNL     1      13.234  15.182  26.368  1.00  0.00     0.057 A 
ATOM     42  C   UNL     1      11.830  13.581  27.497  1.00  0.00     0.011 A 
ATOM     43  C   UNL     1      12.259  15.339  25.367  1.00  0.00     0.158 A 
ATOM     44  C   UNL     1      10.868  13.709  26.492  1.00  0.00     0.051 A 
ATOM     45  C   UNL     1      11.066  14.624  25.436  1.00  0.00     0.160 A 
BRANCH  43  46
ATOM     46  O   UNL     1      12.456  16.232  24.314  1.00  0.00    -0.504 OA
ATOM     47  H   UNL     1      12.351  17.229  24.422  1.00  0.00     0.293 HD
ENDBRANCH  43  46
BRANCH  45  48
ATOM     48  O   UNL     1      10.078  14.882  24.468  1.00  0.00    -0.493 OA
ATOM     49  C   UNL     1       8.988  14.007  24.191  1.00  0.00     0.278 C 
ENDBRANCH  45  48
ENDBRANCH  35  40
ENDBRANCH  26  27
ENDBRANCH   5  26
BRANCH   4  50
ATOM     50  O   UNL     1       7.100   9.802  30.818  1.00  0.00    -0.384 OA
ATOM     51  H   UNL     1       6.385   9.282  31.274  1.00  0.00     0.211 HD
ENDBRANCH   4  50
TORSDOF 15
ENDMDL
MODEL 2
REMARK VINA RESULT:    75.228      3.503      6.695
REMARK INTER + INTRA:         123.801
REMARK INTER:                 123.445
REMARK INTRA:                   0.356
REMARK UNBOUND:                 0.196
REMARK SMILES COc1ccc([C@@H]2CC(=O)c3c(O)cc(O[C@@H]4O[C@@H](CO[C@@H]5O[C@@H](C)[C@H](O)[C@@H](O)[C@H]5O)[C@@H](O)[C@@H](O)[C@H]4O)cc3O2)cc1O
REMARK SMILES IDX 19 1 32 2 34 3 36 4 17 5 18 6 20 7 21 8 22 9 25 10 24 11
REMARK SMILES IDX 26 12 23 13 28 14 30 15 27 16 29 18 31 20 33 22 35 24 16 26
REMARK SMILES IDX 15 27 14 28 38 29 12 30 39 31 11 32 40 33 9 34 7 35 10 36
REMARK SMILES IDX 8 37 13 38 6 40 41 41 5 42 42 43 4 44 3 45 43 46 2 48 1 49
REMARK SMILES IDX 37 50
REMARK H PARENT 27 17 29 19 31 21 33 23 35 25 13 39 43 47 37 51
REMARK Flexibility Score: inf
ROOT
ATOM      1  C   UNL     1       9.610   7.953  30.303  1.00  0.00     0.180 C 
ATOM      2  C   UNL     1       8.154   7.799  30.850  1.00  0.00     0.177 C 
ATOM      3  C   UNL     1       7.966   8.455  32.232  1.00  0.00     0.180 C 
ATOM      4  C   UNL     1       8.570   9.874  32.235  1.00  0.00     0.214 C 
ATOM      5  C   UNL     1      10.001   9.878  31.658  1.00  0.00     0.339 C 
ATOM      6  O   UNL     1      10.047   9.308  30.355  1.00  0.00    -0.332 OA
ENDROOT
BRANCH   1   7
ATOM      7  C   UNL     1      10.683   6.956  30.809  1.00  0.00     0.198 C 
BRANCH   7   8
ATOM      8  O   UNL     1      11.601   6.673  29.771  1.00  0.00    -0.347 OA
BRANCH   8   9
ATOM      9  C   UNL     1      11.844   5.288  29.615  1.00  0.00     0.281 C 
ATOM     10  C   UNL     1      11.498   2.537  30.908  1.00  0.00     0.041 C 
ATOM     11  C   UNL     1      12.721   3.464  30.866  1.00  0.00     0.150 C 
ATOM     12  C   UNL     1      13.760   3.118  29.772  1.00  0.00     0.174 C 
ATOM     13  O   UNL     1      12.373   4.835  30.851  1.00  0.00    -0.344 OA
ATOM     14  C   UNL     1      13.333   3.634  28.387  1.00  0.00     0.179 C 
ATOM     15  C   UNL     1      12.870   5.100  28.473  1.00  0.00     0.202 C 
BRANCH  12  16
ATOM     16  O   UNL     1      15.038   3.616  30.099  1.00  0.00    -0.388 OA
ATOM     17  H   UNL     1      15.380   3.129  30.900  1.00  0.00     0.211 HD
ENDBRANCH  12  16
BRANCH  14  18
ATOM     18  O   UNL     1      12.303   2.831  27.859  1.00  0.00    -0.387 OA
ATOM     19  H   UNL     1      12.111   3.189  26.952  1.00  0.00     0.211 HD
ENDBRANCH  14  18
BRANCH  15  20
ATOM     20  O   UNL     1      12.313   5.500  27.251  1.00  0.00    -0.385 OA
ATOM     21  H   UNL     1      12.496   4.789  26.598  1.00  0.00     0.211 HD
ENDBRANCH  15  20
ENDBRANCH   8   9
ENDBRANCH   7   8
ENDBRANCH   1   7
BRANCH   2  22
ATOM     22  O   UNL     1       7.671   6.483  30.805  1.00  0.00    -0.387 OA
ATOM     23  H   UNL     1       6.769   6.454  31.234  1.00  0.00     0.211 HD
ENDBRANCH   2  22
BRANCH   3  24
ATOM     24  O   UNL     1       8.447   7.649  33.284  1.00  0.00    -0.387 OA
ATOM     25  H   UNL     1       7.929   6.802  33.317  1.00  0.00     0.211 HD
ENDBRANCH   3  24
BRANCH   5  26
ATOM     26  O   UNL     1      10.430  11.241  31.537  1.00  0.00    -0.462 OA
BRANCH  26  27
ATOM     27  C   UNL     1      11.578  11.625  30.838  1.00  0.00     0.130 A 
ATOM     28  C   UNL     1      12.340  10.685  30.143  1.00  0.00     0.093 A 
ATOM     29  C   UNL     1      11.952  12.978  30.823  1.00  0.00     0.094 A 
ATOM     30  C   UNL     1      13.545  11.060  29.527  1.00  0.00     0.133 A 
ATOM     31  C   UNL     1      13.062  13.364  30.066  1.00  0.00     0.138 A 
ATOM     32  C   UNL     1      13.927  12.410  29.531  1.00  0.00     0.102 A 
ATOM     33  O   UNL     1      13.227  14.704  29.693  1.00  0.00    -0.484 OA
ATOM     34  C   UNL     1      15.126  12.912  28.811  1.00  0.00     0.174 C 
ATOM     35  C   UNL     1      13.771  14.991  28.401  1.00  0.00     0.211 C 
ATOM     36  O   UNL     1      16.124  12.180  28.638  1.00  0.00    -0.294 OA
ATOM     37  C   UNL     1      15.171  14.340  28.329  1.00  0.00     0.131 C 
BRANCH  30  38
ATOM     38  O   UNL     1      14.322  10.095  28.890  1.00  0.00    -0.507 OA
ATOM     39  H   UNL     1      14.614  10.190  27.929  1.00  0.00     0.293 HD
ENDBRANCH  30  38
BRANCH  35  40
ATOM     40  C   UNL     1      12.761  14.494  27.363  1.00  0.00    -0.003 A 
ATOM     41  C   UNL     1      12.704  15.171  26.129  1.00  0.00     0.057 A 
ATOM     42  C   UNL     1      11.755  13.561  27.652  1.00  0.00     0.011 A 
ATOM     43  C   UNL     1      11.593  15.028  25.279  1.00  0.00     0.158 A 
ATOM     44  C   UNL     1      10.662  13.392  26.799  1.00  0.00     0.051 A 
ATOM     45  C   UNL     1      10.559  14.159  25.619  1.00  0.00     0.160 A 
BRANCH  43  46
ATOM     46  O   UNL     1      11.494  15.774  24.104  1.00  0.00    -0.504 OA
ATOM     47  H   UNL     1      11.101  16.702  24.084  1.00  0.00     0.293 HD
ENDBRANCH  43  46
BRANCH  45  48
ATOM     48  O   UNL     1       9.424  14.118  24.790  1.00  0.00    -0.493 OA
ATOM     49  C   UNL     1       8.543  13.001  24.702  1.00  0.00     0.278 C 
ENDBRANCH  45  48
ENDBRANCH  35  40
ENDBRANCH  26  27
ENDBRANCH   5  26
BRANCH   4  50
ATOM     50  O   UNL     1       8.557  10.388  33.542  1.00  0.00    -0.384 OA
ATOM     51  H   UNL     1       7.926   9.823  34.062  1.00  0.00     0.211 HD
ENDBRANCH   4  50
TORSDOF 15
ENDMDL
