MODEL 1
REMARK VINA RESULT:    -2.556      0.000      0.000
REMARK INTER + INTRA:          -3.685
REMARK INTER:                  -3.602
REMARK INTRA:                  -0.083
REMARK UNBOUND:                -0.083
REMARK SMILES CC1=CCC(=C(C)C)C(=O)CC(C)=CCC1
REMARK SMILES IDX 12 1 14 2 13 3 15 4 16 5 2 6 1 7 3 8 11 10 9 11 10 12 5 13
REMARK SMILES IDX 6 14 7 15 8 16 4 17
REMARK H PARENT
REMARK Flexibility Score: 60.00
ROOT
ATOM      1  C   UNL     1      66.697   2.039  33.365  1.00  0.00    -0.070 C 
ATOM      2  C   UNL     1      66.098   1.180  34.221  1.00  0.00    -0.027 C 
ATOM      3  C   UNL     1      66.137   3.434  33.252  1.00  0.00     0.039 C 
ENDROOT
BRANCH   2   4
ATOM      4  C   UNL     1      66.431  -0.285  34.350  1.00  0.00     0.032 C 
BRANCH   4   5
ATOM      5  C   UNL     1      67.289  -0.516  35.598  1.00  0.00     0.034 C 
BRANCH   5   6
ATOM      6  C   UNL     1      68.354  -1.572  35.384  1.00  0.00    -0.077 C 
ATOM      7  C   UNL     1      67.969  -3.024  35.518  1.00  0.00     0.039 C 
ATOM      8  C   UNL     1      69.625  -1.290  35.004  1.00  0.00    -0.023 CG0
ATOM      9  G   UNL     1      70.262   0.081  34.861  1.00  0.00     0.000 G0
ENDBRANCH   5   6
ENDBRANCH   4   5
ENDBRANCH   2   4
BRANCH   1  10
ATOM     10  C   UNL     1      67.910   1.676  32.532  1.00  0.00     0.111 C 
BRANCH  10  11
ATOM     11  C   UNL     1      69.195   1.839  33.306  1.00  0.00     0.163 C 
ATOM     12  O   UNL     1      69.412   2.967  33.826  1.00  0.00    -0.294 OA
BRANCH  11  13
ATOM     13  C   UNL     1      70.196   0.739  33.503  1.00  0.00    -0.002 C 
ATOM     14  C   UNL     1      71.127   0.463  32.538  1.00  0.00    -0.069 C 
ATOM     15  C   UNL     1      71.015   1.043  31.145  1.00  0.00     0.039 C 
ATOM     16  C   UNL     1      72.290  -0.470  32.788  1.00  0.00     0.039 C 
BRANCH  13  17
ATOM     17  C   UNL     1      70.258   0.069  34.872  1.00  0.00     0.066 CG0
ATOM     18  G   UNL     1      69.607  -1.298  34.987  1.00  0.00     0.000 G0
ENDBRANCH  13  17
ENDBRANCH  11  13
ENDBRANCH  10  11
ENDBRANCH   1  10
TORSDOF 0
ENDMDL
MODEL 2
REMARK VINA RESULT:    -2.465      1.613      2.533
REMARK INTER + INTRA:          -3.558
REMARK INTER:                  -3.410
REMARK INTRA:                  -0.148
REMARK UNBOUND:                -0.083
REMARK SMILES CC1=CCC(=C(C)C)C(=O)CC(C)=CCC1
REMARK SMILES IDX 12 1 14 2 13 3 15 4 16 5 2 6 1 7 3 8 11 10 9 11 10 12 5 13
REMARK SMILES IDX 6 14 7 15 8 16 4 17
REMARK H PARENT
REMARK Flexibility Score: 60.00
ROOT
ATOM      1  C   UNL     1      69.029   1.908  32.120  1.00  0.00    -0.070 C 
ATOM      2  C   UNL     1      67.732   1.875  32.500  1.00  0.00    -0.027 C 
ATOM      3  C   UNL     1      69.462   2.991  31.165  1.00  0.00     0.039 C 
ENDROOT
BRANCH   2   4
ATOM      4  C   UNL     1      67.100   0.783  33.325  1.00  0.00     0.032 C 
BRANCH   4   5
ATOM      5  C   UNL     1      67.069   1.196  34.801  1.00  0.00     0.034 C 
BRANCH   5   6
ATOM      6  C   UNL     1      67.518   0.083  35.725  1.00  0.00    -0.077 C 
ATOM      7  C   UNL     1      66.560  -1.046  36.014  1.00  0.00     0.039 C 
ATOM      8  C   UNL     1      68.765   0.002  36.254  1.00  0.00    -0.023 CG0
ATOM      9  G   UNL     1      69.875   1.033  36.157  1.00  0.00     0.000 G0
ENDBRANCH   5   6
ENDBRANCH   4   5
ENDBRANCH   2   4
BRANCH   1  10
ATOM     10  C   UNL     1      70.069   0.924  32.618  1.00  0.00     0.111 C 
BRANCH  10  11
ATOM     11  C   UNL     1      70.842   1.469  33.794  1.00  0.00     0.163 C 
ATOM     12  O   UNL     1      71.388   2.597  33.649  1.00  0.00    -0.294 OA
BRANCH  11  13
ATOM     13  C   UNL     1      70.971   0.759  35.110  1.00  0.00    -0.002 C 
ATOM     14  C   UNL     1      72.094   0.033  35.403  1.00  0.00    -0.069 C 
ATOM     15  C   UNL     1      73.105  -0.319  34.335  1.00  0.00     0.039 C 
ATOM     16  C   UNL     1      72.365  -0.500  36.791  1.00  0.00     0.039 C 
BRANCH  13  17
ATOM     17  C   UNL     1      69.904   1.021  36.168  1.00  0.00     0.066 CG0
ATOM     18  G   UNL     1      68.770   0.015  36.250  1.00  0.00     0.000 G0
ENDBRANCH  13  17
ENDBRANCH  11  13
ENDBRANCH  10  11
ENDBRANCH   1  10
TORSDOF 0
ENDMDL
MODEL 3
REMARK VINA RESULT:    -2.459      2.374      4.613
REMARK INTER + INTRA:          -3.549
REMARK INTER:                  -3.511
REMARK INTRA:                  -0.038
REMARK UNBOUND:                -0.083
REMARK SMILES CC1=CCC(=C(C)C)C(=O)CC(C)=CCC1
REMARK SMILES IDX 12 1 14 2 13 3 15 4 16 5 2 6 1 7 3 8 11 10 9 11 10 12 5 13
REMARK SMILES IDX 6 14 7 15 8 16 4 17
REMARK H PARENT
REMARK Flexibility Score: 60.00
ROOT
ATOM      1  C   UNL     1      73.244   2.350  34.207  1.00  0.00    -0.070 C 
ATOM      2  C   UNL     1      72.224   3.205  33.968  1.00  0.00    -0.027 C 
ATOM      3  C   UNL     1      74.420   2.853  35.003  1.00  0.00     0.039 C 
ENDROOT
BRANCH   2   4
ATOM      4  C   UNL     1      71.046   2.918  33.073  1.00  0.00     0.032 C 
BRANCH   4   5
ATOM      5  C   UNL     1      69.767   2.812  33.911  1.00  0.00     0.034 C 
BRANCH   5   6
ATOM      6  C   UNL     1      68.834   1.728  33.412  1.00  0.00    -0.077 C 
ATOM      7  C   UNL     1      67.758   2.101  32.423  1.00  0.00     0.039 C 
ATOM      8  C   UNL     1      68.956   0.419  33.747  1.00  0.00    -0.023 CG0
ATOM      9  G   UNL     1      69.913  -0.189  34.757  1.00  0.00     0.000 G0
ENDBRANCH   5   6
ENDBRANCH   4   5
ENDBRANCH   2   4
BRANCH   1  10
ATOM     10  C   UNL     1      73.252   0.911  33.732  1.00  0.00     0.111 C 
BRANCH  10  11
ATOM     11  C   UNL     1      72.474   0.007  34.656  1.00  0.00     0.163 C 
ATOM     12  O   UNL     1      72.898  -0.107  35.839  1.00  0.00    -0.294 OA
BRANCH  11  13
ATOM     13  C   UNL     1      71.231  -0.729  34.252  1.00  0.00    -0.002 C 
ATOM     14  C   UNL     1      71.313  -1.923  33.586  1.00  0.00    -0.069 C 
ATOM     15  C   UNL     1      72.616  -2.402  32.986  1.00  0.00     0.039 C 
ATOM     16  C   UNL     1      70.105  -2.805  33.367  1.00  0.00     0.039 C 
BRANCH  13  17
ATOM     17  C   UNL     1      69.893  -0.203  34.763  1.00  0.00     0.066 CG0
ATOM     18  G   UNL     1      68.974   0.424  33.730  1.00  0.00     0.000 G0
ENDBRANCH  13  17
ENDBRANCH  11  13
ENDBRANCH  10  11
ENDBRANCH   1  10
TORSDOF 0
ENDMDL
MODEL 4
REMARK VINA RESULT:    -2.415      2.457      4.838
REMARK INTER + INTRA:          -3.487
REMARK INTER:                  -3.351
REMARK INTRA:                  -0.136
REMARK UNBOUND:                -0.083
REMARK SMILES CC1=CCC(=C(C)C)C(=O)CC(C)=CCC1
REMARK SMILES IDX 12 1 14 2 13 3 15 4 16 5 2 6 1 7 3 8 11 10 9 11 10 12 5 13
REMARK SMILES IDX 6 14 7 15 8 16 4 17
REMARK H PARENT
REMARK Flexibility Score: 60.00
ROOT
ATOM      1  C   UNL     1      73.606   1.983  34.974  1.00  0.00    -0.070 C 
ATOM      2  C   UNL     1      73.902   0.667  34.869  1.00  0.00    -0.027 C 
ATOM      3  C   UNL     1      74.748   2.963  35.064  1.00  0.00     0.039 C 
ENDROOT
BRANCH   2   4
ATOM      4  C   UNL     1      72.894  -0.452  34.917  1.00  0.00     0.032 C 
BRANCH   4   5
ATOM      5  C   UNL     1      72.393  -0.763  33.503  1.00  0.00     0.034 C 
BRANCH   5   6
ATOM      6  C   UNL     1      70.899  -1.008  33.457  1.00  0.00    -0.077 C 
ATOM      7  C   UNL     1      70.352  -2.262  34.093  1.00  0.00     0.039 C 
ATOM      8  C   UNL     1      70.008  -0.125  32.939  1.00  0.00    -0.023 CG0
ATOM      9  G   UNL     1      70.313   1.166  32.200  1.00  0.00     0.000 G0
ENDBRANCH   5   6
ENDBRANCH   4   5
ENDBRANCH   2   4
BRANCH   1  10
ATOM     10  C   UNL     1      72.188   2.520  34.986  1.00  0.00     0.111 C 
BRANCH  10  11
ATOM     11  C   UNL     1      71.701   2.854  33.597  1.00  0.00     0.163 C 
ATOM     12  O   UNL     1      72.488   3.500  32.853  1.00  0.00    -0.294 OA
BRANCH  11  13
ATOM     13  C   UNL     1      70.361   2.443  33.062  1.00  0.00    -0.002 C 
ATOM     14  C   UNL     1      69.273   3.262  33.203  1.00  0.00    -0.069 C 
ATOM     15  C   UNL     1      69.300   4.456  34.131  1.00  0.00     0.039 C 
ATOM     16  C   UNL     1      67.970   2.997  32.483  1.00  0.00     0.039 C 
BRANCH  13  17
ATOM     17  C   UNL     1      70.292   1.183  32.205  1.00  0.00     0.066 CG0
ATOM     18  G   UNL     1      70.012  -0.118  32.936  1.00  0.00     0.000 G0
ENDBRANCH  13  17
ENDBRANCH  11  13
ENDBRANCH  10  11
ENDBRANCH   1  10
TORSDOF 0
ENDMDL
MODEL 5
REMARK VINA RESULT:    -2.392      2.405      4.439
REMARK INTER + INTRA:          -3.454
REMARK INTER:                  -3.546
REMARK INTRA:                   0.092
REMARK UNBOUND:                -0.083
REMARK SMILES CC1=CCC(=C(C)C)C(=O)CC(C)=CCC1
REMARK SMILES IDX 12 1 14 2 13 3 15 4 16 5 2 6 1 7 3 8 11 10 9 11 10 12 5 13
REMARK SMILES IDX 6 14 7 15 8 16 4 17
REMARK H PARENT
REMARK Flexibility Score: 60.00
ROOT
ATOM      1  C   UNL     1      67.577   1.135  33.781  1.00  0.00    -0.070 C 
ATOM      2  C   UNL     1      67.390   1.764  32.598  1.00  0.00    -0.027 C 
ATOM      3  C   UNL     1      66.815  -0.140  34.036  1.00  0.00     0.039 C 
ENDROOT
BRANCH   2   4
ATOM      4  C   UNL     1      67.953   3.115  32.239  1.00  0.00     0.032 C 
BRANCH   4   5
ATOM      5  C   UNL     1      69.044   2.959  31.174  1.00  0.00     0.034 C 
BRANCH   5   6
ATOM      6  C   UNL     1      70.357   3.588  31.592  1.00  0.00    -0.077 C 
ATOM      7  C   UNL     1      70.639   5.011  31.178  1.00  0.00     0.039 C 
ATOM      8  C   UNL     1      71.269   2.969  32.383  1.00  0.00    -0.023 CG0
ATOM      9  G   UNL     1      71.239   1.533  32.874  1.00  0.00     0.000 G0
ENDBRANCH   5   6
ENDBRANCH   4   5
ENDBRANCH   2   4
BRANCH   1  10
ATOM     10  C   UNL     1      68.525   1.638  34.851  1.00  0.00     0.111 C 
BRANCH  10  11
ATOM     11  C   UNL     1      69.798   0.830  34.901  1.00  0.00     0.163 C 
ATOM     12  O   UNL     1      69.724  -0.328  35.395  1.00  0.00    -0.294 OA
BRANCH  11  13
ATOM     13  C   UNL     1      71.118   1.318  34.379  1.00  0.00    -0.002 C 
ATOM     14  C   UNL     1      72.201   1.418  35.210  1.00  0.00    -0.069 C 
ATOM     15  C   UNL     1      72.055   1.321  36.712  1.00  0.00     0.039 C 
ATOM     16  C   UNL     1      73.594   1.680  34.683  1.00  0.00     0.039 C 
BRANCH  13  17
ATOM     17  C   UNL     1      71.257   1.521  32.874  1.00  0.00     0.066 CG0
ATOM     18  G   UNL     1      71.273   2.957  32.383  1.00  0.00     0.000 G0
ENDBRANCH  13  17
ENDBRANCH  11  13
ENDBRANCH  10  11
ENDBRANCH   1  10
TORSDOF 0
ENDMDL
MODEL 6
REMARK VINA RESULT:    -2.346      2.489      4.709
REMARK INTER + INTRA:          -3.389
REMARK INTER:                  -3.413
REMARK INTRA:                   0.024
REMARK UNBOUND:                -0.083
REMARK SMILES CC1=CCC(=C(C)C)C(=O)CC(C)=CCC1
REMARK SMILES IDX 12 1 14 2 13 3 15 4 16 5 2 6 1 7 3 8 11 10 9 11 10 12 5 13
REMARK SMILES IDX 6 14 7 15 8 16 4 17
REMARK H PARENT
REMARK Flexibility Score: 60.00
ROOT
ATOM      1  C   UNL     1      71.456   4.827  32.500  1.00  0.00    -0.070 C 
ATOM      2  C   UNL     1      72.658   4.317  32.852  1.00  0.00    -0.027 C 
ATOM      3  C   UNL     1      71.412   5.829  31.375  1.00  0.00     0.039 C 
ENDROOT
BRANCH   2   4
ATOM      4  C   UNL     1      72.903   3.423  34.041  1.00  0.00     0.032 C 
BRANCH   4   5
ATOM      5  C   UNL     1      72.586   1.970  33.675  1.00  0.00     0.034 C 
BRANCH   5   6
ATOM      6  C   UNL     1      71.722   1.284  34.713  1.00  0.00    -0.077 C 
ATOM      7  C   UNL     1      72.287   1.071  36.096  1.00  0.00     0.039 C 
ATOM      8  C   UNL     1      70.436   0.913  34.495  1.00  0.00    -0.023 CG0
ATOM      9  G   UNL     1      69.670   0.970  33.185  1.00  0.00     0.000 G0
ENDBRANCH   5   6
ENDBRANCH   4   5
ENDBRANCH   2   4
BRANCH   1  10
ATOM     10  C   UNL     1      70.154   4.427  33.165  1.00  0.00     0.111 C 
BRANCH  10  11
ATOM     11  C   UNL     1      69.398   3.402  32.355  1.00  0.00     0.163 C 
ATOM     12  O   UNL     1      69.322   3.596  31.111  1.00  0.00    -0.294 OA
BRANCH  11  13
ATOM     13  C   UNL     1      68.766   2.175  32.943  1.00  0.00    -0.002 C 
ATOM     14  C   UNL     1      67.409   2.102  33.110  1.00  0.00    -0.069 C 
ATOM     15  C   UNL     1      66.532   3.328  32.983  1.00  0.00     0.039 C 
ATOM     16  C   UNL     1      66.714   0.811  33.477  1.00  0.00     0.039 C 
BRANCH  13  17
ATOM     17  C   UNL     1      69.655   0.957  33.175  1.00  0.00     0.066 CG0
ATOM     18  G   UNL     1      70.417   0.916  34.488  1.00  0.00     0.000 G0
ENDBRANCH  13  17
ENDBRANCH  11  13
ENDBRANCH  10  11
ENDBRANCH   1  10
TORSDOF 0
ENDMDL
MODEL 7
REMARK VINA RESULT:    -2.341     17.428     19.295
REMARK INTER + INTRA:          -3.382
REMARK INTER:                  -3.237
REMARK INTRA:                  -0.145
REMARK UNBOUND:                -0.083
REMARK SMILES CC1=CCC(=C(C)C)C(=O)CC(C)=CCC1
REMARK SMILES IDX 12 1 14 2 13 3 15 4 16 5 2 6 1 7 3 8 11 10 9 11 10 12 5 13
REMARK SMILES IDX 6 14 7 15 8 16 4 17
REMARK H PARENT
REMARK Flexibility Score: 60.00
ROOT
ATOM      1  C   UNL     1      64.412  10.312  49.019  1.00  0.00    -0.070 C 
ATOM      2  C   UNL     1      63.759   9.595  48.076  1.00  0.00    -0.027 C 
ATOM      3  C   UNL     1      65.558   9.655  49.744  1.00  0.00     0.039 C 
ENDROOT
BRANCH   2   4
ATOM      4  C   UNL     1      62.507  10.040  47.364  1.00  0.00     0.032 C 
BRANCH   4   5
ATOM      5  C   UNL     1      62.851  10.507  45.946  1.00  0.00     0.034 C 
BRANCH   5   6
ATOM      6  C   UNL     1      62.103  11.763  45.550  1.00  0.00    -0.077 C 
ATOM      7  C   UNL     1      60.692  11.629  45.031  1.00  0.00     0.039 C 
ATOM      8  C   UNL     1      62.602  13.015  45.704  1.00  0.00    -0.023 CG0
ATOM      9  G   UNL     1      64.001  13.401  46.147  1.00  0.00     0.000 G0
ENDBRANCH   5   6
ENDBRANCH   4   5
ENDBRANCH   2   4
BRANCH   1  10
ATOM     10  C   UNL     1      64.060  11.745  49.368  1.00  0.00     0.111 C 
BRANCH  10  11
ATOM     11  C   UNL     1      64.821  12.734  48.519  1.00  0.00     0.163 C 
ATOM     12  O   UNL     1      66.080  12.669  48.551  1.00  0.00    -0.294 OA
BRANCH  11  13
ATOM     13  C   UNL     1      64.164  13.756  47.638  1.00  0.00    -0.002 C 
ATOM     14  C   UNL     1      63.877  15.007  48.116  1.00  0.00    -0.069 C 
ATOM     15  C   UNL     1      63.941  15.320  49.594  1.00  0.00     0.039 C 
ATOM     16  C   UNL     1      63.434  16.130  47.207  1.00  0.00     0.039 C 
BRANCH  13  17
ATOM     17  C   UNL     1      63.996  13.419  46.160  1.00  0.00     0.066 CG0
ATOM     18  G   UNL     1      62.603  13.012  45.712  1.00  0.00     0.000 G0
ENDBRANCH  13  17
ENDBRANCH  11  13
ENDBRANCH  10  11
ENDBRANCH   1  10
TORSDOF 0
ENDMDL
MODEL 8
REMARK VINA RESULT:    -2.333     18.003     19.213
REMARK INTER + INTRA:          -3.371
REMARK INTER:                  -3.297
REMARK INTRA:                  -0.075
REMARK UNBOUND:                -0.083
REMARK SMILES CC1=CCC(=C(C)C)C(=O)CC(C)=CCC1
REMARK SMILES IDX 12 1 14 2 13 3 15 4 16 5 2 6 1 7 3 8 11 10 9 11 10 12 5 13
REMARK SMILES IDX 6 14 7 15 8 16 4 17
REMARK H PARENT
REMARK Flexibility Score: 60.00
ROOT
ATOM      1  C   UNL     1      68.026  12.360  47.674  1.00  0.00    -0.070 C 
ATOM      2  C   UNL     1      69.042  13.121  47.209  1.00  0.00    -0.027 C 
ATOM      3  C   UNL     1      68.172  11.737  49.038  1.00  0.00     0.039 C 
ENDROOT
BRANCH   2   4
ATOM      4  C   UNL     1      69.127  13.695  45.817  1.00  0.00     0.032 C 
BRANCH   4   5
ATOM      5  C   UNL     1      68.810  15.193  45.851  1.00  0.00     0.034 C 
BRANCH   5   6
ATOM      6  C   UNL     1      67.851  15.609  44.753  1.00  0.00    -0.077 C 
ATOM      7  C   UNL     1      68.410  15.919  43.387  1.00  0.00     0.039 C 
ATOM      8  C   UNL     1      66.504  15.648  44.907  1.00  0.00    -0.023 CG0
ATOM      9  G   UNL     1      65.716  15.437  46.188  1.00  0.00     0.000 G0
ENDBRANCH   5   6
ENDBRANCH   4   5
ENDBRANCH   2   4
BRANCH   1  10
ATOM     10  C   UNL     1      66.745  12.118  46.900  1.00  0.00     0.111 C 
BRANCH  10  11
ATOM     11  C   UNL     1      65.660  13.093  47.288  1.00  0.00     0.163 C 
ATOM     12  O   UNL     1      65.279  13.079  48.491  1.00  0.00    -0.294 OA
BRANCH  11  13
ATOM     13  C   UNL     1      65.041  14.075  46.338  1.00  0.00    -0.002 C 
ATOM     14  C   UNL     1      63.824  13.819  45.766  1.00  0.00    -0.069 C 
ATOM     15  C   UNL     1      63.193  12.446  45.835  1.00  0.00     0.039 C 
ATOM     16  C   UNL     1      63.063  14.872  44.993  1.00  0.00     0.039 C 
BRANCH  13  17
ATOM     17  C   UNL     1      65.719  15.432  46.174  1.00  0.00     0.066 CG0
ATOM     18  G   UNL     1      66.488  15.653  44.884  1.00  0.00     0.000 G0
ENDBRANCH  13  17
ENDBRANCH  11  13
ENDBRANCH  10  11
ENDBRANCH   1  10
TORSDOF 0
ENDMDL
MODEL 9
REMARK VINA RESULT:    -2.313     16.882     18.166
REMARK INTER + INTRA:          -3.343
REMARK INTER:                  -3.308
REMARK INTRA:                  -0.035
REMARK UNBOUND:                -0.083
REMARK SMILES CC1=CCC(=C(C)C)C(=O)CC(C)=CCC1
REMARK SMILES IDX 12 1 14 2 13 3 15 4 16 5 2 6 1 7 3 8 11 10 9 11 10 12 5 13
REMARK SMILES IDX 6 14 7 15 8 16 4 17
REMARK H PARENT
REMARK Flexibility Score: 60.00
ROOT
ATOM      1  C   UNL     1      68.981  13.356  46.846  1.00  0.00    -0.070 C 
ATOM      2  C   UNL     1      69.998  12.513  46.561  1.00  0.00    -0.027 C 
ATOM      3  C   UNL     1      68.767  14.543  45.942  1.00  0.00     0.039 C 
ENDROOT
BRANCH   2   4
ATOM      4  C   UNL     1      70.444  11.368  47.434  1.00  0.00     0.032 C 
BRANCH   4   5
ATOM      5  C   UNL     1      69.739  10.078  47.004  1.00  0.00     0.034 C 
BRANCH   5   6
ATOM      6  C   UNL     1      69.148   9.321  48.175  1.00  0.00    -0.077 C 
ATOM      7  C   UNL     1      70.081   8.586  49.105  1.00  0.00     0.039 C 
ATOM      8  C   UNL     1      67.826   9.324  48.482  1.00  0.00    -0.023 CG0
ATOM      9  G   UNL     1      66.694   9.936  47.675  1.00  0.00     0.000 G0
ENDBRANCH   5   6
ENDBRANCH   4   5
ENDBRANCH   2   4
BRANCH   1  10
ATOM     10  C   UNL     1      68.037  13.157  48.015  1.00  0.00     0.111 C 
BRANCH  10  11
ATOM     11  C   UNL     1      66.731  12.534  47.586  1.00  0.00     0.163 C 
ATOM     12  O   UNL     1      66.105  13.102  46.650  1.00  0.00    -0.294 OA
BRANCH  11  13
ATOM     13  C   UNL     1      66.164  11.284  48.190  1.00  0.00    -0.002 C 
ATOM     14  C   UNL     1      65.094  11.345  49.043  1.00  0.00    -0.069 C 
ATOM     15  C   UNL     1      64.627  12.659  49.628  1.00  0.00     0.039 C 
ATOM     16  C   UNL     1      64.351  10.106  49.487  1.00  0.00     0.039 C 
BRANCH  13  17
ATOM     17  C   UNL     1      66.695   9.945  47.687  1.00  0.00     0.066 CG0
ATOM     18  G   UNL     1      67.829   9.325  48.482  1.00  0.00     0.000 G0
ENDBRANCH  13  17
ENDBRANCH  11  13
ENDBRANCH  10  11
ENDBRANCH   1  10
TORSDOF 0
ENDMDL
