MODEL 1
REMARK VINA RESULT:    -4.764      0.000      0.000
REMARK INTER + INTRA:          -9.674
REMARK INTER:                  -8.385
REMARK INTRA:                  -1.288
REMARK UNBOUND:                -1.288
REMARK SMILES CCCCCCCCCCCCCCC(=O)[O-]
REMARK SMILES IDX 9 1 10 2 11 3 12 4 13 5 14 6 15 7 16 8 17 9 8 10 7 11 6 12
REMARK SMILES IDX 5 13 4 14 3 15 2 16 1 17
REMARK H PARENT
REMARK Flexibility Score: inf
ROOT
ATOM      1  C   UNL     1       4.003  46.079  66.328  1.00  0.00     0.000 C 
ENDROOT
BRANCH   1   2
ATOM      2  C   UNL     1       3.508  44.830  65.575  1.00  0.00     0.000 C 
BRANCH   2   3
ATOM      3  C   UNL     1       2.647  43.856  66.402  1.00  0.00     0.000 C 
BRANCH   3   4
ATOM      4  C   UNL     1       2.669  44.166  67.909  1.00  0.00     0.000 C 
BRANCH   4   5
ATOM      5  C   UNL     1       3.158  42.975  68.754  1.00  0.00     0.006 C 
BRANCH   5   6
ATOM      6  C   UNL     1       2.725  43.022  70.228  1.00  0.00     0.053 C 
BRANCH   6   7
ATOM      7  C   UNL     1       3.824  43.502  71.123  1.00  0.00     0.041 C 
ATOM      8  O   UNL     1       4.977  43.001  71.037  1.00  0.00    -0.550 OA
ATOM      9  O   UNL     1       3.570  44.481  72.075  1.00  0.00    -0.550 OA
ENDBRANCH   6   7
ENDBRANCH   5   6
ENDBRANCH   4   5
ENDBRANCH   3   4
ENDBRANCH   2   3
ENDBRANCH   1   2
BRANCH   1  10
ATOM     10  C   UNL     1       4.569  47.159  65.392  1.00  0.00     0.000 C 
BRANCH  10  11
ATOM     11  C   UNL     1       4.797  48.507  66.101  1.00  0.00    -0.000 C 
BRANCH  11  12
ATOM     12  C   UNL     1       6.048  49.286  65.646  1.00  0.00    -0.000 C 
BRANCH  12  13
ATOM     13  C   UNL     1       7.244  49.226  66.616  1.00  0.00    -0.000 C 
BRANCH  13  14
ATOM     14  C   UNL     1       7.771  47.808  66.914  1.00  0.00    -0.000 C 
BRANCH  14  15
ATOM     15  C   UNL     1       7.868  47.451  68.408  1.00  0.00    -0.000 C 
BRANCH  15  16
ATOM     16  C   UNL     1       6.558  47.707  69.168  1.00  0.00    -0.003 C 
ATOM     17  C   UNL     1       5.960  46.404  69.686  1.00  0.00     0.004 C 
ENDBRANCH  15  16
ENDBRANCH  14  15
ENDBRANCH  13  14
ENDBRANCH  12  13
ENDBRANCH  11  12
ENDBRANCH  10  11
ENDBRANCH   1  10
TORSDOF 13
ENDMDL
MODEL 2
REMARK VINA RESULT:    -4.691      1.330      2.327
REMARK INTER + INTRA:          -9.544
REMARK INTER:                  -8.614
REMARK INTRA:                  -0.930
REMARK UNBOUND:                -1.288
REMARK SMILES CCCCCCCCCCCCCCC(=O)[O-]
REMARK SMILES IDX 9 1 10 2 11 3 12 4 13 5 14 6 15 7 16 8 17 9 8 10 7 11 6 12
REMARK SMILES IDX 5 13 4 14 3 15 2 16 1 17
REMARK H PARENT
REMARK Flexibility Score: inf
ROOT
ATOM      1  C   UNL     1       3.612  43.439  64.437  1.00  0.00     0.000 C 
ENDROOT
BRANCH   1   2
ATOM      2  C   UNL     1       3.275  42.852  65.821  1.00  0.00     0.000 C 
BRANCH   2   3
ATOM      3  C   UNL     1       2.300  43.686  66.674  1.00  0.00     0.000 C 
BRANCH   3   4
ATOM      4  C   UNL     1       2.938  44.215  67.970  1.00  0.00     0.000 C 
BRANCH   4   5
ATOM      5  C   UNL     1       2.501  43.421  69.214  1.00  0.00     0.006 C 
BRANCH   5   6
ATOM      6  C   UNL     1       3.657  42.985  70.129  1.00  0.00     0.053 C 
BRANCH   6   7
ATOM      7  C   UNL     1       4.125  44.099  71.013  1.00  0.00     0.041 C 
ATOM      8  O   UNL     1       3.504  44.368  72.076  1.00  0.00    -0.550 OA
ATOM      9  O   UNL     1       5.228  44.861  70.650  1.00  0.00    -0.550 OA
ENDBRANCH   6   7
ENDBRANCH   5   6
ENDBRANCH   4   5
ENDBRANCH   3   4
ENDBRANCH   2   3
ENDBRANCH   1   2
BRANCH   1  10
ATOM     10  C   UNL     1       2.924  44.788  64.173  1.00  0.00     0.000 C 
BRANCH  10  11
ATOM     11  C   UNL     1       3.918  45.962  64.090  1.00  0.00    -0.000 C 
BRANCH  11  12
ATOM     12  C   UNL     1       4.386  46.523  65.448  1.00  0.00    -0.000 C 
BRANCH  12  13
ATOM     13  C   UNL     1       5.401  47.679  65.362  1.00  0.00    -0.000 C 
BRANCH  13  14
ATOM     14  C   UNL     1       6.117  48.017  66.685  1.00  0.00    -0.000 C 
BRANCH  14  15
ATOM     15  C   UNL     1       7.648  47.858  66.653  1.00  0.00    -0.000 C 
BRANCH  15  16
ATOM     16  C   UNL     1       8.240  47.507  68.026  1.00  0.00    -0.003 C 
ATOM     17  C   UNL     1       9.470  46.616  67.882  1.00  0.00     0.004 C 
ENDBRANCH  15  16
ENDBRANCH  14  15
ENDBRANCH  13  14
ENDBRANCH  12  13
ENDBRANCH  11  12
ENDBRANCH  10  11
ENDBRANCH   1  10
TORSDOF 13
ENDMDL
MODEL 3
REMARK VINA RESULT:    -4.632      2.061      5.327
REMARK INTER + INTRA:          -9.441
REMARK INTER:                  -8.350
REMARK INTRA:                  -1.091
REMARK UNBOUND:                -1.288
REMARK SMILES CCCCCCCCCCCCCCC(=O)[O-]
REMARK SMILES IDX 9 1 10 2 11 3 12 4 13 5 14 6 15 7 16 8 17 9 8 10 7 11 6 12
REMARK SMILES IDX 5 13 4 14 3 15 2 16 1 17
REMARK H PARENT
REMARK Flexibility Score: inf
ROOT
ATOM      1  C   UNL     1       2.968  44.689  64.265  1.00  0.00     0.000 C 
ENDROOT
BRANCH   1   2
ATOM      2  C   UNL     1       4.021  45.775  63.974  1.00  0.00     0.000 C 
BRANCH   2   3
ATOM      3  C   UNL     1       3.948  47.025  64.871  1.00  0.00     0.000 C 
BRANCH   3   4
ATOM      4  C   UNL     1       5.245  47.273  65.661  1.00  0.00     0.000 C 
BRANCH   4   5
ATOM      5  C   UNL     1       5.064  47.072  67.177  1.00  0.00     0.006 C 
BRANCH   5   6
ATOM      6  C   UNL     1       5.911  48.014  68.049  1.00  0.00     0.053 C 
BRANCH   6   7
ATOM      7  C   UNL     1       6.824  47.262  68.966  1.00  0.00     0.041 C 
ATOM      8  O   UNL     1       6.366  46.701  69.997  1.00  0.00    -0.550 OA
ATOM      9  O   UNL     1       8.187  47.207  68.702  1.00  0.00    -0.550 OA
ENDBRANCH   6   7
ENDBRANCH   5   6
ENDBRANCH   4   5
ENDBRANCH   3   4
ENDBRANCH   2   3
ENDBRANCH   1   2
BRANCH   1  10
ATOM     10  C   UNL     1       3.588  43.306  64.525  1.00  0.00     0.000 C 
BRANCH  10  11
ATOM     11  C   UNL     1       3.252  42.752  65.922  1.00  0.00    -0.000 C 
BRANCH  11  12
ATOM     12  C   UNL     1       2.488  43.721  66.847  1.00  0.00    -0.000 C 
BRANCH  12  13
ATOM     13  C   UNL     1       3.211  44.079  68.159  1.00  0.00    -0.000 C 
BRANCH  13  14
ATOM     14  C   UNL     1       3.177  42.982  69.243  1.00  0.00    -0.000 C 
BRANCH  14  15
ATOM     15  C   UNL     1       4.057  43.258  70.474  1.00  0.00    -0.000 C 
BRANCH  15  16
ATOM     16  C   UNL     1       3.270  43.859  71.648  1.00  0.00    -0.003 C 
ATOM     17  C   UNL     1       1.772  43.624  71.483  1.00  0.00     0.004 C 
ENDBRANCH  15  16
ENDBRANCH  14  15
ENDBRANCH  13  14
ENDBRANCH  12  13
ENDBRANCH  11  12
ENDBRANCH  10  11
ENDBRANCH   1  10
TORSDOF 13
ENDMDL
MODEL 4
REMARK VINA RESULT:    -4.585     11.069     13.418
REMARK INTER + INTRA:          -9.358
REMARK INTER:                  -7.118
REMARK INTRA:                  -2.239
REMARK UNBOUND:                -1.288
REMARK SMILES CCCCCCCCCCCCCCC(=O)[O-]
REMARK SMILES IDX 9 1 10 2 11 3 12 4 13 5 14 6 15 7 16 8 17 9 8 10 7 11 6 12
REMARK SMILES IDX 5 13 4 14 3 15 2 16 1 17
REMARK H PARENT
REMARK Flexibility Score: inf
ROOT
ATOM      1  C   UNL     1       7.769  34.346  68.256  1.00  0.00     0.000 C 
ENDROOT
BRANCH   1   2
ATOM      2  C   UNL     1       7.016  34.904  69.479  1.00  0.00     0.000 C 
BRANCH   2   3
ATOM      3  C   UNL     1       6.591  33.858  70.527  1.00  0.00     0.000 C 
BRANCH   3   4
ATOM      4  C   UNL     1       5.215  34.155  71.147  1.00  0.00     0.000 C 
BRANCH   4   5
ATOM      5  C   UNL     1       4.620  35.491  70.663  1.00  0.00     0.006 C 
BRANCH   5   6
ATOM      6  C   UNL     1       3.201  35.778  71.179  1.00  0.00     0.053 C 
BRANCH   6   7
ATOM      7  C   UNL     1       2.167  35.597  70.112  1.00  0.00     0.041 C 
ATOM      8  O   UNL     1       1.574  34.492  69.985  1.00  0.00    -0.550 OA
ATOM      9  O   UNL     1       1.879  36.636  69.236  1.00  0.00    -0.550 OA
ENDBRANCH   6   7
ENDBRANCH   5   6
ENDBRANCH   4   5
ENDBRANCH   3   4
ENDBRANCH   2   3
ENDBRANCH   1   2
BRANCH   1  10
ATOM     10  C   UNL     1       8.108  32.853  68.389  1.00  0.00     0.000 C 
BRANCH  10  11
ATOM     11  C   UNL     1       7.958  32.083  67.064  1.00  0.00    -0.000 C 
BRANCH  11  12
ATOM     12  C   UNL     1       7.076  30.821  67.133  1.00  0.00    -0.000 C 
BRANCH  12  13
ATOM     13  C   UNL     1       6.343  30.607  68.471  1.00  0.00    -0.000 C 
BRANCH  13  14
ATOM     14  C   UNL     1       4.811  30.475  68.361  1.00  0.00    -0.000 C 
BRANCH  14  15
ATOM     15  C   UNL     1       4.015  31.684  68.883  1.00  0.00    -0.000 C 
BRANCH  15  16
ATOM     16  C   UNL     1       3.389  32.519  67.756  1.00  0.00    -0.003 C 
ATOM     17  C   UNL     1       4.306  33.668  67.349  1.00  0.00     0.004 C 
ENDBRANCH  15  16
ENDBRANCH  14  15
ENDBRANCH  13  14
ENDBRANCH  12  13
ENDBRANCH  11  12
ENDBRANCH  10  11
ENDBRANCH   1  10
TORSDOF 13
ENDMDL
MODEL 5
REMARK VINA RESULT:    -4.560     11.201     12.761
REMARK INTER + INTRA:          -9.314
REMARK INTER:                  -7.290
REMARK INTRA:                  -2.024
REMARK UNBOUND:                -1.288
REMARK SMILES CCCCCCCCCCCCCCC(=O)[O-]
REMARK SMILES IDX 9 1 10 2 11 3 12 4 13 5 14 6 15 7 16 8 17 9 8 10 7 11 6 12
REMARK SMILES IDX 5 13 4 14 3 15 2 16 1 17
REMARK H PARENT
REMARK Flexibility Score: inf
ROOT
ATOM      1  C   UNL     1       6.641  34.393  66.997  1.00  0.00     0.000 C 
ENDROOT
BRANCH   1   2
ATOM      2  C   UNL     1       5.183  33.943  66.786  1.00  0.00     0.000 C 
BRANCH   2   3
ATOM      3  C   UNL     1       4.782  32.640  67.503  1.00  0.00     0.000 C 
BRANCH   3   4
ATOM      4  C   UNL     1       3.397  32.721  68.166  1.00  0.00     0.000 C 
BRANCH   4   5
ATOM      5  C   UNL     1       2.720  34.089  67.962  1.00  0.00     0.006 C 
BRANCH   5   6
ATOM      6  C   UNL     1       1.226  34.012  67.605  1.00  0.00     0.053 C 
BRANCH   6   7
ATOM      7  C   UNL     1       0.639  35.365  67.349  1.00  0.00     0.041 C 
ATOM      8  O   UNL     1      -0.047  35.937  68.237  1.00  0.00    -0.550 OA
ATOM      9  O   UNL     1       0.820  35.982  66.118  1.00  0.00    -0.550 OA
ENDBRANCH   6   7
ENDBRANCH   5   6
ENDBRANCH   4   5
ENDBRANCH   3   4
ENDBRANCH   2   3
ENDBRANCH   1   2
BRANCH   1  10
ATOM     10  C   UNL     1       7.637  33.222  66.995  1.00  0.00     0.000 C 
BRANCH  10  11
ATOM     11  C   UNL     1       8.374  33.059  68.337  1.00  0.00    -0.000 C 
BRANCH  11  12
ATOM     12  C   UNL     1       7.969  31.822  69.163  1.00  0.00    -0.000 C 
BRANCH  12  13
ATOM     13  C   UNL     1       7.131  32.121  70.421  1.00  0.00    -0.000 C 
BRANCH  13  14
ATOM     14  C   UNL     1       6.871  33.617  70.690  1.00  0.00    -0.000 C 
BRANCH  14  15
ATOM     15  C   UNL     1       5.418  33.968  71.057  1.00  0.00    -0.000 C 
BRANCH  15  16
ATOM     16  C   UNL     1       4.998  35.361  70.568  1.00  0.00    -0.003 C 
ATOM     17  C   UNL     1       3.651  35.768  71.156  1.00  0.00     0.004 C 
ENDBRANCH  15  16
ENDBRANCH  14  15
ENDBRANCH  13  14
ENDBRANCH  12  13
ENDBRANCH  11  12
ENDBRANCH  10  11
ENDBRANCH   1  10
TORSDOF 13
ENDMDL
MODEL 6
REMARK VINA RESULT:    -4.521     10.956     13.091
REMARK INTER + INTRA:          -9.245
REMARK INTER:                  -7.501
REMARK INTRA:                  -1.745
REMARK UNBOUND:                -1.288
REMARK SMILES CCCCCCCCCCCCCCC(=O)[O-]
REMARK SMILES IDX 9 1 10 2 11 3 12 4 13 5 14 6 15 7 16 8 17 9 8 10 7 11 6 12
REMARK SMILES IDX 5 13 4 14 3 15 2 16 1 17
REMARK H PARENT
REMARK Flexibility Score: inf
ROOT
ATOM      1  C   UNL     1       6.915  33.266  71.338  1.00  0.00     0.000 C 
ENDROOT
BRANCH   1   2
ATOM      2  C   UNL     1       5.441  33.556  70.999  1.00  0.00     0.000 C 
BRANCH   2   3
ATOM      3  C   UNL     1       5.113  35.026  70.677  1.00  0.00     0.000 C 
BRANCH   3   4
ATOM      4  C   UNL     1       3.942  35.577  71.509  1.00  0.00     0.000 C 
BRANCH   4   5
ATOM      5  C   UNL     1       2.570  35.273  70.877  1.00  0.00     0.006 C 
BRANCH   5   6
ATOM      6  C   UNL     1       2.534  35.398  69.346  1.00  0.00     0.053 C 
BRANCH   6   7
ATOM      7  C   UNL     1       1.270  36.038  68.863  1.00  0.00     0.041 C 
ATOM      8  O   UNL     1       1.163  36.406  67.663  1.00  0.00    -0.550 OA
ATOM      9  O   UNL     1       0.219  36.257  69.745  1.00  0.00    -0.550 OA
ENDBRANCH   6   7
ENDBRANCH   5   6
ENDBRANCH   4   5
ENDBRANCH   3   4
ENDBRANCH   2   3
ENDBRANCH   1   2
BRANCH   1  10
ATOM     10  C   UNL     1       7.359  31.853  70.926  1.00  0.00     0.000 C 
BRANCH  10  11
ATOM     11  C   UNL     1       6.401  31.194  69.916  1.00  0.00    -0.000 C 
BRANCH  11  12
ATOM     12  C   UNL     1       7.031  30.824  68.559  1.00  0.00    -0.000 C 
BRANCH  12  13
ATOM     13  C   UNL     1       8.427  31.423  68.300  1.00  0.00    -0.000 C 
BRANCH  13  14
ATOM     14  C   UNL     1       8.455  32.608  67.314  1.00  0.00    -0.000 C 
BRANCH  14  15
ATOM     15  C   UNL     1       7.856  33.918  67.856  1.00  0.00    -0.000 C 
BRANCH  15  16
ATOM     16  C   UNL     1       6.778  34.508  66.935  1.00  0.00    -0.003 C 
ATOM     17  C   UNL     1       5.433  33.823  67.153  1.00  0.00     0.004 C 
ENDBRANCH  15  16
ENDBRANCH  14  15
ENDBRANCH  13  14
ENDBRANCH  12  13
ENDBRANCH  11  12
ENDBRANCH  10  11
ENDBRANCH   1  10
TORSDOF 13
ENDMDL
MODEL 7
REMARK VINA RESULT:    -4.511     11.379     13.524
REMARK INTER + INTRA:          -9.228
REMARK INTER:                  -7.242
REMARK INTRA:                  -1.986
REMARK UNBOUND:                -1.288
REMARK SMILES CCCCCCCCCCCCCCC(=O)[O-]
REMARK SMILES IDX 9 1 10 2 11 3 12 4 13 5 14 6 15 7 16 8 17 9 8 10 7 11 6 12
REMARK SMILES IDX 5 13 4 14 3 15 2 16 1 17
REMARK H PARENT
REMARK Flexibility Score: inf
ROOT
ATOM      1  C   UNL     1       8.473  32.046  67.334  1.00  0.00     0.000 C 
ENDROOT
BRANCH   1   2
ATOM      2  C   UNL     1       8.154  31.020  68.438  1.00  0.00     0.000 C 
BRANCH   2   3
ATOM      3  C   UNL     1       6.656  30.787  68.712  1.00  0.00     0.000 C 
BRANCH   3   4
ATOM      4  C   UNL     1       6.270  31.031  70.181  1.00  0.00     0.000 C 
BRANCH   4   5
ATOM      5  C   UNL     1       7.487  31.341  71.072  1.00  0.00     0.006 C 
BRANCH   5   6
ATOM      6  C   UNL     1       7.307  32.558  71.994  1.00  0.00     0.053 C 
BRANCH   6   7
ATOM      7  C   UNL     1       7.913  32.335  73.345  1.00  0.00     0.041 C 
ATOM      8  O   UNL     1       8.637  33.222  73.869  1.00  0.00    -0.550 OA
ATOM      9  O   UNL     1       7.706  31.134  74.012  1.00  0.00    -0.550 OA
ENDBRANCH   6   7
ENDBRANCH   5   6
ENDBRANCH   4   5
ENDBRANCH   3   4
ENDBRANCH   2   3
ENDBRANCH   1   2
BRANCH   1  10
ATOM     10  C   UNL     1       7.515  33.249  67.338  1.00  0.00     0.000 C 
BRANCH  10  11
ATOM     11  C   UNL     1       7.904  34.322  68.371  1.00  0.00    -0.000 C 
BRANCH  11  12
ATOM     12  C   UNL     1       6.734  34.897  69.195  1.00  0.00    -0.000 C 
BRANCH  12  13
ATOM     13  C   UNL     1       5.348  34.314  68.856  1.00  0.00    -0.000 C 
BRANCH  13  14
ATOM     14  C   UNL     1       4.398  34.151  70.060  1.00  0.00    -0.000 C 
BRANCH  14  15
ATOM     15  C   UNL     1       4.465  35.285  71.098  1.00  0.00    -0.000 C 
BRANCH  15  16
ATOM     16  C   UNL     1       3.077  35.789  71.521  1.00  0.00    -0.003 C 
ATOM     17  C   UNL     1       2.148  35.914  70.319  1.00  0.00     0.004 C 
ENDBRANCH  15  16
ENDBRANCH  14  15
ENDBRANCH  13  14
ENDBRANCH  12  13
ENDBRANCH  11  12
ENDBRANCH  10  11
ENDBRANCH   1  10
TORSDOF 13
ENDMDL
MODEL 8
REMARK VINA RESULT:    -4.452     10.966     12.627
REMARK INTER + INTRA:          -9.124
REMARK INTER:                  -7.182
REMARK INTRA:                  -1.943
REMARK UNBOUND:                -1.288
REMARK SMILES CCCCCCCCCCCCCCC(=O)[O-]
REMARK SMILES IDX 9 1 10 2 11 3 12 4 13 5 14 6 15 7 16 8 17 9 8 10 7 11 6 12
REMARK SMILES IDX 5 13 4 14 3 15 2 16 1 17
REMARK H PARENT
REMARK Flexibility Score: inf
ROOT
ATOM      1  C   UNL     1       1.000  33.011  67.622  1.00  0.00     0.000 C 
ENDROOT
BRANCH   1   2
ATOM      2  C   UNL     1       1.980  32.315  68.585  1.00  0.00     0.000 C 
BRANCH   2   3
ATOM      3  C   UNL     1       3.467  32.405  68.196  1.00  0.00     0.000 C 
BRANCH   3   4
ATOM      4  C   UNL     1       3.842  33.757  67.566  1.00  0.00     0.000 C 
BRANCH   4   5
ATOM      5  C   UNL     1       5.206  33.723  66.852  1.00  0.00     0.006 C 
BRANCH   5   6
ATOM      6  C   UNL     1       6.256  32.830  67.533  1.00  0.00     0.053 C 
BRANCH   6   7
ATOM      7  C   UNL     1       7.603  33.482  67.581  1.00  0.00     0.041 C 
ATOM      8  O   UNL     1       8.622  32.864  67.171  1.00  0.00    -0.550 OA
ATOM      9  O   UNL     1       7.740  34.759  68.109  1.00  0.00    -0.550 OA
ENDBRANCH   6   7
ENDBRANCH   5   6
ENDBRANCH   4   5
ENDBRANCH   3   4
ENDBRANCH   2   3
ENDBRANCH   1   2
BRANCH   1  10
ATOM     10  C   UNL     1      -0.108  33.789  68.351  1.00  0.00     0.000 C 
BRANCH  10  11
ATOM     11  C   UNL     1      -0.039  35.307  68.100  1.00  0.00    -0.000 C 
BRANCH  11  12
ATOM     12  C   UNL     1       0.354  36.158  69.324  1.00  0.00    -0.000 C 
BRANCH  12  13
ATOM     13  C   UNL     1       1.865  36.221  69.619  1.00  0.00    -0.000 C 
BRANCH  13  14
ATOM     14  C   UNL     1       2.351  35.271  70.731  1.00  0.00    -0.000 C 
BRANCH  14  15
ATOM     15  C   UNL     1       3.643  35.712  71.443  1.00  0.00    -0.000 C 
BRANCH  15  16
ATOM     16  C   UNL     1       4.907  35.416  70.623  1.00  0.00    -0.003 C 
ATOM     17  C   UNL     1       5.467  34.037  70.955  1.00  0.00     0.004 C 
ENDBRANCH  15  16
ENDBRANCH  14  15
ENDBRANCH  13  14
ENDBRANCH  12  13
ENDBRANCH  11  12
ENDBRANCH  10  11
ENDBRANCH   1  10
TORSDOF 13
ENDMDL
MODEL 9
REMARK VINA RESULT:    -4.446     11.465     13.518
REMARK INTER + INTRA:          -9.113
REMARK INTER:                  -7.331
REMARK INTRA:                  -1.781
REMARK UNBOUND:                -1.288
REMARK SMILES CCCCCCCCCCCCCCC(=O)[O-]
REMARK SMILES IDX 9 1 10 2 11 3 12 4 13 5 14 6 15 7 16 8 17 9 8 10 7 11 6 12
REMARK SMILES IDX 5 13 4 14 3 15 2 16 1 17
REMARK H PARENT
REMARK Flexibility Score: inf
ROOT
ATOM      1  C   UNL     1       3.133  33.816  69.390  1.00  0.00     0.000 C 
ENDROOT
BRANCH   1   2
ATOM      2  C   UNL     1       3.425  33.911  67.881  1.00  0.00     0.000 C 
BRANCH   2   3
ATOM      3  C   UNL     1       4.739  33.255  67.418  1.00  0.00     0.000 C 
BRANCH   3   4
ATOM      4  C   UNL     1       5.095  31.992  68.221  1.00  0.00     0.000 C 
BRANCH   4   5
ATOM      5  C   UNL     1       6.303  31.237  67.636  1.00  0.00     0.006 C 
BRANCH   5   6
ATOM      6  C   UNL     1       7.613  31.432  68.417  1.00  0.00     0.053 C 
BRANCH   6   7
ATOM      7  C   UNL     1       8.575  32.319  67.689  1.00  0.00     0.041 C 
ATOM      8  O   UNL     1       8.654  33.542  67.979  1.00  0.00    -0.550 OA
ATOM      9  O   UNL     1       9.362  31.803  66.667  1.00  0.00    -0.550 OA
ENDBRANCH   6   7
ENDBRANCH   5   6
ENDBRANCH   4   5
ENDBRANCH   3   4
ENDBRANCH   2   3
ENDBRANCH   1   2
BRANCH   1  10
ATOM     10  C   UNL     1       3.151  35.183  70.093  1.00  0.00     0.000 C 
BRANCH  10  11
ATOM     11  C   UNL     1       4.361  35.361  71.029  1.00  0.00    -0.000 C 
BRANCH  11  12
ATOM     12  C   UNL     1       5.721  35.521  70.321  1.00  0.00    -0.000 C 
BRANCH  12  13
ATOM     13  C   UNL     1       6.728  34.382  70.572  1.00  0.00    -0.000 C 
BRANCH  13  14
ATOM     14  C   UNL     1       6.224  33.262  71.503  1.00  0.00    -0.000 C 
BRANCH  14  15
ATOM     15  C   UNL     1       7.323  32.340  72.062  1.00  0.00    -0.000 C 
BRANCH  15  16
ATOM     16  C   UNL     1       7.435  32.404  73.592  1.00  0.00    -0.003 C 
ATOM     17  C   UNL     1       8.648  33.224  74.020  1.00  0.00     0.004 C 
ENDBRANCH  15  16
ENDBRANCH  14  15
ENDBRANCH  13  14
ENDBRANCH  12  13
ENDBRANCH  11  12
ENDBRANCH  10  11
ENDBRANCH   1  10
TORSDOF 13
ENDMDL
