MODEL 1
REMARK VINA RESULT:     0.000      0.000      0.000
REMARK INTER + INTRA:          -1.231
REMARK INTER:                   0.000
REMARK INTRA:                  -1.231
REMARK UNBOUND:                -1.231
REMARK SMILES O=c1c(-c2ccc(O)cc2)coc2c([C@H]3O[C@@H](CO)[C@@H](O)[C@@H](O)[C@H]3O)c(O)ccc12
REMARK SMILES IDX 3 1 11 2 12 3 13 4 30 5 2 6 1 7 29 8 28 9 26 10 14 11 4 12
REMARK SMILES IDX 5 13 6 14 7 15 10 16 9 17 8 18 15 20 24 21 16 22 22 23 17 24
REMARK SMILES IDX 20 25 25 26 23 28 18 30 19 31 21 33 27 35
REMARK H PARENT 8 19 25 27 23 29 19 32 21 34 27 36
REMARK Flexibility Score: inf
ROOT
ATOM      1  C   UNL     1      15.709  21.330  52.019  1.00  0.00     0.065 A 
ATOM      2  C   UNL     1      15.111  22.374  52.741  1.00  0.00     0.208 A 
ATOM      3  O   UNL     1      14.190  22.125  53.665  1.00  0.00    -0.463 OA
ATOM      4  C   UNL     1      13.772  20.897  53.965  1.00  0.00     0.147 A 
ATOM      5  C   UNL     1      14.329  19.785  53.292  1.00  0.00     0.066 A 
ATOM      6  C   UNL     1      15.316  20.011  52.316  1.00  0.00     0.200 A 
ATOM      7  O   UNL     1      15.860  19.037  51.726  1.00  0.00    -0.288 OA
ATOM      8  C   UNL     1      13.895  18.491  53.617  1.00  0.00     0.020 A 
ATOM      9  C   UNL     1      12.925  18.301  54.598  1.00  0.00     0.047 A 
ATOM     10  C   UNL     1      12.370  19.394  55.276  1.00  0.00     0.125 A 
ATOM     11  C   UNL     1      12.777  20.712  54.955  1.00  0.00     0.069 A 
ENDROOT
BRANCH   1  12
ATOM     12  C   UNL     1      16.722  21.634  50.973  1.00  0.00    -0.011 A 
ATOM     13  C   UNL     1      18.081  21.750  51.311  1.00  0.00     0.013 A 
ATOM     14  C   UNL     1      19.033  22.046  50.331  1.00  0.00     0.047 A 
ATOM     15  C   UNL     1      18.642  22.233  49.002  1.00  0.00     0.115 A 
ATOM     16  C   UNL     1      16.335  21.840  49.636  1.00  0.00     0.013 A 
ATOM     17  C   UNL     1      17.288  22.134  48.657  1.00  0.00     0.047 A 
BRANCH  15  18
ATOM     18  O   UNL     1      19.603  22.516  48.034  1.00  0.00    -0.508 OA
ATOM     19  H   UNL     1      20.281  21.820  47.743  1.00  0.00     0.293 HD
ENDBRANCH  15  18
ENDBRANCH   1  12
BRANCH  11  20
ATOM     20  C   UNL     1      12.227  21.924  55.703  1.00  0.00     0.188 C 
ATOM     21  C   UNL     1      13.024  22.169  57.010  1.00  0.00     0.179 C 
ATOM     22  O   UNL     1      10.842  21.762  55.972  1.00  0.00    -0.362 OA
ATOM     23  C   UNL     1      12.424  23.355  57.796  1.00  0.00     0.177 C 
ATOM     24  C   UNL     1      10.289  22.956  56.501  1.00  0.00     0.176 C 
ATOM     25  C   UNL     1      10.886  23.263  57.898  1.00  0.00     0.177 C 
BRANCH  21  26
ATOM     26  O   UNL     1      13.112  21.011  57.808  1.00  0.00    -0.387 OA
ATOM     27  H   UNL     1      12.974  21.274  58.753  1.00  0.00     0.211 HD
ENDBRANCH  21  26
BRANCH  23  28
ATOM     28  O   UNL     1      13.000  23.419  59.076  1.00  0.00    -0.387 OA
ATOM     29  H   UNL     1      13.700  22.717  59.111  1.00  0.00     0.211 HD
ENDBRANCH  23  28
BRANCH  24  30
ATOM     30  C   UNL     1       8.765  22.805  56.550  1.00  0.00     0.191 C 
BRANCH  30  31
ATOM     31  O   UNL     1       8.415  21.493  56.894  1.00  0.00    -0.394 OA
ATOM     32  H   UNL     1       9.013  21.237  57.644  1.00  0.00     0.210 HD
ENDBRANCH  30  31
ENDBRANCH  24  30
BRANCH  25  33
ATOM     33  O   UNL     1      10.524  22.270  58.826  1.00  0.00    -0.388 OA
ATOM     34  H   UNL     1      10.494  21.407  58.336  1.00  0.00     0.211 HD
ENDBRANCH  25  33
ENDBRANCH  11  20
BRANCH  10  35
ATOM     35  O   UNL     1      11.412  19.162  56.263  1.00  0.00    -0.507 OA
ATOM     36  H   UNL     1      10.617  18.553  56.105  1.00  0.00     0.293 HD
ENDBRANCH  10  35
TORSDOF 9
ENDMDL
MODEL 2
REMARK VINA RESULT:     0.000      8.105      9.860
REMARK INTER + INTRA:          -1.231
REMARK INTER:                   0.000
REMARK INTRA:                  -1.231
REMARK UNBOUND:                -1.231
REMARK SMILES O=c1c(-c2ccc(O)cc2)coc2c([C@H]3O[C@@H](CO)[C@@H](O)[C@@H](O)[C@H]3O)c(O)ccc12
REMARK SMILES IDX 3 1 11 2 12 3 13 4 30 5 2 6 1 7 29 8 28 9 26 10 14 11 4 12
REMARK SMILES IDX 5 13 6 14 7 15 10 16 9 17 8 18 15 20 24 21 16 22 22 23 17 24
REMARK SMILES IDX 20 25 25 26 23 28 18 30 19 31 21 33 27 35
REMARK H PARENT 8 19 25 27 23 29 19 32 21 34 27 36
REMARK Flexibility Score: inf
ROOT
ATOM      1  C   UNL     1      10.141  16.872  48.733  1.00  0.00     0.065 A 
ATOM      2  C   UNL     1       9.367  17.574  49.670  1.00  0.00     0.208 A 
ATOM      3  O   UNL     1       8.491  18.493  49.280  1.00  0.00    -0.463 OA
ATOM      4  C   UNL     1       8.289  18.813  48.004  1.00  0.00     0.147 A 
ATOM      5  C   UNL     1       9.020  18.147  46.993  1.00  0.00     0.066 A 
ATOM      6  C   UNL     1       9.947  17.159  47.369  1.00  0.00     0.200 A 
ATOM      7  O   UNL     1      10.587  16.521  46.487  1.00  0.00    -0.288 OA
ATOM      8  C   UNL     1       8.799  18.478  45.647  1.00  0.00     0.020 A 
ATOM      9  C   UNL     1       7.863  19.452  45.308  1.00  0.00     0.047 A 
ATOM     10  C   UNL     1       7.129  20.115  46.300  1.00  0.00     0.125 A 
ATOM     11  C   UNL     1       7.345  19.813  47.667  1.00  0.00     0.069 A 
ENDROOT
BRANCH   1  12
ATOM     12  C   UNL     1      11.132  15.863  49.194  1.00  0.00    -0.011 A 
ATOM     13  C   UNL     1      10.745  14.527  49.397  1.00  0.00     0.013 A 
ATOM     14  C   UNL     1      11.674  13.579  49.839  1.00  0.00     0.047 A 
ATOM     15  C   UNL     1      12.997  13.953  50.089  1.00  0.00     0.115 A 
ATOM     16  C   UNL     1      12.463  16.233  49.463  1.00  0.00     0.013 A 
ATOM     17  C   UNL     1      13.389  15.285  49.904  1.00  0.00     0.047 A 
BRANCH  15  18
ATOM     18  O   UNL     1      13.914  12.995  50.518  1.00  0.00    -0.508 OA
ATOM     19  H   UNL     1      13.628  12.211  51.094  1.00  0.00     0.293 HD
ENDBRANCH  15  18
ENDBRANCH   1  12
BRANCH  11  20
ATOM     20  C   UNL     1       6.533  20.481  48.772  1.00  0.00     0.188 C 
ATOM     21  C   UNL     1       5.188  19.740  48.987  1.00  0.00     0.179 C 
ATOM     22  O   UNL     1       6.318  21.853  48.478  1.00  0.00    -0.362 OA
ATOM     23  C   UNL     1       4.340  20.457  50.061  1.00  0.00     0.177 C 
ATOM     24  C   UNL     1       5.725  22.518  49.581  1.00  0.00     0.176 C 
ATOM     25  C   UNL     1       4.293  21.985  49.836  1.00  0.00     0.177 C 
BRANCH  21  26
ATOM     26  O   UNL     1       4.470  19.575  47.787  1.00  0.00    -0.387 OA
ATOM     27  H   UNL     1       5.066  19.140  47.126  1.00  0.00     0.211 HD
ENDBRANCH  21  26
BRANCH  23  28
ATOM     28  O   UNL     1       3.042  19.922  50.080  1.00  0.00    -0.387 OA
ATOM     29  H   UNL     1       2.920  19.435  49.224  1.00  0.00     0.211 HD
ENDBRANCH  23  28
BRANCH  24  30
ATOM     30  C   UNL     1       5.734  24.025  49.303  1.00  0.00     0.191 C 
BRANCH  30  31
ATOM     31  O   UNL     1       5.492  24.271  47.945  1.00  0.00    -0.394 OA
ATOM     32  H   UNL     1       5.797  23.461  47.460  1.00  0.00     0.210 HD
ENDBRANCH  30  31
ENDBRANCH  24  30
BRANCH  25  33
ATOM     33  O   UNL     1       3.447  22.285  48.752  1.00  0.00    -0.388 OA
ATOM     34  H   UNL     1       3.167  23.232  48.852  1.00  0.00     0.211 HD
ENDBRANCH  25  33
ENDBRANCH  11  20
BRANCH  10  35
ATOM     35  O   UNL     1       6.189  21.073  45.919  1.00  0.00    -0.507 OA
ATOM     36  H   UNL     1       6.287  22.049  46.175  1.00  0.00     0.293 HD
ENDBRANCH  10  35
TORSDOF 9
ENDMDL
MODEL 3
REMARK VINA RESULT:     0.000      3.664      7.570
REMARK INTER + INTRA:          -1.230
REMARK INTER:                   0.000
REMARK INTRA:                  -1.230
REMARK UNBOUND:                -1.231
REMARK SMILES O=c1c(-c2ccc(O)cc2)coc2c([C@H]3O[C@@H](CO)[C@@H](O)[C@@H](O)[C@H]3O)c(O)ccc12
REMARK SMILES IDX 3 1 11 2 12 3 13 4 30 5 2 6 1 7 29 8 28 9 26 10 14 11 4 12
REMARK SMILES IDX 5 13 6 14 7 15 10 16 9 17 8 18 15 20 24 21 16 22 22 23 17 24
REMARK SMILES IDX 20 25 25 26 23 28 18 30 19 31 21 33 27 35
REMARK H PARENT 8 19 25 27 23 29 19 32 21 34 27 36
REMARK Flexibility Score: inf
ROOT
ATOM      1  C   UNL     1      13.321  22.766  54.687  1.00  0.00     0.065 A 
ATOM      2  C   UNL     1      13.130  22.174  53.429  1.00  0.00     0.208 A 
ATOM      3  O   UNL     1      13.532  20.932  53.191  1.00  0.00    -0.463 OA
ATOM      4  C   UNL     1      14.137  20.174  54.103  1.00  0.00     0.147 A 
ATOM      5  C   UNL     1      14.360  20.687  55.402  1.00  0.00     0.066 A 
ATOM      6  C   UNL     1      13.935  21.996  55.693  1.00  0.00     0.200 A 
ATOM      7  O   UNL     1      14.086  22.469  56.853  1.00  0.00    -0.288 OA
ATOM      8  C   UNL     1      14.988  19.884  56.365  1.00  0.00     0.020 A 
ATOM      9  C   UNL     1      15.385  18.587  56.048  1.00  0.00     0.047 A 
ATOM     10  C   UNL     1      15.165  18.065  54.767  1.00  0.00     0.125 A 
ATOM     11  C   UNL     1      14.549  18.860  53.771  1.00  0.00     0.069 A 
ENDROOT
BRANCH   1  12
ATOM     12  C   UNL     1      12.881  24.167  54.925  1.00  0.00    -0.011 A 
ATOM     13  C   UNL     1      11.570  24.439  55.353  1.00  0.00     0.013 A 
ATOM     14  C   UNL     1      11.152  25.756  55.567  1.00  0.00     0.047 A 
ATOM     15  C   UNL     1      12.035  26.818  55.353  1.00  0.00     0.115 A 
ATOM     16  C   UNL     1      13.758  25.243  54.697  1.00  0.00     0.013 A 
ATOM     17  C   UNL     1      13.339  26.559  54.913  1.00  0.00     0.047 A 
BRANCH  15  18
ATOM     18  O   UNL     1      11.608  28.125  55.582  1.00  0.00    -0.508 OA
ATOM     19  H   UNL     1      11.170  28.393  56.456  1.00  0.00     0.293 HD
ENDBRANCH  15  18
ENDBRANCH   1  12
BRANCH  11  20
ATOM     20  C   UNL     1      14.252  18.310  52.378  1.00  0.00     0.188 C 
ATOM     21  C   UNL     1      12.905  17.543  52.369  1.00  0.00     0.179 C 
ATOM     22  O   UNL     1      15.314  17.484  51.927  1.00  0.00    -0.362 OA
ATOM     23  C   UNL     1      12.639  16.933  50.976  1.00  0.00     0.177 C 
ATOM     24  C   UNL     1      15.128  17.120  50.570  1.00  0.00     0.176 C 
ATOM     25  C   UNL     1      13.882  16.211  50.413  1.00  0.00     0.177 C 
BRANCH  21  26
ATOM     26  O   UNL     1      12.839  16.566  53.383  1.00  0.00    -0.387 OA
ATOM     27  H   UNL     1      11.997  16.056  53.267  1.00  0.00     0.211 HD
ENDBRANCH  21  26
BRANCH  23  28
ATOM     28  O   UNL     1      11.546  16.052  51.041  1.00  0.00    -0.387 OA
ATOM     29  H   UNL     1      10.802  16.550  51.470  1.00  0.00     0.211 HD
ENDBRANCH  23  28
BRANCH  24  30
ATOM     30  C   UNL     1      16.404  16.434  50.070  1.00  0.00     0.191 C 
BRANCH  30  31
ATOM     31  O   UNL     1      16.960  15.642  51.084  1.00  0.00    -0.394 OA
ATOM     32  H   UNL     1      16.765  16.111  51.937  1.00  0.00     0.210 HD
ENDBRANCH  30  31
ENDBRANCH  24  30
BRANCH  25  33
ATOM     33  O   UNL     1      14.070  14.986  51.080  1.00  0.00    -0.388 OA
ATOM     34  H   UNL     1      13.847  15.134  52.035  1.00  0.00     0.211 HD
ENDBRANCH  25  33
ENDBRANCH  11  20
BRANCH  10  35
ATOM     35  O   UNL     1      15.563  16.756  54.493  1.00  0.00    -0.507 OA
ATOM     36  H   UNL     1      16.426  16.551  54.003  1.00  0.00     0.293 HD
ENDBRANCH  10  35
TORSDOF 9
ENDMDL
MODEL 4
REMARK VINA RESULT:     0.000      4.901      7.098
REMARK INTER + INTRA:          -1.230
REMARK INTER:                   0.000
REMARK INTRA:                  -1.230
REMARK UNBOUND:                -1.231
REMARK SMILES O=c1c(-c2ccc(O)cc2)coc2c([C@H]3O[C@@H](CO)[C@@H](O)[C@@H](O)[C@H]3O)c(O)ccc12
REMARK SMILES IDX 3 1 11 2 12 3 13 4 30 5 2 6 1 7 29 8 28 9 26 10 14 11 4 12
REMARK SMILES IDX 5 13 6 14 7 15 10 16 9 17 8 18 15 20 24 21 16 22 22 23 17 24
REMARK SMILES IDX 20 25 25 26 23 28 18 30 19 31 21 33 27 35
REMARK H PARENT 8 19 25 27 23 29 19 32 21 34 27 36
REMARK Flexibility Score: inf
ROOT
ATOM      1  C   UNL     1      11.554  17.396  56.156  1.00  0.00     0.065 A 
ATOM      2  C   UNL     1      10.601  18.302  55.666  1.00  0.00     0.208 A 
ATOM      3  O   UNL     1      10.728  19.607  55.875  1.00  0.00    -0.463 OA
ATOM      4  C   UNL     1      11.741  20.141  56.553  1.00  0.00     0.147 A 
ATOM      5  C   UNL     1      12.753  19.302  57.073  1.00  0.00     0.066 A 
ATOM      6  C   UNL     1      12.657  17.915  56.860  1.00  0.00     0.200 A 
ATOM      7  O   UNL     1      13.564  17.144  57.280  1.00  0.00    -0.288 OA
ATOM      8  C   UNL     1      13.827  19.867  57.778  1.00  0.00     0.020 A 
ATOM      9  C   UNL     1      13.899  21.246  57.960  1.00  0.00     0.047 A 
ATOM     10  C   UNL     1      12.906  22.089  57.444  1.00  0.00     0.125 A 
ATOM     11  C   UNL     1      11.803  21.543  56.744  1.00  0.00     0.069 A 
ENDROOT
BRANCH   1  12
ATOM     12  C   UNL     1      11.379  15.937  55.929  1.00  0.00    -0.011 A 
ATOM     13  C   UNL     1      11.877  15.333  54.761  1.00  0.00     0.013 A 
ATOM     14  C   UNL     1      11.705  13.963  54.542  1.00  0.00     0.047 A 
ATOM     15  C   UNL     1      11.031  13.178  55.482  1.00  0.00     0.115 A 
ATOM     16  C   UNL     1      10.689  15.142  56.863  1.00  0.00     0.013 A 
ATOM     17  C   UNL     1      10.518  13.772  56.642  1.00  0.00     0.047 A 
BRANCH  15  18
ATOM     18  O   UNL     1      10.878  11.812  55.255  1.00  0.00    -0.508 OA
ATOM     19  H   UNL     1      11.637  11.248  54.892  1.00  0.00     0.293 HD
ENDBRANCH  15  18
ENDBRANCH   1  12
BRANCH  11  20
ATOM     20  C   UNL     1      10.725  22.432  56.129  1.00  0.00     0.188 C 
ATOM     21  C   UNL     1      11.161  22.930  54.727  1.00  0.00     0.179 C 
ATOM     22  O   UNL     1      10.423  23.522  56.987  1.00  0.00    -0.362 OA
ATOM     23  C   UNL     1      10.099  23.882  54.136  1.00  0.00     0.177 C 
ATOM     24  C   UNL     1       9.302  24.245  56.508  1.00  0.00     0.176 C 
ATOM     25  C   UNL     1       9.632  24.938  55.162  1.00  0.00     0.177 C 
BRANCH  21  26
ATOM     26  O   UNL     1      12.438  23.527  54.745  1.00  0.00    -0.387 OA
ATOM     27  H   UNL     1      12.421  24.312  54.140  1.00  0.00     0.211 HD
ENDBRANCH  21  26
BRANCH  23  28
ATOM     28  O   UNL     1      10.605  24.505  52.983  1.00  0.00    -0.387 OA
ATOM     29  H   UNL     1      10.412  25.475  53.074  1.00  0.00     0.211 HD
ENDBRANCH  23  28
BRANCH  24  30
ATOM     30  C   UNL     1       8.878  25.253  57.582  1.00  0.00     0.191 C 
BRANCH  30  31
ATOM     31  O   UNL     1      10.004  25.780  58.227  1.00  0.00    -0.394 OA
ATOM     32  H   UNL     1      10.136  26.689  57.850  1.00  0.00     0.210 HD
ENDBRANCH  30  31
ENDBRANCH  24  30
BRANCH  25  33
ATOM     33  O   UNL     1      10.629  25.915  55.334  1.00  0.00    -0.388 OA
ATOM     34  H   UNL     1      11.072  25.733  56.203  1.00  0.00     0.211 HD
ENDBRANCH  25  33
ENDBRANCH  11  20
BRANCH  10  35
ATOM     35  O   UNL     1      13.022  23.466  57.634  1.00  0.00    -0.507 OA
ATOM     36  H   UNL     1      13.218  23.866  58.544  1.00  0.00     0.293 HD
ENDBRANCH  10  35
TORSDOF 9
ENDMDL
MODEL 5
REMARK VINA RESULT:     0.000      4.444      7.971
REMARK INTER + INTRA:          -1.230
REMARK INTER:                   0.000
REMARK INTRA:                  -1.230
REMARK UNBOUND:                -1.231
REMARK SMILES O=c1c(-c2ccc(O)cc2)coc2c([C@H]3O[C@@H](CO)[C@@H](O)[C@@H](O)[C@H]3O)c(O)ccc12
REMARK SMILES IDX 3 1 11 2 12 3 13 4 30 5 2 6 1 7 29 8 28 9 26 10 14 11 4 12
REMARK SMILES IDX 5 13 6 14 7 15 10 16 9 17 8 18 15 20 24 21 16 22 22 23 17 24
REMARK SMILES IDX 20 25 25 26 23 28 18 30 19 31 21 33 27 35
REMARK H PARENT 8 19 25 27 23 29 19 32 21 34 27 36
REMARK Flexibility Score: inf
ROOT
ATOM      1  C   UNL     1      11.622  19.016  52.174  1.00  0.00     0.065 A 
ATOM      2  C   UNL     1      11.911  18.191  53.271  1.00  0.00     0.208 A 
ATOM      3  O   UNL     1      13.153  17.791  53.516  1.00  0.00    -0.463 OA
ATOM      4  C   UNL     1      14.192  18.130  52.755  1.00  0.00     0.147 A 
ATOM      5  C   UNL     1      13.992  18.969  51.635  1.00  0.00     0.066 A 
ATOM      6  C   UNL     1      12.691  19.422  51.353  1.00  0.00     0.200 A 
ATOM      7  O   UNL     1      12.487  20.202  50.381  1.00  0.00    -0.288 OA
ATOM      8  C   UNL     1      15.089  19.335  50.840  1.00  0.00     0.020 A 
ATOM      9  C   UNL     1      16.367  18.880  51.155  1.00  0.00     0.047 A 
ATOM     10  C   UNL     1      16.579  18.053  52.265  1.00  0.00     0.125 A 
ATOM     11  C   UNL     1      15.487  17.654  53.074  1.00  0.00     0.069 A 
ENDROOT
BRANCH   1  12
ATOM     12  C   UNL     1      10.220  19.434  51.907  1.00  0.00    -0.011 A 
ATOM     13  C   UNL     1       9.695  20.592  52.507  1.00  0.00     0.013 A 
ATOM     14  C   UNL     1       8.373  20.980  52.264  1.00  0.00     0.047 A 
ATOM     15  C   UNL     1       7.559  20.217  51.423  1.00  0.00     0.115 A 
ATOM     16  C   UNL     1       9.387  18.664  51.073  1.00  0.00     0.013 A 
ATOM     17  C   UNL     1       8.067  19.054  50.831  1.00  0.00     0.047 A 
BRANCH  15  18
ATOM     18  O   UNL     1       6.248  20.623  51.181  1.00  0.00    -0.508 OA
ATOM     19  H   UNL     1       5.643  20.936  51.933  1.00  0.00     0.293 HD
ENDBRANCH  15  18
ENDBRANCH   1  12
BRANCH  11  20
ATOM     20  C   UNL     1      15.685  16.792  54.317  1.00  0.00     0.188 C 
ATOM     21  C   UNL     1      16.059  17.671  55.539  1.00  0.00     0.179 C 
ATOM     22  O   UNL     1      16.667  15.794  54.086  1.00  0.00    -0.362 OA
ATOM     23  C   UNL     1      16.322  16.789  56.780  1.00  0.00     0.177 C 
ATOM     24  C   UNL     1      16.724  14.881  55.169  1.00  0.00     0.176 C 
ATOM     25  C   UNL     1      17.233  15.586  56.452  1.00  0.00     0.177 C 
BRANCH  21  26
ATOM     26  O   UNL     1      17.147  18.524  55.270  1.00  0.00    -0.387 OA
ATOM     27  H   UNL     1      17.593  18.208  54.444  1.00  0.00     0.211 HD
ENDBRANCH  21  26
BRANCH  23  28
ATOM     28  O   UNL     1      16.883  17.566  57.807  1.00  0.00    -0.387 OA
ATOM     29  H   UNL     1      16.958  18.493  57.457  1.00  0.00     0.211 HD
ENDBRANCH  23  28
BRANCH  24  30
ATOM     30  C   UNL     1      17.620  13.705  54.768  1.00  0.00     0.191 C 
BRANCH  30  31
ATOM     31  O   UNL     1      18.696  14.155  53.991  1.00  0.00    -0.394 OA
ATOM     32  H   UNL     1      18.902  15.071  54.312  1.00  0.00     0.210 HD
ENDBRANCH  30  31
ENDBRANCH  24  30
BRANCH  25  33
ATOM     33  O   UNL     1      18.562  16.019  56.291  1.00  0.00    -0.388 OA
ATOM     34  H   UNL     1      18.705  16.770  56.924  1.00  0.00     0.211 HD
ENDBRANCH  25  33
ENDBRANCH  11  20
BRANCH  10  35
ATOM     35  O   UNL     1      17.876  17.631  52.557  1.00  0.00    -0.507 OA
ATOM     36  H   UNL     1      18.512  18.197  53.106  1.00  0.00     0.293 HD
ENDBRANCH  10  35
TORSDOF 9
ENDMDL
MODEL 6
REMARK VINA RESULT:     0.000      8.100      9.902
REMARK INTER + INTRA:          -1.230
REMARK INTER:                   0.000
REMARK INTRA:                  -1.230
REMARK UNBOUND:                -1.231
REMARK SMILES O=c1c(-c2ccc(O)cc2)coc2c([C@H]3O[C@@H](CO)[C@@H](O)[C@@H](O)[C@H]3O)c(O)ccc12
REMARK SMILES IDX 3 1 11 2 12 3 13 4 30 5 2 6 1 7 29 8 28 9 26 10 14 11 4 12
REMARK SMILES IDX 5 13 6 14 7 15 10 16 9 17 8 18 15 20 24 21 16 22 22 23 17 24
REMARK SMILES IDX 20 25 25 26 23 28 18 30 19 31 21 33 27 35
REMARK H PARENT 8 19 25 27 23 29 19 32 21 34 27 36
REMARK Flexibility Score: inf
ROOT
ATOM      1  C   UNL     1      12.464  15.483  48.103  1.00  0.00     0.065 A 
ATOM      2  C   UNL     1      12.468  16.882  48.215  1.00  0.00     0.208 A 
ATOM      3  O   UNL     1      11.471  17.609  47.726  1.00  0.00    -0.463 OA
ATOM      4  C   UNL     1      10.420  17.080  47.102  1.00  0.00     0.147 A 
ATOM      5  C   UNL     1      10.330  15.676  46.954  1.00  0.00     0.066 A 
ATOM      6  C   UNL     1      11.363  14.875  47.472  1.00  0.00     0.200 A 
ATOM      7  O   UNL     1      11.292  13.617  47.389  1.00  0.00    -0.288 OA
ATOM      8  C   UNL     1       9.217  15.119  46.307  1.00  0.00     0.020 A 
ATOM      9  C   UNL     1       8.205  15.941  45.817  1.00  0.00     0.047 A 
ATOM     10  C   UNL     1       8.280  17.332  45.963  1.00  0.00     0.125 A 
ATOM     11  C   UNL     1       9.401  17.922  46.597  1.00  0.00     0.069 A 
ENDROOT
BRANCH   1  12
ATOM     12  C   UNL     1      13.603  14.691  48.640  1.00  0.00    -0.011 A 
ATOM     13  C   UNL     1      13.604  14.263  49.978  1.00  0.00     0.013 A 
ATOM     14  C   UNL     1      14.679  13.526  50.486  1.00  0.00     0.047 A 
ATOM     15  C   UNL     1      15.766  13.210  49.667  1.00  0.00     0.115 A 
ATOM     16  C   UNL     1      14.709  14.381  47.827  1.00  0.00     0.013 A 
ATOM     17  C   UNL     1      15.781  13.644  48.336  1.00  0.00     0.047 A 
BRANCH  15  18
ATOM     18  O   UNL     1      16.824  12.465  50.185  1.00  0.00    -0.508 OA
ATOM     19  H   UNL     1      17.038  12.468  51.176  1.00  0.00     0.293 HD
ENDBRANCH  15  18
ENDBRANCH   1  12
BRANCH  11  20
ATOM     20  C   UNL     1       9.496  19.429  46.813  1.00  0.00     0.188 C 
ATOM     21  C   UNL     1       8.750  19.844  48.108  1.00  0.00     0.179 C 
ATOM     22  O   UNL     1       8.994  20.132  45.687  1.00  0.00    -0.362 OA
ATOM     23  C   UNL     1       8.792  21.377  48.289  1.00  0.00     0.177 C 
ATOM     24  C   UNL     1       9.246  21.522  45.806  1.00  0.00     0.176 C 
ATOM     25  C   UNL     1       8.440  22.125  46.985  1.00  0.00     0.177 C 
BRANCH  21  26
ATOM     26  O   UNL     1       7.428  19.356  48.143  1.00  0.00    -0.387 OA
ATOM     27  H   UNL     1       7.463  18.381  48.320  1.00  0.00     0.211 HD
ENDBRANCH  21  26
BRANCH  23  28
ATOM     28  O   UNL     1       7.923  21.760  49.325  1.00  0.00    -0.387 OA
ATOM     29  H   UNL     1       8.271  21.347  50.158  1.00  0.00     0.211 HD
ENDBRANCH  23  28
BRANCH  24  30
ATOM     30  C   UNL     1       8.901  22.195  44.473  1.00  0.00     0.191 C 
BRANCH  30  31
ATOM     31  O   UNL     1       7.773  21.592  43.900  1.00  0.00    -0.394 OA
ATOM     32  H   UNL     1       8.117  20.872  43.310  1.00  0.00     0.210 HD
ENDBRANCH  30  31
ENDBRANCH  24  30
BRANCH  25  33
ATOM     33  O   UNL     1       7.058  22.041  46.740  1.00  0.00    -0.388 OA
ATOM     34  H   UNL     1       6.891  21.173  46.289  1.00  0.00     0.211 HD
ENDBRANCH  25  33
ENDBRANCH  11  20
BRANCH  10  35
ATOM     35  O   UNL     1       7.238  18.120  45.473  1.00  0.00    -0.507 OA
ATOM     36  H   UNL     1       6.976  18.994  45.914  1.00  0.00     0.293 HD
ENDBRANCH  10  35
TORSDOF 9
ENDMDL
MODEL 7
REMARK VINA RESULT:     0.000      6.305      8.635
REMARK INTER + INTRA:          -1.230
REMARK INTER:                   0.000
REMARK INTRA:                  -1.230
REMARK UNBOUND:                -1.231
REMARK SMILES O=c1c(-c2ccc(O)cc2)coc2c([C@H]3O[C@@H](CO)[C@@H](O)[C@@H](O)[C@H]3O)c(O)ccc12
REMARK SMILES IDX 3 1 11 2 12 3 13 4 30 5 2 6 1 7 29 8 28 9 26 10 14 11 4 12
REMARK SMILES IDX 5 13 6 14 7 15 10 16 9 17 8 18 15 20 24 21 16 22 22 23 17 24
REMARK SMILES IDX 20 25 25 26 23 28 18 30 19 31 21 33 27 35
REMARK H PARENT 8 19 25 27 23 29 19 32 21 34 27 36
REMARK Flexibility Score: inf
ROOT
ATOM      1  C   UNL     1      17.369  21.537  48.438  1.00  0.00     0.065 A 
ATOM      2  C   UNL     1      17.149  20.333  47.752  1.00  0.00     0.208 A 
ATOM      3  O   UNL     1      17.110  19.175  48.400  1.00  0.00    -0.463 OA
ATOM      4  C   UNL     1      17.278  19.071  49.717  1.00  0.00     0.147 A 
ATOM      5  C   UNL     1      17.495  20.236  50.488  1.00  0.00     0.066 A 
ATOM      6  C   UNL     1      17.529  21.481  49.835  1.00  0.00     0.200 A 
ATOM      7  O   UNL     1      17.683  22.543  50.501  1.00  0.00    -0.288 OA
ATOM      8  C   UNL     1      17.660  20.126  51.877  1.00  0.00     0.020 A 
ATOM      9  C   UNL     1      17.608  18.879  52.494  1.00  0.00     0.047 A 
ATOM     10  C   UNL     1      17.388  17.718  51.742  1.00  0.00     0.125 A 
ATOM     11  C   UNL     1      17.235  17.798  50.337  1.00  0.00     0.069 A 
ENDROOT
BRANCH   1  12
ATOM     12  C   UNL     1      17.430  22.820  47.688  1.00  0.00    -0.011 A 
ATOM     13  C   UNL     1      16.258  23.552  47.432  1.00  0.00     0.013 A 
ATOM     14  C   UNL     1      16.313  24.753  46.719  1.00  0.00     0.047 A 
ATOM     15  C   UNL     1      17.536  25.237  46.248  1.00  0.00     0.115 A 
ATOM     16  C   UNL     1      18.655  23.308  47.197  1.00  0.00     0.013 A 
ATOM     17  C   UNL     1      18.708  24.509  46.484  1.00  0.00     0.047 A 
BRANCH  15  18
ATOM     18  O   UNL     1      17.577  26.442  45.548  1.00  0.00    -0.508 OA
ATOM     19  H   UNL     1      18.233  27.175  45.794  1.00  0.00     0.293 HD
ENDBRANCH  15  18
ENDBRANCH   1  12
BRANCH  11  20
ATOM     20  C   UNL     1      16.950  16.561  49.490  1.00  0.00     0.188 C 
ATOM     21  C   UNL     1      15.431  16.247  49.475  1.00  0.00     0.179 C 
ATOM     22  O   UNL     1      17.697  15.448  49.959  1.00  0.00    -0.362 OA
ATOM     23  C   UNL     1      15.153  14.957  48.672  1.00  0.00     0.177 C 
ATOM     24  C   UNL     1      17.575  14.350  49.071  1.00  0.00     0.176 C 
ATOM     25  C   UNL     1      16.120  13.816  49.056  1.00  0.00     0.177 C 
BRANCH  21  26
ATOM     26  O   UNL     1      14.887  16.176  50.773  1.00  0.00    -0.387 OA
ATOM     27  H   UNL     1      13.901  16.245  50.699  1.00  0.00     0.211 HD
ENDBRANCH  21  26
BRANCH  23  28
ATOM     28  O   UNL     1      13.820  14.556  48.859  1.00  0.00    -0.387 OA
ATOM     29  H   UNL     1      13.277  15.385  48.921  1.00  0.00     0.211 HD
ENDBRANCH  23  28
BRANCH  24  30
ATOM     30  C   UNL     1      18.578  13.270  49.493  1.00  0.00     0.191 C 
BRANCH  30  31
ATOM     31  O   UNL     1      18.674  13.214  50.890  1.00  0.00    -0.394 OA
ATOM     32  H   UNL     1      19.624  13.400  51.107  1.00  0.00     0.210 HD
ENDBRANCH  30  31
ENDBRANCH  24  30
BRANCH  25  33
ATOM     33  O   UNL     1      15.769  13.289  50.312  1.00  0.00    -0.388 OA
ATOM     34  H   UNL     1      16.194  12.396  50.386  1.00  0.00     0.211 HD
ENDBRANCH  25  33
ENDBRANCH  11  20
BRANCH  10  35
ATOM     35  O   UNL     1      17.326  16.488  52.399  1.00  0.00    -0.507 OA
ATOM     36  H   UNL     1      16.753  16.351  53.223  1.00  0.00     0.293 HD
ENDBRANCH  10  35
TORSDOF 9
ENDMDL
MODEL 8
REMARK VINA RESULT:     0.000      6.580      9.161
REMARK INTER + INTRA:          -1.230
REMARK INTER:                   0.000
REMARK INTRA:                  -1.230
REMARK UNBOUND:                -1.231
REMARK SMILES O=c1c(-c2ccc(O)cc2)coc2c([C@H]3O[C@@H](CO)[C@@H](O)[C@@H](O)[C@H]3O)c(O)ccc12
REMARK SMILES IDX 3 1 11 2 12 3 13 4 30 5 2 6 1 7 29 8 28 9 26 10 14 11 4 12
REMARK SMILES IDX 5 13 6 14 7 15 10 16 9 17 8 18 15 20 24 21 16 22 22 23 17 24
REMARK SMILES IDX 20 25 25 26 23 28 18 30 19 31 21 33 27 35
REMARK H PARENT 8 19 25 27 23 29 19 32 21 34 27 36
REMARK Flexibility Score: inf
ROOT
ATOM      1  C   UNL     1      16.225  12.807  51.964  1.00  0.00     0.065 A 
ATOM      2  C   UNL     1      14.985  12.249  52.311  1.00  0.00     0.208 A 
ATOM      3  O   UNL     1      13.888  12.996  52.355  1.00  0.00    -0.463 OA
ATOM      4  C   UNL     1      13.883  14.300  52.085  1.00  0.00     0.147 A 
ATOM      5  C   UNL     1      15.088  14.942  51.716  1.00  0.00     0.066 A 
ATOM      6  C   UNL     1      16.266  14.178  51.647  1.00  0.00     0.200 A 
ATOM      7  O   UNL     1      17.350  14.715  51.284  1.00  0.00    -0.288 OA
ATOM      8  C   UNL     1      15.079  16.313  51.420  1.00  0.00     0.020 A 
ATOM      9  C   UNL     1      13.891  17.038  51.485  1.00  0.00     0.047 A 
ATOM     10  C   UNL     1      12.690  16.412  51.844  1.00  0.00     0.125 A 
ATOM     11  C   UNL     1      12.674  15.033  52.164  1.00  0.00     0.069 A 
ENDROOT
BRANCH   1  12
ATOM     12  C   UNL     1      17.444  11.956  51.943  1.00  0.00    -0.011 A 
ATOM     13  C   UNL     1      17.799  11.249  50.781  1.00  0.00     0.013 A 
ATOM     14  C   UNL     1      18.940  10.440  50.763  1.00  0.00     0.047 A 
ATOM     15  C   UNL     1      19.738  10.323  51.904  1.00  0.00     0.115 A 
ATOM     16  C   UNL     1      18.246  11.820  53.092  1.00  0.00     0.013 A 
ATOM     17  C   UNL     1      19.386  11.012  53.071  1.00  0.00     0.047 A 
BRANCH  15  18
ATOM     18  O   UNL     1      20.878   9.523  51.867  1.00  0.00    -0.508 OA
ATOM     19  H   UNL     1      21.317   9.187  52.718  1.00  0.00     0.293 HD
ENDBRANCH  15  18
ENDBRANCH   1  12
BRANCH  11  20
ATOM     20  C   UNL     1      11.378  14.308  52.515  1.00  0.00     0.188 C 
ATOM     21  C   UNL     1      10.640  13.853  51.230  1.00  0.00     0.179 C 
ATOM     22  O   UNL     1      10.545  15.129  53.319  1.00  0.00    -0.362 OA
ATOM     23  C   UNL     1       9.298  13.177  51.586  1.00  0.00     0.177 C 
ATOM     24  C   UNL     1       9.427  14.399  53.797  1.00  0.00     0.176 C 
ATOM     25  C   UNL     1       8.498  13.993  52.625  1.00  0.00     0.177 C 
BRANCH  21  26
ATOM     26  O   UNL     1      10.461  14.908  50.314  1.00  0.00    -0.387 OA
ATOM     27  H   UNL     1       9.916  15.610  50.752  1.00  0.00     0.211 HD
ENDBRANCH  21  26
BRANCH  23  28
ATOM     28  O   UNL     1       8.537  12.982  50.421  1.00  0.00    -0.387 OA
ATOM     29  H   UNL     1       9.049  13.388  49.674  1.00  0.00     0.211 HD
ENDBRANCH  23  28
BRANCH  24  30
ATOM     30  C   UNL     1       8.697  15.254  54.838  1.00  0.00     0.191 C 
BRANCH  30  31
ATOM     31  O   UNL     1       8.720  16.603  54.463  1.00  0.00    -0.394 OA
ATOM     32  H   UNL     1       8.857  16.613  53.481  1.00  0.00     0.210 HD
ENDBRANCH  30  31
ENDBRANCH  24  30
BRANCH  25  33
ATOM     33  O   UNL     1       7.936  15.130  52.015  1.00  0.00    -0.388 OA
ATOM     34  H   UNL     1       8.612  15.488  51.384  1.00  0.00     0.211 HD
ENDBRANCH  25  33
ENDBRANCH  11  20
BRANCH  10  35
ATOM     35  O   UNL     1      11.519  17.169  51.882  1.00  0.00    -0.507 OA
ATOM     36  H   UNL     1      10.830  17.051  52.616  1.00  0.00     0.293 HD
ENDBRANCH  10  35
TORSDOF 9
ENDMDL
MODEL 9
REMARK VINA RESULT:     0.000      7.174     10.098
REMARK INTER + INTRA:          -1.230
REMARK INTER:                   0.000
REMARK INTRA:                  -1.230
REMARK UNBOUND:                -1.231
REMARK SMILES O=c1c(-c2ccc(O)cc2)coc2c([C@H]3O[C@@H](CO)[C@@H](O)[C@@H](O)[C@H]3O)c(O)ccc12
REMARK SMILES IDX 3 1 11 2 12 3 13 4 30 5 2 6 1 7 29 8 28 9 26 10 14 11 4 12
REMARK SMILES IDX 5 13 6 14 7 15 10 16 9 17 8 18 15 20 24 21 16 22 22 23 17 24
REMARK SMILES IDX 20 25 25 26 23 28 18 30 19 31 21 33 27 35
REMARK H PARENT 8 19 25 27 23 29 19 32 21 34 27 36
REMARK Flexibility Score: inf
ROOT
ATOM      1  C   UNL     1      15.507  14.917  53.901  1.00  0.00     0.065 A 
ATOM      2  C   UNL     1      15.676  15.036  55.289  1.00  0.00     0.208 A 
ATOM      3  O   UNL     1      16.872  14.890  55.846  1.00  0.00    -0.463 OA
ATOM      4  C   UNL     1      17.974  14.622  55.148  1.00  0.00     0.147 A 
ATOM      5  C   UNL     1      17.896  14.496  53.742  1.00  0.00     0.066 A 
ATOM      6  C   UNL     1      16.647  14.657  53.117  1.00  0.00     0.200 A 
ATOM      7  O   UNL     1      16.552  14.588  51.860  1.00  0.00    -0.288 OA
ATOM      8  C   UNL     1      19.060  14.224  53.007  1.00  0.00     0.020 A 
ATOM      9  C   UNL     1      20.284  14.083  53.655  1.00  0.00     0.047 A 
ATOM     10  C   UNL     1      20.375  14.211  55.047  1.00  0.00     0.125 A 
ATOM     11  C   UNL     1      19.213  14.468  55.815  1.00  0.00     0.069 A 
ENDROOT
BRANCH   1  12
ATOM     12  C   UNL     1      14.154  15.063  53.301  1.00  0.00    -0.011 A 
ATOM     13  C   UNL     1      13.673  16.330  52.929  1.00  0.00     0.013 A 
ATOM     14  C   UNL     1      12.397  16.470  52.374  1.00  0.00     0.047 A 
ATOM     15  C   UNL     1      11.584  15.349  52.187  1.00  0.00     0.115 A 
ATOM     16  C   UNL     1      13.322  13.942  53.124  1.00  0.00     0.013 A 
ATOM     17  C   UNL     1      12.047  14.084  52.569  1.00  0.00     0.047 A 
BRANCH  15  18
ATOM     18  O   UNL     1      10.319  15.502  51.622  1.00  0.00    -0.508 OA
ATOM     19  H   UNL     1       9.767  16.337  51.781  1.00  0.00     0.293 HD
ENDBRANCH  15  18
ENDBRANCH   1  12
BRANCH  11  20
ATOM     20  C   UNL     1      19.281  14.658  57.328  1.00  0.00     0.188 C 
ATOM     21  C   UNL     1      19.641  16.125  57.680  1.00  0.00     0.179 C 
ATOM     22  O   UNL     1      20.206  13.752  57.908  1.00  0.00    -0.362 OA
ATOM     23  C   UNL     1      19.772  16.298  59.209  1.00  0.00     0.177 C 
ATOM     24  C   UNL     1      20.138  13.799  59.324  1.00  0.00     0.176 C 
ATOM     25  C   UNL     1      20.618  15.176  59.848  1.00  0.00     0.177 C 
BRANCH  21  26
ATOM     26  O   UNL     1      20.798  16.567  57.008  1.00  0.00    -0.387 OA
ATOM     27  H   UNL     1      21.413  16.962  57.677  1.00  0.00     0.211 HD
ENDBRANCH  21  26
BRANCH  23  28
ATOM     28  O   UNL     1      20.323  17.557  59.501  1.00  0.00    -0.387 OA
ATOM     29  H   UNL     1      19.583  18.120  59.850  1.00  0.00     0.211 HD
ENDBRANCH  23  28
BRANCH  24  30
ATOM     30  C   UNL     1      20.976  12.647  59.889  1.00  0.00     0.191 C 
BRANCH  30  31
ATOM     31  O   UNL     1      22.123  12.450  59.110  1.00  0.00    -0.394 OA
ATOM     32  H   UNL     1      22.271  13.300  58.619  1.00  0.00     0.210 HD
ENDBRANCH  30  31
ENDBRANCH  24  30
BRANCH  25  33
ATOM     33  O   UNL     1      21.980  15.375  59.558  1.00  0.00    -0.388 OA
ATOM     34  H   UNL     1      22.438  14.504  59.685  1.00  0.00     0.211 HD
ENDBRANCH  25  33
ENDBRANCH  11  20
BRANCH  10  35
ATOM     35  O   UNL     1      21.622  14.079  55.658  1.00  0.00    -0.507 OA
ATOM     36  H   UNL     1      21.715  13.804  56.629  1.00  0.00     0.293 HD
ENDBRANCH  10  35
TORSDOF 9
ENDMDL
