MODEL 1
REMARK VINA RESULT:    -3.929      0.000      0.000
REMARK INTER + INTRA:          -4.044
REMARK INTER:                  -4.044
REMARK INTRA:                   0.000
REMARK UNBOUND:                 0.000
REMARK SMILES Cc1ccccc1O
REMARK SMILES IDX 1 1 2 2 3 3 4 4 5 5 6 6 7 7 8 8
REMARK H PARENT 8 9
REMARK Flexibility Score: inf
ROOT
ATOM      1  C   UNL     1      34.906  -0.875  59.109  1.00  0.00     0.048 C 
ATOM      2  C   UNL     1      34.765  -2.340  59.413  1.00  0.00    -0.009 A 
ATOM      3  C   UNL     1      35.905  -3.132  59.631  1.00  0.00     0.007 A 
ATOM      4  C   UNL     1      35.774  -4.494  59.914  1.00  0.00     0.001 A 
ATOM      5  C   UNL     1      34.506  -5.077  59.981  1.00  0.00     0.004 A 
ATOM      6  C   UNL     1      33.368  -4.299  59.765  1.00  0.00     0.046 A 
ATOM      7  C   UNL     1      33.489  -2.931  59.480  1.00  0.00     0.118 A 
ENDROOT
BRANCH   7   8
ATOM      8  O   UNL     1      32.348  -2.157  59.265  1.00  0.00    -0.508 OA
ATOM      9  H   UNL     1      31.956  -1.576  59.997  1.00  0.00     0.293 HD
ENDBRANCH   7   8
TORSDOF 1
ENDMDL
MODEL 2
REMARK VINA RESULT:    -3.897      7.829      8.861
REMARK INTER + INTRA:          -4.011
REMARK INTER:                  -4.011
REMARK INTRA:                   0.000
REMARK UNBOUND:                 0.000
REMARK SMILES Cc1ccccc1O
REMARK SMILES IDX 1 1 2 2 3 3 4 4 5 5 6 6 7 7 8 8
REMARK H PARENT 8 9
REMARK Flexibility Score: inf
ROOT
ATOM      1  C   UNL     1      34.874 -11.074  52.954  1.00  0.00     0.048 C 
ATOM      2  C   UNL     1      35.646 -10.208  53.909  1.00  0.00    -0.009 A 
ATOM      3  C   UNL     1      35.922 -10.658  55.211  1.00  0.00     0.007 A 
ATOM      4  C   UNL     1      36.640  -9.853  56.099  1.00  0.00     0.001 A 
ATOM      5  C   UNL     1      37.087  -8.593  55.696  1.00  0.00     0.004 A 
ATOM      6  C   UNL     1      36.818  -8.135  54.405  1.00  0.00     0.046 A 
ATOM      7  C   UNL     1      36.097  -8.936  53.506  1.00  0.00     0.118 A 
ENDROOT
BRANCH   7   8
ATOM      8  O   UNL     1      35.830  -8.475  52.217  1.00  0.00    -0.508 OA
ATOM      9  H   UNL     1      35.803  -7.485  52.002  1.00  0.00     0.293 HD
ENDBRANCH   7   8
TORSDOF 1
ENDMDL
MODEL 3
REMARK VINA RESULT:    -3.808      8.189      8.844
REMARK INTER + INTRA:          -3.920
REMARK INTER:                  -3.920
REMARK INTRA:                   0.000
REMARK UNBOUND:                 0.000
REMARK SMILES Cc1ccccc1O
REMARK SMILES IDX 1 1 2 2 3 3 4 4 5 5 6 6 7 7 8 8
REMARK H PARENT 8 9
REMARK Flexibility Score: inf
ROOT
ATOM      1  C   UNL     1      36.514  -7.701  52.257  1.00  0.00     0.048 C 
ATOM      2  C   UNL     1      36.370  -8.697  53.373  1.00  0.00    -0.009 A 
ATOM      3  C   UNL     1      36.867  -8.404  54.655  1.00  0.00     0.007 A 
ATOM      4  C   UNL     1      36.733  -9.330  55.692  1.00  0.00     0.001 A 
ATOM      5  C   UNL     1      36.103 -10.555  55.461  1.00  0.00     0.004 A 
ATOM      6  C   UNL     1      35.606 -10.856  54.192  1.00  0.00     0.046 A 
ATOM      7  C   UNL     1      35.736  -9.934  53.143  1.00  0.00     0.118 A 
ENDROOT
BRANCH   7   8
ATOM      8  O   UNL     1      35.238 -10.239  51.877  1.00  0.00    -0.508 OA
ATOM      9  H   UNL     1      35.027  -9.514  51.201  1.00  0.00     0.293 HD
ENDBRANCH   7   8
TORSDOF 1
ENDMDL
MODEL 4
REMARK VINA RESULT:    -3.675      7.956      8.651
REMARK INTER + INTRA:          -3.782
REMARK INTER:                  -3.782
REMARK INTRA:                   0.000
REMARK UNBOUND:                 0.000
REMARK SMILES Cc1ccccc1O
REMARK SMILES IDX 1 1 2 2 3 3 4 4 5 5 6 6 7 7 8 8
REMARK H PARENT 8 9
REMARK Flexibility Score: inf
ROOT
ATOM      1  C   UNL     1      37.045  -7.100  54.524  1.00  0.00     0.048 C 
ATOM      2  C   UNL     1      36.526  -8.493  54.311  1.00  0.00    -0.009 A 
ATOM      3  C   UNL     1      36.444  -9.393  55.388  1.00  0.00     0.007 A 
ATOM      4  C   UNL     1      35.961 -10.688  55.191  1.00  0.00     0.001 A 
ATOM      5  C   UNL     1      35.555 -11.098  53.918  1.00  0.00     0.004 A 
ATOM      6  C   UNL     1      35.632 -10.213  52.842  1.00  0.00     0.046 A 
ATOM      7  C   UNL     1      36.116  -8.910  53.030  1.00  0.00     0.118 A 
ENDROOT
BRANCH   7   8
ATOM      8  O   UNL     1      36.191  -8.029  51.951  1.00  0.00    -0.508 OA
ATOM      9  H   UNL     1      37.013  -7.981  51.361  1.00  0.00     0.293 HD
ENDBRANCH   7   8
TORSDOF 1
ENDMDL
MODEL 5
REMARK VINA RESULT:    -3.511      7.864      8.597
REMARK INTER + INTRA:          -3.614
REMARK INTER:                  -3.614
REMARK INTRA:                   0.000
REMARK UNBOUND:                 0.000
REMARK SMILES Cc1ccccc1O
REMARK SMILES IDX 1 1 2 2 3 3 4 4 5 5 6 6 7 7 8 8
REMARK H PARENT 8 9
REMARK Flexibility Score: inf
ROOT
ATOM      1  C   UNL     1      36.629  -7.493  52.389  1.00  0.00     0.048 C 
ATOM      2  C   UNL     1      36.377  -8.659  53.303  1.00  0.00    -0.009 A 
ATOM      3  C   UNL     1      35.883  -9.870  52.790  1.00  0.00     0.007 A 
ATOM      4  C   UNL     1      35.649 -10.954  53.639  1.00  0.00     0.001 A 
ATOM      5  C   UNL     1      35.905 -10.839  55.008  1.00  0.00     0.004 A 
ATOM      6  C   UNL     1      36.396  -9.640  55.529  1.00  0.00     0.046 A 
ATOM      7  C   UNL     1      36.633  -8.546  54.683  1.00  0.00     0.118 A 
ENDROOT
BRANCH   7   8
ATOM      8  O   UNL     1      37.124  -7.350  55.208  1.00  0.00    -0.508 OA
ATOM      9  H   UNL     1      37.562  -6.653  54.618  1.00  0.00     0.293 HD
ENDBRANCH   7   8
TORSDOF 1
ENDMDL
MODEL 6
REMARK VINA RESULT:    -3.465      1.076      2.778
REMARK INTER + INTRA:          -3.566
REMARK INTER:                  -3.566
REMARK INTRA:                   0.000
REMARK UNBOUND:                 0.000
REMARK SMILES Cc1ccccc1O
REMARK SMILES IDX 1 1 2 2 3 3 4 4 5 5 6 6 7 7 8 8
REMARK H PARENT 8 9
REMARK Flexibility Score: inf
ROOT
ATOM      1  C   UNL     1      34.073  -4.806  59.961  1.00  0.00     0.048 C 
ATOM      2  C   UNL     1      34.221  -3.438  59.357  1.00  0.00    -0.009 A 
ATOM      3  C   UNL     1      35.457  -3.025  58.831  1.00  0.00     0.007 A 
ATOM      4  C   UNL     1      35.595  -1.753  58.269  1.00  0.00     0.001 A 
ATOM      5  C   UNL     1      34.502  -0.883  58.228  1.00  0.00     0.004 A 
ATOM      6  C   UNL     1      33.270  -1.284  58.748  1.00  0.00     0.046 A 
ATOM      7  C   UNL     1      33.122  -2.558  59.314  1.00  0.00     0.118 A 
ENDROOT
BRANCH   7   8
ATOM      8  O   UNL     1      31.889  -2.955  59.833  1.00  0.00    -0.508 OA
ATOM      9  H   UNL     1      31.023  -2.776  59.338  1.00  0.00     0.293 HD
ENDBRANCH   7   8
TORSDOF 1
ENDMDL
MODEL 7
REMARK VINA RESULT:    -3.453      1.598      2.524
REMARK INTER + INTRA:          -3.554
REMARK INTER:                  -3.554
REMARK INTRA:                   0.000
REMARK UNBOUND:                 0.000
REMARK SMILES Cc1ccccc1O
REMARK SMILES IDX 1 1 2 2 3 3 4 4 5 5 6 6 7 7 8 8
REMARK H PARENT 8 9
REMARK Flexibility Score: inf
ROOT
ATOM      1  C   UNL     1      32.619  -2.640  60.125  1.00  0.00     0.048 C 
ATOM      2  C   UNL     1      33.794  -2.643  59.188  1.00  0.00    -0.009 A 
ATOM      3  C   UNL     1      34.930  -3.418  59.476  1.00  0.00     0.007 A 
ATOM      4  C   UNL     1      36.023  -3.421  58.605  1.00  0.00     0.001 A 
ATOM      5  C   UNL     1      35.991  -2.651  57.441  1.00  0.00     0.004 A 
ATOM      6  C   UNL     1      34.868  -1.877  57.144  1.00  0.00     0.046 A 
ATOM      7  C   UNL     1      33.766  -1.867  58.013  1.00  0.00     0.118 A 
ENDROOT
BRANCH   7   8
ATOM      8  O   UNL     1      32.646  -1.092  57.713  1.00  0.00    -0.508 OA
ATOM      9  H   UNL     1      32.694  -0.320  57.058  1.00  0.00     0.293 HD
ENDBRANCH   7   8
TORSDOF 1
ENDMDL
