MODEL 1
REMARK VINA RESULT:    -4.205      0.000      0.000
REMARK INTER + INTRA:          -6.533
REMARK INTER:                  -5.926
REMARK INTRA:                  -0.607
REMARK UNBOUND:                -0.607
REMARK SMILES C=CCCCCCCC(=O)[O-]
REMARK SMILES IDX 6 1 7 2 8 3 9 4 10 5 11 6 5 7 4 8 3 9 2 10 1 11
REMARK H PARENT
REMARK Flexibility Score: inf
ROOT
ATOM      1  C   UNL     1       8.312   3.206  19.689  1.00  0.00     0.000 C 
ENDROOT
BRANCH   1   2
ATOM      2  C   UNL     1       8.728   4.362  20.612  1.00  0.00     0.006 C 
BRANCH   2   3
ATOM      3  C   UNL     1       8.134   4.185  22.013  1.00  0.00     0.053 C 
BRANCH   3   4
ATOM      4  C   UNL     1       7.193   5.304  22.329  1.00  0.00     0.041 C 
ATOM      5  O   UNL     1       7.078   6.278  21.540  1.00  0.00    -0.550 OA
ATOM      6  O   UNL     1       6.405   5.248  23.472  1.00  0.00    -0.550 OA
ENDBRANCH   3   4
ENDBRANCH   2   3
ENDBRANCH   1   2
BRANCH   1   7
ATOM      7  C   UNL     1       6.808   3.213  19.361  1.00  0.00     0.000 C 
BRANCH   7   8
ATOM      8  C   UNL     1       6.437   3.851  18.010  1.00  0.00     0.004 C 
BRANCH   8   9
ATOM      9  C   UNL     1       7.666   4.250  17.179  1.00  0.00     0.027 C 
BRANCH   9  10
ATOM     10  C   UNL     1       7.677   5.727  16.898  1.00  0.00    -0.035 C 
ATOM     11  C   UNL     1       7.281   6.620  17.811  1.00  0.00     0.004 C 
ENDBRANCH   9  10
ENDBRANCH   8   9
ENDBRANCH   7   8
ENDBRANCH   1   7
TORSDOF 7
ENDMDL
MODEL 2
REMARK VINA RESULT:    -4.183     14.532     16.221
REMARK INTER + INTRA:          -6.503
REMARK INTER:                  -6.122
REMARK INTRA:                  -0.381
REMARK UNBOUND:                -0.607
REMARK SMILES C=CCCCCCCC(=O)[O-]
REMARK SMILES IDX 6 1 7 2 8 3 9 4 10 5 11 6 5 7 4 8 3 9 2 10 1 11
REMARK H PARENT
REMARK Flexibility Score: inf
ROOT
ATOM      1  C   UNL     1      13.616  -3.298   6.833  1.00  0.00     0.000 C 
ENDROOT
BRANCH   1   2
ATOM      2  C   UNL     1      12.213  -2.832   6.417  1.00  0.00     0.006 C 
BRANCH   2   3
ATOM      3  C   UNL     1      11.132  -3.700   7.069  1.00  0.00     0.053 C 
BRANCH   3   4
ATOM      4  C   UNL     1      10.484  -2.969   8.201  1.00  0.00     0.041 C 
ATOM      5  O   UNL     1      10.642  -1.727   8.328  1.00  0.00    -0.550 OA
ATOM      6  O   UNL     1       9.661  -3.652   9.089  1.00  0.00    -0.550 OA
ENDBRANCH   3   4
ENDBRANCH   2   3
ENDBRANCH   1   2
BRANCH   1   7
ATOM      7  C   UNL     1      14.386  -2.236   7.639  1.00  0.00     0.000 C 
BRANCH   7   8
ATOM      8  C   UNL     1      15.322  -2.794   8.727  1.00  0.00     0.004 C 
BRANCH   8   9
ATOM      9  C   UNL     1      15.999  -4.110   8.316  1.00  0.00     0.027 C 
BRANCH   9  10
ATOM     10  C   UNL     1      17.475  -3.919   8.101  1.00  0.00    -0.035 C 
ATOM     11  C   UNL     1      18.082  -4.327   6.982  1.00  0.00     0.004 C 
ENDBRANCH   9  10
ENDBRANCH   8   9
ENDBRANCH   7   8
ENDBRANCH   1   7
TORSDOF 7
ENDMDL
MODEL 3
REMARK VINA RESULT:    -4.179     12.762     14.332
REMARK INTER + INTRA:          -6.496
REMARK INTER:                  -6.208
REMARK INTRA:                  -0.288
REMARK UNBOUND:                -0.607
REMARK SMILES C=CCCCCCCC(=O)[O-]
REMARK SMILES IDX 6 1 7 2 8 3 9 4 10 5 11 6 5 7 4 8 3 9 2 10 1 11
REMARK H PARENT
REMARK Flexibility Score: inf
ROOT
ATOM      1  C   UNL     1      10.280  -2.799   8.374  1.00  0.00     0.000 C 
ENDROOT
BRANCH   1   2
ATOM      2  C   UNL     1       9.447  -3.655   9.341  1.00  0.00     0.006 C 
BRANCH   2   3
ATOM      3  C   UNL     1       8.787  -2.784  10.414  1.00  0.00     0.053 C 
BRANCH   3   4
ATOM      4  C   UNL     1       7.304  -2.977  10.406  1.00  0.00     0.041 C 
ATOM      5  O   UNL     1       6.535  -1.980  10.437  1.00  0.00    -0.550 OA
ATOM      6  O   UNL     1       6.769  -4.256  10.315  1.00  0.00    -0.550 OA
ENDBRANCH   3   4
ENDBRANCH   2   3
ENDBRANCH   1   2
BRANCH   1   7
ATOM      7  C   UNL     1      11.028  -3.638   7.323  1.00  0.00     0.000 C 
BRANCH   7   8
ATOM      8  C   UNL     1      12.258  -2.956   6.697  1.00  0.00     0.004 C 
BRANCH   8   9
ATOM      9  C   UNL     1      13.042  -2.099   7.702  1.00  0.00     0.027 C 
BRANCH   9  10
ATOM     10  C   UNL     1      14.468  -2.562   7.818  1.00  0.00    -0.035 C 
ATOM     11  C   UNL     1      14.888  -3.696   7.248  1.00  0.00     0.004 C 
ENDBRANCH   9  10
ENDBRANCH   8   9
ENDBRANCH   7   8
ENDBRANCH   1   7
TORSDOF 7
ENDMDL
MODEL 4
REMARK VINA RESULT:    -4.095      8.243      9.395
REMARK INTER + INTRA:          -6.378
REMARK INTER:                  -6.036
REMARK INTRA:                  -0.342
REMARK UNBOUND:                -0.607
REMARK SMILES C=CCCCCCCC(=O)[O-]
REMARK SMILES IDX 6 1 7 2 8 3 9 4 10 5 11 6 5 7 4 8 3 9 2 10 1 11
REMARK H PARENT
REMARK Flexibility Score: inf
ROOT
ATOM      1  C   UNL     1      10.048  -4.554  16.670  1.00  0.00     0.000 C 
ENDROOT
BRANCH   1   2
ATOM      2  C   UNL     1      10.920  -3.835  15.630  1.00  0.00     0.006 C 
BRANCH   2   3
ATOM      3  C   UNL     1      12.403  -4.151  15.845  1.00  0.00     0.053 C 
BRANCH   3   4
ATOM      4  C   UNL     1      13.160  -2.908  16.192  1.00  0.00     0.041 C 
ATOM      5  O   UNL     1      14.392  -2.965  16.442  1.00  0.00    -0.550 OA
ATOM      6  O   UNL     1      12.514  -1.677  16.189  1.00  0.00    -0.550 OA
ENDBRANCH   3   4
ENDBRANCH   2   3
ENDBRANCH   1   2
BRANCH   1   7
ATOM      7  C   UNL     1       8.622  -3.981  16.757  1.00  0.00     0.000 C 
BRANCH   7   8
ATOM      8  C   UNL     1       8.531  -2.445  16.708  1.00  0.00     0.004 C 
BRANCH   8   9
ATOM      9  C   UNL     1       8.898  -1.782  18.044  1.00  0.00     0.027 C 
BRANCH   9  10
ATOM     10  C   UNL     1       8.334  -0.390  18.134  1.00  0.00    -0.035 C 
ATOM     11  C   UNL     1       7.030  -0.171  18.325  1.00  0.00     0.004 C 
ENDBRANCH   9  10
ENDBRANCH   8   9
ENDBRANCH   7   8
ENDBRANCH   1   7
TORSDOF 7
ENDMDL
MODEL 5
REMARK VINA RESULT:    -4.014     14.853     16.481
REMARK INTER + INTRA:          -6.264
REMARK INTER:                  -6.026
REMARK INTRA:                  -0.238
REMARK UNBOUND:                -0.607
REMARK SMILES C=CCCCCCCC(=O)[O-]
REMARK SMILES IDX 6 1 7 2 8 3 9 4 10 5 11 6 5 7 4 8 3 9 2 10 1 11
REMARK H PARENT
REMARK Flexibility Score: inf
ROOT
ATOM      1  C   UNL     1      13.603  -2.515   6.650  1.00  0.00     0.000 C 
ENDROOT
BRANCH   1   2
ATOM      2  C   UNL     1      14.587  -3.660   6.931  1.00  0.00     0.006 C 
BRANCH   2   3
ATOM      3  C   UNL     1      15.952  -3.116   7.362  1.00  0.00     0.053 C 
BRANCH   3   4
ATOM      4  C   UNL     1      16.841  -4.230   7.817  1.00  0.00     0.041 C 
ATOM      5  O   UNL     1      16.538  -4.907   8.834  1.00  0.00    -0.550 OA
ATOM      6  O   UNL     1      17.979  -4.554   7.088  1.00  0.00    -0.550 OA
ENDBRANCH   3   4
ENDBRANCH   2   3
ENDBRANCH   1   2
BRANCH   1   7
ATOM      7  C   UNL     1      12.277  -3.000   6.035  1.00  0.00     0.000 C 
BRANCH   7   8
ATOM      8  C   UNL     1      11.173  -3.342   7.051  1.00  0.00     0.004 C 
BRANCH   8   9
ATOM      9  C   UNL     1      11.036  -2.292   8.163  1.00  0.00     0.027 C 
BRANCH   9  10
ATOM     10  C   UNL     1       9.643  -2.276   8.730  1.00  0.00    -0.035 C 
ATOM     11  C   UNL     1       9.290  -3.065   9.750  1.00  0.00     0.004 C 
ENDBRANCH   9  10
ENDBRANCH   8   9
ENDBRANCH   7   8
ENDBRANCH   1   7
TORSDOF 7
ENDMDL
MODEL 6
REMARK VINA RESULT:    -3.973      7.005      8.028
REMARK INTER + INTRA:          -6.205
REMARK INTER:                  -5.446
REMARK INTRA:                  -0.759
REMARK UNBOUND:                -0.607
REMARK SMILES C=CCCCCCCC(=O)[O-]
REMARK SMILES IDX 6 1 7 2 8 3 9 4 10 5 11 6 5 7 4 8 3 9 2 10 1 11
REMARK H PARENT
REMARK Flexibility Score: inf
ROOT
ATOM      1  C   UNL     1       9.081  -0.834  17.865  1.00  0.00     0.000 C 
ENDROOT
BRANCH   1   2
ATOM      2  C   UNL     1       9.281  -1.651  16.580  1.00  0.00     0.006 C 
BRANCH   2   3
ATOM      3  C   UNL     1       8.386  -2.894  16.577  1.00  0.00     0.053 C 
BRANCH   3   4
ATOM      4  C   UNL     1       9.147  -4.090  17.052  1.00  0.00     0.041 C 
ATOM      5  O   UNL     1      10.094  -4.554  16.364  1.00  0.00    -0.550 OA
ATOM      6  O   UNL     1       8.845  -4.663  18.281  1.00  0.00    -0.550 OA
ENDBRANCH   3   4
ENDBRANCH   2   3
ENDBRANCH   1   2
BRANCH   1   7
ATOM      7  C   UNL     1       7.607  -0.754  18.302  1.00  0.00     0.000 C 
BRANCH   7   8
ATOM      8  C   UNL     1       6.891   0.562  17.948  1.00  0.00     0.004 C 
BRANCH   8   9
ATOM      9  C   UNL     1       5.652   0.350  17.065  1.00  0.00     0.027 C 
BRANCH   9  10
ATOM     10  C   UNL     1       6.039   0.108  15.632  1.00  0.00    -0.035 C 
ATOM     11  C   UNL     1       5.595  -0.954  14.953  1.00  0.00     0.004 C 
ENDBRANCH   9  10
ENDBRANCH   8   9
ENDBRANCH   7   8
ENDBRANCH   1   7
TORSDOF 7
ENDMDL
MODEL 7
REMARK VINA RESULT:    -3.966      1.504      2.122
REMARK INTER + INTRA:          -6.196
REMARK INTER:                  -5.857
REMARK INTRA:                  -0.339
REMARK UNBOUND:                -0.607
REMARK SMILES C=CCCCCCCC(=O)[O-]
REMARK SMILES IDX 6 1 7 2 8 3 9 4 10 5 11 6 5 7 4 8 3 9 2 10 1 11
REMARK H PARENT
REMARK Flexibility Score: inf
ROOT
ATOM      1  C   UNL     1       7.957   4.394  18.852  1.00  0.00     0.000 C 
ENDROOT
BRANCH   1   2
ATOM      2  C   UNL     1       8.591   3.788  20.114  1.00  0.00     0.006 C 
BRANCH   2   3
ATOM      3  C   UNL     1       7.600   3.794  21.282  1.00  0.00     0.053 C 
BRANCH   3   4
ATOM      4  C   UNL     1       8.150   4.574  22.433  1.00  0.00     0.041 C 
ATOM      5  O   UNL     1       9.291   5.101  22.355  1.00  0.00    -0.550 OA
ATOM      6  O   UNL     1       7.382   4.764  23.575  1.00  0.00    -0.550 OA
ENDBRANCH   3   4
ENDBRANCH   2   3
ENDBRANCH   1   2
BRANCH   1   7
ATOM      7  C   UNL     1       7.336   5.781  19.100  1.00  0.00     0.000 C 
BRANCH   7   8
ATOM      8  C   UNL     1       6.759   6.471  17.850  1.00  0.00     0.004 C 
BRANCH   8   9
ATOM      9  C   UNL     1       7.825   7.213  17.031  1.00  0.00     0.027 C 
BRANCH   9  10
ATOM     10  C   UNL     1       8.153   6.471  15.765  1.00  0.00    -0.035 C 
ATOM     11  C   UNL     1       9.323   6.630  15.139  1.00  0.00     0.004 C 
ENDBRANCH   9  10
ENDBRANCH   8   9
ENDBRANCH   7   8
ENDBRANCH   1   7
TORSDOF 7
ENDMDL
MODEL 8
REMARK VINA RESULT:    -3.964     12.831     14.311
REMARK INTER + INTRA:          -6.194
REMARK INTER:                  -5.431
REMARK INTRA:                  -0.763
REMARK UNBOUND:                -0.607
REMARK SMILES C=CCCCCCCC(=O)[O-]
REMARK SMILES IDX 6 1 7 2 8 3 9 4 10 5 11 6 5 7 4 8 3 9 2 10 1 11
REMARK H PARENT
REMARK Flexibility Score: inf
ROOT
ATOM      1  C   UNL     1      21.908   7.274  23.647  1.00  0.00     0.000 C 
ENDROOT
BRANCH   1   2
ATOM      2  C   UNL     1      22.370   7.981  22.364  1.00  0.00     0.006 C 
BRANCH   2   3
ATOM      3  C   UNL     1      21.520   7.550  21.165  1.00  0.00     0.053 C 
BRANCH   3   4
ATOM      4  C   UNL     1      20.748   8.711  20.625  1.00  0.00     0.041 C 
ATOM      5  O   UNL     1      19.490   8.722  20.691  1.00  0.00    -0.550 OA
ATOM      6  O   UNL     1      21.418   9.807  20.095  1.00  0.00    -0.550 OA
ENDBRANCH   3   4
ENDBRANCH   2   3
ENDBRANCH   1   2
BRANCH   1   7
ATOM      7  C   UNL     1      21.476   8.256  24.751  1.00  0.00     0.000 C 
BRANCH   7   8
ATOM      8  C   UNL     1      20.027   8.089  25.243  1.00  0.00     0.004 C 
BRANCH   8   9
ATOM      9  C   UNL     1      18.989   8.329  24.137  1.00  0.00     0.027 C 
BRANCH   9  10
ATOM     10  C   UNL     1      18.130   7.113  23.924  1.00  0.00    -0.035 C 
ATOM     11  C   UNL     1      18.303   6.303  22.875  1.00  0.00     0.004 C 
ENDBRANCH   9  10
ENDBRANCH   8   9
ENDBRANCH   7   8
ENDBRANCH   1   7
TORSDOF 7
ENDMDL
MODEL 9
REMARK VINA RESULT:    -3.960      2.633      4.011
REMARK INTER + INTRA:          -6.187
REMARK INTER:                  -5.801
REMARK INTRA:                  -0.386
REMARK UNBOUND:                -0.607
REMARK SMILES C=CCCCCCCC(=O)[O-]
REMARK SMILES IDX 6 1 7 2 8 3 9 4 10 5 11 6 5 7 4 8 3 9 2 10 1 11
REMARK H PARENT
REMARK Flexibility Score: inf
ROOT
ATOM      1  C   UNL     1       6.997   2.674  19.351  1.00  0.00     0.000 C 
ENDROOT
BRANCH   1   2
ATOM      2  C   UNL     1       8.294   3.493  19.261  1.00  0.00     0.006 C 
BRANCH   2   3
ATOM      3  C   UNL     1       8.523   4.299  20.543  1.00  0.00     0.053 C 
BRANCH   3   4
ATOM      4  C   UNL     1       7.758   5.583  20.499  1.00  0.00     0.041 C 
ATOM      5  O   UNL     1       7.352   6.116  21.565  1.00  0.00    -0.550 OA
ATOM      6  O   UNL     1       7.536   6.220  19.284  1.00  0.00    -0.550 OA
ENDBRANCH   3   4
ENDBRANCH   2   3
ENDBRANCH   1   2
BRANCH   1   7
ATOM      7  C   UNL     1       6.389   2.360  17.971  1.00  0.00     0.000 C 
BRANCH   7   8
ATOM      8  C   UNL     1       6.308   0.864  17.619  1.00  0.00     0.004 C 
BRANCH   8   9
ATOM      9  C   UNL     1       7.101  -0.023  18.591  1.00  0.00     0.027 C 
BRANCH   9  10
ATOM     10  C   UNL     1       8.376  -0.514  17.963  1.00  0.00    -0.035 C 
ATOM     11  C   UNL     1       8.646  -1.818  17.844  1.00  0.00     0.004 C 
ENDBRANCH   9  10
ENDBRANCH   8   9
ENDBRANCH   7   8
ENDBRANCH   1   7
TORSDOF 7
ENDMDL
