MODEL 1
REMARK VINA RESULT:    -5.073      0.000      0.000
REMARK INTER + INTRA:         -11.048
REMARK INTER:                  -8.929
REMARK INTRA:                  -2.118
REMARK UNBOUND:                -2.118
REMARK SMILES CCCCCCC=CCCCCCCCC(=O)[O-]
REMARK SMILES IDX 10 1 11 2 12 3 13 4 14 5 15 6 16 7 17 8 18 9 9 10 8 11 7 12
REMARK SMILES IDX 6 13 5 14 4 15 3 16 2 17 1 18
REMARK H PARENT
REMARK Flexibility Score: inf
ROOT
ATOM      1  C   UNL     1      17.322  20.841   6.591  1.00  0.00     0.004 C 
ENDROOT
BRANCH   1   2
ATOM      2  C   UNL     1      17.059  22.350   6.677  1.00  0.00     0.000 C 
BRANCH   2   3
ATOM      3  C   UNL     1      18.356  23.147   6.471  1.00  0.00     0.000 C 
BRANCH   3   4
ATOM      4  C   UNL     1      19.427  22.351   5.705  1.00  0.00     0.000 C 
BRANCH   4   5
ATOM      5  C   UNL     1      20.725  22.183   6.509  1.00  0.00     0.006 C 
BRANCH   5   6
ATOM      6  C   UNL     1      20.747  23.126   7.716  1.00  0.00     0.053 C 
BRANCH   6   7
ATOM      7  C   UNL     1      21.669  22.603   8.772  1.00  0.00     0.041 C 
ATOM      8  O   UNL     1      21.699  23.142   9.910  1.00  0.00    -0.550 OA
ATOM      9  O   UNL     1      22.460  21.491   8.517  1.00  0.00    -0.550 OA
ENDBRANCH   6   7
ENDBRANCH   5   6
ENDBRANCH   4   5
ENDBRANCH   3   4
ENDBRANCH   2   3
ENDBRANCH   1   2
BRANCH   1  10
ATOM     10  C   UNL     1      17.371  20.212   7.989  1.00  0.00     0.027 C 
BRANCH  10  11
ATOM     11  C   UNL     1      17.324  21.264   9.062  1.00  0.00    -0.031 C 
ATOM     12  C   UNL     1      18.345  21.446   9.912  1.00  0.00    -0.031 C 
BRANCH  12  13
ATOM     13  C   UNL     1      18.293  22.488  10.997  1.00  0.00     0.027 C 
BRANCH  13  14
ATOM     14  C   UNL     1      17.073  23.416  10.869  1.00  0.00     0.004 C 
BRANCH  14  15
ATOM     15  C   UNL     1      17.284  24.607   9.917  1.00  0.00     0.000 C 
BRANCH  15  16
ATOM     16  C   UNL     1      18.720  25.157   9.962  1.00  0.00    -0.000 C 
BRANCH  16  17
ATOM     17  C   UNL     1      18.980  26.215   8.879  1.00  0.00    -0.003 C 
ATOM     18  C   UNL     1      17.864  27.257   8.793  1.00  0.00     0.004 C 
ENDBRANCH  16  17
ENDBRANCH  15  16
ENDBRANCH  14  15
ENDBRANCH  13  14
ENDBRANCH  12  13
ENDBRANCH  10  11
ENDBRANCH   1  10
TORSDOF 13
ENDMDL
MODEL 2
REMARK VINA RESULT:    -5.043      2.098      3.415
REMARK INTER + INTRA:         -10.994
REMARK INTER:                  -8.870
REMARK INTRA:                  -2.124
REMARK UNBOUND:                -2.118
REMARK SMILES CCCCCCC=CCCCCCCCC(=O)[O-]
REMARK SMILES IDX 10 1 11 2 12 3 13 4 14 5 15 6 16 7 17 8 18 9 9 10 8 11 7 12
REMARK SMILES IDX 6 13 5 14 4 15 3 16 2 17 1 18
REMARK H PARENT
REMARK Flexibility Score: inf
ROOT
ATOM      1  C   UNL     1      21.741  22.176   8.021  1.00  0.00     0.004 C 
ENDROOT
BRANCH   1   2
ATOM      2  C   UNL     1      20.800  22.792   6.979  1.00  0.00     0.000 C 
BRANCH   2   3
ATOM      3  C   UNL     1      20.527  21.805   5.833  1.00  0.00     0.000 C 
BRANCH   3   4
ATOM      4  C   UNL     1      19.137  21.995   5.204  1.00  0.00     0.000 C 
BRANCH   4   5
ATOM      5  C   UNL     1      18.112  22.565   6.196  1.00  0.00     0.006 C 
BRANCH   5   6
ATOM      6  C   UNL     1      16.876  21.664   6.282  1.00  0.00     0.053 C 
BRANCH   6   7
ATOM      7  C   UNL     1      17.251  20.306   6.786  1.00  0.00     0.041 C 
ATOM      8  O   UNL     1      17.861  20.184   7.881  1.00  0.00    -0.550 OA
ATOM      9  O   UNL     1      16.885  19.173   6.072  1.00  0.00    -0.550 OA
ENDBRANCH   6   7
ENDBRANCH   5   6
ENDBRANCH   4   5
ENDBRANCH   3   4
ENDBRANCH   2   3
ENDBRANCH   1   2
BRANCH   1  10
ATOM     10  C   UNL     1      21.279  22.509   9.444  1.00  0.00     0.027 C 
BRANCH  10  11
ATOM     11  C   UNL     1      19.791  22.350   9.585  1.00  0.00    -0.031 C 
ATOM     12  C   UNL     1      19.185  22.427  10.779  1.00  0.00    -0.031 C 
BRANCH  12  13
ATOM     13  C   UNL     1      17.698  22.251  10.924  1.00  0.00     0.027 C 
BRANCH  13  14
ATOM     14  C   UNL     1      16.905  22.993   9.835  1.00  0.00     0.004 C 
BRANCH  14  15
ATOM     15  C   UNL     1      16.928  24.526   9.972  1.00  0.00     0.000 C 
BRANCH  15  16
ATOM     16  C   UNL     1      17.267  25.236   8.650  1.00  0.00    -0.000 C 
BRANCH  16  17
ATOM     17  C   UNL     1      18.725  25.715   8.595  1.00  0.00    -0.003 C 
ATOM     18  C   UNL     1      18.897  27.139   9.126  1.00  0.00     0.004 C 
ENDBRANCH  16  17
ENDBRANCH  15  16
ENDBRANCH  14  15
ENDBRANCH  13  14
ENDBRANCH  12  13
ENDBRANCH  10  11
ENDBRANCH   1  10
TORSDOF 13
ENDMDL
MODEL 3
REMARK VINA RESULT:    -4.977      2.049      3.780
REMARK INTER + INTRA:         -10.877
REMARK INTER:                  -9.131
REMARK INTRA:                  -1.746
REMARK UNBOUND:                -2.118
REMARK SMILES CCCCCCC=CCCCCCCCC(=O)[O-]
REMARK SMILES IDX 10 1 11 2 12 3 13 4 14 5 15 6 16 7 17 8 18 9 9 10 8 11 7 12
REMARK SMILES IDX 6 13 5 14 4 15 3 16 2 17 1 18
REMARK H PARENT
REMARK Flexibility Score: inf
ROOT
ATOM      1  C   UNL     1      20.535  20.561   6.184  1.00  0.00     0.004 C 
ENDROOT
BRANCH   1   2
ATOM      2  C   UNL     1      21.692  20.971   7.103  1.00  0.00     0.000 C 
BRANCH   2   3
ATOM      3  C   UNL     1      21.624  22.469   7.439  1.00  0.00     0.000 C 
BRANCH   3   4
ATOM      4  C   UNL     1      21.313  22.732   8.921  1.00  0.00     0.000 C 
BRANCH   4   5
ATOM      5  C   UNL     1      20.124  21.905   9.431  1.00  0.00     0.006 C 
BRANCH   5   6
ATOM      6  C   UNL     1      19.509  22.545  10.680  1.00  0.00     0.053 C 
BRANCH   6   7
ATOM      7  C   UNL     1      18.077  22.137  10.827  1.00  0.00     0.041 C 
ATOM      8  O   UNL     1      17.500  21.509   9.900  1.00  0.00    -0.550 OA
ATOM      9  O   UNL     1      17.394  22.405  12.006  1.00  0.00    -0.550 OA
ENDBRANCH   6   7
ENDBRANCH   5   6
ENDBRANCH   4   5
ENDBRANCH   3   4
ENDBRANCH   2   3
ENDBRANCH   1   2
BRANCH   1  10
ATOM     10  C   UNL     1      20.322  21.597   5.074  1.00  0.00     0.027 C 
BRANCH  10  11
ATOM     11  C   UNL     1      18.964  22.235   5.179  1.00  0.00    -0.031 C 
ATOM     12  C   UNL     1      18.243  22.171   6.308  1.00  0.00    -0.031 C 
BRANCH  12  13
ATOM     13  C   UNL     1      16.877  22.794   6.409  1.00  0.00     0.027 C 
BRANCH  13  14
ATOM     14  C   UNL     1      16.922  24.239   6.934  1.00  0.00     0.004 C 
BRANCH  14  15
ATOM     15  C   UNL     1      18.060  24.512   7.934  1.00  0.00     0.000 C 
BRANCH  15  16
ATOM     16  C   UNL     1      17.614  25.384   9.119  1.00  0.00    -0.000 C 
BRANCH  16  17
ATOM     17  C   UNL     1      17.697  26.887   8.810  1.00  0.00    -0.003 C 
ATOM     18  C   UNL     1      19.137  27.392   8.722  1.00  0.00     0.004 C 
ENDBRANCH  16  17
ENDBRANCH  15  16
ENDBRANCH  14  15
ENDBRANCH  13  14
ENDBRANCH  12  13
ENDBRANCH  10  11
ENDBRANCH   1  10
TORSDOF 13
ENDMDL
MODEL 4
REMARK VINA RESULT:    -4.963      2.660      4.398
REMARK INTER + INTRA:         -10.854
REMARK INTER:                  -8.686
REMARK INTRA:                  -2.168
REMARK UNBOUND:                -2.118
REMARK SMILES CCCCCCC=CCCCCCCCC(=O)[O-]
REMARK SMILES IDX 10 1 11 2 12 3 13 4 14 5 15 6 16 7 17 8 18 9 9 10 8 11 7 12
REMARK SMILES IDX 6 13 5 14 4 15 3 16 2 17 1 18
REMARK H PARENT
REMARK Flexibility Score: inf
ROOT
ATOM      1  C   UNL     1      21.663  22.844   9.381  1.00  0.00     0.004 C 
ENDROOT
BRANCH   1   2
ATOM      2  C   UNL     1      21.325  23.446   8.012  1.00  0.00     0.000 C 
BRANCH   2   3
ATOM      3  C   UNL     1      21.331  22.367   6.920  1.00  0.00     0.000 C 
BRANCH   3   4
ATOM      4  C   UNL     1      21.711  20.978   7.459  1.00  0.00     0.000 C 
BRANCH   4   5
ATOM      5  C   UNL     1      22.061  19.985   6.340  1.00  0.00     0.006 C 
BRANCH   5   6
ATOM      6  C   UNL     1      23.402  19.298   6.620  1.00  0.00     0.053 C 
BRANCH   6   7
ATOM      7  C   UNL     1      23.954  18.698   5.365  1.00  0.00     0.041 C 
ATOM      8  O   UNL     1      23.433  18.968   4.251  1.00  0.00    -0.550 OA
ATOM      9  O   UNL     1      25.074  17.878   5.420  1.00  0.00    -0.550 OA
ENDBRANCH   6   7
ENDBRANCH   5   6
ENDBRANCH   4   5
ENDBRANCH   3   4
ENDBRANCH   2   3
ENDBRANCH   1   2
BRANCH   1  10
ATOM     10  C   UNL     1      20.609  23.226  10.426  1.00  0.00     0.027 C 
BRANCH  10  11
ATOM     11  C   UNL     1      19.231  22.814   9.986  1.00  0.00    -0.031 C 
ATOM     12  C   UNL     1      18.854  21.527   9.973  1.00  0.00    -0.031 C 
BRANCH  12  13
ATOM     13  C   UNL     1      17.481  21.111   9.516  1.00  0.00     0.027 C 
BRANCH  13  14
ATOM     14  C   UNL     1      17.522  20.151   8.316  1.00  0.00     0.004 C 
BRANCH  14  15
ATOM     15  C   UNL     1      18.063  20.783   7.021  1.00  0.00     0.000 C 
BRANCH  15  16
ATOM     16  C   UNL     1      17.122  21.854   6.444  1.00  0.00    -0.000 C 
BRANCH  16  17
ATOM     17  C   UNL     1      17.801  23.226   6.314  1.00  0.00    -0.003 C 
ATOM     18  C   UNL     1      17.182  24.279   7.234  1.00  0.00     0.004 C 
ENDBRANCH  16  17
ENDBRANCH  15  16
ENDBRANCH  14  15
ENDBRANCH  13  14
ENDBRANCH  12  13
ENDBRANCH  10  11
ENDBRANCH   1  10
TORSDOF 13
ENDMDL
MODEL 5
REMARK VINA RESULT:    -4.950      2.044      3.159
REMARK INTER + INTRA:         -10.831
REMARK INTER:                  -9.070
REMARK INTRA:                  -1.761
REMARK UNBOUND:                -2.118
REMARK SMILES CCCCCCC=CCCCCCCCC(=O)[O-]
REMARK SMILES IDX 10 1 11 2 12 3 13 4 14 5 15 6 16 7 17 8 18 9 9 10 8 11 7 12
REMARK SMILES IDX 6 13 5 14 4 15 3 16 2 17 1 18
REMARK H PARENT
REMARK Flexibility Score: inf
ROOT
ATOM      1  C   UNL     1      21.317  22.277   7.941  1.00  0.00     0.004 C 
ENDROOT
BRANCH   1   2
ATOM      2  C   UNL     1      20.303  23.170   7.216  1.00  0.00     0.000 C 
BRANCH   2   3
ATOM      3  C   UNL     1      19.127  22.342   6.678  1.00  0.00     0.000 C 
BRANCH   3   4
ATOM      4  C   UNL     1      19.144  22.211   5.146  1.00  0.00     0.000 C 
BRANCH   4   5
ATOM      5  C   UNL     1      19.688  20.854   4.676  1.00  0.00     0.006 C 
BRANCH   5   6
ATOM      6  C   UNL     1      21.162  20.965   4.273  1.00  0.00     0.053 C 
BRANCH   6   7
ATOM      7  C   UNL     1      21.973  19.911   4.959  1.00  0.00     0.041 C 
ATOM      8  O   UNL     1      23.134  19.640   4.552  1.00  0.00    -0.550 OA
ATOM      9  O   UNL     1      21.467  19.261   6.078  1.00  0.00    -0.550 OA
ENDBRANCH   6   7
ENDBRANCH   5   6
ENDBRANCH   4   5
ENDBRANCH   3   4
ENDBRANCH   2   3
ENDBRANCH   1   2
BRANCH   1  10
ATOM     10  C   UNL     1      21.579  22.785   9.364  1.00  0.00     0.027 C 
BRANCH  10  11
ATOM     11  C   UNL     1      20.293  23.111  10.071  1.00  0.00    -0.031 C 
ATOM     12  C   UNL     1      19.413  22.155  10.405  1.00  0.00    -0.031 C 
BRANCH  12  13
ATOM     13  C   UNL     1      18.117  22.481  11.098  1.00  0.00     0.027 C 
BRANCH  13  14
ATOM     14  C   UNL     1      17.030  22.962  10.124  1.00  0.00     0.004 C 
BRANCH  14  15
ATOM     15  C   UNL     1      16.930  24.493   9.995  1.00  0.00     0.000 C 
BRANCH  15  16
ATOM     16  C   UNL     1      17.271  24.993   8.582  1.00  0.00    -0.000 C 
BRANCH  16  17
ATOM     17  C   UNL     1      18.423  26.009   8.579  1.00  0.00    -0.003 C 
ATOM     18  C   UNL     1      17.953  27.436   8.862  1.00  0.00     0.004 C 
ENDBRANCH  16  17
ENDBRANCH  15  16
ENDBRANCH  14  15
ENDBRANCH  13  14
ENDBRANCH  12  13
ENDBRANCH  10  11
ENDBRANCH   1  10
TORSDOF 13
ENDMDL
MODEL 6
REMARK VINA RESULT:    -4.937      2.346      5.894
REMARK INTER + INTRA:         -10.807
REMARK INTER:                  -8.711
REMARK INTRA:                  -2.097
REMARK UNBOUND:                -2.118
REMARK SMILES CCCCCCC=CCCCCCCCC(=O)[O-]
REMARK SMILES IDX 10 1 11 2 12 3 13 4 14 5 15 6 16 7 17 8 18 9 9 10 8 11 7 12
REMARK SMILES IDX 6 13 5 14 4 15 3 16 2 17 1 18
REMARK H PARENT
REMARK Flexibility Score: inf
ROOT
ATOM      1  C   UNL     1      20.846  22.365   9.433  1.00  0.00     0.004 C 
ENDROOT
BRANCH   1   2
ATOM      2  C   UNL     1      19.867  22.814  10.524  1.00  0.00     0.000 C 
BRANCH   2   3
ATOM      3  C   UNL     1      18.572  21.989  10.475  1.00  0.00     0.000 C 
BRANCH   3   4
ATOM      4  C   UNL     1      17.476  22.652   9.625  1.00  0.00     0.000 C 
BRANCH   4   5
ATOM      5  C   UNL     1      17.291  24.140   9.956  1.00  0.00     0.006 C 
BRANCH   5   6
ATOM      6  C   UNL     1      17.540  25.010   8.719  1.00  0.00     0.053 C 
BRANCH   6   7
ATOM      7  C   UNL     1      18.407  26.179   9.066  1.00  0.00     0.041 C 
ATOM      8  O   UNL     1      18.408  27.206   8.337  1.00  0.00    -0.550 OA
ATOM      9  O   UNL     1      19.179  26.154  10.220  1.00  0.00    -0.550 OA
ENDBRANCH   6   7
ENDBRANCH   5   6
ENDBRANCH   4   5
ENDBRANCH   3   4
ENDBRANCH   2   3
ENDBRANCH   1   2
BRANCH   1  10
ATOM     10  C   UNL     1      20.974  23.430   8.337  1.00  0.00     0.027 C 
BRANCH  10  11
ATOM     11  C   UNL     1      20.687  22.851   6.979  1.00  0.00    -0.031 C 
ATOM     12  C   UNL     1      19.432  22.712   6.526  1.00  0.00    -0.031 C 
BRANCH  12  13
ATOM     13  C   UNL     1      19.142  22.117   5.174  1.00  0.00     0.027 C 
BRANCH  13  14
ATOM     14  C   UNL     1      20.311  21.279   4.632  1.00  0.00     0.004 C 
BRANCH  14  15
ATOM     15  C   UNL     1      20.081  19.758   4.697  1.00  0.00     0.000 C 
BRANCH  15  16
ATOM     16  C   UNL     1      21.056  19.050   5.653  1.00  0.00    -0.000 C 
BRANCH  16  17
ATOM     17  C   UNL     1      22.416  19.757   5.738  1.00  0.00    -0.003 C 
ATOM     18  C   UNL     1      22.961  19.819   7.165  1.00  0.00     0.004 C 
ENDBRANCH  16  17
ENDBRANCH  15  16
ENDBRANCH  14  15
ENDBRANCH  13  14
ENDBRANCH  12  13
ENDBRANCH  10  11
ENDBRANCH   1  10
TORSDOF 13
ENDMDL
MODEL 7
REMARK VINA RESULT:    -4.933      2.246      4.861
REMARK INTER + INTRA:         -10.800
REMARK INTER:                  -8.976
REMARK INTRA:                  -1.824
REMARK UNBOUND:                -2.118
REMARK SMILES CCCCCCC=CCCCCCCCC(=O)[O-]
REMARK SMILES IDX 10 1 11 2 12 3 13 4 14 5 15 6 16 7 17 8 18 9 9 10 8 11 7 12
REMARK SMILES IDX 6 13 5 14 4 15 3 16 2 17 1 18
REMARK H PARENT
REMARK Flexibility Score: inf
ROOT
ATOM      1  C   UNL     1      17.651  21.536  11.005  1.00  0.00     0.004 C 
ENDROOT
BRANCH   1   2
ATOM      2  C   UNL     1      18.775  22.520  10.656  1.00  0.00     0.000 C 
BRANCH   2   3
ATOM      3  C   UNL     1      18.251  23.964  10.627  1.00  0.00     0.000 C 
BRANCH   3   4
ATOM      4  C   UNL     1      16.948  24.107   9.825  1.00  0.00     0.000 C 
BRANCH   4   5
ATOM      5  C   UNL     1      17.154  24.830   8.486  1.00  0.00     0.006 C 
BRANCH   5   6
ATOM      6  C   UNL     1      18.501  25.560   8.460  1.00  0.00     0.053 C 
BRANCH   6   7
ATOM      7  C   UNL     1      18.337  26.977   8.913  1.00  0.00     0.041 C 
ATOM      8  O   UNL     1      19.351  27.689   9.143  1.00  0.00    -0.550 OA
ATOM      9  O   UNL     1      17.068  27.527   9.035  1.00  0.00    -0.550 OA
ENDBRANCH   6   7
ENDBRANCH   5   6
ENDBRANCH   4   5
ENDBRANCH   3   4
ENDBRANCH   2   3
ENDBRANCH   1   2
BRANCH   1  10
ATOM     10  C   UNL     1      17.559  20.415   9.963  1.00  0.00     0.027 C 
BRANCH  10  11
ATOM     11  C   UNL     1      17.465  20.972   8.570  1.00  0.00    -0.031 C 
ATOM     12  C   UNL     1      18.534  21.026   7.762  1.00  0.00    -0.031 C 
BRANCH  12  13
ATOM     13  C   UNL     1      18.446  21.600   6.373  1.00  0.00     0.027 C 
BRANCH  13  14
ATOM     14  C   UNL     1      19.538  22.646   6.094  1.00  0.00     0.004 C 
BRANCH  14  15
ATOM     15  C   UNL     1      20.898  22.326   6.741  1.00  0.00     0.000 C 
BRANCH  15  16
ATOM     16  C   UNL     1      21.233  23.266   7.912  1.00  0.00    -0.000 C 
BRANCH  16  17
ATOM     17  C   UNL     1      21.918  22.534   9.076  1.00  0.00    -0.003 C 
ATOM     18  C   UNL     1      22.649  21.267   8.629  1.00  0.00     0.004 C 
ENDBRANCH  16  17
ENDBRANCH  15  16
ENDBRANCH  14  15
ENDBRANCH  13  14
ENDBRANCH  12  13
ENDBRANCH  10  11
ENDBRANCH   1  10
TORSDOF 13
ENDMDL
MODEL 8
REMARK VINA RESULT:    -4.929      2.347      5.520
REMARK INTER + INTRA:         -10.793
REMARK INTER:                  -8.607
REMARK INTRA:                  -2.186
REMARK UNBOUND:                -2.118
REMARK SMILES CCCCCCC=CCCCCCCCC(=O)[O-]
REMARK SMILES IDX 10 1 11 2 12 3 13 4 14 5 15 6 16 7 17 8 18 9 9 10 8 11 7 12
REMARK SMILES IDX 6 13 5 14 4 15 3 16 2 17 1 18
REMARK H PARENT
REMARK Flexibility Score: inf
ROOT
ATOM      1  C   UNL     1      20.882  22.887   9.874  1.00  0.00     0.004 C 
ENDROOT
BRANCH   1   2
ATOM      2  C   UNL     1      19.481  22.294   9.684  1.00  0.00     0.000 C 
BRANCH   2   3
ATOM      3  C   UNL     1      18.397  23.310  10.076  1.00  0.00     0.000 C 
BRANCH   3   4
ATOM      4  C   UNL     1      17.241  23.366   9.064  1.00  0.00     0.000 C 
BRANCH   4   5
ATOM      5  C   UNL     1      17.274  24.634   8.199  1.00  0.00     0.006 C 
BRANCH   5   6
ATOM      6  C   UNL     1      18.547  25.445   8.464  1.00  0.00     0.053 C 
BRANCH   6   7
ATOM      7  C   UNL     1      18.205  26.786   9.032  1.00  0.00     0.041 C 
ATOM      8  O   UNL     1      19.114  27.626   9.264  1.00  0.00    -0.550 OA
ATOM      9  O   UNL     1      16.878  27.129   9.259  1.00  0.00    -0.550 OA
ENDBRANCH   6   7
ENDBRANCH   5   6
ENDBRANCH   4   5
ENDBRANCH   3   4
ENDBRANCH   2   3
ENDBRANCH   1   2
BRANCH   1  10
ATOM     10  C   UNL     1      21.690  22.818   8.572  1.00  0.00     0.027 C 
BRANCH  10  11
ATOM     11  C   UNL     1      20.785  22.706   7.376  1.00  0.00    -0.031 C 
ATOM     12  C   UNL     1      20.999  21.793   6.417  1.00  0.00    -0.031 C 
BRANCH  12  13
ATOM     13  C   UNL     1      20.105  21.690   5.211  1.00  0.00     0.027 C 
BRANCH  13  14
ATOM     14  C   UNL     1      18.785  22.460   5.385  1.00  0.00     0.004 C 
BRANCH  14  15
ATOM     15  C   UNL     1      17.628  21.610   5.941  1.00  0.00     0.000 C 
BRANCH  15  16
ATOM     16  C   UNL     1      17.564  20.209   5.310  1.00  0.00    -0.000 C 
BRANCH  16  17
ATOM     17  C   UNL     1      17.728  19.087   6.347  1.00  0.00    -0.003 C 
ATOM     18  C   UNL     1      17.900  19.621   7.770  1.00  0.00     0.004 C 
ENDBRANCH  16  17
ENDBRANCH  15  16
ENDBRANCH  14  15
ENDBRANCH  13  14
ENDBRANCH  12  13
ENDBRANCH  10  11
ENDBRANCH   1  10
TORSDOF 13
ENDMDL
MODEL 9
REMARK VINA RESULT:    -4.796      2.077      3.671
REMARK INTER + INTRA:         -10.559
REMARK INTER:                  -8.717
REMARK INTRA:                  -1.842
REMARK UNBOUND:                -2.118
REMARK SMILES CCCCCCC=CCCCCCCCC(=O)[O-]
REMARK SMILES IDX 10 1 11 2 12 3 13 4 14 5 15 6 16 7 17 8 18 9 9 10 8 11 7 12
REMARK SMILES IDX 6 13 5 14 4 15 3 16 2 17 1 18
REMARK H PARENT
REMARK Flexibility Score: inf
ROOT
ATOM      1  C   UNL     1      18.188  22.314   6.064  1.00  0.00     0.004 C 
ENDROOT
BRANCH   1   2
ATOM      2  C   UNL     1      19.619  22.763   6.384  1.00  0.00     0.000 C 
BRANCH   2   3
ATOM      3  C   UNL     1      20.555  21.554   6.527  1.00  0.00     0.000 C 
BRANCH   3   4
ATOM      4  C   UNL     1      21.574  21.452   5.380  1.00  0.00     0.000 C 
BRANCH   4   5
ATOM      5  C   UNL     1      21.664  20.036   4.793  1.00  0.00     0.006 C 
BRANCH   5   6
ATOM      6  C   UNL     1      21.952  19.007   5.891  1.00  0.00     0.053 C 
BRANCH   6   7
ATOM      7  C   UNL     1      23.315  19.226   6.469  1.00  0.00     0.041 C 
ATOM      8  O   UNL     1      24.341  18.945   5.794  1.00  0.00    -0.550 OA
ATOM      9  O   UNL     1      23.454  19.785   7.733  1.00  0.00    -0.550 OA
ENDBRANCH   6   7
ENDBRANCH   5   6
ENDBRANCH   4   5
ENDBRANCH   3   4
ENDBRANCH   2   3
ENDBRANCH   1   2
BRANCH   1  10
ATOM     10  C   UNL     1      17.219  23.502   6.097  1.00  0.00     0.027 C 
BRANCH  10  11
ATOM     11  C   UNL     1      16.913  23.915   7.510  1.00  0.00    -0.031 C 
ATOM     12  C   UNL     1      17.432  25.031   8.044  1.00  0.00    -0.031 C 
BRANCH  12  13
ATOM     13  C   UNL     1      17.141  25.437   9.464  1.00  0.00     0.027 C 
BRANCH  13  14
ATOM     14  C   UNL     1      18.259  25.031  10.438  1.00  0.00     0.004 C 
BRANCH  14  15
ATOM     15  C   UNL     1      19.564  24.588   9.751  1.00  0.00     0.000 C 
BRANCH  15  16
ATOM     16  C   UNL     1      19.970  23.151  10.118  1.00  0.00    -0.000 C 
BRANCH  16  17
ATOM     17  C   UNL     1      18.805  22.341  10.706  1.00  0.00    -0.003 C 
ATOM     18  C   UNL     1      18.293  21.265   9.748  1.00  0.00     0.004 C 
ENDBRANCH  16  17
ENDBRANCH  15  16
ENDBRANCH  14  15
ENDBRANCH  13  14
ENDBRANCH  12  13
ENDBRANCH  10  11
ENDBRANCH   1  10
TORSDOF 13
ENDMDL
