MODEL 1
REMARK VINA RESULT:    -4.394      0.000      0.000
REMARK INTER + INTRA:          -7.262
REMARK INTER:                  -5.935
REMARK INTRA:                  -1.327
REMARK UNBOUND:                -1.327
REMARK SMILES CC(=O)CCC=C(C)CCC=C(C)C
REMARK SMILES IDX 7 1 6 2 8 3 9 4 10 5 11 6 13 7 12 8 14 9 5 10 4 11 2 12 3 13
REMARK SMILES IDX 1 14
REMARK H PARENT
REMARK Flexibility Score: inf
ROOT
ATOM      1  C   UNL     1     -25.076  10.753 -28.860  1.00  0.00    -0.077 C 
ATOM      2  C   UNL     1     -25.165  12.101 -28.920  1.00  0.00    -0.028 C 
ATOM      3  C   UNL     1     -24.506   9.940 -29.999  1.00  0.00     0.039 C 
ENDROOT
BRANCH   1   4
ATOM      4  C   UNL     1     -25.540  10.043 -27.607  1.00  0.00     0.034 C 
BRANCH   4   5
ATOM      5  C   UNL     1     -27.051  10.214 -27.413  1.00  0.00     0.032 C 
BRANCH   5   6
ATOM      6  C   UNL     1     -27.787   9.983 -28.710  1.00  0.00    -0.028 C 
ATOM      7  C   UNL     1     -29.037  12.148 -28.570  1.00  0.00     0.039 C 
ATOM      8  C   UNL     1     -28.706  10.829 -29.224  1.00  0.00    -0.080 C 
ATOM      9  C   UNL     1     -29.400  10.487 -30.518  1.00  0.00     0.039 C 
ENDBRANCH   5   6
ENDBRANCH   4   5
ENDBRANCH   1   4
BRANCH   2  10
ATOM     10  C   UNL     1     -24.784  12.928 -30.122  1.00  0.00     0.035 C 
BRANCH  10  11
ATOM     11  C   UNL     1     -25.843  14.000 -30.398  1.00  0.00     0.079 C 
BRANCH  11  12
ATOM     12  C   UNL     1     -26.917  13.467 -31.307  1.00  0.00     0.130 C 
ATOM     13  O   UNL     1     -28.015  14.004 -31.330  1.00  0.00    -0.300 OA
ATOM     14  C   UNL     1     -26.655  12.268 -32.167  1.00  0.00     0.087 C 
ENDBRANCH  11  12
ENDBRANCH  10  11
ENDBRANCH   2  10
TORSDOF 6
ENDMDL
MODEL 2
REMARK VINA RESULT:    -4.335      9.765     11.426
REMARK INTER + INTRA:          -7.182
REMARK INTER:                  -6.080
REMARK INTRA:                  -1.103
REMARK UNBOUND:                -1.327
REMARK SMILES CC(=O)CCC=C(C)CCC=C(C)C
REMARK SMILES IDX 7 1 6 2 8 3 9 4 10 5 11 6 13 7 12 8 14 9 5 10 4 11 2 12 3 13
REMARK SMILES IDX 1 14
REMARK H PARENT
REMARK Flexibility Score: inf
ROOT
ATOM      1  C   UNL     1     -14.729  11.136 -30.353  1.00  0.00    -0.077 C 
ATOM      2  C   UNL     1     -15.153  11.762 -31.475  1.00  0.00    -0.028 C 
ATOM      3  C   UNL     1     -13.524  11.619 -29.579  1.00  0.00     0.039 C 
ENDROOT
BRANCH   1   4
ATOM      4  C   UNL     1     -15.496   9.934 -29.850  1.00  0.00     0.034 C 
BRANCH   4   5
ATOM      5  C   UNL     1     -16.462  10.335 -28.730  1.00  0.00     0.032 C 
BRANCH   5   6
ATOM      6  C   UNL     1     -17.784  10.786 -29.299  1.00  0.00    -0.028 C 
ATOM      7  C   UNL     1     -17.327  13.209 -28.856  1.00  0.00     0.039 C 
ATOM      8  C   UNL     1     -18.199  12.072 -29.332  1.00  0.00    -0.080 C 
ATOM      9  C   UNL     1     -19.552  12.409 -29.903  1.00  0.00     0.039 C 
ENDBRANCH   5   6
ENDBRANCH   4   5
ENDBRANCH   1   4
BRANCH   2  10
ATOM     10  C   UNL     1     -14.456  12.939 -32.111  1.00  0.00     0.035 C 
BRANCH  10  11
ATOM     11  C   UNL     1     -14.962  14.254 -31.511  1.00  0.00     0.079 C 
BRANCH  11  12
ATOM     12  C   UNL     1     -13.812  15.160 -31.166  1.00  0.00     0.130 C 
ATOM     13  O   UNL     1     -14.013  16.178 -30.521  1.00  0.00    -0.300 OA
ATOM     14  C   UNL     1     -12.425  14.833 -31.628  1.00  0.00     0.087 C 
ENDBRANCH  11  12
ENDBRANCH  10  11
ENDBRANCH   2  10
TORSDOF 6
ENDMDL
MODEL 3
REMARK VINA RESULT:    -4.322     10.724     13.147
REMARK INTER + INTRA:          -7.165
REMARK INTER:                  -5.927
REMARK INTRA:                  -1.238
REMARK UNBOUND:                -1.327
REMARK SMILES CC(=O)CCC=C(C)CCC=C(C)C
REMARK SMILES IDX 7 1 6 2 8 3 9 4 10 5 11 6 13 7 12 8 14 9 5 10 4 11 2 12 3 13
REMARK SMILES IDX 1 14
REMARK H PARENT
REMARK Flexibility Score: inf
ROOT
ATOM      1  C   UNL     1     -15.788  14.321 -30.643  1.00  0.00    -0.077 C 
ATOM      2  C   UNL     1     -16.252  14.008 -29.412  1.00  0.00    -0.028 C 
ATOM      3  C   UNL     1     -16.251  13.588 -31.880  1.00  0.00     0.039 C 
ENDROOT
BRANCH   1   4
ATOM      4  C   UNL     1     -14.794  15.453 -30.786  1.00  0.00     0.034 C 
BRANCH   4   5
ATOM      5  C   UNL     1     -13.367  14.959 -30.524  1.00  0.00     0.032 C 
BRANCH   5   6
ATOM      6  C   UNL     1     -12.676  14.607 -31.818  1.00  0.00    -0.028 C 
ATOM      7  C   UNL     1     -12.803  12.141 -31.397  1.00  0.00     0.039 C 
ATOM      8  C   UNL     1     -12.388  13.345 -32.207  1.00  0.00    -0.080 C 
ATOM      9  C   UNL     1     -11.672  13.107 -33.512  1.00  0.00     0.039 C 
ENDBRANCH   5   6
ENDBRANCH   4   5
ENDBRANCH   1   4
BRANCH   2  10
ATOM     10  C   UNL     1     -17.206  12.876 -29.122  1.00  0.00     0.035 C 
BRANCH  10  11
ATOM     11  C   UNL     1     -16.615  11.928 -28.075  1.00  0.00     0.079 C 
BRANCH  11  12
ATOM     12  C   UNL     1     -15.452  11.162 -28.644  1.00  0.00     0.130 C 
ATOM     13  O   UNL     1     -14.349  11.260 -28.126  1.00  0.00    -0.300 OA
ATOM     14  C   UNL     1     -15.633  10.299 -29.855  1.00  0.00     0.087 C 
ENDBRANCH  11  12
ENDBRANCH  10  11
ENDBRANCH   2  10
TORSDOF 6
ENDMDL
MODEL 4
REMARK VINA RESULT:    -4.315     10.915     12.864
REMARK INTER + INTRA:          -7.156
REMARK INTER:                  -6.052
REMARK INTRA:                  -1.104
REMARK UNBOUND:                -1.327
REMARK SMILES CC(=O)CCC=C(C)CCC=C(C)C
REMARK SMILES IDX 7 1 6 2 8 3 9 4 10 5 11 6 13 7 12 8 14 9 5 10 4 11 2 12 3 13
REMARK SMILES IDX 1 14
REMARK H PARENT
REMARK Flexibility Score: inf
ROOT
ATOM      1  C   UNL     1     -16.224  13.793 -30.385  1.00  0.00    -0.077 C 
ATOM      2  C   UNL     1     -15.260  14.701 -30.107  1.00  0.00    -0.028 C 
ATOM      3  C   UNL     1     -16.439  13.263 -31.784  1.00  0.00     0.039 C 
ENDROOT
BRANCH   1   4
ATOM      4  C   UNL     1     -17.094  13.279 -29.260  1.00  0.00     0.034 C 
BRANCH   4   5
ATOM      5  C   UNL     1     -16.645  11.881 -28.820  1.00  0.00     0.032 C 
BRANCH   5   6
ATOM      6  C   UNL     1     -15.535  11.970 -27.803  1.00  0.00    -0.028 C 
ATOM      7  C   UNL     1     -13.763  11.304 -29.443  1.00  0.00     0.039 C 
ATOM      8  C   UNL     1     -14.240  11.681 -28.062  1.00  0.00    -0.080 C 
ATOM      9  C   UNL     1     -13.214  11.781 -26.962  1.00  0.00     0.039 C 
ENDBRANCH   5   6
ENDBRANCH   4   5
ENDBRANCH   1   4
BRANCH   2  10
ATOM     10  C   UNL     1     -14.358  15.330 -31.139  1.00  0.00     0.035 C 
BRANCH  10  11
ATOM     11  C   UNL     1     -12.939  14.763 -31.032  1.00  0.00     0.079 C 
BRANCH  11  12
ATOM     12  C   UNL     1     -12.453  14.286 -32.374  1.00  0.00     0.130 C 
ATOM     13  O   UNL     1     -13.116  13.480 -33.008  1.00  0.00    -0.300 OA
ATOM     14  C   UNL     1     -11.149  14.778 -32.926  1.00  0.00     0.087 C 
ENDBRANCH  11  12
ENDBRANCH  10  11
ENDBRANCH   2  10
TORSDOF 6
ENDMDL
MODEL 5
REMARK VINA RESULT:    -4.263     10.407     12.427
REMARK INTER + INTRA:          -7.085
REMARK INTER:                  -5.772
REMARK INTRA:                  -1.313
REMARK UNBOUND:                -1.327
REMARK SMILES CC(=O)CCC=C(C)CCC=C(C)C
REMARK SMILES IDX 7 1 6 2 8 3 9 4 10 5 11 6 13 7 12 8 14 9 5 10 4 11 2 12 3 13
REMARK SMILES IDX 1 14
REMARK H PARENT
REMARK Flexibility Score: inf
ROOT
ATOM      1  C   UNL     1     -16.780  12.308 -29.748  1.00  0.00    -0.077 C 
ATOM      2  C   UNL     1     -16.349  12.256 -31.028  1.00  0.00    -0.028 C 
ATOM      3  C   UNL     1     -16.964  13.620 -29.021  1.00  0.00     0.039 C 
ENDROOT
BRANCH   1   4
ATOM      4  C   UNL     1     -17.109  11.017 -29.032  1.00  0.00     0.034 C 
BRANCH   4   5
ATOM      5  C   UNL     1     -15.844  10.181 -28.809  1.00  0.00     0.032 C 
BRANCH   5   6
ATOM      6  C   UNL     1     -14.982  10.791 -27.732  1.00  0.00    -0.028 C 
ATOM      7  C   UNL     1     -13.184  11.473 -29.336  1.00  0.00     0.039 C 
ATOM      8  C   UNL     1     -13.769  11.346 -27.951  1.00  0.00    -0.080 C 
ATOM      9  C   UNL     1     -12.981  11.906 -26.795  1.00  0.00     0.039 C 
ENDBRANCH   5   6
ENDBRANCH   4   5
ENDBRANCH   1   4
BRANCH   2  10
ATOM     10  C   UNL     1     -15.943  13.460 -31.841  1.00  0.00     0.035 C 
BRANCH  10  11
ATOM     11  C   UNL     1     -14.534  13.275 -32.412  1.00  0.00     0.079 C 
BRANCH  11  12
ATOM     12  C   UNL     1     -13.583  14.280 -31.821  1.00  0.00     0.130 C 
ATOM     13  O   UNL     1     -12.425  14.321 -32.209  1.00  0.00    -0.300 OA
ATOM     14  C   UNL     1     -14.042  15.215 -30.744  1.00  0.00     0.087 C 
ENDBRANCH  11  12
ENDBRANCH  10  11
ENDBRANCH   2  10
TORSDOF 6
ENDMDL
MODEL 6
REMARK VINA RESULT:    -4.239     10.099     12.163
REMARK INTER + INTRA:          -7.053
REMARK INTER:                  -5.939
REMARK INTRA:                  -1.114
REMARK UNBOUND:                -1.327
REMARK SMILES CC(=O)CCC=C(C)CCC=C(C)C
REMARK SMILES IDX 7 1 6 2 8 3 9 4 10 5 11 6 13 7 12 8 14 9 5 10 4 11 2 12 3 13
REMARK SMILES IDX 1 14
REMARK H PARENT
REMARK Flexibility Score: inf
ROOT
ATOM      1  C   UNL     1     -14.326  12.816 -31.265  1.00  0.00    -0.077 C 
ATOM      2  C   UNL     1     -14.139  11.574 -30.763  1.00  0.00    -0.028 C 
ATOM      3  C   UNL     1     -13.564  14.011 -30.739  1.00  0.00     0.039 C 
ENDROOT
BRANCH   1   4
ATOM      4  C   UNL     1     -15.308  13.009 -32.399  1.00  0.00     0.034 C 
BRANCH   4   5
ATOM      5  C   UNL     1     -16.594  13.674 -31.897  1.00  0.00     0.032 C 
BRANCH   5   6
ATOM      6  C   UNL     1     -17.537  12.648 -31.319  1.00  0.00    -0.028 C 
ATOM      7  C   UNL     1     -17.073  13.324 -28.952  1.00  0.00     0.039 C 
ATOM      8  C   UNL     1     -17.737  12.459 -29.995  1.00  0.00    -0.080 C 
ATOM      9  C   UNL     1     -18.686  11.386 -29.526  1.00  0.00     0.039 C 
ENDBRANCH   5   6
ENDBRANCH   4   5
ENDBRANCH   1   4
BRANCH   2  10
ATOM     10  C   UNL     1     -13.229  11.250 -29.605  1.00  0.00     0.035 C 
BRANCH  10  11
ATOM     11  C   UNL     1     -14.001  10.529 -28.497  1.00  0.00     0.079 C 
BRANCH  11  12
ATOM     12  C   UNL     1     -13.992  11.337 -27.228  1.00  0.00     0.130 C 
ATOM     13  O   UNL     1     -15.046  11.609 -26.673  1.00  0.00    -0.300 OA
ATOM     14  C   UNL     1     -12.699  11.830 -26.653  1.00  0.00     0.087 C 
ENDBRANCH  11  12
ENDBRANCH  10  11
ENDBRANCH   2  10
TORSDOF 6
ENDMDL
MODEL 7
REMARK VINA RESULT:    -4.233     10.298     12.720
REMARK INTER + INTRA:          -7.045
REMARK INTER:                  -5.629
REMARK INTRA:                  -1.416
REMARK UNBOUND:                -1.327
REMARK SMILES CC(=O)CCC=C(C)CCC=C(C)C
REMARK SMILES IDX 7 1 6 2 8 3 9 4 10 5 11 6 13 7 12 8 14 9 5 10 4 11 2 12 3 13
REMARK SMILES IDX 1 14
REMARK H PARENT
REMARK Flexibility Score: inf
ROOT
ATOM      1  C   UNL     1     -16.860  12.013 -29.629  1.00  0.00    -0.077 C 
ATOM      2  C   UNL     1     -16.368  10.760 -29.759  1.00  0.00    -0.028 C 
ATOM      3  C   UNL     1     -16.871  12.731 -28.299  1.00  0.00     0.039 C 
ENDROOT
BRANCH   1   4
ATOM      4  C   UNL     1     -17.392  12.723 -30.854  1.00  0.00     0.034 C 
BRANCH   4   5
ATOM      5  C   UNL     1     -16.278  12.939 -31.885  1.00  0.00     0.032 C 
BRANCH   5   6
ATOM      6  C   UNL     1     -15.400  14.100 -31.488  1.00  0.00    -0.028 C 
ATOM      7  C   UNL     1     -13.394  12.653 -31.095  1.00  0.00     0.039 C 
ATOM      8  C   UNL     1     -14.111  13.981 -31.099  1.00  0.00    -0.080 C 
ATOM      9  C   UNL     1     -13.332  15.208 -30.700  1.00  0.00     0.039 C 
ENDBRANCH   5   6
ENDBRANCH   4   5
ENDBRANCH   1   4
BRANCH   2  10
ATOM     10  C   UNL     1     -15.852   9.923 -28.615  1.00  0.00     0.035 C 
BRANCH  10  11
ATOM     11  C   UNL     1     -14.321   9.937 -28.584  1.00  0.00     0.079 C 
BRANCH  11  12
ATOM     12  C   UNL     1     -13.819  10.602 -27.332  1.00  0.00     0.130 C 
ATOM     13  O   UNL     1     -13.830   9.992 -26.274  1.00  0.00    -0.300 OA
ATOM     14  C   UNL     1     -13.327  12.017 -27.371  1.00  0.00     0.087 C 
ENDBRANCH  11  12
ENDBRANCH  10  11
ENDBRANCH   2  10
TORSDOF 6
ENDMDL
MODEL 8
REMARK VINA RESULT:    -4.178     10.894     12.710
REMARK INTER + INTRA:          -6.970
REMARK INTER:                  -6.109
REMARK INTRA:                  -0.861
REMARK UNBOUND:                -1.327
REMARK SMILES CC(=O)CCC=C(C)CCC=C(C)C
REMARK SMILES IDX 7 1 6 2 8 3 9 4 10 5 11 6 13 7 12 8 14 9 5 10 4 11 2 12 3 13
REMARK SMILES IDX 1 14
REMARK H PARENT
REMARK Flexibility Score: inf
ROOT
ATOM      1  C   UNL     1     -15.446  13.369 -31.509  1.00  0.00    -0.077 C 
ATOM      2  C   UNL     1     -14.767  14.457 -31.080  1.00  0.00    -0.028 C 
ATOM      3  C   UNL     1     -14.741  12.085 -31.880  1.00  0.00     0.039 C 
ENDROOT
BRANCH   1   4
ATOM      4  C   UNL     1     -16.955  13.434 -31.598  1.00  0.00     0.034 C 
BRANCH   4   5
ATOM      5  C   UNL     1     -17.600  12.395 -30.673  1.00  0.00     0.032 C 
BRANCH   5   6
ATOM      6  C   UNL     1     -17.159  12.603 -29.246  1.00  0.00    -0.028 C 
ATOM      7  C   UNL     1     -16.229  10.287 -29.030  1.00  0.00     0.039 C 
ATOM      8  C   UNL     1     -16.571  11.652 -28.485  1.00  0.00    -0.080 C 
ATOM      9  C   UNL     1     -16.192  11.960 -27.060  1.00  0.00     0.039 C 
ENDBRANCH   5   6
ENDBRANCH   4   5
ENDBRANCH   1   4
BRANCH   2  10
ATOM     10  C   UNL     1     -13.264  14.544 -30.990  1.00  0.00     0.035 C 
BRANCH  10  11
ATOM     11  C   UNL     1     -12.684  15.184 -32.255  1.00  0.00     0.079 C 
BRANCH  11  12
ATOM     12  C   UNL     1     -11.537  14.368 -32.787  1.00  0.00     0.130 C 
ATOM     13  O   UNL     1     -11.756  13.298 -33.336  1.00  0.00    -0.300 OA
ATOM     14  C   UNL     1     -10.127  14.849 -32.627  1.00  0.00     0.087 C 
ENDBRANCH  11  12
ENDBRANCH  10  11
ENDBRANCH   2  10
TORSDOF 6
ENDMDL
MODEL 9
REMARK VINA RESULT:    -4.169     10.052     12.338
REMARK INTER + INTRA:          -6.958
REMARK INTER:                  -5.975
REMARK INTRA:                  -0.983
REMARK UNBOUND:                -1.327
REMARK SMILES CC(=O)CCC=C(C)CCC=C(C)C
REMARK SMILES IDX 7 1 6 2 8 3 9 4 10 5 11 6 13 7 12 8 14 9 5 10 4 11 2 12 3 13
REMARK SMILES IDX 1 14
REMARK H PARENT
REMARK Flexibility Score: inf
ROOT
ATOM      1  C   UNL     1     -14.563  11.073 -28.774  1.00  0.00    -0.077 C 
ATOM      2  C   UNL     1     -15.553  10.463 -29.463  1.00  0.00    -0.028 C 
ATOM      3  C   UNL     1     -14.773  11.600 -27.374  1.00  0.00     0.039 C 
ENDROOT
BRANCH   1   4
ATOM      4  C   UNL     1     -13.200  11.212 -29.417  1.00  0.00     0.034 C 
BRANCH   4   5
ATOM      5  C   UNL     1     -13.287  12.041 -30.703  1.00  0.00     0.032 C 
BRANCH   5   6
ATOM      6  C   UNL     1     -13.780  13.436 -30.408  1.00  0.00    -0.028 C 
ATOM      7  C   UNL     1     -12.381  14.481 -32.203  1.00  0.00     0.039 C 
ATOM      8  C   UNL     1     -13.356  14.546 -31.053  1.00  0.00    -0.080 C 
ATOM      9  C   UNL     1     -13.899  15.895 -30.659  1.00  0.00     0.039 C 
ENDBRANCH   5   6
ENDBRANCH   4   5
ENDBRANCH   1   4
BRANCH   2  10
ATOM     10  C   UNL     1     -16.967  10.301 -28.962  1.00  0.00     0.035 C 
BRANCH  10  11
ATOM     11  C   UNL     1     -17.958  10.976 -29.914  1.00  0.00     0.079 C 
BRANCH  11  12
ATOM     12  C   UNL     1     -17.640  12.438 -30.066  1.00  0.00     0.130 C 
ATOM     13  O   UNL     1     -17.702  13.177 -29.095  1.00  0.00    -0.300 OA
ATOM     14  C   UNL     1     -17.269  12.998 -31.406  1.00  0.00     0.087 C 
ENDBRANCH  11  12
ENDBRANCH  10  11
ENDBRANCH   2  10
TORSDOF 6
ENDMDL
