MODEL 1
REMARK VINA RESULT:    -4.328      0.000      0.000
REMARK INTER + INTRA:          -6.780
REMARK INTER:                  -5.467
REMARK INTRA:                  -1.313
REMARK UNBOUND:                -1.313
REMARK SMILES O=C(C=Cc1ccc(O)cc1)c1ccc(O)cc1O
REMARK SMILES IDX 4 1 3 2 5 3 6 4 7 5 8 6 11 7 10 8 9 9 2 11 1 12 12 13 18 14
REMARK SMILES IDX 13 15 17 16 14 17 15 18 19 19 16 21
REMARK H PARENT 9 10 19 20 16 22
REMARK Flexibility Score: inf
ROOT
ATOM      1  C   UNL     1       8.612  -3.662 -30.312  1.00  0.00     0.012 C 
ATOM      2  C   UNL     1       9.695  -4.412 -30.569  1.00  0.00     0.053 C 
ENDROOT
BRANCH   1   3
ATOM      3  C   UNL     1       7.396  -4.124 -29.612  1.00  0.00    -0.025 A 
ATOM      4  C   UNL     1       6.410  -4.872 -30.280  1.00  0.00     0.012 A 
ATOM      5  C   UNL     1       5.244  -5.257 -29.611  1.00  0.00     0.047 A 
ATOM      6  C   UNL     1       5.042  -4.884 -28.278  1.00  0.00     0.115 A 
ATOM      7  C   UNL     1       7.174  -3.726 -28.285  1.00  0.00     0.012 A 
ATOM      8  C   UNL     1       6.008  -4.114 -27.617  1.00  0.00     0.047 A 
BRANCH   6   9
ATOM      9  O   UNL     1       3.876  -5.278 -27.623  1.00  0.00    -0.508 OA
ATOM     10  H   UNL     1       2.998  -4.795 -27.772  1.00  0.00     0.293 HD
ENDBRANCH   6   9
ENDBRANCH   1   3
BRANCH   2  11
ATOM     11  C   UNL     1       9.939  -5.774 -30.035  1.00  0.00     0.189 C 
ATOM     12  O   UNL     1       9.819  -6.779 -30.788  1.00  0.00    -0.289 OA
BRANCH  11  13
ATOM     13  C   UNL     1      10.290  -5.987 -28.611  1.00  0.00     0.064 A 
ATOM     14  C   UNL     1       9.389  -6.643 -27.744  1.00  0.00     0.130 A 
ATOM     15  C   UNL     1      11.514  -5.520 -28.096  1.00  0.00     0.020 A 
ATOM     16  C   UNL     1       9.724  -6.828 -26.393  1.00  0.00     0.093 A 
ATOM     17  C   UNL     1      11.838  -5.712 -26.750  1.00  0.00     0.047 A 
ATOM     18  C   UNL     1      10.945  -6.366 -25.896  1.00  0.00     0.119 A 
BRANCH  14  19
ATOM     19  O   UNL     1       8.172  -7.125 -28.227  1.00  0.00    -0.507 OA
ATOM     20  H   UNL     1       8.028  -7.311 -29.212  1.00  0.00     0.293 HD
ENDBRANCH  14  19
BRANCH  18  21
ATOM     21  O   UNL     1      11.258  -6.561 -24.553  1.00  0.00    -0.508 OA
ATOM     22  H   UNL     1      11.811  -5.888 -24.036  1.00  0.00     0.293 HD
ENDBRANCH  18  21
ENDBRANCH  11  13
ENDBRANCH   2  11
TORSDOF 6
ENDMDL
MODEL 2
REMARK VINA RESULT:    -4.315      0.921      1.592
REMARK INTER + INTRA:          -6.763
REMARK INTER:                  -5.807
REMARK INTRA:                  -0.956
REMARK UNBOUND:                -1.313
REMARK SMILES O=C(C=Cc1ccc(O)cc1)c1ccc(O)cc1O
REMARK SMILES IDX 4 1 3 2 5 3 6 4 7 5 8 6 11 7 10 8 9 9 2 11 1 12 12 13 18 14
REMARK SMILES IDX 13 15 17 16 14 17 15 18 19 19 16 21
REMARK H PARENT 9 10 19 20 16 22
REMARK Flexibility Score: inf
ROOT
ATOM      1  C   UNL     1       8.618  -3.550 -30.289  1.00  0.00     0.012 C 
ATOM      2  C   UNL     1       9.731  -4.241 -30.584  1.00  0.00     0.053 C 
ENDROOT
BRANCH   1   3
ATOM      3  C   UNL     1       7.434  -4.090 -29.590  1.00  0.00    -0.025 A 
ATOM      4  C   UNL     1       6.487  -4.882 -30.265  1.00  0.00     0.012 A 
ATOM      5  C   UNL     1       5.349  -5.342 -29.596  1.00  0.00     0.047 A 
ATOM      6  C   UNL     1       5.134  -5.001 -28.257  1.00  0.00     0.115 A 
ATOM      7  C   UNL     1       7.198  -3.726 -28.256  1.00  0.00     0.012 A 
ATOM      8  C   UNL     1       6.059  -4.188 -27.589  1.00  0.00     0.047 A 
BRANCH   6   9
ATOM      9  O   UNL     1       3.996  -5.469 -27.602  1.00  0.00    -0.508 OA
ATOM     10  H   UNL     1       3.872  -5.346 -26.604  1.00  0.00     0.293 HD
ENDBRANCH   6   9
ENDBRANCH   1   3
BRANCH   2  11
ATOM     11  C   UNL     1      10.044  -5.607 -30.098  1.00  0.00     0.189 C 
ATOM     12  O   UNL     1      10.056  -6.577 -30.904  1.00  0.00    -0.289 OA
BRANCH  11  13
ATOM     13  C   UNL     1      10.311  -5.868 -28.663  1.00  0.00     0.064 A 
ATOM     14  C   UNL     1      11.450  -5.318 -28.037  1.00  0.00     0.130 A 
ATOM     15  C   UNL     1       9.445  -6.683 -27.910  1.00  0.00     0.020 A 
ATOM     16  C   UNL     1      11.702  -5.581 -26.682  1.00  0.00     0.093 A 
ATOM     17  C   UNL     1       9.704  -6.936 -26.560  1.00  0.00     0.047 A 
ATOM     18  C   UNL     1      10.832  -6.386 -25.943  1.00  0.00     0.119 A 
BRANCH  14  19
ATOM     19  O   UNL     1      12.322  -4.499 -28.756  1.00  0.00    -0.507 OA
ATOM     20  H   UNL     1      12.838  -3.750 -28.309  1.00  0.00     0.293 HD
ENDBRANCH  14  19
BRANCH  18  21
ATOM     21  O   UNL     1      11.098  -6.634 -24.599  1.00  0.00    -0.508 OA
ATOM     22  H   UNL     1      11.723  -7.378 -24.312  1.00  0.00     0.293 HD
ENDBRANCH  18  21
ENDBRANCH  11  13
ENDBRANCH   2  11
TORSDOF 6
ENDMDL
MODEL 3
REMARK VINA RESULT:    -4.288      2.216      6.500
REMARK INTER + INTRA:          -6.729
REMARK INTER:                  -5.735
REMARK INTRA:                  -0.995
REMARK UNBOUND:                -1.313
REMARK SMILES O=C(C=Cc1ccc(O)cc1)c1ccc(O)cc1O
REMARK SMILES IDX 4 1 3 2 5 3 6 4 7 5 8 6 11 7 10 8 9 9 2 11 1 12 12 13 18 14
REMARK SMILES IDX 13 15 17 16 14 17 15 18 19 19 16 21
REMARK H PARENT 9 10 19 20 16 22
REMARK Flexibility Score: inf
ROOT
ATOM      1  C   UNL     1       6.846  -3.639 -27.672  1.00  0.00     0.012 C 
ATOM      2  C   UNL     1       5.767  -4.364 -27.334  1.00  0.00     0.053 C 
ENDROOT
BRANCH   1   3
ATOM      3  C   UNL     1       7.917  -4.074 -28.591  1.00  0.00    -0.025 A 
ATOM      4  C   UNL     1       9.030  -4.796 -28.124  1.00  0.00     0.012 A 
ATOM      5  C   UNL     1      10.056  -5.156 -29.003  1.00  0.00     0.047 A 
ATOM      6  C   UNL     1       9.992  -4.781 -30.349  1.00  0.00     0.115 A 
ATOM      7  C   UNL     1       7.873  -3.675 -29.935  1.00  0.00     0.012 A 
ATOM      8  C   UNL     1       8.900  -4.036 -30.813  1.00  0.00     0.047 A 
BRANCH   6   9
ATOM      9  O   UNL     1      11.022  -5.149 -31.214  1.00  0.00    -0.508 OA
ATOM     10  H   UNL     1      11.760  -4.501 -31.463  1.00  0.00     0.293 HD
ENDBRANCH   6   9
ENDBRANCH   1   3
BRANCH   2  11
ATOM     11  C   UNL     1       5.365  -5.645 -27.965  1.00  0.00     0.189 C 
ATOM     12  O   UNL     1       5.832  -6.735 -27.535  1.00  0.00    -0.289 OA
BRANCH  11  13
ATOM     13  C   UNL     1       4.445  -5.672 -29.127  1.00  0.00     0.064 A 
ATOM     14  C   UNL     1       3.047  -5.677 -28.932  1.00  0.00     0.130 A 
ATOM     15  C   UNL     1       4.950  -5.713 -30.441  1.00  0.00     0.020 A 
ATOM     16  C   UNL     1       2.184  -5.716 -30.037  1.00  0.00     0.093 A 
ATOM     17  C   UNL     1       4.082  -5.749 -31.535  1.00  0.00     0.047 A 
ATOM     18  C   UNL     1       2.698  -5.750 -31.336  1.00  0.00     0.119 A 
BRANCH  14  19
ATOM     19  O   UNL     1       2.517  -5.627 -27.642  1.00  0.00    -0.507 OA
ATOM     20  H   UNL     1       1.689  -5.084 -27.428  1.00  0.00     0.293 HD
ENDBRANCH  14  19
BRANCH  18  21
ATOM     21  O   UNL     1       1.824  -5.787 -32.420  1.00  0.00    -0.508 OA
ATOM     22  H   UNL     1       2.059  -6.280 -33.273  1.00  0.00     0.293 HD
ENDBRANCH  18  21
ENDBRANCH  11  13
ENDBRANCH   2  11
TORSDOF 6
ENDMDL
MODEL 4
REMARK VINA RESULT:    -4.135      2.473      3.794
REMARK INTER + INTRA:          -6.536
REMARK INTER:                  -5.823
REMARK INTRA:                  -0.713
REMARK UNBOUND:                -1.313
REMARK SMILES O=C(C=Cc1ccc(O)cc1)c1ccc(O)cc1O
REMARK SMILES IDX 4 1 3 2 5 3 6 4 7 5 8 6 11 7 10 8 9 9 2 11 1 12 12 13 18 14
REMARK SMILES IDX 13 15 17 16 14 17 15 18 19 19 16 21
REMARK H PARENT 9 10 19 20 16 22
REMARK Flexibility Score: inf
ROOT
ATOM      1  C   UNL     1       6.310  -5.249 -31.166  1.00  0.00     0.012 C 
ATOM      2  C   UNL     1       7.450  -5.773 -31.645  1.00  0.00     0.053 C 
ENDROOT
BRANCH   1   3
ATOM      3  C   UNL     1       6.052  -4.908 -29.752  1.00  0.00    -0.025 A 
ATOM      4  C   UNL     1       4.993  -5.501 -29.040  1.00  0.00     0.012 A 
ATOM      5  C   UNL     1       4.736  -5.127 -27.718  1.00  0.00     0.047 A 
ATOM      6  C   UNL     1       5.519  -4.147 -27.100  1.00  0.00     0.115 A 
ATOM      7  C   UNL     1       6.814  -3.904 -29.137  1.00  0.00     0.012 A 
ATOM      8  C   UNL     1       6.556  -3.532 -27.814  1.00  0.00     0.047 A 
BRANCH   6   9
ATOM      9  O   UNL     1       5.253  -3.786 -25.779  1.00  0.00    -0.508 OA
ATOM     10  H   UNL     1       5.946  -3.905 -25.050  1.00  0.00     0.293 HD
ENDBRANCH   6   9
ENDBRANCH   1   3
BRANCH   2  11
ATOM     11  C   UNL     1       8.710  -5.926 -30.877  1.00  0.00     0.189 C 
ATOM     12  O   UNL     1       8.805  -6.816 -29.989  1.00  0.00    -0.289 OA
BRANCH  11  13
ATOM     13  C   UNL     1       9.862  -5.022 -31.108  1.00  0.00     0.064 A 
ATOM     14  C   UNL     1      10.645  -4.571 -30.023  1.00  0.00     0.130 A 
ATOM     15  C   UNL     1      10.181  -4.583 -32.407  1.00  0.00     0.020 A 
ATOM     16  C   UNL     1      11.725  -3.704 -30.249  1.00  0.00     0.093 A 
ATOM     17  C   UNL     1      11.260  -3.723 -32.622  1.00  0.00     0.047 A 
ATOM     18  C   UNL     1      12.035  -3.281 -31.544  1.00  0.00     0.119 A 
BRANCH  14  19
ATOM     19  O   UNL     1      10.359  -4.995 -28.724  1.00  0.00    -0.507 OA
ATOM     20  H   UNL     1      10.667  -4.471 -27.914  1.00  0.00     0.293 HD
ENDBRANCH  14  19
BRANCH  18  21
ATOM     21  O   UNL     1      13.112  -2.422 -31.748  1.00  0.00    -0.508 OA
ATOM     22  H   UNL     1      13.675  -2.471 -32.588  1.00  0.00     0.293 HD
ENDBRANCH  18  21
ENDBRANCH  11  13
ENDBRANCH   2  11
TORSDOF 6
ENDMDL
MODEL 5
REMARK VINA RESULT:    -4.134      2.287      4.129
REMARK INTER + INTRA:          -6.535
REMARK INTER:                  -5.721
REMARK INTRA:                  -0.814
REMARK UNBOUND:                -1.313
REMARK SMILES O=C(C=Cc1ccc(O)cc1)c1ccc(O)cc1O
REMARK SMILES IDX 4 1 3 2 5 3 6 4 7 5 8 6 11 7 10 8 9 9 2 11 1 12 12 13 18 14
REMARK SMILES IDX 13 15 17 16 14 17 15 18 19 19 16 21
REMARK H PARENT 9 10 19 20 16 22
REMARK Flexibility Score: inf
ROOT
ATOM      1  C   UNL     1       6.333  -6.993 -27.965  1.00  0.00     0.012 C 
ATOM      2  C   UNL     1       7.335  -6.226 -27.505  1.00  0.00     0.053 C 
ENDROOT
BRANCH   1   3
ATOM      3  C   UNL     1       5.243  -6.537 -28.851  1.00  0.00    -0.025 A 
ATOM      4  C   UNL     1       5.417  -6.463 -30.244  1.00  0.00     0.012 A 
ATOM      5  C   UNL     1       4.388  -5.982 -31.059  1.00  0.00     0.047 A 
ATOM      6  C   UNL     1       3.185  -5.551 -30.491  1.00  0.00     0.115 A 
ATOM      7  C   UNL     1       4.045  -6.074 -28.284  1.00  0.00     0.012 A 
ATOM      8  C   UNL     1       3.017  -5.594 -29.101  1.00  0.00     0.047 A 
BRANCH   6   9
ATOM      9  O   UNL     1       2.166  -5.076 -31.316  1.00  0.00    -0.508 OA
ATOM     10  H   UNL     1       1.478  -5.701 -31.719  1.00  0.00     0.293 HD
ENDBRANCH   6   9
ENDBRANCH   1   3
BRANCH   2  11
ATOM     11  C   UNL     1       7.628  -4.842 -27.952  1.00  0.00     0.189 C 
ATOM     12  O   UNL     1       6.955  -3.877 -27.501  1.00  0.00    -0.289 OA
BRANCH  11  13
ATOM     13  C   UNL     1       8.684  -4.570 -28.957  1.00  0.00     0.064 A 
ATOM     14  C   UNL     1      10.048  -4.682 -28.609  1.00  0.00     0.130 A 
ATOM     15  C   UNL     1       8.345  -4.175 -30.265  1.00  0.00     0.020 A 
ATOM     16  C   UNL     1      11.040  -4.408 -29.562  1.00  0.00     0.093 A 
ATOM     17  C   UNL     1       9.341  -3.908 -31.207  1.00  0.00     0.047 A 
ATOM     18  C   UNL     1      10.690  -4.024 -30.859  1.00  0.00     0.119 A 
BRANCH  14  19
ATOM     19  O   UNL     1      10.415  -5.079 -27.322  1.00  0.00    -0.507 OA
ATOM     20  H   UNL     1      10.994  -5.896 -27.163  1.00  0.00     0.293 HD
ENDBRANCH  14  19
BRANCH  18  21
ATOM     21  O   UNL     1      11.690  -3.759 -31.791  1.00  0.00    -0.508 OA
ATOM     22  H   UNL     1      11.470  -3.526 -32.752  1.00  0.00     0.293 HD
ENDBRANCH  18  21
ENDBRANCH  11  13
ENDBRANCH   2  11
TORSDOF 6
ENDMDL
MODEL 6
REMARK VINA RESULT:    -4.124      1.943      2.529
REMARK INTER + INTRA:          -6.522
REMARK INTER:                  -5.771
REMARK INTRA:                  -0.751
REMARK UNBOUND:                -1.313
REMARK SMILES O=C(C=Cc1ccc(O)cc1)c1ccc(O)cc1O
REMARK SMILES IDX 4 1 3 2 5 3 6 4 7 5 8 6 11 7 10 8 9 9 2 11 1 12 12 13 18 14
REMARK SMILES IDX 13 15 17 16 14 17 15 18 19 19 16 21
REMARK H PARENT 9 10 19 20 16 22
REMARK Flexibility Score: inf
ROOT
ATOM      1  C   UNL     1       8.118  -5.471 -30.730  1.00  0.00     0.012 C 
ATOM      2  C   UNL     1       9.427  -5.360 -31.010  1.00  0.00     0.053 C 
ENDROOT
BRANCH   1   3
ATOM      3  C   UNL     1       7.459  -4.970 -29.507  1.00  0.00    -0.025 A 
ATOM      4  C   UNL     1       6.792  -5.842 -28.628  1.00  0.00     0.012 A 
ATOM      5  C   UNL     1       6.133  -5.340 -27.502  1.00  0.00     0.047 A 
ATOM      6  C   UNL     1       6.114  -3.963 -27.254  1.00  0.00     0.115 A 
ATOM      7  C   UNL     1       7.410  -3.588 -29.270  1.00  0.00     0.012 A 
ATOM      8  C   UNL     1       6.751  -3.088 -28.143  1.00  0.00     0.047 A 
BRANCH   6   9
ATOM      9  O   UNL     1       5.455  -3.477 -26.126  1.00  0.00    -0.508 OA
ATOM     10  H   UNL     1       5.050  -4.103 -25.440  1.00  0.00     0.293 HD
ENDBRANCH   6   9
ENDBRANCH   1   3
BRANCH   2  11
ATOM     11  C   UNL     1      10.403  -4.555 -30.236  1.00  0.00     0.189 C 
ATOM     12  O   UNL     1      10.671  -3.375 -30.591  1.00  0.00    -0.289 OA
BRANCH  11  13
ATOM     13  C   UNL     1      11.106  -5.125 -29.062  1.00  0.00     0.064 A 
ATOM     14  C   UNL     1      12.419  -4.714 -28.746  1.00  0.00     0.130 A 
ATOM     15  C   UNL     1      10.483  -6.098 -28.256  1.00  0.00     0.020 A 
ATOM     16  C   UNL     1      13.082  -5.270 -27.641  1.00  0.00     0.093 A 
ATOM     17  C   UNL     1      11.151  -6.642 -27.156  1.00  0.00     0.047 A 
ATOM     18  C   UNL     1      12.451  -6.230 -26.846  1.00  0.00     0.119 A 
BRANCH  14  19
ATOM     19  O   UNL     1      13.059  -3.746 -29.521  1.00  0.00    -0.507 OA
ATOM     20  H   UNL     1      13.714  -3.997 -30.252  1.00  0.00     0.293 HD
ENDBRANCH  14  19
BRANCH  18  21
ATOM     21  O   UNL     1      13.125  -6.767 -25.752  1.00  0.00    -0.508 OA
ATOM     22  H   UNL     1      13.456  -7.724 -25.753  1.00  0.00     0.293 HD
ENDBRANCH  18  21
ENDBRANCH  11  13
ENDBRANCH   2  11
TORSDOF 6
ENDMDL
MODEL 7
REMARK VINA RESULT:    -4.102      1.622      5.541
REMARK INTER + INTRA:          -6.494
REMARK INTER:                  -5.457
REMARK INTRA:                  -1.037
REMARK UNBOUND:                -1.313
REMARK SMILES O=C(C=Cc1ccc(O)cc1)c1ccc(O)cc1O
REMARK SMILES IDX 4 1 3 2 5 3 6 4 7 5 8 6 11 7 10 8 9 9 2 11 1 12 12 13 18 14
REMARK SMILES IDX 13 15 17 16 14 17 15 18 19 19 16 21
REMARK H PARENT 9 10 19 20 16 22
REMARK Flexibility Score: inf
ROOT
ATOM      1  C   UNL     1      10.800  -7.087 -29.493  1.00  0.00     0.012 C 
ATOM      2  C   UNL     1       9.914  -6.511 -30.321  1.00  0.00     0.053 C 
ENDROOT
BRANCH   1   3
ATOM      3  C   UNL     1      11.394  -6.453 -28.298  1.00  0.00    -0.025 A 
ATOM      4  C   UNL     1      10.861  -6.672 -27.015  1.00  0.00     0.012 A 
ATOM      5  C   UNL     1      11.409  -6.023 -25.904  1.00  0.00     0.047 A 
ATOM      6  C   UNL     1      12.477  -5.135 -26.065  1.00  0.00     0.115 A 
ATOM      7  C   UNL     1      12.445  -5.537 -28.457  1.00  0.00     0.012 A 
ATOM      8  C   UNL     1      12.991  -4.890 -27.345  1.00  0.00     0.047 A 
BRANCH   6   9
ATOM      9  O   UNL     1      13.014  -4.496 -24.948  1.00  0.00    -0.508 OA
ATOM     10  H   UNL     1      12.497  -4.425 -24.080  1.00  0.00     0.293 HD
ENDBRANCH   6   9
ENDBRANCH   1   3
BRANCH   2  11
ATOM     11  C   UNL     1       9.236  -5.214 -30.081  1.00  0.00     0.189 C 
ATOM     12  O   UNL     1       9.794  -4.136 -30.423  1.00  0.00    -0.289 OA
BRANCH  11  13
ATOM     13  C   UNL     1       7.917  -5.152 -29.406  1.00  0.00     0.064 A 
ATOM     14  C   UNL     1       6.735  -4.994 -30.161  1.00  0.00     0.130 A 
ATOM     15  C   UNL     1       7.826  -5.229 -28.003  1.00  0.00     0.020 A 
ATOM     16  C   UNL     1       5.493  -4.922 -29.512  1.00  0.00     0.093 A 
ATOM     17  C   UNL     1       6.583  -5.160 -27.368  1.00  0.00     0.047 A 
ATOM     18  C   UNL     1       5.414  -5.006 -28.120  1.00  0.00     0.119 A 
BRANCH  14  19
ATOM     19  O   UNL     1       6.793  -4.923 -31.553  1.00  0.00    -0.507 OA
ATOM     20  H   UNL     1       7.632  -5.174 -32.063  1.00  0.00     0.293 HD
ENDBRANCH  14  19
BRANCH  18  21
ATOM     21  O   UNL     1       4.171  -4.935 -27.496  1.00  0.00    -0.508 OA
ATOM     22  H   UNL     1       3.438  -5.603 -27.700  1.00  0.00     0.293 HD
ENDBRANCH  18  21
ENDBRANCH  11  13
ENDBRANCH   2  11
TORSDOF 6
ENDMDL
MODEL 8
REMARK VINA RESULT:    -3.983      2.509      5.175
REMARK INTER + INTRA:          -6.344
REMARK INTER:                  -5.186
REMARK INTRA:                  -1.158
REMARK UNBOUND:                -1.313
REMARK SMILES O=C(C=Cc1ccc(O)cc1)c1ccc(O)cc1O
REMARK SMILES IDX 4 1 3 2 5 3 6 4 7 5 8 6 11 7 10 8 9 9 2 11 1 12 12 13 18 14
REMARK SMILES IDX 13 15 17 16 14 17 15 18 19 19 16 21
REMARK H PARENT 9 10 19 20 16 22
REMARK Flexibility Score: inf
ROOT
ATOM      1  C   UNL     1      10.684  -6.798 -30.993  1.00  0.00     0.012 C 
ATOM      2  C   UNL     1      10.485  -6.644 -29.674  1.00  0.00     0.053 C 
ENDROOT
BRANCH   1   3
ATOM      3  C   UNL     1      10.277  -5.836 -32.038  1.00  0.00    -0.025 A 
ATOM      4  C   UNL     1      11.070  -4.718 -32.349  1.00  0.00     0.012 A 
ATOM      5  C   UNL     1      10.641  -3.794 -33.307  1.00  0.00     0.047 A 
ATOM      6  C   UNL     1       9.410  -3.966 -33.948  1.00  0.00     0.115 A 
ATOM      7  C   UNL     1       9.029  -5.987 -32.661  1.00  0.00     0.012 A 
ATOM      8  C   UNL     1       8.602  -5.062 -33.619  1.00  0.00     0.047 A 
BRANCH   6   9
ATOM      9  O   UNL     1       8.997  -3.038 -34.903  1.00  0.00    -0.508 OA
ATOM     10  H   UNL     1       8.022  -2.948 -35.164  1.00  0.00     0.293 HD
ENDBRANCH   6   9
ENDBRANCH   1   3
BRANCH   2  11
ATOM     11  C   UNL     1       9.994  -5.406 -29.020  1.00  0.00     0.189 C 
ATOM     12  O   UNL     1      10.793  -4.461 -28.777  1.00  0.00    -0.289 OA
BRANCH  11  13
ATOM     13  C   UNL     1       8.577  -5.268 -28.608  1.00  0.00     0.064 A 
ATOM     14  C   UNL     1       7.730  -4.346 -29.259  1.00  0.00     0.130 A 
ATOM     15  C   UNL     1       8.060  -6.039 -27.548  1.00  0.00     0.020 A 
ATOM     16  C   UNL     1       6.393  -4.212 -28.852  1.00  0.00     0.093 A 
ATOM     17  C   UNL     1       6.727  -5.900 -27.153  1.00  0.00     0.047 A 
ATOM     18  C   UNL     1       5.891  -4.987 -27.804  1.00  0.00     0.119 A 
BRANCH  14  19
ATOM     19  O   UNL     1       8.211  -3.575 -30.318  1.00  0.00    -0.507 OA
ATOM     20  H   UNL     1       7.746  -3.558 -31.218  1.00  0.00     0.293 HD
ENDBRANCH  14  19
BRANCH  18  21
ATOM     21  O   UNL     1       4.561  -4.841 -27.417  1.00  0.00    -0.508 OA
ATOM     22  H   UNL     1       3.809  -5.284 -27.931  1.00  0.00     0.293 HD
ENDBRANCH  18  21
ENDBRANCH  11  13
ENDBRANCH   2  11
TORSDOF 6
ENDMDL
