MODEL 1
REMARK VINA RESULT:    -7.435      0.000      0.000
REMARK INTER + INTRA:          -8.426
REMARK INTER:                  -8.956
REMARK INTRA:                   0.531
REMARK UNBOUND:                 0.531
REMARK SMILES O=c1c(O)c(-c2ccc(O)c(O)c2)oc2cc(O)cc(O)c12
REMARK SMILES IDX 5 1 3 2 2 3 1 4 22 5 20 6 19 7 17 8 16 9 15 10 14 11 6 12
REMARK SMILES IDX 7 13 8 14 9 15 13 16 11 17 10 18 12 20 4 22 21 24 18 26
REMARK H PARENT 10 19 12 21 4 23 21 25 18 27
REMARK Flexibility Score: inf
ROOT
ATOM      1  C   UNL     1     -96.510  82.167 207.480  1.00  0.00     0.180 A 
ATOM      2  C   UNL     1     -95.772  82.635 208.580  1.00  0.00     0.208 A 
ATOM      3  C   UNL     1     -95.968  83.955 209.019  1.00  0.00     0.238 A 
ATOM      4  O   UNL     1     -95.251  84.391 209.957  1.00  0.00    -0.285 OA
ATOM      5  C   UNL     1     -96.937  84.772 208.388  1.00  0.00     0.111 A 
ATOM      6  C   UNL     1     -97.249  86.109 208.778  1.00  0.00     0.134 A 
ATOM      7  C   UNL     1     -98.152  86.858 208.013  1.00  0.00     0.093 A 
ATOM      8  C   UNL     1     -98.801  86.297 206.910  1.00  0.00     0.123 A 
ATOM      9  C   UNL     1     -98.543  84.977 206.554  1.00  0.00     0.094 A 
ATOM     10  C   UNL     1     -97.619  84.215 207.275  1.00  0.00     0.146 A 
ATOM     11  O   UNL     1     -97.388  82.967 206.887  1.00  0.00    -0.452 OA
ENDROOT
BRANCH   1  12
ATOM     12  C   UNL     1     -96.349  80.793 206.950  1.00  0.00     0.025 A 
ATOM     13  C   UNL     1     -95.315  79.981 207.442  1.00  0.00     0.016 A 
ATOM     14  C   UNL     1     -95.157  78.675 206.972  1.00  0.00     0.051 A 
ATOM     15  C   UNL     1     -96.037  78.155 206.018  1.00  0.00     0.157 A 
ATOM     16  C   UNL     1     -97.246  80.263 206.006  1.00  0.00     0.062 A 
ATOM     17  C   UNL     1     -97.090  78.950 205.535  1.00  0.00     0.158 A 
BRANCH  15  18
ATOM     18  O   UNL     1     -95.852  76.849 205.566  1.00  0.00    -0.504 OA
ATOM     19  H   UNL     1     -96.202  76.536 204.668  1.00  0.00     0.293 HD
ENDBRANCH  15  18
BRANCH  17  20
ATOM     20  O   UNL     1     -97.980  78.433 204.594  1.00  0.00    -0.504 OA
ATOM     21  H   UNL     1     -97.770  77.589 204.074  1.00  0.00     0.293 HD
ENDBRANCH  17  20
ENDBRANCH   1  12
BRANCH   2  22
ATOM     22  O   UNL     1     -94.876  81.788 209.238  1.00  0.00    -0.502 OA
ATOM     23  H   UNL     1     -94.451  80.988 208.784  1.00  0.00     0.293 HD
ENDBRANCH   2  22
BRANCH   6  24
ATOM     24  O   UNL     1     -96.728  86.737 209.914  1.00  0.00    -0.507 OA
ATOM     25  H   UNL     1     -96.524  86.275 210.787  1.00  0.00     0.293 HD
ENDBRANCH   6  24
BRANCH   8  26
ATOM     26  O   UNL     1     -99.710  87.045 206.165  1.00  0.00    -0.508 OA
ATOM     27  H   UNL     1     -99.487  87.376 205.233  1.00  0.00     0.293 HD
ENDBRANCH   8  26
TORSDOF 6
ENDMDL
MODEL 2
REMARK VINA RESULT:    -7.356      1.777      6.559
REMARK INTER + INTRA:          -8.331
REMARK INTER:                  -8.105
REMARK INTRA:                  -0.225
REMARK UNBOUND:                 0.531
REMARK SMILES O=c1c(O)c(-c2ccc(O)c(O)c2)oc2cc(O)cc(O)c12
REMARK SMILES IDX 5 1 3 2 2 3 1 4 22 5 20 6 19 7 17 8 16 9 15 10 14 11 6 12
REMARK SMILES IDX 7 13 8 14 9 15 13 16 11 17 10 18 12 20 4 22 21 24 18 26
REMARK H PARENT 10 19 12 21 4 23 21 25 18 27
REMARK Flexibility Score: inf
ROOT
ATOM      1  C   UNL     1     -96.509  83.012 208.071  1.00  0.00     0.180 A 
ATOM      2  C   UNL     1     -96.361  82.341 209.296  1.00  0.00     0.208 A 
ATOM      3  C   UNL     1     -96.546  80.949 209.337  1.00  0.00     0.238 A 
ATOM      4  O   UNL     1     -96.485  80.365 210.450  1.00  0.00    -0.285 OA
ATOM      5  C   UNL     1     -96.823  80.239 208.143  1.00  0.00     0.111 A 
ATOM      6  C   UNL     1     -96.985  78.823 208.061  1.00  0.00     0.134 A 
ATOM      7  C   UNL     1     -97.361  78.243 206.843  1.00  0.00     0.093 A 
ATOM      8  C   UNL     1     -97.518  79.018 205.692  1.00  0.00     0.123 A 
ATOM      9  C   UNL     1     -97.309  80.392 205.751  1.00  0.00     0.094 A 
ATOM     10  C   UNL     1     -96.970  81.007 206.959  1.00  0.00     0.146 A 
ATOM     11  O   UNL     1     -96.801  82.324 206.973  1.00  0.00    -0.452 OA
ENDROOT
BRANCH   1  12
ATOM     12  C   UNL     1     -96.343  84.479 207.950  1.00  0.00     0.025 A 
ATOM     13  C   UNL     1     -95.058  85.036 208.027  1.00  0.00     0.016 A 
ATOM     14  C   UNL     1     -94.875  86.415 207.896  1.00  0.00     0.051 A 
ATOM     15  C   UNL     1     -95.969  87.255 207.669  1.00  0.00     0.157 A 
ATOM     16  C   UNL     1     -97.441  85.322 207.701  1.00  0.00     0.062 A 
ATOM     17  C   UNL     1     -97.259  86.707 207.567  1.00  0.00     0.158 A 
BRANCH  15  18
ATOM     18  O   UNL     1     -95.756  88.627 207.545  1.00  0.00    -0.504 OA
ATOM     19  H   UNL     1     -96.452  89.246 207.145  1.00  0.00     0.293 HD
ENDBRANCH  15  18
BRANCH  17  20
ATOM     20  O   UNL     1     -98.353  87.537 207.326  1.00  0.00    -0.504 OA
ATOM     21  H   UNL     1     -98.474  88.412 207.823  1.00  0.00     0.293 HD
ENDBRANCH  17  20
ENDBRANCH   1  12
BRANCH   2  22
ATOM     22  O   UNL     1     -96.012  83.050 210.449  1.00  0.00    -0.502 OA
ATOM     23  H   UNL     1     -95.637  82.596 211.274  1.00  0.00     0.293 HD
ENDBRANCH   2  22
BRANCH   6  24
ATOM     24  O   UNL     1     -96.765  77.945 209.126  1.00  0.00    -0.507 OA
ATOM     25  H   UNL     1     -96.067  78.070 209.843  1.00  0.00     0.293 HD
ENDBRANCH   6  24
BRANCH   8  26
ATOM     26  O   UNL     1     -97.876  78.428 204.481  1.00  0.00    -0.508 OA
ATOM     27  H   UNL     1     -97.197  77.944 203.906  1.00  0.00     0.293 HD
ENDBRANCH   8  26
TORSDOF 6
ENDMDL
MODEL 3
REMARK VINA RESULT:    -7.157      2.275      7.081
REMARK INTER + INTRA:          -8.091
REMARK INTER:                  -7.850
REMARK INTRA:                  -0.241
REMARK UNBOUND:                 0.531
REMARK SMILES O=c1c(O)c(-c2ccc(O)c(O)c2)oc2cc(O)cc(O)c12
REMARK SMILES IDX 5 1 3 2 2 3 1 4 22 5 20 6 19 7 17 8 16 9 15 10 14 11 6 12
REMARK SMILES IDX 7 13 8 14 9 15 13 16 11 17 10 18 12 20 4 22 21 24 18 26
REMARK H PARENT 10 19 12 21 4 23 21 25 18 27
REMARK Flexibility Score: inf
ROOT
ATOM      1  C   UNL     1     -96.385  85.436 208.386  1.00  0.00     0.180 A 
ATOM      2  C   UNL     1     -95.635  84.891 209.441  1.00  0.00     0.208 A 
ATOM      3  C   UNL     1     -95.642  83.501 209.636  1.00  0.00     0.238 A 
ATOM      4  O   UNL     1     -95.028  83.027 210.627  1.00  0.00    -0.285 OA
ATOM      5  C   UNL     1     -96.355  82.667 208.740  1.00  0.00     0.111 A 
ATOM      6  C   UNL     1     -96.395  81.242 208.816  1.00  0.00     0.134 A 
ATOM      7  C   UNL     1     -97.221  80.528 207.937  1.00  0.00     0.093 A 
ATOM      8  C   UNL     1     -97.956  81.183 206.947  1.00  0.00     0.123 A 
ATOM      9  C   UNL     1     -97.881  82.567 206.831  1.00  0.00     0.094 A 
ATOM     10  C   UNL     1     -97.096  83.311 207.715  1.00  0.00     0.146 A 
ATOM     11  O   UNL     1     -97.071  84.632 207.582  1.00  0.00    -0.452 OA
ENDROOT
BRANCH   1  12
ATOM     12  C   UNL     1     -96.439  86.893 208.126  1.00  0.00     0.025 A 
ATOM     13  C   UNL     1     -95.848  87.408 206.962  1.00  0.00     0.016 A 
ATOM     14  C   UNL     1     -95.904  88.776 206.686  1.00  0.00     0.051 A 
ATOM     15  C   UNL     1     -96.564  89.648 207.558  1.00  0.00     0.157 A 
ATOM     16  C   UNL     1     -97.120  87.767 208.992  1.00  0.00     0.062 A 
ATOM     17  C   UNL     1     -97.179  89.141 208.716  1.00  0.00     0.158 A 
BRANCH  15  18
ATOM     18  O   UNL     1     -96.601  91.008 207.257  1.00  0.00    -0.504 OA
ATOM     19  H   UNL     1     -96.738  91.347 206.312  1.00  0.00     0.293 HD
ENDBRANCH  15  18
BRANCH  17  20
ATOM     20  O   UNL     1     -97.852  90.002 209.582  1.00  0.00    -0.504 OA
ATOM     21  H   UNL     1     -97.367  90.492 210.324  1.00  0.00     0.293 HD
ENDBRANCH  17  20
ENDBRANCH   1  12
BRANCH   2  22
ATOM     22  O   UNL     1     -94.876  85.725 210.268  1.00  0.00    -0.502 OA
ATOM     23  H   UNL     1     -93.895  85.554 210.460  1.00  0.00     0.293 HD
ENDBRANCH   2  22
BRANCH   6  24
ATOM     24  O   UNL     1     -95.632  80.482 209.707  1.00  0.00    -0.507 OA
ATOM     25  H   UNL     1     -94.975  79.765 209.439  1.00  0.00     0.293 HD
ENDBRANCH   6  24
BRANCH   8  26
ATOM     26  O   UNL     1     -98.761  80.462 206.067  1.00  0.00    -0.508 OA
ATOM     27  H   UNL     1     -98.374  79.754 205.452  1.00  0.00     0.293 HD
ENDBRANCH   8  26
TORSDOF 6
ENDMDL
MODEL 4
REMARK VINA RESULT:    -7.145      2.494      6.992
REMARK INTER + INTRA:          -8.076
REMARK INTER:                  -7.753
REMARK INTRA:                  -0.323
REMARK UNBOUND:                 0.531
REMARK SMILES O=c1c(O)c(-c2ccc(O)c(O)c2)oc2cc(O)cc(O)c12
REMARK SMILES IDX 5 1 3 2 2 3 1 4 22 5 20 6 19 7 17 8 16 9 15 10 14 11 6 12
REMARK SMILES IDX 7 13 8 14 9 15 13 16 11 17 10 18 12 20 4 22 21 24 18 26
REMARK H PARENT 10 19 12 21 4 23 21 25 18 27
REMARK Flexibility Score: inf
ROOT
ATOM      1  C   UNL     1     -96.834  82.046 208.022  1.00  0.00     0.180 A 
ATOM      2  C   UNL     1     -95.878  81.321 207.291  1.00  0.00     0.208 A 
ATOM      3  C   UNL     1     -95.950  79.919 207.277  1.00  0.00     0.238 A 
ATOM      4  O   UNL     1     -95.047  79.274 206.682  1.00  0.00    -0.285 OA
ATOM      5  C   UNL     1     -97.009  79.261 207.948  1.00  0.00     0.111 A 
ATOM      6  C   UNL     1     -97.205  77.847 207.963  1.00  0.00     0.134 A 
ATOM      7  C   UNL     1     -98.229  77.301 208.749  1.00  0.00     0.093 A 
ATOM      8  C   UNL     1     -99.100  78.122 209.469  1.00  0.00     0.123 A 
ATOM      9  C   UNL     1     -98.950  79.504 209.417  1.00  0.00     0.094 A 
ATOM     10  C   UNL     1     -97.916  80.077 208.672  1.00  0.00     0.146 A 
ATOM     11  O   UNL     1     -97.797  81.399 208.668  1.00  0.00    -0.452 OA
ENDROOT
BRANCH   1  12
ATOM     12  C   UNL     1     -96.815  83.525 208.096  1.00  0.00     0.025 A 
ATOM     13  C   UNL     1     -97.665  84.268 207.262  1.00  0.00     0.016 A 
ATOM     14  C   UNL     1     -97.679  85.663 207.329  1.00  0.00     0.051 A 
ATOM     15  C   UNL     1     -96.859  86.336 208.239  1.00  0.00     0.157 A 
ATOM     16  C   UNL     1     -96.006  84.202 209.025  1.00  0.00     0.062 A 
ATOM     17  C   UNL     1     -96.021  85.603 209.096  1.00  0.00     0.158 A 
BRANCH  15  18
ATOM     18  O   UNL     1     -96.894  87.729 208.281  1.00  0.00    -0.504 OA
ATOM     19  H   UNL     1     -96.240  88.267 208.838  1.00  0.00     0.293 HD
ENDBRANCH  15  18
BRANCH  17  20
ATOM     20  O   UNL     1     -95.211  86.267 210.016  1.00  0.00    -0.504 OA
ATOM     21  H   UNL     1     -95.311  87.260 210.190  1.00  0.00     0.293 HD
ENDBRANCH  17  20
ENDBRANCH   1  12
BRANCH   2  22
ATOM     22  O   UNL     1     -94.885  81.994 206.572  1.00  0.00    -0.502 OA
ATOM     23  H   UNL     1     -95.038  82.348 205.635  1.00  0.00     0.293 HD
ENDBRANCH   2  22
BRANCH   6  24
ATOM     24  O   UNL     1     -96.450  76.942 207.211  1.00  0.00    -0.507 OA
ATOM     25  H   UNL     1     -95.668  76.410 207.563  1.00  0.00     0.293 HD
ENDBRANCH   6  24
BRANCH   8  26
ATOM     26  O   UNL     1    -100.126  77.570 210.234  1.00  0.00    -0.508 OA
ATOM     27  H   UNL     1     -99.933  76.932 210.998  1.00  0.00     0.293 HD
ENDBRANCH   8  26
TORSDOF 6
ENDMDL
MODEL 5
REMARK VINA RESULT:    -7.096      2.109      7.226
REMARK INTER + INTRA:          -8.017
REMARK INTER:                  -7.774
REMARK INTRA:                  -0.244
REMARK UNBOUND:                 0.531
REMARK SMILES O=c1c(O)c(-c2ccc(O)c(O)c2)oc2cc(O)cc(O)c12
REMARK SMILES IDX 5 1 3 2 2 3 1 4 22 5 20 6 19 7 17 8 16 9 15 10 14 11 6 12
REMARK SMILES IDX 7 13 8 14 9 15 13 16 11 17 10 18 12 20 4 22 21 24 18 26
REMARK H PARENT 10 19 12 21 4 23 21 25 18 27
REMARK Flexibility Score: inf
ROOT
ATOM      1  C   UNL     1     -96.916  84.082 207.956  1.00  0.00     0.180 A 
ATOM      2  C   UNL     1     -97.876  83.701 207.004  1.00  0.00     0.208 A 
ATOM      3  C   UNL     1     -98.203  82.342 206.873  1.00  0.00     0.238 A 
ATOM      4  O   UNL     1     -99.009  81.999 205.968  1.00  0.00    -0.285 OA
ATOM      5  C   UNL     1     -97.605  81.387 207.731  1.00  0.00     0.111 A 
ATOM      6  C   UNL     1     -97.894  79.989 207.716  1.00  0.00     0.134 A 
ATOM      7  C   UNL     1     -97.163  79.125 208.541  1.00  0.00     0.093 A 
ATOM      8  C   UNL     1     -96.200  79.615 209.424  1.00  0.00     0.123 A 
ATOM      9  C   UNL     1     -95.949  80.982 209.485  1.00  0.00     0.094 A 
ATOM     10  C   UNL     1     -96.634  81.866 208.648  1.00  0.00     0.146 A 
ATOM     11  O   UNL     1     -96.348  83.160 208.725  1.00  0.00    -0.452 OA
ENDROOT
BRANCH   1  12
ATOM     12  C   UNL     1     -96.509  85.494 208.143  1.00  0.00     0.025 A 
ATOM     13  C   UNL     1     -95.271  85.927 207.645  1.00  0.00     0.016 A 
ATOM     14  C   UNL     1     -94.875  87.259 207.792  1.00  0.00     0.051 A 
ATOM     15  C   UNL     1     -95.715  88.180 208.424  1.00  0.00     0.157 A 
ATOM     16  C   UNL     1     -97.362  86.426 208.760  1.00  0.00     0.062 A 
ATOM     17  C   UNL     1     -96.967  87.765 208.907  1.00  0.00     0.158 A 
BRANCH  15  18
ATOM     18  O   UNL     1     -95.292  89.502 208.558  1.00  0.00    -0.504 OA
ATOM     19  H   UNL     1     -95.848  90.282 208.227  1.00  0.00     0.293 HD
ENDBRANCH  15  18
BRANCH  17  20
ATOM     20  O   UNL     1     -97.816  88.682 209.524  1.00  0.00    -0.504 OA
ATOM     21  H   UNL     1     -98.221  89.458 209.013  1.00  0.00     0.293 HD
ENDBRANCH  17  20
ENDBRANCH   1  12
BRANCH   2  22
ATOM     22  O   UNL     1     -98.511  84.668 206.219  1.00  0.00    -0.502 OA
ATOM     23  H   UNL     1     -99.370  85.123 206.506  1.00  0.00     0.293 HD
ENDBRANCH   2  22
BRANCH   6  24
ATOM     24  O   UNL     1     -98.899  79.404 206.938  1.00  0.00    -0.507 OA
ATOM     25  H   UNL     1     -99.360  78.532 207.150  1.00  0.00     0.293 HD
ENDBRANCH   6  24
BRANCH   8  26
ATOM     26  O   UNL     1     -95.489  78.748 210.253  1.00  0.00    -0.508 OA
ATOM     27  H   UNL     1     -95.352  77.774 210.009  1.00  0.00     0.293 HD
ENDBRANCH   8  26
TORSDOF 6
ENDMDL
MODEL 6
REMARK VINA RESULT:    -7.039      1.203      1.248
REMARK INTER + INTRA:          -7.949
REMARK INTER:                  -7.708
REMARK INTRA:                  -0.240
REMARK UNBOUND:                 0.531
REMARK SMILES O=c1c(O)c(-c2ccc(O)c(O)c2)oc2cc(O)cc(O)c12
REMARK SMILES IDX 5 1 3 2 2 3 1 4 22 5 20 6 19 7 17 8 16 9 15 10 14 11 6 12
REMARK SMILES IDX 7 13 8 14 9 15 13 16 11 17 10 18 12 20 4 22 21 24 18 26
REMARK H PARENT 10 19 12 21 4 23 21 25 18 27
REMARK Flexibility Score: inf
ROOT
ATOM      1  C   UNL     1     -96.781  82.805 207.809  1.00  0.00     0.180 A 
ATOM      2  C   UNL     1     -96.015  83.404 208.823  1.00  0.00     0.208 A 
ATOM      3  C   UNL     1     -96.156  84.780 209.061  1.00  0.00     0.238 A 
ATOM      4  O   UNL     1     -95.412  85.323 209.919  1.00  0.00    -0.285 OA
ATOM      5  C   UNL     1     -97.100  85.531 208.320  1.00  0.00     0.111 A 
ATOM      6  C   UNL     1     -97.358  86.922 208.508  1.00  0.00     0.134 A 
ATOM      7  C   UNL     1     -98.241  87.583 207.644  1.00  0.00     0.093 A 
ATOM      8  C   UNL     1     -98.922  86.889 206.641  1.00  0.00     0.123 A 
ATOM      9  C   UNL     1     -98.718  85.522 206.485  1.00  0.00     0.094 A 
ATOM     10  C   UNL     1     -97.816  84.841 207.306  1.00  0.00     0.146 A 
ATOM     11  O   UNL     1     -97.636  83.541 207.108  1.00  0.00    -0.452 OA
ENDROOT
BRANCH   1  12
ATOM     12  C   UNL     1     -96.678  81.362 207.490  1.00  0.00     0.025 A 
ATOM     13  C   UNL     1     -95.530  80.880 206.842  1.00  0.00     0.016 A 
ATOM     14  C   UNL     1     -95.402  79.520 206.549  1.00  0.00     0.051 A 
ATOM     15  C   UNL     1     -96.408  78.620 206.912  1.00  0.00     0.157 A 
ATOM     16  C   UNL     1     -97.680  80.454 207.873  1.00  0.00     0.062 A 
ATOM     17  C   UNL     1     -97.552  79.087 207.582  1.00  0.00     0.158 A 
BRANCH  15  18
ATOM     18  O   UNL     1     -96.253  77.270 206.605  1.00  0.00    -0.504 OA
ATOM     19  H   UNL     1     -96.852  76.797 205.937  1.00  0.00     0.293 HD
ENDBRANCH  15  18
BRANCH  17  20
ATOM     20  O   UNL     1     -98.553  78.193 207.960  1.00  0.00    -0.504 OA
ATOM     21  H   UNL     1     -99.500  78.503 208.139  1.00  0.00     0.293 HD
ENDBRANCH  17  20
ENDBRANCH   1  12
BRANCH   2  22
ATOM     22  O   UNL     1     -95.143  82.630 209.595  1.00  0.00    -0.502 OA
ATOM     23  H   UNL     1     -94.190  82.915 209.790  1.00  0.00     0.293 HD
ENDBRANCH   2  22
BRANCH   6  24
ATOM     24  O   UNL     1     -96.802  87.692 209.534  1.00  0.00    -0.507 OA
ATOM     25  H   UNL     1     -96.570  88.671 209.461  1.00  0.00     0.293 HD
ENDBRANCH   6  24
BRANCH   8  26
ATOM     26  O   UNL     1     -99.811  87.553 205.797  1.00  0.00    -0.508 OA
ATOM     27  H   UNL     1     -99.749  88.552 205.641  1.00  0.00     0.293 HD
ENDBRANCH   8  26
TORSDOF 6
ENDMDL
MODEL 7
REMARK VINA RESULT:    -6.959      2.079      3.595
REMARK INTER + INTRA:          -7.852
REMARK INTER:                  -7.543
REMARK INTRA:                  -0.309
REMARK UNBOUND:                 0.531
REMARK SMILES O=c1c(O)c(-c2ccc(O)c(O)c2)oc2cc(O)cc(O)c12
REMARK SMILES IDX 5 1 3 2 2 3 1 4 22 5 20 6 19 7 17 8 16 9 15 10 14 11 6 12
REMARK SMILES IDX 7 13 8 14 9 15 13 16 11 17 10 18 12 20 4 22 21 24 18 26
REMARK H PARENT 10 19 12 21 4 23 21 25 18 27
REMARK Flexibility Score: inf
ROOT
ATOM      1  C   UNL     1     -97.281  83.380 207.618  1.00  0.00     0.180 A 
ATOM      2  C   UNL     1     -98.375  83.504 206.746  1.00  0.00     0.208 A 
ATOM      3  C   UNL     1     -98.897  84.782 206.485  1.00  0.00     0.238 A 
ATOM      4  O   UNL     1     -99.923  84.878 205.762  1.00  0.00    -0.285 OA
ATOM      5  C   UNL     1     -98.284  85.924 207.056  1.00  0.00     0.111 A 
ATOM      6  C   UNL     1     -98.701  87.269 206.825  1.00  0.00     0.134 A 
ATOM      7  C   UNL     1     -98.085  88.312 207.527  1.00  0.00     0.093 A 
ATOM      8  C   UNL     1     -97.026  88.065 208.403  1.00  0.00     0.123 A 
ATOM      9  C   UNL     1     -96.577  86.762 208.594  1.00  0.00     0.094 A 
ATOM     10  C   UNL     1     -97.195  85.695 207.937  1.00  0.00     0.146 A 
ATOM     11  O   UNL     1     -96.748  84.466 208.165  1.00  0.00    -0.452 OA
ENDROOT
BRANCH   1  12
ATOM     12  C   UNL     1     -96.685  82.066 207.953  1.00  0.00     0.025 A 
ATOM     13  C   UNL     1     -95.734  81.500 207.090  1.00  0.00     0.016 A 
ATOM     14  C   UNL     1     -95.143  80.272 207.396  1.00  0.00     0.051 A 
ATOM     15  C   UNL     1     -95.480  79.599 208.574  1.00  0.00     0.157 A 
ATOM     16  C   UNL     1     -97.007  81.399 209.148  1.00  0.00     0.062 A 
ATOM     17  C   UNL     1     -96.413  80.166 209.458  1.00  0.00     0.158 A 
BRANCH  15  18
ATOM     18  O   UNL     1     -94.875  78.374 208.851  1.00  0.00    -0.504 OA
ATOM     19  H   UNL     1     -94.661  77.702 208.123  1.00  0.00     0.293 HD
ENDBRANCH  15  18
BRANCH  17  20
ATOM     20  O   UNL     1     -96.742  79.508 210.642  1.00  0.00    -0.504 OA
ATOM     21  H   UNL     1     -97.706  79.378 210.927  1.00  0.00     0.293 HD
ENDBRANCH  17  20
ENDBRANCH   1  12
BRANCH   2  22
ATOM     22  O   UNL     1     -98.918  82.371 206.132  1.00  0.00    -0.502 OA
ATOM     23  H   UNL     1     -98.942  82.257 205.126  1.00  0.00     0.293 HD
ENDBRANCH   2  22
BRANCH   6  24
ATOM     24  O   UNL     1     -99.688  87.638 205.905  1.00  0.00    -0.507 OA
ATOM     25  H   UNL     1     -99.900  88.586 205.634  1.00  0.00     0.293 HD
ENDBRANCH   6  24
BRANCH   8  26
ATOM     26  O   UNL     1     -96.408  89.112 209.085  1.00  0.00    -0.508 OA
ATOM     27  H   UNL     1     -96.886  89.621 209.820  1.00  0.00     0.293 HD
ENDBRANCH   8  26
TORSDOF 6
ENDMDL
MODEL 8
REMARK VINA RESULT:    -6.838      1.579      3.099
REMARK INTER + INTRA:          -7.706
REMARK INTER:                  -7.866
REMARK INTRA:                   0.160
REMARK UNBOUND:                 0.531
REMARK SMILES O=c1c(O)c(-c2ccc(O)c(O)c2)oc2cc(O)cc(O)c12
REMARK SMILES IDX 5 1 3 2 2 3 1 4 22 5 20 6 19 7 17 8 16 9 15 10 14 11 6 12
REMARK SMILES IDX 7 13 8 14 9 15 13 16 11 17 10 18 12 20 4 22 21 24 18 26
REMARK H PARENT 10 19 12 21 4 23 21 25 18 27
REMARK Flexibility Score: inf
ROOT
ATOM      1  C   UNL     1     -97.838  82.865 206.934  1.00  0.00     0.180 A 
ATOM      2  C   UNL     1     -98.997  83.405 206.353  1.00  0.00     0.208 A 
ATOM      3  C   UNL     1     -99.225  84.787 206.446  1.00  0.00     0.238 A 
ATOM      4  O   UNL     1    -100.301  85.253 205.989  1.00  0.00    -0.285 OA
ATOM      5  C   UNL     1     -98.266  85.620 207.072  1.00  0.00     0.111 A 
ATOM      6  C   UNL     1     -98.373  87.039 207.184  1.00  0.00     0.134 A 
ATOM      7  C   UNL     1     -97.412  87.747 207.918  1.00  0.00     0.093 A 
ATOM      8  C   UNL     1     -96.316  87.096 208.488  1.00  0.00     0.123 A 
ATOM      9  C   UNL     1     -96.175  85.720 208.337  1.00  0.00     0.094 A 
ATOM     10  C   UNL     1     -97.135  84.980 207.643  1.00  0.00     0.146 A 
ATOM     11  O   UNL     1     -96.971  83.667 207.543  1.00  0.00    -0.452 OA
ENDROOT
BRANCH   1  12
ATOM     12  C   UNL     1     -97.534  81.416 206.889  1.00  0.00     0.025 A 
ATOM     13  C   UNL     1     -97.022  80.783 208.032  1.00  0.00     0.016 A 
ATOM     14  C   UNL     1     -96.748  79.413 208.019  1.00  0.00     0.051 A 
ATOM     15  C   UNL     1     -96.996  78.653 206.872  1.00  0.00     0.157 A 
ATOM     16  C   UNL     1     -97.803  80.647 205.743  1.00  0.00     0.062 A 
ATOM     17  C   UNL     1     -97.530  79.270 205.729  1.00  0.00     0.158 A 
BRANCH  15  18
ATOM     18  O   UNL     1     -96.710  77.288 206.889  1.00  0.00    -0.504 OA
ATOM     19  H   UNL     1     -97.329  76.604 206.469  1.00  0.00     0.293 HD
ENDBRANCH  15  18
BRANCH  17  20
ATOM     20  O   UNL     1     -97.794  78.515 204.587  1.00  0.00    -0.504 OA
ATOM     21  H   UNL     1     -97.205  77.736 204.319  1.00  0.00     0.293 HD
ENDBRANCH  17  20
ENDBRANCH   1  12
BRANCH   2  22
ATOM     22  O   UNL     1     -99.894  82.576 205.673  1.00  0.00    -0.502 OA
ATOM     23  H   UNL     1    -100.865  82.828 205.530  1.00  0.00     0.293 HD
ENDBRANCH   2  22
BRANCH   6  24
ATOM     24  O   UNL     1     -99.378  87.801 206.579  1.00  0.00    -0.507 OA
ATOM     25  H   UNL     1    -100.306  87.468 206.368  1.00  0.00     0.293 HD
ENDBRANCH   6  24
BRANCH   8  26
ATOM     26  O   UNL     1     -95.357  87.812 209.201  1.00  0.00    -0.508 OA
ATOM     27  H   UNL     1     -95.235  88.810 209.072  1.00  0.00     0.293 HD
ENDBRANCH   8  26
TORSDOF 6
ENDMDL
