MODEL 1
REMARK VINA RESULT:    -8.902      0.000      0.000
REMARK INTER + INTRA:         -13.468
REMARK INTER:                 -12.545
REMARK INTRA:                  -0.923
REMARK UNBOUND:                -0.923
REMARK SMILES C=C(CC[C@@H](C(=O)[O-])[C@@H]1[C@@H](O)C[C@]2(C)C3=C(CC[C@]12C)[C@@]1(C)CC[C@@H](O)C(C)(C)[C@@H]1CC3)C(C)C
REMARK SMILES IDX 4 1 5 2 6 3 7 4 8 5 9 6 10 7 19 8 12 9 13 10 18 11 20 12
REMARK SMILES IDX 14 13 15 14 17 15 16 16 32 17 21 18 31 19 30 20 23 21 22 22
REMARK SMILES IDX 27 23 24 24 25 25 28 26 29 27 11 28 26 30 3 32 2 33 1 34
REMARK SMILES IDX 33 35 34 36 35 37
REMARK H PARENT 11 29 26 31
REMARK Flexibility Score: inf
ROOT
ATOM      1  C   UNL     1     -22.255 -44.354  25.405  1.00  0.00     0.014 C 
ENDROOT
BRANCH   1   2
ATOM      2  C   UNL     1     -20.979 -43.489  25.562  1.00  0.00     0.042 C 
BRANCH   2   3
ATOM      3  C   UNL     1     -19.766 -44.399  25.644  1.00  0.00     0.045 C 
ATOM      4  O   UNL     1     -18.882 -44.185  26.519  1.00  0.00    -0.550 OA
ATOM      5  O   UNL     1     -19.618 -45.477  24.777  1.00  0.00    -0.550 OA
ENDBRANCH   2   3
BRANCH   2   6
ATOM      6  C   UNL     1     -20.785 -42.349  24.490  1.00  0.00     0.033 C 
ATOM      7  C   UNL     1     -19.577 -42.646  23.567  1.00  0.00     0.119 C 
ATOM      8  C   UNL     1     -20.544 -40.880  25.005  1.00  0.00    -0.017 C 
ATOM      9  C   UNL     1     -18.862 -41.319  23.295  1.00  0.00     0.043 C 
ATOM     10  C   UNL     1     -19.764 -40.190  23.823  1.00  0.00    -0.003 C 
ATOM     11  C   UNL     1     -19.650 -40.881  26.269  1.00  0.00     0.012 C 
ATOM     12  C   UNL     1     -21.881 -40.149  25.314  1.00  0.00     0.013 C 
ATOM     13  C   UNL     1     -20.739 -39.774  22.674  1.00  0.00     0.017 C 
ATOM     14  C   UNL     1     -18.867 -38.979  24.226  1.00  0.00    -0.064 C 
ATOM     15  C   UNL     1     -19.198 -39.482  26.642  1.00  0.00     0.032 C 
ATOM     16  C   UNL     1     -18.428 -38.802  25.518  1.00  0.00    -0.064 C 
ATOM     17  C   UNL     1     -18.289 -38.164  23.065  1.00  0.00     0.032 C 
ATOM     18  C   UNL     1     -17.338 -37.752  25.893  1.00  0.00    -0.008 C 
ATOM     19  C   UNL     1     -17.333 -37.038  23.443  1.00  0.00     0.009 C 
ATOM     20  C   UNL     1     -16.451 -37.466  24.624  1.00  0.00     0.007 C 
ATOM     21  C   UNL     1     -16.395 -38.327  26.997  1.00  0.00     0.014 C 
ATOM     22  C   UNL     1     -18.079 -36.503  26.462  1.00  0.00     0.016 C 
ATOM     23  C   UNL     1     -15.159 -36.585  24.838  1.00  0.00    -0.006 C 
ATOM     24  C   UNL     1     -15.150 -37.469  27.280  1.00  0.00     0.033 C 
ATOM     25  C   UNL     1     -14.315 -37.158  26.029  1.00  0.00     0.120 C 
ATOM     26  C   UNL     1     -15.494 -35.093  25.105  1.00  0.00     0.014 C 
ATOM     27  C   UNL     1     -14.263 -36.617  23.565  1.00  0.00     0.014 C 
BRANCH   7  28
ATOM     28  O   UNL     1     -20.018 -43.223  22.362  1.00  0.00    -0.393 OA
ATOM     29  H   UNL     1     -20.787 -42.675  22.048  1.00  0.00     0.210 HD
ENDBRANCH   7  28
BRANCH  25  30
ATOM     30  O   UNL     1     -13.551 -38.286  25.662  1.00  0.00    -0.393 OA
ATOM     31  H   UNL     1     -13.440 -38.860  26.458  1.00  0.00     0.210 HD
ENDBRANCH  25  30
ENDBRANCH   2   6
ENDBRANCH   1   2
BRANCH   1  32
ATOM     32  C   UNL     1     -22.845 -44.399  23.982  1.00  0.00     0.031 C 
BRANCH  32  33
ATOM     33  C   UNL     1     -23.377 -45.778  23.653  1.00  0.00    -0.075 C 
ATOM     34  C   UNL     1     -24.493 -46.224  24.258  1.00  0.00     0.008 C 
BRANCH  33  35
ATOM     35  C   UNL     1     -22.634 -46.638  22.636  1.00  0.00     0.008 C 
ATOM     36  C   UNL     1     -23.608 -47.301  21.654  1.00  0.00     0.012 C 
ATOM     37  C   UNL     1     -21.746 -47.682  23.330  1.00  0.00     0.012 C 
ENDBRANCH  33  35
ENDBRANCH  32  33
ENDBRANCH   1  32
TORSDOF 8
ENDMDL
MODEL 2
REMARK VINA RESULT:    -6.452      1.807      9.085
REMARK INTER + INTRA:         -10.015
REMARK INTER:                 -12.040
REMARK INTRA:                   2.024
REMARK UNBOUND:                -0.923
REMARK SMILES C=C(CC[C@@H](C(=O)[O-])[C@@H]1[C@@H](O)C[C@]2(C)C3=C(CC[C@]12C)[C@@]1(C)CC[C@@H](O)C(C)(C)[C@@H]1CC3)C(C)C
REMARK SMILES IDX 4 1 5 2 6 3 7 4 8 5 9 6 10 7 19 8 12 9 13 10 18 11 20 12
REMARK SMILES IDX 14 13 15 14 17 15 16 16 32 17 21 18 31 19 30 20 23 21 22 22
REMARK SMILES IDX 27 23 24 24 25 25 28 26 29 27 11 28 26 30 3 32 2 33 1 34
REMARK SMILES IDX 33 35 34 36 35 37
REMARK H PARENT 11 29 26 31
REMARK Flexibility Score: inf
ROOT
ATOM      1  C   UNL     1     -17.237 -38.234  23.966  1.00  0.00     0.014 C 
ENDROOT
BRANCH   1   2
ATOM      2  C   UNL     1     -18.742 -38.605  24.003  1.00  0.00     0.042 C 
BRANCH   2   3
ATOM      3  C   UNL     1     -19.150 -39.173  22.655  1.00  0.00     0.045 C 
ATOM      4  O   UNL     1     -18.348 -39.911  22.020  1.00  0.00    -0.550 OA
ATOM      5  O   UNL     1     -20.402 -38.904  22.112  1.00  0.00    -0.550 OA
ENDBRANCH   2   3
BRANCH   2   6
ATOM      6  C   UNL     1     -19.190 -39.538  25.193  1.00  0.00     0.033 C 
ATOM      7  C   UNL     1     -18.094 -40.579  25.533  1.00  0.00     0.119 C 
ATOM      8  C   UNL     1     -20.505 -40.386  25.016  1.00  0.00    -0.017 C 
ATOM      9  C   UNL     1     -18.793 -41.900  25.866  1.00  0.00     0.043 C 
ATOM     10  C   UNL     1     -20.300 -41.608  25.987  1.00  0.00    -0.003 C 
ATOM     11  C   UNL     1     -20.630 -40.909  23.563  1.00  0.00     0.012 C 
ATOM     12  C   UNL     1     -21.774 -39.567  25.384  1.00  0.00     0.013 C 
ATOM     13  C   UNL     1     -20.595 -41.205  27.468  1.00  0.00     0.017 C 
ATOM     14  C   UNL     1     -21.090 -42.901  25.618  1.00  0.00    -0.064 C 
ATOM     15  C   UNL     1     -21.747 -41.926  23.424  1.00  0.00     0.032 C 
ATOM     16  C   UNL     1     -21.559 -43.124  24.344  1.00  0.00    -0.064 C 
ATOM     17  C   UNL     1     -21.078 -44.012  26.673  1.00  0.00     0.032 C 
ATOM     18  C   UNL     1     -22.128 -44.504  23.893  1.00  0.00    -0.008 C 
ATOM     19  C   UNL     1     -21.766 -45.317  26.284  1.00  0.00     0.009 C 
ATOM     20  C   UNL     1     -21.510 -45.630  24.804  1.00  0.00     0.007 C 
ATOM     21  C   UNL     1     -21.695 -44.809  22.424  1.00  0.00     0.014 C 
ATOM     22  C   UNL     1     -23.683 -44.402  23.951  1.00  0.00     0.016 C 
ATOM     23  C   UNL     1     -21.795 -47.125  24.386  1.00  0.00    -0.006 C 
ATOM     24  C   UNL     1     -22.007 -46.240  21.953  1.00  0.00     0.033 C 
ATOM     25  C   UNL     1     -21.438 -47.332  22.872  1.00  0.00     0.120 C 
ATOM     26  C   UNL     1     -23.267 -47.543  24.638  1.00  0.00     0.014 C 
ATOM     27  C   UNL     1     -20.908 -48.099  25.217  1.00  0.00     0.014 C 
BRANCH   7  28
ATOM     28  O   UNL     1     -17.329 -40.136  26.628  1.00  0.00    -0.393 OA
ATOM     29  H   UNL     1     -16.529 -39.680  26.251  1.00  0.00     0.210 HD
ENDBRANCH   7  28
BRANCH  25  30
ATOM     30  O   UNL     1     -20.052 -47.476  22.654  1.00  0.00    -0.393 OA
ATOM     31  H   UNL     1     -19.662 -46.580  22.517  1.00  0.00     0.210 HD
ENDBRANCH  25  30
ENDBRANCH   2   6
ENDBRANCH   1   2
BRANCH   1  32
ATOM     32  C   UNL     1     -16.934 -36.724  23.993  1.00  0.00     0.031 C 
BRANCH  32  33
ATOM     33  C   UNL     1     -16.226 -36.331  25.273  1.00  0.00    -0.075 C 
ATOM     34  C   UNL     1     -16.852 -35.544  26.167  1.00  0.00     0.008 C 
BRANCH  33  35
ATOM     35  C   UNL     1     -14.811 -36.841  25.526  1.00  0.00     0.008 C 
ATOM     36  C   UNL     1     -14.813 -38.014  26.514  1.00  0.00     0.012 C 
ATOM     37  C   UNL     1     -13.888 -35.710  26.005  1.00  0.00     0.012 C 
ENDBRANCH  33  35
ENDBRANCH  32  33
ENDBRANCH   1  32
TORSDOF 8
ENDMDL
MODEL 3
REMARK VINA RESULT:    -6.311      2.010      9.151
REMARK INTER + INTRA:          -9.817
REMARK INTER:                  -8.943
REMARK INTRA:                  -0.874
REMARK UNBOUND:                -0.923
REMARK SMILES C=C(CC[C@@H](C(=O)[O-])[C@@H]1[C@@H](O)C[C@]2(C)C3=C(CC[C@]12C)[C@@]1(C)CC[C@@H](O)C(C)(C)[C@@H]1CC3)C(C)C
REMARK SMILES IDX 4 1 5 2 6 3 7 4 8 5 9 6 10 7 19 8 12 9 13 10 18 11 20 12
REMARK SMILES IDX 14 13 15 14 17 15 16 16 32 17 21 18 31 19 30 20 23 21 22 22
REMARK SMILES IDX 27 23 24 24 25 25 28 26 29 27 11 28 26 30 3 32 2 33 1 34
REMARK SMILES IDX 33 35 34 36 35 37
REMARK H PARENT 11 29 26 31
REMARK Flexibility Score: inf
ROOT
ATOM      1  C   UNL     1     -17.778 -37.812  24.154  1.00  0.00     0.014 C 
ENDROOT
BRANCH   1   2
ATOM      2  C   UNL     1     -18.229 -39.240  24.554  1.00  0.00     0.042 C 
BRANCH   2   3
ATOM      3  C   UNL     1     -17.914 -39.471  26.021  1.00  0.00     0.045 C 
ATOM      4  O   UNL     1     -18.316 -38.642  26.884  1.00  0.00    -0.550 OA
ATOM      5  O   UNL     1     -17.198 -40.589  26.435  1.00  0.00    -0.550 OA
ENDBRANCH   2   3
BRANCH   2   6
ATOM      6  C   UNL     1     -19.722 -39.610  24.210  1.00  0.00     0.033 C 
ATOM      7  C   UNL     1     -20.523 -39.961  25.489  1.00  0.00     0.119 C 
ATOM      8  C   UNL     1     -19.981 -40.818  23.233  1.00  0.00    -0.017 C 
ATOM      9  C   UNL     1     -21.456 -41.126  25.150  1.00  0.00     0.043 C 
ATOM     10  C   UNL     1     -21.423 -41.316  23.622  1.00  0.00    -0.003 C 
ATOM     11  C   UNL     1     -18.965 -41.959  23.488  1.00  0.00     0.012 C 
ATOM     12  C   UNL     1     -19.908 -40.381  21.742  1.00  0.00     0.013 C 
ATOM     13  C   UNL     1     -22.523 -40.397  22.998  1.00  0.00     0.017 C 
ATOM     14  C   UNL     1     -21.729 -42.811  23.298  1.00  0.00    -0.064 C 
ATOM     15  C   UNL     1     -19.338 -43.225  22.741  1.00  0.00     0.032 C 
ATOM     16  C   UNL     1     -20.724 -43.732  23.115  1.00  0.00    -0.064 C 
ATOM     17  C   UNL     1     -23.190 -43.241  23.459  1.00  0.00     0.032 C 
ATOM     18  C   UNL     1     -20.999 -45.265  23.038  1.00  0.00    -0.008 C 
ATOM     19  C   UNL     1     -23.484 -44.721  23.239  1.00  0.00     0.009 C 
ATOM     20  C   UNL     1     -22.341 -45.578  23.800  1.00  0.00     0.007 C 
ATOM     21  C   UNL     1     -19.862 -46.053  23.761  1.00  0.00     0.014 C 
ATOM     22  C   UNL     1     -21.004 -45.656  21.527  1.00  0.00     0.016 C 
ATOM     23  C   UNL     1     -22.701 -47.099  24.018  1.00  0.00    -0.006 C 
ATOM     24  C   UNL     1     -20.145 -47.553  23.945  1.00  0.00     0.033 C 
ATOM     25  C   UNL     1     -21.478 -47.851  24.649  1.00  0.00     0.120 C 
ATOM     26  C   UNL     1     -23.127 -47.805  22.704  1.00  0.00     0.014 C 
ATOM     27  C   UNL     1     -23.900 -47.237  25.004  1.00  0.00     0.014 C 
BRANCH   7  28
ATOM     28  O   UNL     1     -21.265 -38.844  25.917  1.00  0.00    -0.393 OA
ATOM     29  H   UNL     1     -21.955 -39.186  26.547  1.00  0.00     0.210 HD
ENDBRANCH   7  28
BRANCH  25  30
ATOM     30  O   UNL     1     -21.354 -47.623  26.036  1.00  0.00    -0.393 OA
ATOM     31  H   UNL     1     -21.226 -46.656  26.184  1.00  0.00     0.210 HD
ENDBRANCH  25  30
ENDBRANCH   2   6
ENDBRANCH   1   2
BRANCH   1  32
ATOM     32  C   UNL     1     -16.280 -37.515  24.363  1.00  0.00     0.031 C 
BRANCH  32  33
ATOM     33  C   UNL     1     -16.067 -36.566  25.523  1.00  0.00    -0.075 C 
ATOM     34  C   UNL     1     -16.926 -35.550  25.720  1.00  0.00     0.008 C 
BRANCH  33  35
ATOM     35  C   UNL     1     -14.877 -36.783  26.453  1.00  0.00     0.008 C 
ATOM     36  C   UNL     1     -13.722 -35.837  26.104  1.00  0.00     0.012 C 
ATOM     37  C   UNL     1     -14.419 -38.249  26.441  1.00  0.00     0.012 C 
ENDBRANCH  33  35
ENDBRANCH  32  33
ENDBRANCH   1  32
TORSDOF 8
ENDMDL
MODEL 4
REMARK VINA RESULT:    -6.071      1.678      9.156
REMARK INTER + INTRA:          -9.478
REMARK INTER:                  -9.202
REMARK INTRA:                  -0.276
REMARK UNBOUND:                -0.923
REMARK SMILES C=C(CC[C@@H](C(=O)[O-])[C@@H]1[C@@H](O)C[C@]2(C)C3=C(CC[C@]12C)[C@@]1(C)CC[C@@H](O)C(C)(C)[C@@H]1CC3)C(C)C
REMARK SMILES IDX 4 1 5 2 6 3 7 4 8 5 9 6 10 7 19 8 12 9 13 10 18 11 20 12
REMARK SMILES IDX 14 13 15 14 17 15 16 16 32 17 21 18 31 19 30 20 23 21 22 22
REMARK SMILES IDX 27 23 24 24 25 25 28 26 29 27 11 28 26 30 3 32 2 33 1 34
REMARK SMILES IDX 33 35 34 36 35 37
REMARK H PARENT 11 29 26 31
REMARK Flexibility Score: inf
ROOT
ATOM      1  C   UNL     1     -18.003 -37.887  24.594  1.00  0.00     0.014 C 
ENDROOT
BRANCH   1   2
ATOM      2  C   UNL     1     -17.356 -39.199  25.106  1.00  0.00     0.042 C 
BRANCH   2   3
ATOM      3  C   UNL     1     -15.997 -38.884  25.706  1.00  0.00     0.045 C 
ATOM      4  O   UNL     1     -14.958 -39.008  24.999  1.00  0.00    -0.550 OA
ATOM      5  O   UNL     1     -15.877 -38.447  27.021  1.00  0.00    -0.550 OA
ENDBRANCH   2   3
BRANCH   2   6
ATOM      6  C   UNL     1     -18.240 -40.067  26.080  1.00  0.00     0.033 C 
ATOM      7  C   UNL     1     -17.484 -41.338  26.543  1.00  0.00     0.119 C 
ATOM      8  C   UNL     1     -19.625 -40.597  25.550  1.00  0.00    -0.017 C 
ATOM      9  C   UNL     1     -18.494 -42.488  26.594  1.00  0.00     0.043 C 
ATOM     10  C   UNL     1     -19.898 -41.880  26.423  1.00  0.00    -0.003 C 
ATOM     11  C   UNL     1     -19.523 -41.010  24.061  1.00  0.00     0.012 C 
ATOM     12  C   UNL     1     -20.752 -39.539  25.720  1.00  0.00     0.013 C 
ATOM     13  C   UNL     1     -20.432 -41.493  27.840  1.00  0.00     0.017 C 
ATOM     14  C   UNL     1     -20.830 -42.949  25.774  1.00  0.00    -0.064 C 
ATOM     15  C   UNL     1     -20.762 -41.749  23.594  1.00  0.00     0.032 C 
ATOM     16  C   UNL     1     -21.034 -43.002  24.415  1.00  0.00    -0.064 C 
ATOM     17  C   UNL     1     -21.283 -44.084  26.697  1.00  0.00     0.032 C 
ATOM     18  C   UNL     1     -21.755 -44.201  23.725  1.00  0.00    -0.008 C 
ATOM     19  C   UNL     1     -22.115 -45.187  26.051  1.00  0.00     0.009 C 
ATOM     20  C   UNL     1     -21.601 -45.477  24.634  1.00  0.00     0.007 C 
ATOM     21  C   UNL     1     -21.073 -44.522  22.357  1.00  0.00     0.014 C 
ATOM     22  C   UNL     1     -23.229 -43.763  23.464  1.00  0.00     0.016 C 
ATOM     23  C   UNL     1     -22.082 -46.851  24.025  1.00  0.00    -0.006 C 
ATOM     24  C   UNL     1     -21.554 -45.826  21.698  1.00  0.00     0.033 C 
ATOM     25  C   UNL     1     -21.442 -47.058  22.608  1.00  0.00     0.120 C 
ATOM     26  C   UNL     1     -23.626 -46.948  23.921  1.00  0.00     0.014 C 
ATOM     27  C   UNL     1     -21.623 -48.035  24.928  1.00  0.00     0.014 C 
BRANCH   7  28
ATOM     28  O   UNL     1     -16.913 -41.127  27.812  1.00  0.00    -0.393 OA
ATOM     29  H   UNL     1     -16.551 -40.200  27.810  1.00  0.00     0.210 HD
ENDBRANCH   7  28
BRANCH  25  30
ATOM     30  O   UNL     1     -20.101 -47.493  22.673  1.00  0.00    -0.393 OA
ATOM     31  H   UNL     1     -19.522 -46.701  22.785  1.00  0.00     0.210 HD
ENDBRANCH  25  30
ENDBRANCH   2   6
ENDBRANCH   1   2
BRANCH   1  32
ATOM     32  C   UNL     1     -17.023 -36.867  23.984  1.00  0.00     0.031 C 
BRANCH  32  33
ATOM     33  C   UNL     1     -16.500 -35.912  25.036  1.00  0.00    -0.075 C 
ATOM     34  C   UNL     1     -17.309 -35.511  26.034  1.00  0.00     0.008 C 
BRANCH  33  35
ATOM     35  C   UNL     1     -15.058 -35.423  24.945  1.00  0.00     0.008 C 
ATOM     36  C   UNL     1     -14.343 -36.029  23.731  1.00  0.00     0.012 C 
ATOM     37  C   UNL     1     -14.289 -35.706  26.244  1.00  0.00     0.012 C 
ENDBRANCH  33  35
ENDBRANCH  32  33
ENDBRANCH   1  32
TORSDOF 8
ENDMDL
