MODEL 1
REMARK VINA RESULT:    -4.415      0.000      0.000
REMARK INTER + INTRA:          -5.178
REMARK INTER:                  -5.448
REMARK INTRA:                   0.270
REMARK UNBOUND:                 0.270
REMARK SMILES C=C1[C@H]2CC[C@@H]3[C@@H]2C(C)(C)CCC[C@]13C
REMARK SMILES IDX 14 1 6 2 7 3 3 4 2 5 1 6 4 7 5 8 15 9 8 10 9 11 10 12 11 13
REMARK SMILES IDX 13 15 12 16
REMARK H PARENT
REMARK Flexibility Score: 80.00
ROOT
ATOM      1  C   UNL     1       0.725  12.975   4.751  1.00  0.00    -0.008 C 
ATOM      2  C   UNL     1       1.386  12.616   3.423  1.00  0.00     0.003 C 
ATOM      3  C   UNL     1       2.179  13.918   3.229  1.00  0.00     0.006 C 
ATOM      4  C   UNL     1       3.100  13.661   4.412  1.00  0.00     0.019 C 
ATOM      5  C   UNL     1       1.994  13.462   5.476  1.00  0.00    -0.068 C 
ATOM      6  C   UNL     1       2.111  13.740   6.778  1.00  0.00     0.009 C 
ATOM      7  C   UNL     1       3.689  12.291   4.116  1.00  0.00     0.008 C 
ATOM      8  C   UNL     1       2.506  11.545   3.500  1.00  0.00     0.005 C 
ATOM      9  C   UNL     1       0.067  11.767   5.448  1.00  0.00     0.016 C 
ENDROOT
BRANCH   3  10
ATOM     10  C   UNL     1       1.869  14.580   1.868  1.00  0.00    -0.032 C 
ATOM     11  C   UNL     1       2.870  15.735   1.617  1.00  0.00     0.011 C 
ATOM     12  C   UNL     1       1.999  13.598   0.679  1.00  0.00     0.011 C 
BRANCH  10  13
ATOM     13  C   UNL     1       0.377  15.158   1.972  1.00  0.00     0.007 CG0
ATOM     14  G   UNL     1      -0.683  14.441   2.921  1.00  0.00     0.000 G0
ENDBRANCH  10  13
ENDBRANCH   3  10
BRANCH   1  15
ATOM     15  C   UNL     1      -0.340  14.135   4.450  1.00  0.00     0.011 C 
BRANCH  15  16
ATOM     16  C   UNL     1      -0.687  14.445   2.922  1.00  0.00     0.001 CG0
ATOM     17  G   UNL     1       0.370  15.167   1.973  1.00  0.00     0.000 G0
ENDBRANCH  15  16
ENDBRANCH   1  15
TORSDOF 0
ENDMDL
MODEL 2
REMARK VINA RESULT:    -4.268      1.566      4.107
REMARK INTER + INTRA:          -4.997
REMARK INTER:                  -5.266
REMARK INTRA:                   0.269
REMARK UNBOUND:                 0.270
REMARK SMILES C=C1[C@H]2CC[C@@H]3[C@@H]2C(C)(C)CCC[C@]13C
REMARK SMILES IDX 14 1 6 2 7 3 3 4 2 5 1 6 4 7 5 8 15 9 8 10 9 11 10 12 11 13
REMARK SMILES IDX 13 15 12 16
REMARK H PARENT
REMARK Flexibility Score: 80.00
ROOT
ATOM      1  C   UNL     1      -0.243  14.760   1.571  1.00  0.00    -0.008 C 
ATOM      2  C   UNL     1       1.245  15.051   1.748  1.00  0.00     0.003 C 
ATOM      3  C   UNL     1       1.742  13.597   1.749  1.00  0.00     0.006 C 
ATOM      4  C   UNL     1       1.378  13.357   0.292  1.00  0.00     0.019 C 
ATOM      5  C   UNL     1      -0.109  13.774   0.394  1.00  0.00    -0.068 C 
ATOM      6  C   UNL     1      -1.103  13.295  -0.361  1.00  0.00     0.009 C 
ATOM      7  C   UNL     1       2.104  14.471  -0.446  1.00  0.00     0.008 C 
ATOM      8  C   UNL     1       1.962  15.654   0.512  1.00  0.00     0.005 C 
ATOM      9  C   UNL     1      -1.067  16.011   1.208  1.00  0.00     0.016 C 
ENDROOT
BRANCH   3  10
ATOM     10  C   UNL     1       2.571  13.275   3.011  1.00  0.00    -0.032 C 
ATOM     11  C   UNL     1       3.253  11.894   2.842  1.00  0.00     0.011 C 
ATOM     12  C   UNL     1       3.693  14.309   3.272  1.00  0.00     0.011 C 
BRANCH  10  13
ATOM     13  C   UNL     1       1.537  13.230   4.237  1.00  0.00     0.007 CG0
ATOM     14  G   UNL     1       0.220  14.126   4.190  1.00  0.00     0.000 G0
ENDBRANCH  10  13
ENDBRANCH   3  10
BRANCH   1  15
ATOM     15  C   UNL     1      -0.757  14.086   2.931  1.00  0.00     0.011 C 
BRANCH  15  16
ATOM     16  C   UNL     1       0.220  14.125   4.194  1.00  0.00     0.001 CG0
ATOM     17  G   UNL     1       1.540  13.232   4.235  1.00  0.00     0.000 G0
ENDBRANCH  15  16
ENDBRANCH   1  15
TORSDOF 0
ENDMDL
MODEL 3
REMARK VINA RESULT:    -4.188      1.565      3.490
REMARK INTER + INTRA:          -4.898
REMARK INTER:                  -5.169
REMARK INTRA:                   0.271
REMARK UNBOUND:                 0.270
REMARK SMILES C=C1[C@H]2CC[C@@H]3[C@@H]2C(C)(C)CCC[C@]13C
REMARK SMILES IDX 14 1 6 2 7 3 3 4 2 5 1 6 4 7 5 8 15 9 8 10 9 11 10 12 11 13
REMARK SMILES IDX 13 15 12 16
REMARK H PARENT
REMARK Flexibility Score: 80.00
ROOT
ATOM      1  C   UNL     1       1.875  13.835   2.625  1.00  0.00    -0.008 C 
ATOM      2  C   UNL     1       0.837  13.499   1.557  1.00  0.00     0.003 C 
ATOM      3  C   UNL     1       0.215  14.898   1.425  1.00  0.00     0.006 C 
ATOM      4  C   UNL     1       1.469  15.517   0.827  1.00  0.00     0.019 C 
ATOM      5  C   UNL     1       2.446  15.097   1.950  1.00  0.00    -0.068 C 
ATOM      6  C   UNL     1       3.546  15.764   2.311  1.00  0.00     0.009 C 
ATOM      7  C   UNL     1       1.763  14.635  -0.376  1.00  0.00     0.008 C 
ATOM      8  C   UNL     1       1.398  13.241   0.134  1.00  0.00     0.005 C 
ATOM      9  C   UNL     1       2.933  12.730   2.812  1.00  0.00     0.016 C 
ENDROOT
BRANCH   3  10
ATOM     10  C   UNL     1      -1.313  14.869   1.643  1.00  0.00    -0.032 C 
ATOM     11  C   UNL     1      -1.917  16.240   1.250  1.00  0.00     0.011 C 
ATOM     12  C   UNL     1      -2.022  13.795   0.783  1.00  0.00     0.011 C 
BRANCH  10  13
ATOM     13  C   UNL     1      -1.546  14.594   3.206  1.00  0.00     0.007 CG0
ATOM     14  G   UNL     1      -0.473  13.749   4.027  1.00  0.00     0.000 G0
ENDBRANCH  10  13
ENDBRANCH   3  10
BRANCH   1  15
ATOM     15  C   UNL     1       1.077  14.126   3.984  1.00  0.00     0.011 C 
BRANCH  15  16
ATOM     16  C   UNL     1      -0.474  13.747   4.029  1.00  0.00     0.001 CG0
ATOM     17  G   UNL     1      -1.547  14.588   3.203  1.00  0.00     0.000 G0
ENDBRANCH  15  16
ENDBRANCH   1  15
TORSDOF 0
ENDMDL
MODEL 4
REMARK VINA RESULT:    -3.946      2.916      5.166
REMARK INTER + INTRA:          -4.600
REMARK INTER:                  -4.871
REMARK INTRA:                   0.272
REMARK UNBOUND:                 0.270
REMARK SMILES C=C1[C@H]2CC[C@@H]3[C@@H]2C(C)(C)CCC[C@]13C
REMARK SMILES IDX 14 1 6 2 7 3 3 4 2 5 1 6 4 7 5 8 15 9 8 10 9 11 10 12 11 13
REMARK SMILES IDX 13 15 12 16
REMARK H PARENT
REMARK Flexibility Score: 80.00
ROOT
ATOM      1  C   UNL     1       0.718  14.677   1.026  1.00  0.00    -0.008 C 
ATOM      2  C   UNL     1      -0.413  15.119   0.101  1.00  0.00     0.003 C 
ATOM      3  C   UNL     1      -1.368  13.944   0.367  1.00  0.00     0.006 C 
ATOM      4  C   UNL     1      -1.627  14.340   1.812  1.00  0.00     0.019 C 
ATOM      5  C   UNL     1      -0.149  14.385   2.267  1.00  0.00    -0.068 C 
ATOM      6  C   UNL     1       0.290  14.135   3.504  1.00  0.00     0.009 C 
ATOM      7  C   UNL     1      -2.107  15.779   1.708  1.00  0.00     0.008 C 
ATOM      8  C   UNL     1      -1.236  16.341   0.585  1.00  0.00     0.005 C 
ATOM      9  C   UNL     1       1.763  15.781   1.278  1.00  0.00     0.016 C 
ENDROOT
BRANCH   3  10
ATOM     10  C   UNL     1      -1.781  13.234  -0.941  1.00  0.00    -0.032 C 
ATOM     11  C   UNL     1      -2.932  12.240  -0.647  1.00  0.00     0.011 C 
ATOM     12  C   UNL     1      -2.292  14.217  -2.022  1.00  0.00     0.011 C 
BRANCH  10  13
ATOM     13  C   UNL     1      -0.486  12.440  -1.457  1.00  0.00     0.007 CG0
ATOM     14  G   UNL     1       0.967  13.004  -1.131  1.00  0.00     0.000 G0
ENDBRANCH  10  13
ENDBRANCH   3  10
BRANCH   1  15
ATOM     15  C   UNL     1       1.381  13.372   0.373  1.00  0.00     0.011 C 
BRANCH  15  16
ATOM     16  C   UNL     1       0.970  13.004  -1.126  1.00  0.00     0.001 CG0
ATOM     17  G   UNL     1      -0.478  12.429  -1.460  1.00  0.00     0.000 G0
ENDBRANCH  15  16
ENDBRANCH   1  15
TORSDOF 0
ENDMDL
MODEL 5
REMARK VINA RESULT:    -3.885      1.901      4.077
REMARK INTER + INTRA:          -4.524
REMARK INTER:                  -4.781
REMARK INTRA:                   0.258
REMARK UNBOUND:                 0.270
REMARK SMILES C=C1[C@H]2CC[C@@H]3[C@@H]2C(C)(C)CCC[C@]13C
REMARK SMILES IDX 14 1 6 2 7 3 3 4 2 5 1 6 4 7 5 8 15 9 8 10 9 11 10 12 11 13
REMARK SMILES IDX 13 15 12 16
REMARK H PARENT
REMARK Flexibility Score: 80.00
ROOT
ATOM      1  C   UNL     1       3.559  13.756   3.889  1.00  0.00    -0.008 C 
ATOM      2  C   UNL     1       2.405  12.764   3.773  1.00  0.00     0.003 C 
ATOM      3  C   UNL     1       1.254  13.761   3.982  1.00  0.00     0.006 C 
ATOM      4  C   UNL     1       1.508  14.495   2.674  1.00  0.00     0.019 C 
ATOM      5  C   UNL     1       3.001  14.819   2.922  1.00  0.00    -0.068 C 
ATOM      6  C   UNL     1       3.656  15.878   2.439  1.00  0.00     0.009 C 
ATOM      7  C   UNL     1       1.457  13.392   1.629  1.00  0.00     0.008 C 
ATOM      8  C   UNL     1       2.129  12.221   2.347  1.00  0.00     0.005 C 
ATOM      9  C   UNL     1       4.908  13.176   3.421  1.00  0.00     0.016 C 
ENDROOT
BRANCH   3  10
ATOM     10  C   UNL     1       0.326  13.331   5.139  1.00  0.00    -0.032 C 
ATOM     11  C   UNL     1      -0.938  14.227   5.146  1.00  0.00     0.011 C 
ATOM     12  C   UNL     1      -0.155  11.866   5.010  1.00  0.00     0.011 C 
BRANCH  10  13
ATOM     13  C   UNL     1       1.157  13.544   6.494  1.00  0.00     0.007 CG0
ATOM     14  G   UNL     1       2.747  13.433   6.469  1.00  0.00     0.000 G0
ENDBRANCH  10  13
ENDBRANCH   3  10
BRANCH   1  15
ATOM     15  C   UNL     1       3.620  14.234   5.418  1.00  0.00     0.011 C 
BRANCH  15  16
ATOM     16  C   UNL     1       2.752  13.420   6.484  1.00  0.00     0.001 CG0
ATOM     17  G   UNL     1       1.163  13.538   6.506  1.00  0.00     0.000 G0
ENDBRANCH  15  16
ENDBRANCH   1  15
TORSDOF 0
ENDMDL
MODEL 6
REMARK VINA RESULT:    -3.547      2.646      5.069
REMARK INTER + INTRA:          -4.107
REMARK INTER:                  -4.367
REMARK INTRA:                   0.259
REMARK UNBOUND:                 0.270
REMARK SMILES C=C1[C@H]2CC[C@@H]3[C@@H]2C(C)(C)CCC[C@]13C
REMARK SMILES IDX 14 1 6 2 7 3 3 4 2 5 1 6 4 7 5 8 15 9 8 10 9 11 10 12 11 13
REMARK SMILES IDX 13 15 12 16
REMARK H PARENT
REMARK Flexibility Score: 80.00
ROOT
ATOM      1  C   UNL     1      -1.810  14.302  -0.314  1.00  0.00    -0.008 C 
ATOM      2  C   UNL     1      -0.423  14.938  -0.324  1.00  0.00     0.003 C 
ATOM      3  C   UNL     1       0.350  13.760   0.291  1.00  0.00     0.006 C 
ATOM      4  C   UNL     1       0.132  12.851  -0.908  1.00  0.00     0.019 C 
ATOM      5  C   UNL     1      -1.411  12.957  -0.952  1.00  0.00    -0.068 C 
ATOM      6  C   UNL     1      -2.242  12.008  -1.396  1.00  0.00     0.009 C 
ATOM      7  C   UNL     1       0.670  13.663  -2.076  1.00  0.00     0.008 C 
ATOM      8  C   UNL     1       0.238  15.085  -1.720  1.00  0.00     0.005 C 
ATOM      9  C   UNL     1      -2.840  15.078  -1.158  1.00  0.00     0.016 C 
ENDROOT
BRANCH   3  10
ATOM     10  C   UNL     1       1.145  14.188   1.543  1.00  0.00    -0.032 C 
ATOM     11  C   UNL     1       2.087  13.036   1.975  1.00  0.00     0.011 C 
ATOM     12  C   UNL     1       2.031  15.433   1.296  1.00  0.00     0.011 C 
BRANCH  10  13
ATOM     13  C   UNL     1       0.065  14.475   2.694  1.00  0.00     0.007 CG0
ATOM     14  G   UNL     1      -1.398  14.965   2.297  1.00  0.00     0.000 G0
ENDBRANCH  10  13
ENDBRANCH   3  10
BRANCH   1  15
ATOM     15  C   UNL     1      -2.266  14.187   1.218  1.00  0.00     0.011 C 
BRANCH  15  16
ATOM     16  C   UNL     1      -1.401  14.968   2.310  1.00  0.00     0.001 CG0
ATOM     17  G   UNL     1       0.067  14.480   2.693  1.00  0.00     0.000 G0
ENDBRANCH  15  16
ENDBRANCH   1  15
TORSDOF 0
ENDMDL
MODEL 7
REMARK VINA RESULT:    -3.511      2.094      5.047
REMARK INTER + INTRA:          -4.063
REMARK INTER:                  -4.332
REMARK INTRA:                   0.270
REMARK UNBOUND:                 0.270
REMARK SMILES C=C1[C@H]2CC[C@@H]3[C@@H]2C(C)(C)CCC[C@]13C
REMARK SMILES IDX 14 1 6 2 7 3 3 4 2 5 1 6 4 7 5 8 15 9 8 10 9 11 10 12 11 13
REMARK SMILES IDX 13 15 12 16
REMARK H PARENT
REMARK Flexibility Score: 80.00
ROOT
ATOM      1  C   UNL     1       1.474  15.419  -0.595  1.00  0.00    -0.008 C 
ATOM      2  C   UNL     1       1.721  14.043   0.017  1.00  0.00     0.003 C 
ATOM      3  C   UNL     1       0.877  14.228   1.289  1.00  0.00     0.006 C 
ATOM      4  C   UNL     1      -0.442  14.287   0.535  1.00  0.00     0.019 C 
ATOM      5  C   UNL     1      -0.059  15.432  -0.434  1.00  0.00    -0.068 C 
ATOM      6  C   UNL     1      -0.909  16.314  -0.967  1.00  0.00     0.009 C 
ATOM      7  C   UNL     1      -0.451  13.000  -0.274  1.00  0.00     0.008 C 
ATOM      8  C   UNL     1       1.013  12.858  -0.691  1.00  0.00     0.005 C 
ATOM      9  C   UNL     1       1.917  15.518  -2.068  1.00  0.00     0.016 C 
ENDROOT
BRANCH   3  10
ATOM     10  C   UNL     1       1.700  13.953   2.566  1.00  0.00    -0.032 C 
ATOM     11  C   UNL     1       0.750  13.903   3.790  1.00  0.00     0.011 C 
ATOM     12  C   UNL     1       2.451  12.601   2.518  1.00  0.00     0.011 C 
BRANCH  10  13
ATOM     13  C   UNL     1       2.729  15.174   2.718  1.00  0.00     0.007 CG0
ATOM     14  G   UNL     1       3.255  15.928   1.417  1.00  0.00     0.000 G0
ENDBRANCH  10  13
ENDBRANCH   3  10
BRANCH   1  15
ATOM     15  C   UNL     1       2.235  16.489   0.325  1.00  0.00     0.011 C 
BRANCH  15  16
ATOM     16  C   UNL     1       3.257  15.932   1.418  1.00  0.00     0.001 CG0
ATOM     17  G   UNL     1       2.734  15.162   2.711  1.00  0.00     0.000 G0
ENDBRANCH  15  16
ENDBRANCH   1  15
TORSDOF 0
ENDMDL
MODEL 8
REMARK VINA RESULT:    -3.395      2.219      4.033
REMARK INTER + INTRA:          -3.919
REMARK INTER:                  -4.179
REMARK INTRA:                   0.260
REMARK UNBOUND:                 0.270
REMARK SMILES C=C1[C@H]2CC[C@@H]3[C@@H]2C(C)(C)CCC[C@]13C
REMARK SMILES IDX 14 1 6 2 7 3 3 4 2 5 1 6 4 7 5 8 15 9 8 10 9 11 10 12 11 13
REMARK SMILES IDX 13 15 12 16
REMARK H PARENT
REMARK Flexibility Score: 80.00
ROOT
ATOM      1  C   UNL     1       1.068  14.182   1.752  1.00  0.00    -0.008 C 
ATOM      2  C   UNL     1       0.411  13.800   0.428  1.00  0.00     0.003 C 
ATOM      3  C   UNL     1       0.061  15.219  -0.047  1.00  0.00     0.006 C 
ATOM      4  C   UNL     1       1.513  15.633  -0.230  1.00  0.00     0.019 C 
ATOM      5  C   UNL     1       1.995  15.283   1.198  1.00  0.00    -0.068 C 
ATOM      6  C   UNL     1       2.990  15.889   1.852  1.00  0.00     0.009 C 
ATOM      7  C   UNL     1       2.072  14.571  -1.164  1.00  0.00     0.008 C 
ATOM      8  C   UNL     1       1.375  13.300  -0.679  1.00  0.00     0.005 C 
ATOM      9  C   UNL     1       1.846  13.021   2.402  1.00  0.00     0.016 C 
ENDROOT
BRANCH   3  10
ATOM     10  C   UNL     1      -1.442  15.360  -0.372  1.00  0.00    -0.032 C 
ATOM     11  C   UNL     1      -1.692  16.718  -1.075  1.00  0.00     0.011 C 
ATOM     12  C   UNL     1      -1.957  14.253  -1.323  1.00  0.00     0.011 C 
BRANCH  10  13
ATOM     13  C   UNL     1      -2.218  15.316   1.031  1.00  0.00     0.007 CG0
ATOM     14  G   UNL     1      -1.601  14.493   2.248  1.00  0.00     0.000 G0
ENDBRANCH  10  13
ENDBRANCH   3  10
BRANCH   1  15
ATOM     15  C   UNL     1      -0.091  14.730   2.714  1.00  0.00     0.011 C 
BRANCH  15  16
ATOM     16  C   UNL     1      -1.604  14.497   2.258  1.00  0.00     0.001 CG0
ATOM     17  G   UNL     1      -2.228  15.316   1.041  1.00  0.00     0.000 G0
ENDBRANCH  15  16
ENDBRANCH   1  15
TORSDOF 0
ENDMDL
MODEL 9
REMARK VINA RESULT:    -3.394      2.853      5.453
REMARK INTER + INTRA:          -3.918
REMARK INTER:                  -4.189
REMARK INTRA:                   0.271
REMARK UNBOUND:                 0.270
REMARK SMILES C=C1[C@H]2CC[C@@H]3[C@@H]2C(C)(C)CCC[C@]13C
REMARK SMILES IDX 14 1 6 2 7 3 3 4 2 5 1 6 4 7 5 8 15 9 8 10 9 11 10 12 11 13
REMARK SMILES IDX 13 15 12 16
REMARK H PARENT
REMARK Flexibility Score: 80.00
ROOT
ATOM      1  C   UNL     1      -1.789  13.844  -0.475  1.00  0.00    -0.008 C 
ATOM      2  C   UNL     1      -1.193  14.131   0.900  1.00  0.00     0.003 C 
ATOM      3  C   UNL     1      -0.260  15.280   0.485  1.00  0.00     0.006 C 
ATOM      4  C   UNL     1      -1.400  16.228   0.149  1.00  0.00     0.019 C 
ATOM      5  C   UNL     1      -2.138  15.299  -0.844  1.00  0.00    -0.068 C 
ATOM      6  C   UNL     1      -2.879  15.702  -1.880  1.00  0.00     0.009 C 
ATOM      7  C   UNL     1      -2.225  16.263   1.426  1.00  0.00     0.008 C 
ATOM      8  C   UNL     1      -2.145  14.817   1.914  1.00  0.00     0.005 C 
ATOM      9  C   UNL     1      -3.030  12.930  -0.421  1.00  0.00     0.016 C 
ENDROOT
BRANCH   3  10
ATOM     10  C   UNL     1       1.203  15.008   0.898  1.00  0.00    -0.032 C 
ATOM     11  C   UNL     1       2.042  16.295   0.701  1.00  0.00     0.011 C 
ATOM     12  C   UNL     1       1.340  14.598   2.385  1.00  0.00     0.011 C 
BRANCH  10  13
ATOM     13  C   UNL     1       1.742  13.847  -0.067  1.00  0.00     0.007 CG0
ATOM     14  G   UNL     1       0.727  12.755  -0.630  1.00  0.00     0.000 G0
ENDBRANCH  10  13
ENDBRANCH   3  10
BRANCH   1  15
ATOM     15  C   UNL     1      -0.624  13.205  -1.372  1.00  0.00     0.011 C 
BRANCH  15  16
ATOM     16  C   UNL     1       0.719  12.756  -0.632  1.00  0.00     0.001 CG0
ATOM     17  G   UNL     1       1.745  13.839  -0.072  1.00  0.00     0.000 G0
ENDBRANCH  15  16
ENDBRANCH   1  15
TORSDOF 0
ENDMDL
