MODEL 1
REMARK VINA RESULT:    -4.840      0.000      0.000
REMARK INTER + INTRA:          -9.125
REMARK INTER:                  -7.669
REMARK INTRA:                  -1.456
REMARK UNBOUND:                -1.456
REMARK SMILES COc1ccc(C(C)=O)c(O[C@@H]2O[C@@H](CO[C@@H]3OC[C@@H](O)[C@H](O)[C@@H]3O)[C@@H](O)[C@@H](O)[C@H]2O)c1
REMARK SMILES IDX 12 1 30 2 28 3 26 4 14 5 13 6 11 7 10 8 6 9 5 10 32 11 4 12
REMARK SMILES IDX 3 13 7 14 8 15 9 16 2 17 1 18 31 19 29 21 15 23 16 24 17 25
REMARK SMILES IDX 24 26 18 27 22 28 19 29 20 30 25 31 23 33 21 35 27 37
REMARK H PARENT 31 20 29 22 25 32 23 34 21 36 27 38
REMARK Flexibility Score: inf
ROOT
ATOM      1  C   UNL     1      18.163  34.410  39.469  1.00  0.00     0.339 C 
ATOM      2  C   UNL     1      19.552  34.324  38.802  1.00  0.00     0.214 C 
ATOM      3  C   UNL     1      20.699  34.590  39.841  1.00  0.00     0.180 C 
ATOM      4  C   UNL     1      20.472  33.779  41.159  1.00  0.00     0.177 C 
ATOM      5  C   UNL     1      19.060  34.114  41.624  1.00  0.00     0.180 C 
ATOM      6  O   UNL     1      18.066  33.674  40.717  1.00  0.00    -0.332 OA
ENDROOT
BRANCH   1   7
ATOM      7  O   UNL     1      17.699  35.803  39.601  1.00  0.00    -0.461 OA
BRANCH   7   8
ATOM      8  C   UNL     1      16.401  36.201  39.236  1.00  0.00     0.137 A 
ATOM      9  C   UNL     1      16.173  37.289  38.349  1.00  0.00     0.060 A 
ATOM     10  C   UNL     1      15.001  38.041  38.524  1.00  0.00     0.019 A 
ATOM     11  C   UNL     1      15.300  35.501  39.671  1.00  0.00     0.093 A 
ATOM     12  C   UNL     1      13.885  37.325  38.928  1.00  0.00     0.047 A 
ATOM     13  C   UNL     1      14.006  36.037  39.461  1.00  0.00     0.122 A 
BRANCH   9  14
ATOM     14  C   UNL     1      16.398  37.113  36.898  1.00  0.00     0.163 C 
ATOM     15  C   UNL     1      17.101  35.904  36.374  1.00  0.00     0.093 C 
ATOM     16  O   UNL     1      16.376  38.125  36.157  1.00  0.00    -0.294 OA
ENDBRANCH   9  14
BRANCH  13  17
ATOM     17  O   UNL     1      12.826  35.317  39.746  1.00  0.00    -0.497 OA
ATOM     18  C   UNL     1      12.778  34.145  40.577  1.00  0.00     0.278 C 
ENDBRANCH  13  17
ENDBRANCH   7   8
ENDBRANCH   1   7
BRANCH   2  19
ATOM     19  O   UNL     1      19.705  33.072  38.226  1.00  0.00    -0.384 OA
ATOM     20  H   UNL     1      18.803  32.719  38.117  1.00  0.00     0.211 HD
ENDBRANCH   2  19
BRANCH   3  21
ATOM     21  O   UNL     1      21.975  34.401  39.307  1.00  0.00    -0.387 OA
ATOM     22  H   UNL     1      22.122  33.415  39.241  1.00  0.00     0.211 HD
ENDBRANCH   3  21
BRANCH   5  23
ATOM     23  C   UNL     1      18.725  33.595  42.996  1.00  0.00     0.198 C 
BRANCH  23  24
ATOM     24  O   UNL     1      19.925  33.615  43.787  1.00  0.00    -0.347 OA
BRANCH  24  25
ATOM     25  C   UNL     1      19.868  34.516  44.868  1.00  0.00     0.281 C 
ATOM     26  C   UNL     1      21.080  35.477  44.954  1.00  0.00     0.202 C 
ATOM     27  O   UNL     1      18.655  35.227  44.768  1.00  0.00    -0.347 OA
ATOM     28  C   UNL     1      20.900  36.446  46.111  1.00  0.00     0.179 C 
ATOM     29  C   UNL     1      18.401  36.081  45.868  1.00  0.00     0.198 C 
ATOM     30  C   UNL     1      19.504  37.137  46.027  1.00  0.00     0.171 C 
BRANCH  26  31
ATOM     31  O   UNL     1      21.272  36.308  43.791  1.00  0.00    -0.385 OA
ATOM     32  H   UNL     1      21.900  37.032  44.005  1.00  0.00     0.211 HD
ENDBRANCH  26  31
BRANCH  28  33
ATOM     33  O   UNL     1      21.905  37.426  46.122  1.00  0.00    -0.387 OA
ATOM     34  H   UNL     1      22.033  37.747  45.192  1.00  0.00     0.211 HD
ENDBRANCH  28  33
BRANCH  30  35
ATOM     35  O   UNL     1      19.218  37.945  47.125  1.00  0.00    -0.388 OA
ATOM     36  H   UNL     1      18.994  37.408  47.904  1.00  0.00     0.211 HD
ENDBRANCH  30  35
ENDBRANCH  24  25
ENDBRANCH  23  24
ENDBRANCH   5  23
BRANCH   4  37
ATOM     37  O   UNL     1      20.469  32.396  40.859  1.00  0.00    -0.387 OA
ATOM     38  H   UNL     1      21.235  31.978  41.330  1.00  0.00     0.211 HD
ENDBRANCH   4  37
TORSDOF 13
ENDMDL
MODEL 2
REMARK VINA RESULT:    -4.739      3.050      6.609
REMARK INTER + INTRA:          -8.966
REMARK INTER:                  -6.473
REMARK INTRA:                  -2.493
REMARK UNBOUND:                -1.456
REMARK SMILES COc1ccc(C(C)=O)c(O[C@@H]2O[C@@H](CO[C@@H]3OC[C@@H](O)[C@H](O)[C@@H]3O)[C@@H](O)[C@@H](O)[C@H]2O)c1
REMARK SMILES IDX 12 1 30 2 28 3 26 4 14 5 13 6 11 7 10 8 6 9 5 10 32 11 4 12
REMARK SMILES IDX 3 13 7 14 8 15 9 16 2 17 1 18 31 19 29 21 15 23 16 24 17 25
REMARK SMILES IDX 24 26 18 27 22 28 19 29 20 30 25 31 23 33 21 35 27 37
REMARK H PARENT 31 20 29 22 25 32 23 34 21 36 27 38
REMARK Flexibility Score: inf
ROOT
ATOM      1  C   UNL     1      20.953  35.619  44.273  1.00  0.00     0.339 C 
ATOM      2  C   UNL     1      20.189  36.801  44.906  1.00  0.00     0.214 C 
ATOM      3  C   UNL     1      20.195  36.709  46.473  1.00  0.00     0.180 C 
ATOM      4  C   UNL     1      21.625  36.389  47.020  1.00  0.00     0.177 C 
ATOM      5  C   UNL     1      22.094  35.145  46.276  1.00  0.00     0.180 C 
ATOM      6  O   UNL     1      22.244  35.361  44.886  1.00  0.00    -0.332 OA
ENDROOT
BRANCH   1   7
ATOM      7  O   UNL     1      20.120  34.405  44.189  1.00  0.00    -0.461 OA
BRANCH   7   8
ATOM      8  C   UNL     1      19.273  34.150  43.097  1.00  0.00     0.137 A 
ATOM      9  C   UNL     1      19.768  33.617  41.874  1.00  0.00     0.060 A 
ATOM     10  C   UNL     1      19.112  33.985  40.689  1.00  0.00     0.019 A 
ATOM     11  C   UNL     1      17.914  34.338  43.198  1.00  0.00     0.093 A 
ATOM     12  C   UNL     1      17.738  34.138  40.787  1.00  0.00     0.047 A 
ATOM     13  C   UNL     1      17.112  34.271  42.032  1.00  0.00     0.122 A 
BRANCH   9  14
ATOM     14  C   UNL     1      20.117  32.184  41.785  1.00  0.00     0.163 C 
ATOM     15  C   UNL     1      19.327  31.156  42.526  1.00  0.00     0.093 C 
ATOM     16  O   UNL     1      21.281  31.867  41.440  1.00  0.00    -0.294 OA
ENDBRANCH   9  14
BRANCH  13  17
ATOM     17  O   UNL     1      15.702  34.308  42.072  1.00  0.00    -0.497 OA
ATOM     18  C   UNL     1      14.917  35.465  41.738  1.00  0.00     0.278 C 
ENDBRANCH  13  17
ENDBRANCH   7   8
ENDBRANCH   1   7
BRANCH   2  19
ATOM     19  O   UNL     1      20.767  37.992  44.491  1.00  0.00    -0.384 OA
ATOM     20  H   UNL     1      21.425  37.745  43.817  1.00  0.00     0.211 HD
ENDBRANCH   2  19
BRANCH   3  21
ATOM     21  O   UNL     1      19.620  37.822  47.089  1.00  0.00    -0.387 OA
ATOM     22  H   UNL     1      19.691  37.681  48.075  1.00  0.00     0.211 HD
ENDBRANCH   3  21
BRANCH   5  23
ATOM     23  C   UNL     1      23.368  34.550  46.813  1.00  0.00     0.198 C 
BRANCH  23  24
ATOM     24  O   UNL     1      23.276  33.121  46.700  1.00  0.00    -0.347 OA
BRANCH  24  25
ATOM     25  C   UNL     1      24.201  32.571  45.791  1.00  0.00     0.281 C 
ATOM     26  C   UNL     1      23.552  31.941  44.534  1.00  0.00     0.202 C 
ATOM     27  O   UNL     1      25.114  33.587  45.444  1.00  0.00    -0.347 OA
ATOM     28  C   UNL     1      24.628  31.430  43.589  1.00  0.00     0.179 C 
ATOM     29  C   UNL     1      26.185  33.140  44.634  1.00  0.00     0.198 C 
ATOM     30  C   UNL     1      25.679  32.549  43.310  1.00  0.00     0.171 C 
BRANCH  26  31
ATOM     31  O   UNL     1      22.759  32.852  43.747  1.00  0.00    -0.385 OA
ATOM     32  H   UNL     1      23.216  33.035  42.897  1.00  0.00     0.211 HD
ENDBRANCH  26  31
BRANCH  28  33
ATOM     33  O   UNL     1      24.078  30.993  42.374  1.00  0.00    -0.387 OA
ATOM     34  H   UNL     1      23.428  30.270  42.571  1.00  0.00     0.211 HD
ENDBRANCH  28  33
BRANCH  30  35
ATOM     35  O   UNL     1      26.764  32.114  42.552  1.00  0.00    -0.388 OA
ATOM     36  H   UNL     1      27.582  32.563  42.824  1.00  0.00     0.211 HD
ENDBRANCH  30  35
ENDBRANCH  24  25
ENDBRANCH  23  24
ENDBRANCH   5  23
BRANCH   4  37
ATOM     37  O   UNL     1      22.508  37.428  46.642  1.00  0.00    -0.387 OA
ATOM     38  H   UNL     1      23.278  37.419  47.267  1.00  0.00     0.211 HD
ENDBRANCH   4  37
TORSDOF 13
ENDMDL
MODEL 3
REMARK VINA RESULT:    -4.615      3.744      6.810
REMARK INTER + INTRA:          -8.769
REMARK INTER:                  -6.341
REMARK INTRA:                  -2.427
REMARK UNBOUND:                -1.456
REMARK SMILES COc1ccc(C(C)=O)c(O[C@@H]2O[C@@H](CO[C@@H]3OC[C@@H](O)[C@H](O)[C@@H]3O)[C@@H](O)[C@@H](O)[C@H]2O)c1
REMARK SMILES IDX 12 1 30 2 28 3 26 4 14 5 13 6 11 7 10 8 6 9 5 10 32 11 4 12
REMARK SMILES IDX 3 13 7 14 8 15 9 16 2 17 1 18 31 19 29 21 15 23 16 24 17 25
REMARK SMILES IDX 24 26 18 27 22 28 19 29 20 30 25 31 23 33 21 35 27 37
REMARK H PARENT 31 20 29 22 25 32 23 34 21 36 27 38
REMARK Flexibility Score: inf
ROOT
ATOM      1  C   UNL     1      21.113  35.361  44.419  1.00  0.00     0.339 C 
ATOM      2  C   UNL     1      20.295  36.537  44.995  1.00  0.00     0.214 C 
ATOM      3  C   UNL     1      20.327  36.536  46.565  1.00  0.00     0.180 C 
ATOM      4  C   UNL     1      21.779  36.324  47.105  1.00  0.00     0.177 C 
ATOM      5  C   UNL     1      22.303  35.065  46.427  1.00  0.00     0.180 C 
ATOM      6  O   UNL     1      22.424  35.208  45.024  1.00  0.00    -0.332 OA
ENDROOT
BRANCH   1   7
ATOM      7  O   UNL     1      20.344  34.103  44.417  1.00  0.00    -0.461 OA
BRANCH   7   8
ATOM      8  C   UNL     1      19.596  33.680  43.306  1.00  0.00     0.137 A 
ATOM      9  C   UNL     1      20.012  33.957  41.974  1.00  0.00     0.060 A 
ATOM     10  C   UNL     1      19.016  34.128  41.000  1.00  0.00     0.019 A 
ATOM     11  C   UNL     1      18.463  32.916  43.466  1.00  0.00     0.093 A 
ATOM     12  C   UNL     1      17.893  33.330  41.146  1.00  0.00     0.047 A 
ATOM     13  C   UNL     1      17.620  32.678  42.353  1.00  0.00     0.122 A 
BRANCH   9  14
ATOM     14  C   UNL     1      21.118  33.180  41.374  1.00  0.00     0.163 C 
ATOM     15  C   UNL     1      21.568  33.445  39.975  1.00  0.00     0.093 C 
ATOM     16  O   UNL     1      21.400  32.058  41.860  1.00  0.00    -0.294 OA
ENDBRANCH   9  14
BRANCH  13  17
ATOM     17  O   UNL     1      16.524  31.790  42.403  1.00  0.00    -0.497 OA
ATOM     18  C   UNL     1      16.252  30.906  43.503  1.00  0.00     0.278 C 
ENDBRANCH  13  17
ENDBRANCH   7   8
ENDBRANCH   1   7
BRANCH   2  19
ATOM     19  O   UNL     1      20.804  37.730  44.503  1.00  0.00    -0.384 OA
ATOM     20  H   UNL     1      20.194  38.005  43.795  1.00  0.00     0.211 HD
ENDBRANCH   2  19
BRANCH   3  21
ATOM     21  O   UNL     1      19.702  37.652  47.125  1.00  0.00    -0.387 OA
ATOM     22  H   UNL     1      19.233  38.128  46.382  1.00  0.00     0.211 HD
ENDBRANCH   3  21
BRANCH   5  23
ATOM     23  C   UNL     1      23.614  34.571  46.976  1.00  0.00     0.198 C 
BRANCH  23  24
ATOM     24  O   UNL     1      23.582  33.134  46.983  1.00  0.00    -0.347 OA
BRANCH  24  25
ATOM     25  C   UNL     1      24.457  32.551  46.045  1.00  0.00     0.281 C 
ATOM     26  C   UNL     1      23.742  31.753  44.926  1.00  0.00     0.202 C 
ATOM     27  O   UNL     1      25.259  33.579  45.511  1.00  0.00    -0.347 OA
ATOM     28  C   UNL     1      24.760  31.214  43.934  1.00  0.00     0.179 C 
ATOM     29  C   UNL     1      26.280  33.118  44.647  1.00  0.00     0.198 C 
ATOM     30  C   UNL     1      25.698  32.361  43.444  1.00  0.00     0.171 C 
BRANCH  26  31
ATOM     31  O   UNL     1      22.817  32.526  44.136  1.00  0.00    -0.385 OA
ATOM     32  H   UNL     1      22.496  33.292  44.660  1.00  0.00     0.211 HD
ENDBRANCH  26  31
BRANCH  28  33
ATOM     33  O   UNL     1      24.134  30.619  42.828  1.00  0.00    -0.387 OA
ATOM     34  H   UNL     1      23.656  29.808  43.144  1.00  0.00     0.211 HD
ENDBRANCH  28  33
BRANCH  30  35
ATOM     35  O   UNL     1      26.737  31.917  42.629  1.00  0.00    -0.388 OA
ATOM     36  H   UNL     1      27.601  32.151  43.008  1.00  0.00     0.211 HD
ENDBRANCH  30  35
ENDBRANCH  24  25
ENDBRANCH  23  24
ENDBRANCH   5  23
BRANCH   4  37
ATOM     37  O   UNL     1      22.600  37.385  46.654  1.00  0.00    -0.387 OA
ATOM     38  H   UNL     1      23.543  37.147  46.848  1.00  0.00     0.211 HD
ENDBRANCH   4  37
TORSDOF 13
ENDMDL
MODEL 4
REMARK VINA RESULT:    -4.579      4.024      6.479
REMARK INTER + INTRA:          -8.712
REMARK INTER:                  -6.368
REMARK INTRA:                  -2.345
REMARK UNBOUND:                -1.456
REMARK SMILES COc1ccc(C(C)=O)c(O[C@@H]2O[C@@H](CO[C@@H]3OC[C@@H](O)[C@H](O)[C@@H]3O)[C@@H](O)[C@@H](O)[C@H]2O)c1
REMARK SMILES IDX 12 1 30 2 28 3 26 4 14 5 13 6 11 7 10 8 6 9 5 10 32 11 4 12
REMARK SMILES IDX 3 13 7 14 8 15 9 16 2 17 1 18 31 19 29 21 15 23 16 24 17 25
REMARK SMILES IDX 24 26 18 27 22 28 19 29 20 30 25 31 23 33 21 35 27 37
REMARK H PARENT 31 20 29 22 25 32 23 34 21 36 27 38
REMARK Flexibility Score: inf
ROOT
ATOM      1  C   UNL     1      19.742  35.363  44.765  1.00  0.00     0.339 C 
ATOM      2  C   UNL     1      20.543  36.636  45.112  1.00  0.00     0.214 C 
ATOM      3  C   UNL     1      21.534  36.378  46.302  1.00  0.00     0.180 C 
ATOM      4  C   UNL     1      22.331  35.048  46.101  1.00  0.00     0.177 C 
ATOM      5  C   UNL     1      21.290  33.964  45.853  1.00  0.00     0.180 C 
ATOM      6  O   UNL     1      20.560  34.168  44.657  1.00  0.00    -0.332 OA
ENDROOT
BRANCH   1   7
ATOM      7  O   UNL     1      18.588  35.175  45.663  1.00  0.00    -0.461 OA
BRANCH   7   8
ATOM      8  C   UNL     1      17.314  34.825  45.186  1.00  0.00     0.137 A 
ATOM      9  C   UNL     1      17.110  34.385  43.849  1.00  0.00     0.060 A 
ATOM     10  C   UNL     1      15.878  34.679  43.245  1.00  0.00     0.019 A 
ATOM     11  C   UNL     1      16.222  34.825  46.023  1.00  0.00     0.093 A 
ATOM     12  C   UNL     1      14.776  34.643  44.085  1.00  0.00     0.047 A 
ATOM     13  C   UNL     1      14.925  34.668  45.476  1.00  0.00     0.122 A 
BRANCH   9  14
ATOM     14  C   UNL     1      17.502  33.013  43.459  1.00  0.00     0.163 C 
ATOM     15  C   UNL     1      17.713  31.955  44.492  1.00  0.00     0.093 C 
ATOM     16  O   UNL     1      18.045  32.835  42.342  1.00  0.00    -0.294 OA
ENDBRANCH   9  14
BRANCH  13  17
ATOM     17  O   UNL     1      13.773  34.514  46.277  1.00  0.00    -0.497 OA
ATOM     18  C   UNL     1      12.468  34.994  45.913  1.00  0.00     0.278 C 
ENDBRANCH  13  17
ENDBRANCH   7   8
ENDBRANCH   1   7
BRANCH   2  19
ATOM     19  O   UNL     1      21.239  37.058  43.989  1.00  0.00    -0.384 OA
ATOM     20  H   UNL     1      21.567  36.246  43.561  1.00  0.00     0.211 HD
ENDBRANCH   2  19
BRANCH   3  21
ATOM     21  O   UNL     1      22.365  37.468  46.568  1.00  0.00    -0.387 OA
ATOM     22  H   UNL     1      22.694  37.363  47.506  1.00  0.00     0.211 HD
ENDBRANCH   3  21
BRANCH   5  23
ATOM     23  C   UNL     1      21.847  32.566  45.845  1.00  0.00     0.198 C 
BRANCH  23  24
ATOM     24  O   UNL     1      21.497  31.952  44.594  1.00  0.00    -0.347 OA
BRANCH  24  25
ATOM     25  C   UNL     1      22.604  31.730  43.751  1.00  0.00     0.281 C 
ATOM     26  C   UNL     1      22.448  32.332  42.333  1.00  0.00     0.202 C 
ATOM     27  O   UNL     1      23.745  32.239  44.402  1.00  0.00    -0.347 OA
ATOM     28  C   UNL     1      23.710  32.094  41.520  1.00  0.00     0.179 C 
ATOM     29  C   UNL     1      24.958  31.965  43.726  1.00  0.00     0.198 C 
ATOM     30  C   UNL     1      24.965  32.573  42.316  1.00  0.00     0.171 C 
BRANCH  26  31
ATOM     31  O   UNL     1      22.244  33.759  42.305  1.00  0.00    -0.385 OA
ATOM     32  H   UNL     1      21.360  33.958  41.927  1.00  0.00     0.211 HD
ENDBRANCH  26  31
BRANCH  28  33
ATOM     33  O   UNL     1      23.660  32.759  40.286  1.00  0.00    -0.387 OA
ATOM     34  H   UNL     1      23.875  32.103  39.573  1.00  0.00     0.211 HD
ENDBRANCH  28  33
BRANCH  30  35
ATOM     35  O   UNL     1      26.170  32.270  41.686  1.00  0.00    -0.388 OA
ATOM     36  H   UNL     1      26.891  32.824  42.029  1.00  0.00     0.211 HD
ENDBRANCH  30  35
ENDBRANCH  24  25
ENDBRANCH  23  24
ENDBRANCH   5  23
BRANCH   4  37
ATOM     37  O   UNL     1      23.094  35.139  44.913  1.00  0.00    -0.387 OA
ATOM     38  H   UNL     1      23.695  35.925  44.993  1.00  0.00     0.211 HD
ENDBRANCH   4  37
TORSDOF 13
ENDMDL
MODEL 5
REMARK VINA RESULT:    -4.553      3.304      6.954
REMARK INTER + INTRA:          -8.671
REMARK INTER:                  -6.577
REMARK INTRA:                  -2.094
REMARK UNBOUND:                -1.456
REMARK SMILES COc1ccc(C(C)=O)c(O[C@@H]2O[C@@H](CO[C@@H]3OC[C@@H](O)[C@H](O)[C@@H]3O)[C@@H](O)[C@@H](O)[C@H]2O)c1
REMARK SMILES IDX 12 1 30 2 28 3 26 4 14 5 13 6 11 7 10 8 6 9 5 10 32 11 4 12
REMARK SMILES IDX 3 13 7 14 8 15 9 16 2 17 1 18 31 19 29 21 15 23 16 24 17 25
REMARK SMILES IDX 24 26 18 27 22 28 19 29 20 30 25 31 23 33 21 35 27 37
REMARK H PARENT 31 20 29 22 25 32 23 34 21 36 27 38
REMARK Flexibility Score: inf
ROOT
ATOM      1  C   UNL     1      21.042  35.404  44.426  1.00  0.00     0.339 C 
ATOM      2  C   UNL     1      20.240  36.595  44.992  1.00  0.00     0.214 C 
ATOM      3  C   UNL     1      20.253  36.595  46.562  1.00  0.00     0.180 C 
ATOM      4  C   UNL     1      21.694  36.355  47.120  1.00  0.00     0.177 C 
ATOM      5  C   UNL     1      22.202  35.085  46.448  1.00  0.00     0.180 C 
ATOM      6  O   UNL     1      22.342  35.225  45.047  1.00  0.00    -0.332 OA
ENDROOT
BRANCH   1   7
ATOM      7  O   UNL     1      20.249  34.160  44.416  1.00  0.00    -0.461 OA
BRANCH   7   8
ATOM      8  C   UNL     1      19.592  33.697  43.263  1.00  0.00     0.137 A 
ATOM      9  C   UNL     1      18.216  33.336  43.280  1.00  0.00     0.060 A 
ATOM     10  C   UNL     1      17.795  32.324  42.404  1.00  0.00     0.019 A 
ATOM     11  C   UNL     1      20.242  33.646  42.052  1.00  0.00     0.093 A 
ATOM     12  C   UNL     1      18.428  32.298  41.171  1.00  0.00     0.047 A 
ATOM     13  C   UNL     1      19.627  32.988  40.959  1.00  0.00     0.122 A 
BRANCH   9  14
ATOM     14  C   UNL     1      17.180  34.391  43.302  1.00  0.00     0.163 C 
ATOM     15  C   UNL     1      15.775  34.074  43.698  1.00  0.00     0.093 C 
ATOM     16  O   UNL     1      17.359  35.427  42.618  1.00  0.00    -0.294 OA
ENDBRANCH   9  14
BRANCH  13  17
ATOM     17  O   UNL     1      20.161  33.017  39.653  1.00  0.00    -0.497 OA
ATOM     18  C   UNL     1      19.775  33.967  38.645  1.00  0.00     0.278 C 
ENDBRANCH  13  17
ENDBRANCH   7   8
ENDBRANCH   1   7
BRANCH   2  19
ATOM     19  O   UNL     1      20.778  37.778  44.506  1.00  0.00    -0.384 OA
ATOM     20  H   UNL     1      20.040  38.246  44.076  1.00  0.00     0.211 HD
ENDBRANCH   2  19
BRANCH   3  21
ATOM     21  O   UNL     1      19.643  37.723  47.114  1.00  0.00    -0.387 OA
ATOM     22  H   UNL     1      19.944  38.510  46.577  1.00  0.00     0.211 HD
ENDBRANCH   3  21
BRANCH   5  23
ATOM     23  C   UNL     1      23.497  34.566  47.013  1.00  0.00     0.198 C 
BRANCH  23  24
ATOM     24  O   UNL     1      23.477  33.132  46.928  1.00  0.00    -0.347 OA
BRANCH  24  25
ATOM     25  C   UNL     1      24.461  32.610  46.066  1.00  0.00     0.281 C 
ATOM     26  C   UNL     1      23.890  31.846  44.845  1.00  0.00     0.202 C 
ATOM     27  O   UNL     1      25.287  33.678  45.663  1.00  0.00    -0.347 OA
ATOM     28  C   UNL     1      25.022  31.374  43.946  1.00  0.00     0.179 C 
ATOM     29  C   UNL     1      26.406  33.277  44.894  1.00  0.00     0.198 C 
ATOM     30  C   UNL     1      25.975  32.561  43.606  1.00  0.00     0.171 C 
BRANCH  26  31
ATOM     31  O   UNL     1      23.033  32.632  43.993  1.00  0.00    -0.385 OA
ATOM     32  H   UNL     1      22.520  32.036  43.405  1.00  0.00     0.211 HD
ENDBRANCH  26  31
BRANCH  28  33
ATOM     33  O   UNL     1      24.532  30.813  42.756  1.00  0.00    -0.387 OA
ATOM     34  H   UNL     1      23.779  30.210  42.986  1.00  0.00     0.211 HD
ENDBRANCH  28  33
BRANCH  30  35
ATOM     35  O   UNL     1      27.106  32.177  42.889  1.00  0.00    -0.388 OA
ATOM     36  H   UNL     1      27.105  32.569  41.999  1.00  0.00     0.211 HD
ENDBRANCH  30  35
ENDBRANCH  24  25
ENDBRANCH  23  24
ENDBRANCH   5  23
BRANCH   4  37
ATOM     37  O   UNL     1      22.541  37.399  46.678  1.00  0.00    -0.387 OA
ATOM     38  H   UNL     1      22.140  37.797  45.863  1.00  0.00     0.211 HD
ENDBRANCH   4  37
TORSDOF 13
ENDMDL
MODEL 6
REMARK VINA RESULT:    -4.553      3.526      6.617
REMARK INTER + INTRA:          -8.670
REMARK INTER:                  -6.252
REMARK INTRA:                  -2.418
REMARK UNBOUND:                -1.456
REMARK SMILES COc1ccc(C(C)=O)c(O[C@@H]2O[C@@H](CO[C@@H]3OC[C@@H](O)[C@H](O)[C@@H]3O)[C@@H](O)[C@@H](O)[C@H]2O)c1
REMARK SMILES IDX 12 1 30 2 28 3 26 4 14 5 13 6 11 7 10 8 6 9 5 10 32 11 4 12
REMARK SMILES IDX 3 13 7 14 8 15 9 16 2 17 1 18 31 19 29 21 15 23 16 24 17 25
REMARK SMILES IDX 24 26 18 27 22 28 19 29 20 30 25 31 23 33 21 35 27 37
REMARK H PARENT 31 20 29 22 25 32 23 34 21 36 27 38
REMARK Flexibility Score: inf
ROOT
ATOM      1  C   UNL     1      19.490  35.805  44.867  1.00  0.00     0.339 C 
ATOM      2  C   UNL     1      20.476  36.934  45.236  1.00  0.00     0.214 C 
ATOM      3  C   UNL     1      21.495  36.463  46.334  1.00  0.00     0.180 C 
ATOM      4  C   UNL     1      22.090  35.058  45.993  1.00  0.00     0.177 C 
ATOM      5  C   UNL     1      20.899  34.140  45.751  1.00  0.00     0.180 C 
ATOM      6  O   UNL     1      20.130  34.524  44.626  1.00  0.00    -0.332 OA
ENDROOT
BRANCH   1   7
ATOM      7  O   UNL     1      18.379  35.705  45.832  1.00  0.00    -0.461 OA
BRANCH   7   8
ATOM      8  C   UNL     1      17.334  34.777  45.681  1.00  0.00     0.137 A 
ATOM      9  C   UNL     1      16.358  34.911  44.656  1.00  0.00     0.060 A 
ATOM     10  C   UNL     1      15.065  34.431  44.919  1.00  0.00     0.019 A 
ATOM     11  C   UNL     1      17.261  33.660  46.481  1.00  0.00     0.093 A 
ATOM     12  C   UNL     1      14.998  33.285  45.695  1.00  0.00     0.047 A 
ATOM     13  C   UNL     1      16.096  32.855  46.447  1.00  0.00     0.122 A 
BRANCH   9  14
ATOM     14  C   UNL     1      16.705  34.565  43.261  1.00  0.00     0.163 C 
ATOM     15  C   UNL     1      15.898  35.091  42.119  1.00  0.00     0.093 C 
ATOM     16  O   UNL     1      17.391  33.537  43.046  1.00  0.00    -0.294 OA
ENDBRANCH   9  14
BRANCH  13  17
ATOM     17  O   UNL     1      16.003  31.621  47.125  1.00  0.00    -0.497 OA
ATOM     18  C   UNL     1      15.008  30.621  46.845  1.00  0.00     0.278 C 
ENDBRANCH  13  17
ENDBRANCH   7   8
ENDBRANCH   1   7
BRANCH   2  19
ATOM     19  O   UNL     1      21.151  37.341  44.095  1.00  0.00    -0.384 OA
ATOM     20  H   UNL     1      20.585  38.016  43.680  1.00  0.00     0.211 HD
ENDBRANCH   2  19
BRANCH   3  21
ATOM     21  O   UNL     1      22.480  37.413  46.608  1.00  0.00    -0.387 OA
ATOM     22  H   UNL     1      22.559  37.474  47.602  1.00  0.00     0.211 HD
ENDBRANCH   3  21
BRANCH   5  23
ATOM     23  C   UNL     1      21.260  32.685  45.615  1.00  0.00     0.198 C 
BRANCH  23  24
ATOM     24  O   UNL     1      20.795  32.228  44.334  1.00  0.00    -0.347 OA
BRANCH  24  25
ATOM     25  C   UNL     1      21.838  31.923  43.438  1.00  0.00     0.281 C 
ATOM     26  C   UNL     1      21.746  32.671  42.084  1.00  0.00     0.202 C 
ATOM     27  O   UNL     1      23.057  32.194  44.092  1.00  0.00    -0.347 OA
ATOM     28  C   UNL     1      22.941  32.325  41.211  1.00  0.00     0.179 C 
ATOM     29  C   UNL     1      24.200  31.808  43.353  1.00  0.00     0.198 C 
ATOM     30  C   UNL     1      24.269  32.536  42.002  1.00  0.00     0.171 C 
BRANCH  26  31
ATOM     31  O   UNL     1      21.759  34.109  42.190  1.00  0.00    -0.385 OA
ATOM     32  H   UNL     1      20.850  34.433  42.370  1.00  0.00     0.211 HD
ENDBRANCH  26  31
BRANCH  28  33
ATOM     33  O   UNL     1      22.966  33.102  40.043  1.00  0.00    -0.387 OA
ATOM     34  H   UNL     1      23.701  33.764  40.128  1.00  0.00     0.211 HD
ENDBRANCH  28  33
BRANCH  30  35
ATOM     35  O   UNL     1      25.402  32.118  41.307  1.00  0.00    -0.388 OA
ATOM     36  H   UNL     1      25.168  31.808  40.416  1.00  0.00     0.211 HD
ENDBRANCH  30  35
ENDBRANCH  24  25
ENDBRANCH  23  24
ENDBRANCH   5  23
BRANCH   4  37
ATOM     37  O   UNL     1      22.783  35.135  44.761  1.00  0.00    -0.387 OA
ATOM     38  H   UNL     1      22.272  34.616  44.088  1.00  0.00     0.211 HD
ENDBRANCH   4  37
TORSDOF 13
ENDMDL
MODEL 7
REMARK VINA RESULT:    -4.486      3.669      6.551
REMARK INTER + INTRA:          -8.565
REMARK INTER:                  -6.380
REMARK INTRA:                  -2.186
REMARK UNBOUND:                -1.456
REMARK SMILES COc1ccc(C(C)=O)c(O[C@@H]2O[C@@H](CO[C@@H]3OC[C@@H](O)[C@H](O)[C@@H]3O)[C@@H](O)[C@@H](O)[C@H]2O)c1
REMARK SMILES IDX 12 1 30 2 28 3 26 4 14 5 13 6 11 7 10 8 6 9 5 10 32 11 4 12
REMARK SMILES IDX 3 13 7 14 8 15 9 16 2 17 1 18 31 19 29 21 15 23 16 24 17 25
REMARK SMILES IDX 24 26 18 27 22 28 19 29 20 30 25 31 23 33 21 35 27 37
REMARK H PARENT 31 20 29 22 25 32 23 34 21 36 27 38
REMARK Flexibility Score: inf
ROOT
ATOM      1  C   UNL     1      19.496  35.484  44.572  1.00  0.00     0.339 C 
ATOM      2  C   UNL     1      20.594  36.373  45.194  1.00  0.00     0.214 C 
ATOM      3  C   UNL     1      21.779  35.507  45.751  1.00  0.00     0.180 C 
ATOM      4  C   UNL     1      22.221  34.417  44.721  1.00  0.00     0.177 C 
ATOM      5  C   UNL     1      20.958  33.654  44.344  1.00  0.00     0.180 C 
ATOM      6  O   UNL     1      20.008  34.463  43.675  1.00  0.00    -0.332 OA
ENDROOT
BRANCH   1   7
ATOM      7  O   UNL     1      18.590  34.930  45.594  1.00  0.00    -0.461 OA
BRANCH   7   8
ATOM      8  C   UNL     1      17.234  34.667  45.334  1.00  0.00     0.137 A 
ATOM      9  C   UNL     1      16.781  34.284  44.041  1.00  0.00     0.060 A 
ATOM     10  C   UNL     1      15.484  34.666  43.663  1.00  0.00     0.019 A 
ATOM     11  C   UNL     1      16.301  34.699  46.344  1.00  0.00     0.093 A 
ATOM     12  C   UNL     1      14.540  34.662  44.678  1.00  0.00     0.047 A 
ATOM     13  C   UNL     1      14.923  34.632  46.023  1.00  0.00     0.122 A 
BRANCH   9  14
ATOM     14  C   UNL     1      17.018  32.907  43.557  1.00  0.00     0.163 C 
ATOM     15  C   UNL     1      16.342  32.403  42.324  1.00  0.00     0.093 C 
ATOM     16  O   UNL     1      17.442  32.047  44.366  1.00  0.00    -0.294 OA
ENDBRANCH   9  14
BRANCH  13  17
ATOM     17  O   UNL     1      13.916  34.514  47.004  1.00  0.00    -0.497 OA
ATOM     18  C   UNL     1      12.676  35.239  46.978  1.00  0.00     0.278 C 
ENDBRANCH  13  17
ENDBRANCH   7   8
ENDBRANCH   1   7
BRANCH   2  19
ATOM     19  O   UNL     1      21.056  37.264  44.236  1.00  0.00    -0.384 OA
ATOM     20  H   UNL     1      21.511  37.969  44.729  1.00  0.00     0.211 HD
ENDBRANCH   2  19
BRANCH   3  21
ATOM     21  O   UNL     1      22.849  36.277  46.212  1.00  0.00    -0.387 OA
ATOM     22  H   UNL     1      23.184  35.842  47.046  1.00  0.00     0.211 HD
ENDBRANCH   3  21
BRANCH   5  23
ATOM     23  C   UNL     1      21.207  32.420  43.519  1.00  0.00     0.198 C 
BRANCH  23  24
ATOM     24  O   UNL     1      20.299  32.437  42.405  1.00  0.00    -0.347 OA
BRANCH  24  25
ATOM     25  C   UNL     1      20.948  32.443  41.155  1.00  0.00     0.281 C 
ATOM     26  C   UNL     1      20.685  33.716  40.312  1.00  0.00     0.202 C 
ATOM     27  O   UNL     1      22.325  32.256  41.387  1.00  0.00    -0.347 OA
ATOM     28  C   UNL     1      21.471  33.657  39.013  1.00  0.00     0.179 C 
ATOM     29  C   UNL     1      23.090  32.108  40.205  1.00  0.00     0.198 C 
ATOM     30  C   UNL     1      22.972  33.345  39.301  1.00  0.00     0.171 C 
BRANCH  26  31
ATOM     31  O   UNL     1      21.090  34.947  40.943  1.00  0.00    -0.385 OA
ATOM     32  H   UNL     1      20.331  35.570  40.965  1.00  0.00     0.211 HD
ENDBRANCH  26  31
BRANCH  28  33
ATOM     33  O   UNL     1      21.375  34.861  38.298  1.00  0.00    -0.387 OA
ATOM     34  H   UNL     1      21.538  34.665  37.339  1.00  0.00     0.211 HD
ENDBRANCH  28  33
BRANCH  30  35
ATOM     35  O   UNL     1      23.730  33.150  38.149  1.00  0.00    -0.388 OA
ATOM     36  H   UNL     1      24.457  32.525  38.311  1.00  0.00     0.211 HD
ENDBRANCH  30  35
ENDBRANCH  24  25
ENDBRANCH  23  24
ENDBRANCH   5  23
BRANCH   4  37
ATOM     37  O   UNL     1      22.666  35.051  43.537  1.00  0.00    -0.387 OA
ATOM     38  H   UNL     1      23.493  34.595  43.235  1.00  0.00     0.211 HD
ENDBRANCH   4  37
TORSDOF 13
ENDMDL
MODEL 8
REMARK VINA RESULT:    -4.375      2.949      7.029
REMARK INTER + INTRA:          -8.389
REMARK INTER:                  -6.205
REMARK INTRA:                  -2.184
REMARK UNBOUND:                -1.456
REMARK SMILES COc1ccc(C(C)=O)c(O[C@@H]2O[C@@H](CO[C@@H]3OC[C@@H](O)[C@H](O)[C@@H]3O)[C@@H](O)[C@@H](O)[C@H]2O)c1
REMARK SMILES IDX 12 1 30 2 28 3 26 4 14 5 13 6 11 7 10 8 6 9 5 10 32 11 4 12
REMARK SMILES IDX 3 13 7 14 8 15 9 16 2 17 1 18 31 19 29 21 15 23 16 24 17 25
REMARK SMILES IDX 24 26 18 27 22 28 19 29 20 30 25 31 23 33 21 35 27 37
REMARK H PARENT 31 20 29 22 25 32 23 34 21 36 27 38
REMARK Flexibility Score: inf
ROOT
ATOM      1  C   UNL     1      18.488  36.018  45.432  1.00  0.00     0.339 C 
ATOM      2  C   UNL     1      19.482  37.128  45.833  1.00  0.00     0.214 C 
ATOM      3  C   UNL     1      20.876  36.527  46.233  1.00  0.00     0.180 C 
ATOM      4  C   UNL     1      21.355  35.460  45.195  1.00  0.00     0.177 C 
ATOM      5  C   UNL     1      20.213  34.462  45.056  1.00  0.00     0.180 C 
ATOM      6  O   UNL     1      19.042  35.041  44.512  1.00  0.00    -0.332 OA
ENDROOT
BRANCH   1   7
ATOM      7  O   UNL     1      17.861  35.387  46.609  1.00  0.00    -0.461 OA
BRANCH   7   8
ATOM      8  C   UNL     1      16.993  34.288  46.499  1.00  0.00     0.137 A 
ATOM      9  C   UNL     1      15.654  34.434  46.042  1.00  0.00     0.060 A 
ATOM     10  C   UNL     1      14.690  33.548  46.547  1.00  0.00     0.019 A 
ATOM     11  C   UNL     1      17.433  33.012  46.762  1.00  0.00     0.093 A 
ATOM     12  C   UNL     1      15.129  32.253  46.777  1.00  0.00     0.047 A 
ATOM     13  C   UNL     1      16.494  31.954  46.843  1.00  0.00     0.122 A 
BRANCH   9  14
ATOM     14  C   UNL     1      15.387  34.636  44.601  1.00  0.00     0.163 C 
ATOM     15  C   UNL     1      14.028  35.030  44.123  1.00  0.00     0.093 C 
ATOM     16  O   UNL     1      16.151  34.097  43.765  1.00  0.00    -0.294 OA
ENDBRANCH   9  14
BRANCH  13  17
ATOM     17  O   UNL     1      16.878  30.601  46.965  1.00  0.00    -0.497 OA
ATOM     18  C   UNL     1      18.166  30.091  46.580  1.00  0.00     0.278 C 
ENDBRANCH  13  17
ENDBRANCH   7   8
ENDBRANCH   1   7
BRANCH   2  19
ATOM     19  O   UNL     1      19.625  38.015  44.777  1.00  0.00    -0.384 OA
ATOM     20  H   UNL     1      19.847  37.469  44.001  1.00  0.00     0.211 HD
ENDBRANCH   2  19
BRANCH   3  21
ATOM     21  O   UNL     1      21.841  37.503  46.485  1.00  0.00    -0.387 OA
ATOM     22  H   UNL     1      21.391  38.235  46.994  1.00  0.00     0.211 HD
ENDBRANCH   3  21
BRANCH   5  23
ATOM     23  C   UNL     1      20.561  33.235  44.257  1.00  0.00     0.198 C 
BRANCH  23  24
ATOM     24  O   UNL     1      19.448  32.928  43.401  1.00  0.00    -0.347 OA
BRANCH  24  25
ATOM     25  C   UNL     1      19.733  33.093  42.032  1.00  0.00     0.281 C 
ATOM     26  C   UNL     1      18.584  33.744  41.222  1.00  0.00     0.202 C 
ATOM     27  O   UNL     1      20.922  33.843  41.930  1.00  0.00    -0.347 OA
ATOM     28  C   UNL     1      19.006  33.934  39.773  1.00  0.00     0.179 C 
ATOM     29  C   UNL     1      21.403  33.974  40.605  1.00  0.00     0.198 C 
ATOM     30  C   UNL     1      20.377  34.674  39.701  1.00  0.00     0.171 C 
BRANCH  26  31
ATOM     31  O   UNL     1      18.196  35.055  41.677  1.00  0.00    -0.385 OA
ATOM     32  H   UNL     1      17.248  35.046  41.935  1.00  0.00     0.211 HD
ENDBRANCH  26  31
BRANCH  28  33
ATOM     33  O   UNL     1      18.046  34.659  39.050  1.00  0.00    -0.387 OA
ATOM     34  H   UNL     1      18.376  34.764  38.120  1.00  0.00     0.211 HD
ENDBRANCH  28  33
BRANCH  30  35
ATOM     35  O   UNL     1      20.888  34.771  38.409  1.00  0.00    -0.388 OA
ATOM     36  H   UNL     1      21.587  34.112  38.260  1.00  0.00     0.211 HD
ENDBRANCH  30  35
ENDBRANCH  24  25
ENDBRANCH  23  24
ENDBRANCH   5  23
BRANCH   4  37
ATOM     37  O   UNL     1      21.494  36.076  43.928  1.00  0.00    -0.387 OA
ATOM     38  H   UNL     1      22.118  35.527  43.386  1.00  0.00     0.211 HD
ENDBRANCH   4  37
TORSDOF 13
ENDMDL
MODEL 9
REMARK VINA RESULT:    -4.308      2.415      5.792
REMARK INTER + INTRA:          -8.283
REMARK INTER:                  -6.433
REMARK INTRA:                  -1.850
REMARK UNBOUND:                -1.456
REMARK SMILES COc1ccc(C(C)=O)c(O[C@@H]2O[C@@H](CO[C@@H]3OC[C@@H](O)[C@H](O)[C@@H]3O)[C@@H](O)[C@@H](O)[C@H]2O)c1
REMARK SMILES IDX 12 1 30 2 28 3 26 4 14 5 13 6 11 7 10 8 6 9 5 10 32 11 4 12
REMARK SMILES IDX 3 13 7 14 8 15 9 16 2 17 1 18 31 19 29 21 15 23 16 24 17 25
REMARK SMILES IDX 24 26 18 27 22 28 19 29 20 30 25 31 23 33 21 35 27 37
REMARK H PARENT 31 20 29 22 25 32 23 34 21 36 27 38
REMARK Flexibility Score: inf
ROOT
ATOM      1  C   UNL     1      19.117  34.247  40.130  1.00  0.00     0.339 C 
ATOM      2  C   UNL     1      17.788  34.362  39.354  1.00  0.00     0.214 C 
ATOM      3  C   UNL     1      16.616  33.659  40.127  1.00  0.00     0.180 C 
ATOM      4  C   UNL     1      16.613  34.054  41.639  1.00  0.00     0.177 C 
ATOM      5  C   UNL     1      18.018  33.768  42.155  1.00  0.00     0.180 C 
ATOM      6  O   UNL     1      19.003  34.577  41.539  1.00  0.00    -0.332 OA
ENDROOT
BRANCH   1   7
ATOM      7  O   UNL     1      19.774  32.946  39.909  1.00  0.00    -0.461 OA
BRANCH   7   8
ATOM      8  C   UNL     1      21.164  32.824  39.741  1.00  0.00     0.137 A 
ATOM      9  C   UNL     1      21.765  32.829  38.452  1.00  0.00     0.060 A 
ATOM     10  C   UNL     1      22.942  32.085  38.277  1.00  0.00     0.019 A 
ATOM     11  C   UNL     1      22.005  32.770  40.828  1.00  0.00     0.093 A 
ATOM     12  C   UNL     1      23.803  32.062  39.363  1.00  0.00     0.047 A 
ATOM     13  C   UNL     1      23.371  32.444  40.637  1.00  0.00     0.122 A 
BRANCH   9  14
ATOM     14  C   UNL     1      21.907  34.102  37.712  1.00  0.00     0.163 C 
ATOM     15  C   UNL     1      20.767  34.661  36.926  1.00  0.00     0.093 C 
ATOM     16  O   UNL     1      23.058  34.495  37.404  1.00  0.00    -0.294 OA
ENDBRANCH   9  14
BRANCH  13  17
ATOM     17  O   UNL     1      24.323  32.509  41.677  1.00  0.00    -0.497 OA
ATOM     18  C   UNL     1      25.745  32.475  41.471  1.00  0.00     0.278 C 
ENDBRANCH  13  17
ENDBRANCH   7   8
ENDBRANCH   1   7
BRANCH   2  19
ATOM     19  O   UNL     1      17.494  35.702  39.149  1.00  0.00    -0.384 OA
ATOM     20  H   UNL     1      16.932  35.730  38.354  1.00  0.00     0.211 HD
ENDBRANCH   2  19
BRANCH   3  21
ATOM     21  O   UNL     1      15.372  33.844  39.520  1.00  0.00    -0.387 OA
ATOM     22  H   UNL     1      14.993  34.694  39.884  1.00  0.00     0.211 HD
ENDBRANCH   3  21
BRANCH   5  23
ATOM     23  C   UNL     1      18.162  33.884  43.648  1.00  0.00     0.198 C 
BRANCH  23  24
ATOM     24  O   UNL     1      18.284  35.278  43.978  1.00  0.00    -0.347 OA
BRANCH  24  25
ATOM     25  C   UNL     1      19.267  35.537  44.952  1.00  0.00     0.281 C 
ATOM     26  C   UNL     1      20.691  35.077  44.550  1.00  0.00     0.202 C 
ATOM     27  O   UNL     1      19.234  36.917  45.236  1.00  0.00    -0.347 OA
ATOM     28  C   UNL     1      21.689  35.452  45.634  1.00  0.00     0.179 C 
ATOM     29  C   UNL     1      20.085  37.302  46.300  1.00  0.00     0.198 C 
ATOM     30  C   UNL     1      21.552  36.963  45.998  1.00  0.00     0.171 C 
BRANCH  26  31
ATOM     31  O   UNL     1      21.199  35.682  43.344  1.00  0.00    -0.385 OA
ATOM     32  H   UNL     1      20.676  35.369  42.574  1.00  0.00     0.211 HD
ENDBRANCH  26  31
BRANCH  28  33
ATOM     33  O   UNL     1      23.007  35.187  45.233  1.00  0.00    -0.387 OA
ATOM     34  H   UNL     1      23.183  34.220  45.370  1.00  0.00     0.211 HD
ENDBRANCH  28  33
BRANCH  30  35
ATOM     35  O   UNL     1      22.348  37.349  47.074  1.00  0.00    -0.388 OA
ATOM     36  H   UNL     1      23.047  36.695  47.242  1.00  0.00     0.211 HD
ENDBRANCH  30  35
ENDBRANCH  24  25
ENDBRANCH  23  24
ENDBRANCH   5  23
BRANCH   4  37
ATOM     37  O   UNL     1      16.431  35.453  41.753  1.00  0.00    -0.387 OA
ATOM     38  H   UNL     1      16.150  35.799  40.867  1.00  0.00     0.211 HD
ENDBRANCH   4  37
TORSDOF 13
ENDMDL
