MODEL 1
REMARK VINA RESULT:    32.806      0.000      0.000
REMARK INTER + INTRA:          54.308
REMARK INTER:                  53.902
REMARK INTRA:                   0.406
REMARK UNBOUND:                 0.406
REMARK SMILES COc1ccc([C@H]2CC(=O)c3c(O)cc(O[C@H]4O[C@@H](CO[C@H]5O[C@H](C)[C@H](O)[C@@H](O)[C@H]5O)[C@H](O)[C@H](O)[C@@H]4O)cc3O2)cc1O
REMARK SMILES IDX 19 1 32 2 34 3 36 4 17 5 18 6 20 7 21 8 22 9 25 10 24 11
REMARK SMILES IDX 26 12 23 13 28 14 30 15 27 16 29 18 31 20 33 22 35 24 16 26
REMARK SMILES IDX 15 27 14 28 38 29 12 30 39 31 11 32 40 33 9 34 7 35 10 36
REMARK SMILES IDX 8 37 13 38 6 40 41 41 5 42 42 43 4 44 3 45 43 46 2 48 1 49
REMARK SMILES IDX 37 50
REMARK H PARENT 27 17 29 19 31 21 33 23 35 25 13 39 43 47 37 51
REMARK Flexibility Score: inf
ROOT
ATOM      1  C   UNL     1      12.987  20.752   2.625  1.00  0.00     0.180 C 
ATOM      2  C   UNL     1      12.868  19.449   3.528  1.00  0.00     0.177 C 
ATOM      3  C   UNL     1      13.444  19.970   5.006  1.00  0.00     0.180 C 
ATOM      4  C   UNL     1      12.512  21.167   5.401  1.00  0.00     0.214 C 
ATOM      5  C   UNL     1      12.962  22.382   4.468  1.00  0.00     0.339 C 
ATOM      6  O   UNL     1      13.600  21.906   3.236  1.00  0.00    -0.332 OA
ENDROOT
BRANCH   1   7
ATOM      7  C   UNL     1      13.568  20.684   1.149  1.00  0.00     0.198 C 
BRANCH   7   8
ATOM      8  O   UNL     1      14.689  21.542   0.847  1.00  0.00    -0.347 OA
BRANCH   8   9
ATOM      9  C   UNL     1      14.938  21.715  -0.527  1.00  0.00     0.281 C 
ATOM     10  C   UNL     1      12.704  20.319  -3.360  1.00  0.00     0.041 C 
ATOM     11  C   UNL     1      13.002  21.333  -2.143  1.00  0.00     0.150 C 
ATOM     12  C   UNL     1      13.096  22.848  -2.759  1.00  0.00     0.174 C 
ATOM     13  O   UNL     1      14.145  20.800  -1.348  1.00  0.00    -0.344 OA
ATOM     14  C   UNL     1      13.819  23.841  -1.817  1.00  0.00     0.179 C 
ATOM     15  C   UNL     1      15.094  23.195  -1.230  1.00  0.00     0.202 C 
BRANCH  12  16
ATOM     16  O   UNL     1      13.681  22.830  -4.060  1.00  0.00    -0.388 OA
ATOM     17  H   UNL     1      14.599  22.442  -3.897  1.00  0.00     0.211 HD
ENDBRANCH  12  16
BRANCH  14  18
ATOM     18  O   UNL     1      12.992  24.581  -0.892  1.00  0.00    -0.387 OA
ATOM     19  H   UNL     1      13.370  25.497  -0.693  1.00  0.00     0.211 HD
ENDBRANCH  14  18
BRANCH  15  20
ATOM     20  O   UNL     1      15.784  24.141  -0.449  1.00  0.00    -0.385 OA
ATOM     21  H   UNL     1      15.026  24.652   0.101  1.00  0.00     0.211 HD
ENDBRANCH  15  20
ENDBRANCH   8   9
ENDBRANCH   7   8
ENDBRANCH   1   7
BRANCH   2  22
ATOM     22  O   UNL     1      11.471  18.966   3.492  1.00  0.00    -0.387 OA
ATOM     23  H   UNL     1      11.341  17.987   3.904  1.00  0.00     0.211 HD
ENDBRANCH   2  22
BRANCH   3  24
ATOM     24  O   UNL     1      13.924  19.046   6.024  1.00  0.00    -0.387 OA
ATOM     25  H   UNL     1      13.245  18.532   6.629  1.00  0.00     0.211 HD
ENDBRANCH   3  24
BRANCH   5  26
ATOM     26  O   UNL     1      13.823  23.110   5.312  1.00  0.00    -0.462 OA
BRANCH  26  27
ATOM     27  C   UNL     1      14.438  22.671   6.477  1.00  0.00     0.130 A 
ATOM     28  C   UNL     1      13.640  22.352   7.604  1.00  0.00     0.093 A 
ATOM     29  C   UNL     1      15.801  22.526   6.446  1.00  0.00     0.094 A 
ATOM     30  C   UNL     1      14.256  21.690   8.734  1.00  0.00     0.133 A 
ATOM     31  C   UNL     1      16.432  22.009   7.638  1.00  0.00     0.138 A 
ATOM     32  C   UNL     1      15.698  21.757   8.826  1.00  0.00     0.102 A 
ATOM     33  O   UNL     1      17.892  22.053   7.701  1.00  0.00    -0.484 OA
ATOM     34  C   UNL     1      16.468  21.259  10.038  1.00  0.00     0.174 C 
ATOM     35  C   UNL     1      18.715  21.456   8.726  1.00  0.00     0.211 C 
ATOM     36  O   UNL     1      16.344  22.041  11.016  1.00  0.00    -0.294 OA
ATOM     37  C   UNL     1      17.873  20.625   9.746  1.00  0.00     0.131 C 
BRANCH  30  38
ATOM     38  O   UNL     1      13.455  20.916   9.603  1.00  0.00    -0.507 OA
ATOM     39  H   UNL     1      12.919  21.418  10.353  1.00  0.00     0.293 HD
ENDBRANCH  30  38
BRANCH  35  40
ATOM     40  C   UNL     1      19.824  22.435   9.173  1.00  0.00    -0.003 A 
ATOM     41  C   UNL     1      20.408  22.238  10.396  1.00  0.00     0.057 A 
ATOM     42  C   UNL     1      19.937  23.741   8.638  1.00  0.00     0.011 A 
ATOM     43  C   UNL     1      20.773  23.310  11.233  1.00  0.00     0.158 A 
ATOM     44  C   UNL     1      20.494  24.792   9.344  1.00  0.00     0.051 A 
ATOM     45  C   UNL     1      20.728  24.635  10.730  1.00  0.00     0.160 A 
BRANCH  43  46
ATOM     46  O   UNL     1      21.117  23.030  12.523  1.00  0.00    -0.504 OA
ATOM     47  H   UNL     1      21.880  22.437  12.765  1.00  0.00     0.293 HD
ENDBRANCH  43  46
BRANCH  45  48
ATOM     48  O   UNL     1      21.019  25.724  11.539  1.00  0.00    -0.493 OA
ATOM     49  C   UNL     1      20.995  25.711  12.990  1.00  0.00     0.278 C 
ENDBRANCH  45  48
ENDBRANCH  35  40
ENDBRANCH  26  27
ENDBRANCH   5  26
BRANCH   4  50
ATOM     50  O   UNL     1      11.122  20.842   5.222  1.00  0.00    -0.384 OA
ATOM     51  H   UNL     1      10.966  20.464   4.303  1.00  0.00     0.211 HD
ENDBRANCH   4  50
TORSDOF 15
ENDMDL
MODEL 2
REMARK VINA RESULT:    32.934      0.870      1.793
REMARK INTER + INTRA:          54.518
REMARK INTER:                  54.317
REMARK INTRA:                   0.201
REMARK UNBOUND:                 0.406
REMARK SMILES COc1ccc([C@H]2CC(=O)c3c(O)cc(O[C@H]4O[C@@H](CO[C@H]5O[C@H](C)[C@H](O)[C@@H](O)[C@H]5O)[C@H](O)[C@H](O)[C@@H]4O)cc3O2)cc1O
REMARK SMILES IDX 19 1 32 2 34 3 36 4 17 5 18 6 20 7 21 8 22 9 25 10 24 11
REMARK SMILES IDX 26 12 23 13 28 14 30 15 27 16 29 18 31 20 33 22 35 24 16 26
REMARK SMILES IDX 15 27 14 28 38 29 12 30 39 31 11 32 40 33 9 34 7 35 10 36
REMARK SMILES IDX 8 37 13 38 6 40 41 41 5 42 42 43 4 44 3 45 43 46 2 48 1 49
REMARK SMILES IDX 37 50
REMARK H PARENT 27 17 29 19 31 21 33 23 35 25 13 39 43 47 37 51
REMARK Flexibility Score: inf
ROOT
ATOM      1  C   UNL     1      13.045  20.738   2.658  1.00  0.00     0.180 C 
ATOM      2  C   UNL     1      12.877  19.445   3.567  1.00  0.00     0.177 C 
ATOM      3  C   UNL     1      13.413  19.971   5.059  1.00  0.00     0.180 C 
ATOM      4  C   UNL     1      12.485  21.184   5.413  1.00  0.00     0.214 C 
ATOM      5  C   UNL     1      12.984  22.384   4.484  1.00  0.00     0.339 C 
ATOM      6  O   UNL     1      13.655  21.888   3.278  1.00  0.00    -0.332 OA
ENDROOT
BRANCH   1   7
ATOM      7  C   UNL     1      13.673  20.648   1.202  1.00  0.00     0.198 C 
BRANCH   7   8
ATOM      8  O   UNL     1      12.769  20.356   0.116  1.00  0.00    -0.347 OA
BRANCH   8   9
ATOM      9  C   UNL     1      12.518  21.441  -0.744  1.00  0.00     0.281 C 
ATOM     10  C   UNL     1      14.582  24.712  -0.815  1.00  0.00     0.041 C 
ATOM     11  C   UNL     1      14.391  23.136  -1.094  1.00  0.00     0.150 C 
ATOM     12  C   UNL     1      14.425  22.902  -2.715  1.00  0.00     0.174 C 
ATOM     13  O   UNL     1      13.216  22.653  -0.314  1.00  0.00    -0.344 OA
ATOM     14  C   UNL     1      13.806  21.551  -3.145  1.00  0.00     0.179 C 
ATOM     15  C   UNL     1      12.486  21.296  -2.383  1.00  0.00     0.202 C 
BRANCH  12  16
ATOM     16  O   UNL     1      13.824  24.001  -3.397  1.00  0.00    -0.388 OA
ATOM     17  H   UNL     1      13.924  24.765  -2.744  1.00  0.00     0.211 HD
ENDBRANCH  12  16
BRANCH  14  18
ATOM     18  O   UNL     1      14.708  20.427  -3.257  1.00  0.00    -0.387 OA
ATOM     19  H   UNL     1      15.586  20.596  -2.786  1.00  0.00     0.211 HD
ENDBRANCH  14  18
BRANCH  15  20
ATOM     20  O   UNL     1      11.893  20.108  -2.852  1.00  0.00    -0.385 OA
ATOM     21  H   UNL     1      12.703  19.424  -2.973  1.00  0.00     0.211 HD
ENDBRANCH  15  20
ENDBRANCH   8   9
ENDBRANCH   7   8
ENDBRANCH   1   7
BRANCH   2  22
ATOM     22  O   UNL     1      11.476  18.981   3.489  1.00  0.00    -0.387 OA
ATOM     23  H   UNL     1      10.993  18.901   4.441  1.00  0.00     0.211 HD
ENDBRANCH   2  22
BRANCH   3  24
ATOM     24  O   UNL     1      13.845  19.049   6.100  1.00  0.00    -0.387 OA
ATOM     25  H   UNL     1      14.110  18.068   5.857  1.00  0.00     0.211 HD
ENDBRANCH   3  24
BRANCH   5  26
ATOM     26  O   UNL     1      13.827  23.107   5.350  1.00  0.00    -0.462 OA
BRANCH  26  27
ATOM     27  C   UNL     1      14.439  22.654   6.511  1.00  0.00     0.130 A 
ATOM     28  C   UNL     1      13.637  22.307   7.627  1.00  0.00     0.093 A 
ATOM     29  C   UNL     1      15.804  22.523   6.487  1.00  0.00     0.094 A 
ATOM     30  C   UNL     1      14.253  21.631   8.749  1.00  0.00     0.133 A 
ATOM     31  C   UNL     1      16.432  21.992   7.673  1.00  0.00     0.138 A 
ATOM     32  C   UNL     1      15.693  21.711   8.852  1.00  0.00     0.102 A 
ATOM     33  O   UNL     1      17.891  22.050   7.747  1.00  0.00    -0.484 OA
ATOM     34  C   UNL     1      16.460  21.199  10.060  1.00  0.00     0.174 C 
ATOM     35  C   UNL     1      18.713  21.442   8.767  1.00  0.00     0.211 C 
ATOM     36  O   UNL     1      16.321  21.963  11.051  1.00  0.00    -0.294 OA
ATOM     37  C   UNL     1      17.873  20.585   9.766  1.00  0.00     0.131 C 
BRANCH  30  38
ATOM     38  O   UNL     1      13.453  20.833   9.599  1.00  0.00    -0.507 OA
ATOM     39  H   UNL     1      13.472  19.793   9.455  1.00  0.00     0.293 HD
ENDBRANCH  30  38
BRANCH  35  40
ATOM     40  C   UNL     1      19.809  22.424   9.238  1.00  0.00    -0.003 A 
ATOM     41  C   UNL     1      20.409  22.194  10.448  1.00  0.00     0.057 A 
ATOM     42  C   UNL     1      19.894  23.750   8.750  1.00  0.00     0.011 A 
ATOM     43  C   UNL     1      20.763  23.241  11.320  1.00  0.00     0.158 A 
ATOM     44  C   UNL     1      20.440  24.785   9.488  1.00  0.00     0.051 A 
ATOM     45  C   UNL     1      20.690  24.583  10.866  1.00  0.00     0.160 A 
BRANCH  43  46
ATOM     46  O   UNL     1      21.125  22.922  12.596  1.00  0.00    -0.504 OA
ATOM     47  H   UNL     1      21.904  22.339  12.810  1.00  0.00     0.293 HD
ENDBRANCH  43  46
BRANCH  45  48
ATOM     48  O   UNL     1      20.970  25.647  11.711  1.00  0.00    -0.493 OA
ATOM     49  C   UNL     1      20.616  25.707  13.116  1.00  0.00     0.278 C 
ENDBRANCH  45  48
ENDBRANCH  35  40
ENDBRANCH  26  27
ENDBRANCH   5  26
BRANCH   4  50
ATOM     50  O   UNL     1      11.098  20.877   5.190  1.00  0.00    -0.384 OA
ATOM     51  H   UNL     1      10.712  21.486   4.489  1.00  0.00     0.211 HD
ENDBRANCH   4  50
TORSDOF 15
ENDMDL
MODEL 3
REMARK VINA RESULT:    33.382      2.788     11.926
REMARK INTER + INTRA:          55.254
REMARK INTER:                  56.496
REMARK INTRA:                  -1.242
REMARK UNBOUND:                 0.406
REMARK SMILES COc1ccc([C@H]2CC(=O)c3c(O)cc(O[C@H]4O[C@@H](CO[C@H]5O[C@H](C)[C@H](O)[C@@H](O)[C@H]5O)[C@H](O)[C@H](O)[C@@H]4O)cc3O2)cc1O
REMARK SMILES IDX 19 1 32 2 34 3 36 4 17 5 18 6 20 7 21 8 22 9 25 10 24 11
REMARK SMILES IDX 26 12 23 13 28 14 30 15 27 16 29 18 31 20 33 22 35 24 16 26
REMARK SMILES IDX 15 27 14 28 38 29 12 30 39 31 11 32 40 33 9 34 7 35 10 36
REMARK SMILES IDX 8 37 13 38 6 40 41 41 5 42 42 43 4 44 3 45 43 46 2 48 1 49
REMARK SMILES IDX 37 50
REMARK H PARENT 27 17 29 19 31 21 33 23 35 25 13 39 43 47 37 51
REMARK Flexibility Score: inf
ROOT
ATOM      1  C   UNL     1      18.451  26.128   7.982  1.00  0.00     0.180 C 
ATOM      2  C   UNL     1      17.809  27.583   7.981  1.00  0.00     0.177 C 
ATOM      3  C   UNL     1      17.123  27.682   6.462  1.00  0.00     0.180 C 
ATOM      4  C   UNL     1      16.113  26.485   6.399  1.00  0.00     0.214 C 
ATOM      5  C   UNL     1      17.014  25.178   6.228  1.00  0.00     0.339 C 
ATOM      6  O   UNL     1      18.369  25.386   6.749  1.00  0.00    -0.332 OA
ENDROOT
BRANCH   1   7
ATOM      7  C   UNL     1      19.914  25.873   8.544  1.00  0.00     0.198 C 
BRANCH   7   8
ATOM      8  O   UNL     1      20.359  24.501   8.610  1.00  0.00    -0.347 OA
BRANCH   8   9
ATOM      9  C   UNL     1      21.045  24.165   9.791  1.00  0.00     0.281 C 
ATOM     10  C   UNL     1      20.916  26.216  13.069  1.00  0.00     0.041 C 
ATOM     11  C   UNL     1      20.260  25.239  11.967  1.00  0.00     0.150 C 
ATOM     12  C   UNL     1      19.969  23.795  12.683  1.00  0.00     0.174 C 
ATOM     13  O   UNL     1      21.095  25.283  10.733  1.00  0.00    -0.344 OA
ATOM     14  C   UNL     1      19.781  22.642  11.667  1.00  0.00     0.179 C 
ATOM     15  C   UNL     1      20.854  22.721  10.558  1.00  0.00     0.202 C 
BRANCH  12  16
ATOM     16  O   UNL     1      20.979  23.493  13.644  1.00  0.00    -0.388 OA
ATOM     17  H   UNL     1      21.563  24.316  13.634  1.00  0.00     0.211 HD
ENDBRANCH  12  16
BRANCH  14  18
ATOM     18  O   UNL     1      18.430  22.370  11.232  1.00  0.00    -0.387 OA
ATOM     19  H   UNL     1      18.212  21.384  11.261  1.00  0.00     0.211 HD
ENDBRANCH  14  18
BRANCH  15  20
ATOM     20  O   UNL     1      20.723  21.616   9.695  1.00  0.00    -0.385 OA
ATOM     21  H   UNL     1      20.086  20.935  10.214  1.00  0.00     0.211 HD
ENDBRANCH  15  20
ENDBRANCH   8   9
ENDBRANCH   7   8
ENDBRANCH   1   7
BRANCH   2  22
ATOM     22  O   UNL     1      16.891  27.704   9.134  1.00  0.00    -0.387 OA
ATOM     23  H   UNL     1      15.855  27.703   8.865  1.00  0.00     0.211 HD
ENDBRANCH   2  22
BRANCH   3  24
ATOM     24  O   UNL     1      16.792  28.956   5.839  1.00  0.00    -0.387 OA
ATOM     25  H   UNL     1      17.069  29.145   4.849  1.00  0.00     0.211 HD
ENDBRANCH   3  24
BRANCH   5  26
ATOM     26  O   UNL     1      16.965  24.956   4.838  1.00  0.00    -0.462 OA
BRANCH  26  27
ATOM     27  C   UNL     1      15.989  24.274   4.122  1.00  0.00     0.130 A 
ATOM     28  C   UNL     1      15.188  23.312   4.787  1.00  0.00     0.093 A 
ATOM     29  C   UNL     1      15.828  24.616   2.804  1.00  0.00     0.094 A 
ATOM     30  C   UNL     1      14.034  22.767   4.102  1.00  0.00     0.133 A 
ATOM     31  C   UNL     1      14.771  23.952   2.079  1.00  0.00     0.138 A 
ATOM     32  C   UNL     1      13.995  22.917   2.664  1.00  0.00     0.102 A 
ATOM     33  O   UNL     1      14.725  24.140   0.630  1.00  0.00    -0.484 OA
ATOM     34  C   UNL     1      12.939  22.252   1.798  1.00  0.00     0.174 C 
ATOM     35  C   UNL     1      13.672  23.693  -0.251  1.00  0.00     0.211 C 
ATOM     36  O   UNL     1      13.145  21.015   1.689  1.00  0.00    -0.294 OA
ATOM     37  C   UNL     1      12.480  23.059   0.534  1.00  0.00     0.131 C 
BRANCH  30  38
ATOM     38  O   UNL     1      12.963  22.245   4.861  1.00  0.00    -0.507 OA
ATOM     39  H   UNL     1      11.987  22.498   4.569  1.00  0.00     0.293 HD
ENDBRANCH  30  38
BRANCH  35  40
ATOM     40  C   UNL     1      14.265  23.042  -1.520  1.00  0.00    -0.003 A 
ATOM     41  C   UNL     1      13.409  22.696  -2.532  1.00  0.00     0.057 A 
ATOM     42  C   UNL     1      15.513  22.374  -1.513  1.00  0.00     0.011 A 
ATOM     43  C   UNL     1      13.580  21.521  -3.289  1.00  0.00     0.158 A 
ATOM     44  C   UNL     1      15.818  21.349  -2.391  1.00  0.00     0.051 A 
ATOM     45  C   UNL     1      14.776  20.770  -3.152  1.00  0.00     0.160 A 
BRANCH  43  46
ATOM     46  O   UNL     1      12.559  21.125  -4.102  1.00  0.00    -0.504 OA
ATOM     47  H   UNL     1      11.941  20.379  -3.872  1.00  0.00     0.293 HD
ENDBRANCH  43  46
BRANCH  45  48
ATOM     48  O   UNL     1      14.959  19.575  -3.832  1.00  0.00    -0.493 OA
ATOM     49  C   UNL     1      16.223  18.875  -3.957  1.00  0.00     0.278 C 
ENDBRANCH  45  48
ENDBRANCH  35  40
ENDBRANCH  26  27
ENDBRANCH   5  26
BRANCH   4  50
ATOM     50  O   UNL     1      15.292  26.418   7.578  1.00  0.00    -0.384 OA
ATOM     51  H   UNL     1      14.319  26.451   7.331  1.00  0.00     0.211 HD
ENDBRANCH   4  50
TORSDOF 15
ENDMDL
MODEL 4
REMARK VINA RESULT:    34.694      1.851     11.884
REMARK INTER + INTRA:          57.409
REMARK INTER:                  55.635
REMARK INTRA:                   1.775
REMARK UNBOUND:                 0.406
REMARK SMILES COc1ccc([C@H]2CC(=O)c3c(O)cc(O[C@H]4O[C@@H](CO[C@H]5O[C@H](C)[C@H](O)[C@@H](O)[C@H]5O)[C@H](O)[C@H](O)[C@@H]4O)cc3O2)cc1O
REMARK SMILES IDX 19 1 32 2 34 3 36 4 17 5 18 6 20 7 21 8 22 9 25 10 24 11
REMARK SMILES IDX 26 12 23 13 28 14 30 15 27 16 29 18 31 20 33 22 35 24 16 26
REMARK SMILES IDX 15 27 14 28 38 29 12 30 39 31 11 32 40 33 9 34 7 35 10 36
REMARK SMILES IDX 8 37 13 38 6 40 41 41 5 42 42 43 4 44 3 45 43 46 2 48 1 49
REMARK SMILES IDX 37 50
REMARK H PARENT 27 17 29 19 31 21 33 23 35 25 13 39 43 47 37 51
REMARK Flexibility Score: inf
ROOT
ATOM      1  C   UNL     1      20.202  23.162   9.844  1.00  0.00     0.180 C 
ATOM      2  C   UNL     1      20.140  22.015  10.942  1.00  0.00     0.177 C 
ATOM      3  C   UNL     1      18.510  21.661  11.015  1.00  0.00     0.180 C 
ATOM      4  C   UNL     1      18.126  21.236   9.555  1.00  0.00     0.214 C 
ATOM      5  C   UNL     1      18.093  22.592   8.713  1.00  0.00     0.339 C 
ATOM      6  O   UNL     1      18.940  23.624   9.322  1.00  0.00    -0.332 OA
ENDROOT
BRANCH   1   7
ATOM      7  C   UNL     1      21.083  24.465  10.060  1.00  0.00     0.198 C 
BRANCH   7   8
ATOM      8  O   UNL     1      21.121  25.016  11.393  1.00  0.00    -0.347 OA
BRANCH   8   9
ATOM      9  C   UNL     1      20.200  24.441  12.289  1.00  0.00     0.281 C 
ATOM     10  C   UNL     1      20.976  21.458  14.626  1.00  0.00     0.041 C 
ATOM     11  C   UNL     1      21.124  23.000  14.179  1.00  0.00     0.150 C 
ATOM     12  C   UNL     1      20.447  23.931  15.344  1.00  0.00     0.174 C 
ATOM     13  O   UNL     1      20.648  23.136  12.772  1.00  0.00    -0.344 OA
ATOM     14  C   UNL     1      20.103  25.358  14.855  1.00  0.00     0.179 C 
ATOM     15  C   UNL     1      19.434  25.304  13.463  1.00  0.00     0.202 C 
BRANCH  12  16
ATOM     16  O   UNL     1      19.314  23.281  15.918  1.00  0.00    -0.388 OA
ATOM     17  H   UNL     1      19.683  22.874  16.765  1.00  0.00     0.211 HD
ENDBRANCH  12  16
BRANCH  14  18
ATOM     18  O   UNL     1      21.116  26.373  15.040  1.00  0.00    -0.387 OA
ATOM     19  H   UNL     1      21.797  26.369  14.294  1.00  0.00     0.211 HD
ENDBRANCH  14  18
BRANCH  15  20
ATOM     20  O   UNL     1      19.049  26.601  13.075  1.00  0.00    -0.385 OA
ATOM     21  H   UNL     1      19.862  27.230  13.362  1.00  0.00     0.211 HD
ENDBRANCH  15  20
ENDBRANCH   8   9
ENDBRANCH   7   8
ENDBRANCH   1   7
BRANCH   2  22
ATOM     22  O   UNL     1      21.041  20.915  10.540  1.00  0.00    -0.387 OA
ATOM     23  H   UNL     1      20.803  20.485   9.589  1.00  0.00     0.211 HD
ENDBRANCH   2  22
BRANCH   3  24
ATOM     24  O   UNL     1      17.909  20.987  12.158  1.00  0.00    -0.387 OA
ATOM     25  H   UNL     1      17.271  21.509  12.800  1.00  0.00     0.211 HD
ENDBRANCH   3  24
BRANCH   5  26
ATOM     26  O   UNL     1      16.721  22.911   8.705  1.00  0.00    -0.462 OA
BRANCH  26  27
ATOM     27  C   UNL     1      15.715  22.307   7.962  1.00  0.00     0.130 A 
ATOM     28  C   UNL     1      15.015  21.205   8.512  1.00  0.00     0.093 A 
ATOM     29  C   UNL     1      15.427  22.856   6.739  1.00  0.00     0.094 A 
ATOM     30  C   UNL     1      13.830  20.720   7.837  1.00  0.00     0.133 A 
ATOM     31  C   UNL     1      14.339  22.266   5.996  1.00  0.00     0.138 A 
ATOM     32  C   UNL     1      13.660  21.107   6.454  1.00  0.00     0.102 A 
ATOM     33  O   UNL     1      14.160  22.692   4.609  1.00  0.00    -0.484 OA
ATOM     34  C   UNL     1      12.561  20.539   5.572  1.00  0.00     0.174 C 
ATOM     35  C   UNL     1      13.054  22.341   3.750  1.00  0.00     0.211 C 
ATOM     36  O   UNL     1      12.806  19.351   5.236  1.00  0.00    -0.294 OA
ATOM     37  C   UNL     1      11.961  21.520   4.505  1.00  0.00     0.131 C 
BRANCH  30  38
ATOM     38  O   UNL     1      12.850  20.020   8.577  1.00  0.00    -0.507 OA
ATOM     39  H   UNL     1      12.571  20.409   9.511  1.00  0.00     0.293 HD
ENDBRANCH  30  38
BRANCH  35  40
ATOM     40  C   UNL     1      13.561  21.946   2.345  1.00  0.00    -0.003 A 
ATOM     41  C   UNL     1      13.758  22.940   1.423  1.00  0.00     0.057 A 
ATOM     42  C   UNL     1      13.386  20.643   1.818  1.00  0.00     0.011 A 
ATOM     43  C   UNL     1      13.451  22.769   0.060  1.00  0.00     0.158 A 
ATOM     44  C   UNL     1      13.298  20.391   0.461  1.00  0.00     0.051 A 
ATOM     45  C   UNL     1      13.120  21.478  -0.425  1.00  0.00     0.160 A 
BRANCH  43  46
ATOM     46  O   UNL     1      13.442  23.873  -0.741  1.00  0.00    -0.504 OA
ATOM     47  H   UNL     1      12.974  23.903  -1.620  1.00  0.00     0.293 HD
ENDBRANCH  43  46
BRANCH  45  48
ATOM     48  O   UNL     1      12.751  21.277  -1.747  1.00  0.00    -0.493 OA
ATOM     49  C   UNL     1      12.251  20.028  -2.289  1.00  0.00     0.278 C 
ENDBRANCH  45  48
ENDBRANCH  35  40
ENDBRANCH  26  27
ENDBRANCH   5  26
BRANCH   4  50
ATOM     50  O   UNL     1      19.065  20.292   9.011  1.00  0.00    -0.384 OA
ATOM     51  H   UNL     1      20.002  20.537   9.278  1.00  0.00     0.211 HD
ENDBRANCH   4  50
TORSDOF 15
ENDMDL
MODEL 5
REMARK VINA RESULT:    35.657      1.672      3.363
REMARK INTER + INTRA:          58.993
REMARK INTER:                  58.236
REMARK INTRA:                   0.757
REMARK UNBOUND:                 0.406
REMARK SMILES COc1ccc([C@H]2CC(=O)c3c(O)cc(O[C@H]4O[C@@H](CO[C@H]5O[C@H](C)[C@H](O)[C@@H](O)[C@H]5O)[C@H](O)[C@H](O)[C@@H]4O)cc3O2)cc1O
REMARK SMILES IDX 19 1 32 2 34 3 36 4 17 5 18 6 20 7 21 8 22 9 25 10 24 11
REMARK SMILES IDX 26 12 23 13 28 14 30 15 27 16 29 18 31 20 33 22 35 24 16 26
REMARK SMILES IDX 15 27 14 28 38 29 12 30 39 31 11 32 40 33 9 34 7 35 10 36
REMARK SMILES IDX 8 37 13 38 6 40 41 41 5 42 42 43 4 44 3 45 43 46 2 48 1 49
REMARK SMILES IDX 37 50
REMARK H PARENT 27 17 29 19 31 21 33 23 35 25 13 39 43 47 37 51
REMARK Flexibility Score: inf
ROOT
ATOM      1  C   UNL     1      12.380  22.160   0.027  1.00  0.00     0.180 C 
ATOM      2  C   UNL     1      13.634  21.349  -0.515  1.00  0.00     0.177 C 
ATOM      3  C   UNL     1      14.721  21.462   0.747  1.00  0.00     0.180 C 
ATOM      4  C   UNL     1      13.976  20.835   1.976  1.00  0.00     0.214 C 
ATOM      5  C   UNL     1      12.897  21.925   2.420  1.00  0.00     0.339 C 
ATOM      6  O   UNL     1      12.535  22.808   1.306  1.00  0.00    -0.332 OA
ENDROOT
BRANCH   1   7
ATOM      7  C   UNL     1      11.608  23.199  -0.893  1.00  0.00     0.198 C 
BRANCH   7   8
ATOM      8  O   UNL     1      11.708  24.593  -0.532  1.00  0.00    -0.347 OA
BRANCH   8   9
ATOM      9  C   UNL     1      12.909  25.214  -0.924  1.00  0.00     0.281 C 
ATOM     10  C   UNL     1      16.379  24.449   0.605  1.00  0.00     0.041 C 
ATOM     11  C   UNL     1      15.098  24.067  -0.296  1.00  0.00     0.150 C 
ATOM     12  C   UNL     1      15.592  23.951  -1.853  1.00  0.00     0.174 C 
ATOM     13  O   UNL     1      13.981  24.993   0.046  1.00  0.00    -0.344 OA
ATOM     14  C   UNL     1      14.427  24.049  -2.867  1.00  0.00     0.179 C 
ATOM     15  C   UNL     1      13.464  25.192  -2.473  1.00  0.00     0.202 C 
BRANCH  12  16
ATOM     16  O   UNL     1      16.616  24.904  -2.131  1.00  0.00    -0.388 OA
ATOM     17  H   UNL     1      16.153  25.791  -1.995  1.00  0.00     0.211 HD
ENDBRANCH  12  16
BRANCH  14  18
ATOM     18  O   UNL     1      13.811  22.806  -3.275  1.00  0.00    -0.387 OA
ATOM     19  H   UNL     1      13.193  22.930  -4.064  1.00  0.00     0.211 HD
ENDBRANCH  14  18
BRANCH  15  20
ATOM     20  O   UNL     1      12.462  25.323  -3.453  1.00  0.00    -0.385 OA
ATOM     21  H   UNL     1      12.278  26.372  -3.522  1.00  0.00     0.211 HD
ENDBRANCH  15  20
ENDBRANCH   8   9
ENDBRANCH   7   8
ENDBRANCH   1   7
BRANCH   2  22
ATOM     22  O   UNL     1      13.198  19.989  -0.897  1.00  0.00    -0.387 OA
ATOM     23  H   UNL     1      12.136  19.870  -0.941  1.00  0.00     0.211 HD
ENDBRANCH   2  22
BRANCH   3  24
ATOM     24  O   UNL     1      16.150  21.246   0.567  1.00  0.00    -0.387 OA
ATOM     25  H   UNL     1      16.499  20.703  -0.255  1.00  0.00     0.211 HD
ENDBRANCH   3  24
BRANCH   5  26
ATOM     26  O   UNL     1      13.551  22.584   3.480  1.00  0.00    -0.462 OA
BRANCH  26  27
ATOM     27  C   UNL     1      13.741  22.121   4.776  1.00  0.00     0.130 A 
ATOM     28  C   UNL     1      12.632  21.619   5.501  1.00  0.00     0.093 A 
ATOM     29  C   UNL     1      15.023  22.136   5.262  1.00  0.00     0.094 A 
ATOM     30  C   UNL     1      12.867  20.938   6.758  1.00  0.00     0.133 A 
ATOM     31  C   UNL     1      15.228  21.597   6.585  1.00  0.00     0.138 A 
ATOM     32  C   UNL     1      14.146  21.162   7.394  1.00  0.00     0.102 A 
ATOM     33  O   UNL     1      16.538  21.803   7.201  1.00  0.00    -0.484 OA
ATOM     34  C   UNL     1      14.469  20.655   8.790  1.00  0.00     0.174 C 
ATOM     35  C   UNL     1      16.993  21.219   8.441  1.00  0.00     0.211 C 
ATOM     36  O   UNL     1      13.881  21.332   9.674  1.00  0.00    -0.294 OA
ATOM     37  C   UNL     1      15.954  20.214   9.033  1.00  0.00     0.131 C 
BRANCH  30  38
ATOM     38  O   UNL     1      11.915  20.006   7.227  1.00  0.00    -0.507 OA
ATOM     39  H   UNL     1      11.237  20.326   7.963  1.00  0.00     0.293 HD
ENDBRANCH  30  38
BRANCH  35  40
ATOM     40  C   UNL     1      17.708  22.277   9.311  1.00  0.00    -0.003 A 
ATOM     41  C   UNL     1      18.815  22.898   8.796  1.00  0.00     0.057 A 
ATOM     42  C   UNL     1      17.586  22.302  10.721  1.00  0.00     0.011 A 
ATOM     43  C   UNL     1      19.932  23.217   9.592  1.00  0.00     0.158 A 
ATOM     44  C   UNL     1      18.571  22.812  11.548  1.00  0.00     0.051 A 
ATOM     45  C   UNL     1      19.847  23.084  11.002  1.00  0.00     0.160 A 
BRANCH  43  46
ATOM     46  O   UNL     1      21.079  23.605   8.964  1.00  0.00    -0.504 OA
ATOM     47  H   UNL     1      21.174  23.629   7.973  1.00  0.00     0.293 HD
ENDBRANCH  43  46
BRANCH  45  48
ATOM     48  O   UNL     1      20.942  23.328  11.816  1.00  0.00    -0.493 OA
ATOM     49  C   UNL     1      21.124  22.784  13.149  1.00  0.00     0.278 C 
ENDBRANCH  45  48
ENDBRANCH  35  40
ENDBRANCH  26  27
ENDBRANCH   5  26
BRANCH   4  50
ATOM     50  O   UNL     1      13.359  19.580   1.641  1.00  0.00    -0.384 OA
ATOM     51  H   UNL     1      13.128  19.068   2.475  1.00  0.00     0.211 HD
ENDBRANCH   4  50
TORSDOF 15
ENDMDL
