MODEL 1
REMARK VINA RESULT:    -7.004      0.000      0.000
REMARK INTER + INTRA:          -8.689
REMARK INTER:                  -8.437
REMARK INTRA:                  -0.252
REMARK UNBOUND:                -0.252
REMARK SMILES Oc1cc(O)c2c(c1)O[C@@H](c1ccc(O)c(O)c1)[C@H](O)C2
REMARK SMILES IDX 21 1 19 2 10 3 9 4 7 5 8 6 2 7 3 8 4 9 6 10 20 11 11 13
REMARK SMILES IDX 18 14 12 15 16 16 13 17 14 18 17 19 15 21 5 23 1 25
REMARK H PARENT 20 12 17 20 15 22 5 24 1 26
REMARK Flexibility Score: inf
ROOT
ATOM      1  C   UNL     1      -8.288  -8.702  10.365  1.00  0.00     0.079 C 
ATOM      2  C   UNL     1      -8.282  -8.049   8.969  1.00  0.00     0.164 C 
ATOM      3  C   UNL     1      -8.823  -6.608   9.051  1.00  0.00     0.232 C 
ATOM      4  O   UNL     1      -8.054  -5.859   9.992  1.00  0.00    -0.482 OA
ATOM      5  C   UNL     1      -7.585  -6.416  11.187  1.00  0.00     0.131 A 
ATOM      6  C   UNL     1      -7.005  -5.576  12.143  1.00  0.00     0.093 A 
ATOM      7  C   UNL     1      -6.541  -6.098  13.352  1.00  0.00     0.122 A 
ATOM      8  C   UNL     1      -6.667  -7.467  13.612  1.00  0.00     0.092 A 
ATOM      9  C   UNL     1      -7.246  -8.323  12.668  1.00  0.00     0.126 A 
ATOM     10  C   UNL     1      -7.678  -7.806  11.423  1.00  0.00     0.039 A 
ENDROOT
BRANCH   2  11
ATOM     11  O   UNL     1      -9.021  -8.825   8.058  1.00  0.00    -0.389 OA
ATOM     12  H   UNL     1      -9.773  -8.267   7.728  1.00  0.00     0.211 HD
ENDBRANCH   2  11
BRANCH   3  13
ATOM     13  C   UNL     1      -8.777  -5.930   7.702  1.00  0.00    -0.001 A 
ATOM     14  C   UNL     1      -9.862  -5.150   7.266  1.00  0.00     0.057 A 
ATOM     15  C   UNL     1      -7.677  -6.113   6.848  1.00  0.00     0.012 A 
ATOM     16  C   UNL     1      -9.839  -4.542   6.002  1.00  0.00     0.157 A 
ATOM     17  C   UNL     1      -7.652  -5.507   5.590  1.00  0.00     0.050 A 
ATOM     18  C   UNL     1      -8.726  -4.721   5.162  1.00  0.00     0.157 A 
BRANCH  16  19
ATOM     19  O   UNL     1     -10.916  -3.766   5.580  1.00  0.00    -0.504 OA
ATOM     20  H   UNL     1     -11.452  -4.005   4.753  1.00  0.00     0.293 HD
ENDBRANCH  16  19
BRANCH  18  21
ATOM     21  O   UNL     1      -8.673  -4.128   3.901  1.00  0.00    -0.504 OA
ATOM     22  H   UNL     1      -9.489  -4.058   3.304  1.00  0.00     0.293 HD
ENDBRANCH  18  21
ENDBRANCH   3  13
BRANCH   9  23
ATOM     23  O   UNL     1      -7.385  -9.672  13.003  1.00  0.00    -0.507 OA
ATOM     24  H   UNL     1      -7.058 -10.427  12.415  1.00  0.00     0.293 HD
ENDBRANCH   9  23
BRANCH   7  25
ATOM     25  O   UNL     1      -5.964  -5.246  14.291  1.00  0.00    -0.508 OA
ATOM     26  H   UNL     1      -6.309  -4.303  14.433  1.00  0.00     0.293 HD
ENDBRANCH   7  25
TORSDOF 6
ENDMDL
MODEL 2
REMARK VINA RESULT:    -6.788      3.511      4.474
REMARK INTER + INTRA:          -8.429
REMARK INTER:                  -8.074
REMARK INTRA:                  -0.355
REMARK UNBOUND:                -0.252
REMARK SMILES Oc1cc(O)c2c(c1)O[C@@H](c1ccc(O)c(O)c1)[C@H](O)C2
REMARK SMILES IDX 21 1 19 2 10 3 9 4 7 5 8 6 2 7 3 8 4 9 6 10 20 11 11 13
REMARK SMILES IDX 18 14 12 15 16 16 13 17 14 18 17 19 15 21 5 23 1 25
REMARK H PARENT 20 12 17 20 15 22 5 24 1 26
REMARK Flexibility Score: inf
ROOT
ATOM      1  C   UNL     1     -10.776  -7.834   9.497  1.00  0.00     0.079 C 
ATOM      2  C   UNL     1      -9.688  -6.992   8.804  1.00  0.00     0.164 C 
ATOM      3  C   UNL     1     -10.333  -5.852   7.990  1.00  0.00     0.232 C 
ATOM      4  O   UNL     1     -11.156  -5.059   8.845  1.00  0.00    -0.482 OA
ATOM      5  C   UNL     1     -11.940  -5.618   9.860  1.00  0.00     0.131 A 
ATOM      6  C   UNL     1     -12.860  -4.807  10.530  1.00  0.00     0.093 A 
ATOM      7  C   UNL     1     -13.667  -5.337  11.537  1.00  0.00     0.122 A 
ATOM      8  C   UNL     1     -13.562  -6.693  11.870  1.00  0.00     0.092 A 
ATOM      9  C   UNL     1     -12.647  -7.521  11.210  1.00  0.00     0.126 A 
ATOM     10  C   UNL     1     -11.796  -6.978  10.219  1.00  0.00     0.039 A 
ENDROOT
BRANCH   2  11
ATOM     11  O   UNL     1      -8.875  -7.806   7.993  1.00  0.00    -0.389 OA
ATOM     12  H   UNL     1      -8.047  -8.007   8.504  1.00  0.00     0.211 HD
ENDBRANCH   2  11
BRANCH   3  13
ATOM     13  C   UNL     1      -9.282  -4.981   7.343  1.00  0.00    -0.001 A 
ATOM     14  C   UNL     1      -8.278  -4.385   8.125  1.00  0.00     0.057 A 
ATOM     15  C   UNL     1      -9.326  -4.715   5.964  1.00  0.00     0.012 A 
ATOM     16  C   UNL     1      -7.317  -3.552   7.535  1.00  0.00     0.157 A 
ATOM     17  C   UNL     1      -8.368  -3.886   5.375  1.00  0.00     0.050 A 
ATOM     18  C   UNL     1      -7.362  -3.304   6.152  1.00  0.00     0.157 A 
BRANCH  16  19
ATOM     19  O   UNL     1      -6.321  -2.969   8.317  1.00  0.00    -0.504 OA
ATOM     20  H   UNL     1      -6.357  -1.991   8.581  1.00  0.00     0.293 HD
ENDBRANCH  16  19
BRANCH  18  21
ATOM     21  O   UNL     1      -6.420  -2.481   5.536  1.00  0.00    -0.504 OA
ATOM     22  H   UNL     1      -5.425  -2.659   5.603  1.00  0.00     0.293 HD
ENDBRANCH  18  21
ENDBRANCH   3  13
BRANCH   9  23
ATOM     23  O   UNL     1     -12.620  -8.875  11.555  1.00  0.00    -0.507 OA
ATOM     24  H   UNL     1     -12.555  -9.620  10.874  1.00  0.00     0.293 HD
ENDBRANCH   9  23
BRANCH   7  25
ATOM     25  O   UNL     1     -14.577  -4.512  12.194  1.00  0.00    -0.508 OA
ATOM     26  H   UNL     1     -14.333  -4.036  13.055  1.00  0.00     0.293 HD
ENDBRANCH   7  25
TORSDOF 6
ENDMDL
MODEL 3
REMARK VINA RESULT:    -6.595      1.295      7.120
REMARK INTER + INTRA:          -8.196
REMARK INTER:                  -8.068
REMARK INTRA:                  -0.128
REMARK UNBOUND:                -0.252
REMARK SMILES Oc1cc(O)c2c(c1)O[C@@H](c1ccc(O)c(O)c1)[C@H](O)C2
REMARK SMILES IDX 21 1 19 2 10 3 9 4 7 5 8 6 2 7 3 8 4 9 6 10 20 11 11 13
REMARK SMILES IDX 18 14 12 15 16 16 13 17 14 18 17 19 15 21 5 23 1 25
REMARK H PARENT 20 12 17 20 15 22 5 24 1 26
REMARK Flexibility Score: inf
ROOT
ATOM      1  C   UNL     1     -10.118  -5.033   8.108  1.00  0.00     0.079 C 
ATOM      2  C   UNL     1      -9.400  -5.547   9.371  1.00  0.00     0.164 C 
ATOM      3  C   UNL     1      -8.967  -7.014   9.179  1.00  0.00     0.232 C 
ATOM      4  O   UNL     1      -8.145  -7.124   8.017  1.00  0.00    -0.482 OA
ATOM      5  C   UNL     1      -8.396  -6.393   6.851  1.00  0.00     0.131 A 
ATOM      6  C   UNL     1      -7.667  -6.690   5.695  1.00  0.00     0.093 A 
ATOM      7  C   UNL     1      -7.903  -5.989   4.512  1.00  0.00     0.122 A 
ATOM      8  C   UNL     1      -8.882  -4.990   4.479  1.00  0.00     0.092 A 
ATOM      9  C   UNL     1      -9.623  -4.679   5.626  1.00  0.00     0.126 A 
ATOM     10  C   UNL     1      -9.356  -5.356   6.840  1.00  0.00     0.039 A 
ENDROOT
BRANCH   2  11
ATOM     11  O   UNL     1     -10.222  -5.397  10.503  1.00  0.00    -0.389 OA
ATOM     12  H   UNL     1     -10.526  -6.303  10.776  1.00  0.00     0.211 HD
ENDBRANCH   2  11
BRANCH   3  13
ATOM     13  C   UNL     1      -8.214  -7.524  10.385  1.00  0.00    -0.001 A 
ATOM     14  C   UNL     1      -7.458  -6.638  11.172  1.00  0.00     0.057 A 
ATOM     15  C   UNL     1      -8.218  -8.892  10.704  1.00  0.00     0.012 A 
ATOM     16  C   UNL     1      -6.733  -7.109  12.277  1.00  0.00     0.157 A 
ATOM     17  C   UNL     1      -7.497  -9.362  11.804  1.00  0.00     0.050 A 
ATOM     18  C   UNL     1      -6.756  -8.478  12.594  1.00  0.00     0.157 A 
BRANCH  16  19
ATOM     19  O   UNL     1      -5.991  -6.224  13.056  1.00  0.00    -0.504 OA
ATOM     20  H   UNL     1      -6.332  -5.296  13.277  1.00  0.00     0.293 HD
ENDBRANCH  16  19
BRANCH  18  21
ATOM     21  O   UNL     1      -6.047  -8.977  13.686  1.00  0.00    -0.504 OA
ATOM     22  H   UNL     1      -5.611  -9.892  13.673  1.00  0.00     0.293 HD
ENDBRANCH  18  21
ENDBRANCH   3  13
BRANCH   9  23
ATOM     23  O   UNL     1     -10.617  -3.703   5.520  1.00  0.00    -0.507 OA
ATOM     24  H   UNL     1     -11.438  -3.808   4.938  1.00  0.00     0.293 HD
ENDBRANCH   9  23
BRANCH   7  25
ATOM     25  O   UNL     1      -7.166  -6.299   3.371  1.00  0.00    -0.508 OA
ATOM     26  H   UNL     1      -7.619  -6.525   2.494  1.00  0.00     0.293 HD
ENDBRANCH   7  25
TORSDOF 6
ENDMDL
MODEL 4
REMARK VINA RESULT:    -6.567      2.455      3.344
REMARK INTER + INTRA:          -8.163
REMARK INTER:                  -7.959
REMARK INTRA:                  -0.205
REMARK UNBOUND:                -0.252
REMARK SMILES Oc1cc(O)c2c(c1)O[C@@H](c1ccc(O)c(O)c1)[C@H](O)C2
REMARK SMILES IDX 21 1 19 2 10 3 9 4 7 5 8 6 2 7 3 8 4 9 6 10 20 11 11 13
REMARK SMILES IDX 18 14 12 15 16 16 13 17 14 18 17 19 15 21 5 23 1 25
REMARK H PARENT 20 12 17 20 15 22 5 24 1 26
REMARK Flexibility Score: inf
ROOT
ATOM      1  C   UNL     1      -9.693  -4.892  10.411  1.00  0.00     0.079 C 
ATOM      2  C   UNL     1      -9.440  -5.663   9.100  1.00  0.00     0.164 C 
ATOM      3  C   UNL     1      -8.064  -5.285   8.516  1.00  0.00     0.232 C 
ATOM      4  O   UNL     1      -7.046  -5.534   9.486  1.00  0.00    -0.482 OA
ATOM      5  C   UNL     1      -7.233  -5.281  10.849  1.00  0.00     0.131 A 
ATOM      6  C   UNL     1      -6.136  -5.369  11.710  1.00  0.00     0.093 A 
ATOM      7  C   UNL     1      -6.285  -5.108  13.073  1.00  0.00     0.122 A 
ATOM      8  C   UNL     1      -7.540  -4.747  13.578  1.00  0.00     0.092 A 
ATOM      9  C   UNL     1      -8.650  -4.653  12.731  1.00  0.00     0.126 A 
ATOM     10  C   UNL     1      -8.512  -4.959  11.356  1.00  0.00     0.039 A 
ENDROOT
BRANCH   2  11
ATOM     11  O   UNL     1     -10.474  -5.422   8.177  1.00  0.00    -0.389 OA
ATOM     12  H   UNL     1     -10.926  -6.289   7.999  1.00  0.00     0.211 HD
ENDBRANCH   2  11
BRANCH   3  13
ATOM     13  C   UNL     1      -7.771  -6.067   7.258  1.00  0.00    -0.001 A 
ATOM     14  C   UNL     1      -7.042  -7.266   7.325  1.00  0.00     0.057 A 
ATOM     15  C   UNL     1      -8.178  -5.582   6.004  1.00  0.00     0.012 A 
ATOM     16  C   UNL     1      -6.741  -7.983   6.157  1.00  0.00     0.157 A 
ATOM     17  C   UNL     1      -7.880  -6.295   4.841  1.00  0.00     0.050 A 
ATOM     18  C   UNL     1      -7.165  -7.494   4.910  1.00  0.00     0.157 A 
BRANCH  16  19
ATOM     19  O   UNL     1      -6.022  -9.174   6.233  1.00  0.00    -0.504 OA
ATOM     20  H   UNL     1      -5.060  -9.195   6.552  1.00  0.00     0.293 HD
ENDBRANCH  16  19
BRANCH  18  21
ATOM     21  O   UNL     1      -6.883  -8.184   3.732  1.00  0.00    -0.504 OA
ATOM     22  H   UNL     1      -6.309  -7.785   2.998  1.00  0.00     0.293 HD
ENDBRANCH  18  21
ENDBRANCH   3  13
BRANCH   9  23
ATOM     23  O   UNL     1      -9.865  -4.244  13.286  1.00  0.00    -0.507 OA
ATOM     24  H   UNL     1     -10.703  -4.811  13.266  1.00  0.00     0.293 HD
ENDBRANCH   9  23
BRANCH   7  25
ATOM     25  O   UNL     1      -5.180  -5.203  13.916  1.00  0.00    -0.508 OA
ATOM     26  H   UNL     1      -4.561  -6.005  13.889  1.00  0.00     0.293 HD
ENDBRANCH   7  25
TORSDOF 6
ENDMDL
MODEL 5
REMARK VINA RESULT:    -6.485     12.401     13.819
REMARK INTER + INTRA:          -8.064
REMARK INTER:                  -7.703
REMARK INTRA:                  -0.361
REMARK UNBOUND:                -0.252
REMARK SMILES Oc1cc(O)c2c(c1)O[C@@H](c1ccc(O)c(O)c1)[C@H](O)C2
REMARK SMILES IDX 21 1 19 2 10 3 9 4 7 5 8 6 2 7 3 8 4 9 6 10 20 11 11 13
REMARK SMILES IDX 18 14 12 15 16 16 13 17 14 18 17 19 15 21 5 23 1 25
REMARK H PARENT 20 12 17 20 15 22 5 24 1 26
REMARK Flexibility Score: inf
ROOT
ATOM      1  C   UNL     1     -16.849  -3.772  14.467  1.00  0.00     0.079 C 
ATOM      2  C   UNL     1     -17.476  -3.241  15.771  1.00  0.00     0.164 C 
ATOM      3  C   UNL     1     -18.754  -4.033  16.110  1.00  0.00     0.232 C 
ATOM      4  O   UNL     1     -18.449  -5.424  16.196  1.00  0.00    -0.482 OA
ATOM      5  C   UNL     1     -17.545  -6.047  15.328  1.00  0.00     0.131 A 
ATOM      6  C   UNL     1     -17.438  -7.440  15.347  1.00  0.00     0.093 A 
ATOM      7  C   UNL     1     -16.557  -8.093  14.484  1.00  0.00     0.122 A 
ATOM      8  C   UNL     1     -15.782  -7.347  13.587  1.00  0.00     0.092 A 
ATOM      9  C   UNL     1     -15.877  -5.951  13.552  1.00  0.00     0.126 A 
ATOM     10  C   UNL     1     -16.736  -5.282  14.456  1.00  0.00     0.039 A 
ENDROOT
BRANCH   2  11
ATOM     11  O   UNL     1     -17.737  -1.862  15.668  1.00  0.00    -0.389 OA
ATOM     12  H   UNL     1     -18.699  -1.722  15.874  1.00  0.00     0.211 HD
ENDBRANCH   2  11
BRANCH   3  13
ATOM     13  C   UNL     1     -19.358  -3.563  17.413  1.00  0.00    -0.001 A 
ATOM     14  C   UNL     1     -20.579  -2.868  17.417  1.00  0.00     0.057 A 
ATOM     15  C   UNL     1     -18.683  -3.769  18.628  1.00  0.00     0.012 A 
ATOM     16  C   UNL     1     -21.130  -2.403  18.620  1.00  0.00     0.157 A 
ATOM     17  C   UNL     1     -19.231  -3.308  19.827  1.00  0.00     0.050 A 
ATOM     18  C   UNL     1     -20.453  -2.627  19.830  1.00  0.00     0.157 A 
BRANCH  16  19
ATOM     19  O   UNL     1     -22.345  -1.720  18.615  1.00  0.00    -0.504 OA
ATOM     20  H   UNL     1     -23.231  -2.211  18.601  1.00  0.00     0.293 HD
ENDBRANCH  16  19
BRANCH  18  21
ATOM     21  O   UNL     1     -20.975  -2.179  21.043  1.00  0.00    -0.504 OA
ATOM     22  H   UNL     1     -21.486  -2.791  21.668  1.00  0.00     0.293 HD
ENDBRANCH  18  21
ENDBRANCH   3  13
BRANCH   9  23
ATOM     23  O   UNL     1     -15.112  -5.266  12.605  1.00  0.00    -0.507 OA
ATOM     24  H   UNL     1     -14.108  -5.361  12.528  1.00  0.00     0.293 HD
ENDBRANCH   9  23
BRANCH   7  25
ATOM     25  O   UNL     1     -16.463  -9.482  14.519  1.00  0.00    -0.508 OA
ATOM     26  H   UNL     1     -17.119 -10.069  14.017  1.00  0.00     0.293 HD
ENDBRANCH   7  25
TORSDOF 6
ENDMDL
MODEL 6
REMARK VINA RESULT:    -6.388      3.074      5.939
REMARK INTER + INTRA:          -7.948
REMARK INTER:                  -7.583
REMARK INTRA:                  -0.364
REMARK UNBOUND:                -0.252
REMARK SMILES Oc1cc(O)c2c(c1)O[C@@H](c1ccc(O)c(O)c1)[C@H](O)C2
REMARK SMILES IDX 21 1 19 2 10 3 9 4 7 5 8 6 2 7 3 8 4 9 6 10 20 11 11 13
REMARK SMILES IDX 18 14 12 15 16 16 13 17 14 18 17 19 15 21 5 23 1 25
REMARK H PARENT 20 12 17 20 15 22 5 24 1 26
REMARK Flexibility Score: inf
ROOT
ATOM      1  C   UNL     1      -7.780  -8.160   9.036  1.00  0.00     0.079 C 
ATOM      2  C   UNL     1      -8.996  -7.491   9.706  1.00  0.00     0.164 C 
ATOM      3  C   UNL     1      -9.021  -5.984   9.385  1.00  0.00     0.232 C 
ATOM      4  O   UNL     1      -9.022  -5.794   7.971  1.00  0.00    -0.482 OA
ATOM      5  C   UNL     1      -8.273  -6.601   7.107  1.00  0.00     0.131 A 
ATOM      6  C   UNL     1      -8.174  -6.240   5.760  1.00  0.00     0.093 A 
ATOM      7  C   UNL     1      -7.422  -7.014   4.875  1.00  0.00     0.122 A 
ATOM      8  C   UNL     1      -6.756  -8.154   5.342  1.00  0.00     0.092 A 
ATOM      9  C   UNL     1      -6.843  -8.530   6.688  1.00  0.00     0.126 A 
ATOM     10  C   UNL     1      -7.640  -7.773   7.579  1.00  0.00     0.039 A 
ENDROOT
BRANCH   2  11
ATOM     11  O   UNL     1      -8.984  -7.722  11.094  1.00  0.00    -0.389 OA
ATOM     12  H   UNL     1      -9.889  -8.042  11.354  1.00  0.00     0.211 HD
ENDBRANCH   2  11
BRANCH   3  13
ATOM     13  C   UNL     1     -10.235  -5.317   9.989  1.00  0.00    -0.001 A 
ATOM     14  C   UNL     1     -10.085  -4.393  11.038  1.00  0.00     0.057 A 
ATOM     15  C   UNL     1     -11.526  -5.650   9.547  1.00  0.00     0.012 A 
ATOM     16  C   UNL     1     -11.210  -3.793  11.623  1.00  0.00     0.157 A 
ATOM     17  C   UNL     1     -12.647  -5.052  10.129  1.00  0.00     0.050 A 
ATOM     18  C   UNL     1     -12.496  -4.123  11.163  1.00  0.00     0.157 A 
BRANCH  16  19
ATOM     19  O   UNL     1     -11.053  -2.874  12.658  1.00  0.00    -0.504 OA
ATOM     20  H   UNL     1     -11.322  -1.902  12.552  1.00  0.00     0.293 HD
ENDBRANCH  16  19
BRANCH  18  21
ATOM     21  O   UNL     1     -13.633  -3.543  11.723  1.00  0.00    -0.504 OA
ATOM     22  H   UNL     1     -14.304  -3.025  11.167  1.00  0.00     0.293 HD
ENDBRANCH  18  21
ENDBRANCH   3  13
BRANCH   9  23
ATOM     23  O   UNL     1      -6.120  -9.651   7.103  1.00  0.00    -0.507 OA
ATOM     24  H   UNL     1      -6.213 -10.062   8.023  1.00  0.00     0.293 HD
ENDBRANCH   9  23
BRANCH   7  25
ATOM     25  O   UNL     1      -7.336  -6.640   3.536  1.00  0.00    -0.508 OA
ATOM     26  H   UNL     1      -8.165  -6.523   2.965  1.00  0.00     0.293 HD
ENDBRANCH   7  25
TORSDOF 6
ENDMDL
MODEL 7
REMARK VINA RESULT:    -6.359      3.250      4.383
REMARK INTER + INTRA:          -7.912
REMARK INTER:                  -7.571
REMARK INTRA:                  -0.341
REMARK UNBOUND:                -0.252
REMARK SMILES Oc1cc(O)c2c(c1)O[C@@H](c1ccc(O)c(O)c1)[C@H](O)C2
REMARK SMILES IDX 21 1 19 2 10 3 9 4 7 5 8 6 2 7 3 8 4 9 6 10 20 11 11 13
REMARK SMILES IDX 18 14 12 15 16 16 13 17 14 18 17 19 15 21 5 23 1 25
REMARK H PARENT 20 12 17 20 15 22 5 24 1 26
REMARK Flexibility Score: inf
ROOT
ATOM      1  C   UNL     1     -11.987  -7.087  10.293  1.00  0.00     0.079 C 
ATOM      2  C   UNL     1     -10.867  -7.748   9.465  1.00  0.00     0.164 C 
ATOM      3  C   UNL     1      -9.978  -6.671   8.813  1.00  0.00     0.232 C 
ATOM      4  O   UNL     1      -9.454  -5.807   9.821  1.00  0.00    -0.482 OA
ATOM      5  C   UNL     1     -10.210  -5.402  10.927  1.00  0.00     0.131 A 
ATOM      6  C   UNL     1      -9.700  -4.410  11.769  1.00  0.00     0.093 A 
ATOM      7  C   UNL     1     -10.436  -3.973  12.872  1.00  0.00     0.122 A 
ATOM      8  C   UNL     1     -11.696  -4.525  13.130  1.00  0.00     0.092 A 
ATOM      9  C   UNL     1     -12.223  -5.519  12.297  1.00  0.00     0.126 A 
ATOM     10  C   UNL     1     -11.462  -5.996  11.203  1.00  0.00     0.039 A 
ENDROOT
BRANCH   2  11
ATOM     11  O   UNL     1     -11.413  -8.617   8.502  1.00  0.00    -0.389 OA
ATOM     12  H   UNL     1     -10.685  -9.220   8.194  1.00  0.00     0.211 HD
ENDBRANCH   2  11
BRANCH   3  13
ATOM     13  C   UNL     1      -8.842  -7.297   8.039  1.00  0.00    -0.001 A 
ATOM     14  C   UNL     1      -8.002  -8.241   8.655  1.00  0.00     0.057 A 
ATOM     15  C   UNL     1      -8.579  -6.907   6.715  1.00  0.00     0.012 A 
ATOM     16  C   UNL     1      -6.927  -8.805   7.951  1.00  0.00     0.157 A 
ATOM     17  C   UNL     1      -7.510  -7.468   6.013  1.00  0.00     0.050 A 
ATOM     18  C   UNL     1      -6.683  -8.416   6.623  1.00  0.00     0.157 A 
BRANCH  16  19
ATOM     19  O   UNL     1      -6.103  -9.744   8.567  1.00  0.00    -0.504 OA
ATOM     20  H   UNL     1      -6.027  -9.804   9.576  1.00  0.00     0.293 HD
ENDBRANCH  16  19
BRANCH  18  21
ATOM     21  O   UNL     1      -5.624  -8.959   5.896  1.00  0.00    -0.504 OA
ATOM     22  H   UNL     1      -5.626  -8.991   4.883  1.00  0.00     0.293 HD
ENDBRANCH  18  21
ENDBRANCH   3  13
BRANCH   9  23
ATOM     23  O   UNL     1     -13.504  -5.999  12.579  1.00  0.00    -0.507 OA
ATOM     24  H   UNL     1     -14.186  -5.480  13.118  1.00  0.00     0.293 HD
ENDBRANCH   9  23
BRANCH   7  25
ATOM     25  O   UNL     1      -9.910  -2.984  13.700  1.00  0.00    -0.508 OA
ATOM     26  H   UNL     1      -9.462  -3.214  14.580  1.00  0.00     0.293 HD
ENDBRANCH   7  25
TORSDOF 6
ENDMDL
MODEL 8
REMARK VINA RESULT:    -6.348      3.186      5.017
REMARK INTER + INTRA:          -7.899
REMARK INTER:                  -7.565
REMARK INTRA:                  -0.333
REMARK UNBOUND:                -0.252
REMARK SMILES Oc1cc(O)c2c(c1)O[C@@H](c1ccc(O)c(O)c1)[C@H](O)C2
REMARK SMILES IDX 21 1 19 2 10 3 9 4 7 5 8 6 2 7 3 8 4 9 6 10 20 11 11 13
REMARK SMILES IDX 18 14 12 15 16 16 13 17 14 18 17 19 15 21 5 23 1 25
REMARK H PARENT 20 12 17 20 15 22 5 24 1 26
REMARK Flexibility Score: inf
ROOT
ATOM      1  C   UNL     1      -8.654  -5.035  11.599  1.00  0.00     0.079 C 
ATOM      2  C   UNL     1      -7.943  -5.557  10.335  1.00  0.00     0.164 C 
ATOM      3  C   UNL     1      -8.752  -6.707   9.703  1.00  0.00     0.232 C 
ATOM      4  O   UNL     1     -10.079  -6.263   9.423  1.00  0.00    -0.482 OA
ATOM      5  C   UNL     1     -10.780  -5.409  10.281  1.00  0.00     0.131 A 
ATOM      6  C   UNL     1     -12.135  -5.169  10.038  1.00  0.00     0.093 A 
ATOM      7  C   UNL     1     -12.867  -4.334  10.885  1.00  0.00     0.122 A 
ATOM      8  C   UNL     1     -12.241  -3.742  11.988  1.00  0.00     0.092 A 
ATOM      9  C   UNL     1     -10.885  -3.971  12.247  1.00  0.00     0.126 A 
ATOM     10  C   UNL     1     -10.128  -4.782  11.367  1.00  0.00     0.039 A 
ENDROOT
BRANCH   2  11
ATOM     11  O   UNL     1      -6.628  -5.957  10.637  1.00  0.00    -0.389 OA
ATOM     12  H   UNL     1      -6.359  -5.498  11.476  1.00  0.00     0.211 HD
ENDBRANCH   2  11
BRANCH   3  13
ATOM     13  C   UNL     1      -8.100  -7.200   8.433  1.00  0.00    -0.001 A 
ATOM     14  C   UNL     1      -7.397  -8.416   8.425  1.00  0.00     0.057 A 
ATOM     15  C   UNL     1      -8.144  -6.426   7.261  1.00  0.00     0.012 A 
ATOM     16  C   UNL     1      -6.764  -8.865   7.256  1.00  0.00     0.157 A 
ATOM     17  C   UNL     1      -7.515  -6.872   6.096  1.00  0.00     0.050 A 
ATOM     18  C   UNL     1      -6.827  -8.089   6.086  1.00  0.00     0.157 A 
BRANCH  16  19
ATOM     19  O   UNL     1      -6.074 -10.076   7.255  1.00  0.00    -0.504 OA
ATOM     20  H   UNL     1      -6.058 -10.680   8.069  1.00  0.00     0.293 HD
ENDBRANCH  16  19
BRANCH  18  21
ATOM     21  O   UNL     1      -6.210  -8.509   4.909  1.00  0.00    -0.504 OA
ATOM     22  H   UNL     1      -6.217  -9.478   4.612  1.00  0.00     0.293 HD
ENDBRANCH  18  21
ENDBRANCH   3  13
BRANCH   9  23
ATOM     23  O   UNL     1     -10.328  -3.389  13.388  1.00  0.00    -0.507 OA
ATOM     24  H   UNL     1     -10.074  -2.411  13.445  1.00  0.00     0.293 HD
ENDBRANCH   9  23
BRANCH   7  25
ATOM     25  O   UNL     1     -14.216  -4.106  10.626  1.00  0.00    -0.508 OA
ATOM     26  H   UNL     1     -14.834  -4.856  10.339  1.00  0.00     0.293 HD
ENDBRANCH   7  25
TORSDOF 6
ENDMDL
MODEL 9
REMARK VINA RESULT:    -6.303      3.209      4.438
REMARK INTER + INTRA:          -7.845
REMARK INTER:                  -7.468
REMARK INTRA:                  -0.376
REMARK UNBOUND:                -0.252
REMARK SMILES Oc1cc(O)c2c(c1)O[C@@H](c1ccc(O)c(O)c1)[C@H](O)C2
REMARK SMILES IDX 21 1 19 2 10 3 9 4 7 5 8 6 2 7 3 8 4 9 6 10 20 11 11 13
REMARK SMILES IDX 18 14 12 15 16 16 13 17 14 18 17 19 15 21 5 23 1 25
REMARK H PARENT 20 12 17 20 15 22 5 24 1 26
REMARK Flexibility Score: inf
ROOT
ATOM      1  C   UNL     1      -9.122  -5.101  11.312  1.00  0.00     0.079 C 
ATOM      2  C   UNL     1      -8.513  -5.177   9.898  1.00  0.00     0.164 C 
ATOM      3  C   UNL     1      -9.340  -6.128   9.011  1.00  0.00     0.232 C 
ATOM      4  O   UNL     1     -10.700  -5.696   8.983  1.00  0.00    -0.482 OA
ATOM      5  C   UNL     1     -11.346  -5.182  10.112  1.00  0.00     0.131 A 
ATOM      6  C   UNL     1     -12.725  -4.958  10.060  1.00  0.00     0.093 A 
ATOM      7  C   UNL     1     -13.402  -4.460  11.175  1.00  0.00     0.122 A 
ATOM      8  C   UNL     1     -12.697  -4.192  12.354  1.00  0.00     0.092 A 
ATOM      9  C   UNL     1     -11.316  -4.411  12.425  1.00  0.00     0.126 A 
ATOM     10  C   UNL     1     -10.618  -4.875  11.284  1.00  0.00     0.039 A 
ENDROOT
BRANCH   2  11
ATOM     11  O   UNL     1      -7.165  -5.574   9.961  1.00  0.00    -0.389 OA
ATOM     12  H   UNL     1      -6.616  -4.839   9.578  1.00  0.00     0.211 HD
ENDBRANCH   2  11
BRANCH   3  13
ATOM     13  C   UNL     1      -8.792  -6.177   7.604  1.00  0.00    -0.001 A 
ATOM     14  C   UNL     1      -8.866  -5.043   6.777  1.00  0.00     0.057 A 
ATOM     15  C   UNL     1      -8.251  -7.367   7.090  1.00  0.00     0.012 A 
ATOM     16  C   UNL     1      -8.385  -5.090   5.460  1.00  0.00     0.157 A 
ATOM     17  C   UNL     1      -7.772  -7.415   5.778  1.00  0.00     0.050 A 
ATOM     18  C   UNL     1      -7.834  -6.282   4.961  1.00  0.00     0.157 A 
BRANCH  16  19
ATOM     19  O   UNL     1      -8.457  -3.960   4.649  1.00  0.00    -0.504 OA
ATOM     20  H   UNL     1      -8.569  -3.031   5.039  1.00  0.00     0.293 HD
ENDBRANCH  16  19
BRANCH  18  21
ATOM     21  O   UNL     1      -7.347  -6.361   3.657  1.00  0.00    -0.504 OA
ATOM     22  H   UNL     1      -6.712  -7.093   3.362  1.00  0.00     0.293 HD
ENDBRANCH  18  21
ENDBRANCH   3  13
BRANCH   9  23
ATOM     23  O   UNL     1     -10.676  -4.168  13.643  1.00  0.00    -0.507 OA
ATOM     24  H   UNL     1     -10.772  -3.303  14.157  1.00  0.00     0.293 HD
ENDBRANCH   9  23
BRANCH   7  25
ATOM     25  O   UNL     1     -14.776  -4.242  11.103  1.00  0.00    -0.508 OA
ATOM     26  H   UNL     1     -15.159  -3.427  10.639  1.00  0.00     0.293 HD
ENDBRANCH   7  25
TORSDOF 6
ENDMDL
