MODEL 1
REMARK VINA RESULT:     0.390      0.000      0.000
REMARK INTER + INTRA:          -0.311
REMARK INTER:                   0.983
REMARK INTRA:                  -1.295
REMARK UNBOUND:                -1.295
REMARK SMILES CCCCCCCCCCCCCCCCCCCCCCCCCCCC(=O)[O-]
REMARK SMILES IDX 15 1 16 2 17 3 18 4 19 5 20 6 21 7 22 8 23 9 24 10 25 11
REMARK SMILES IDX 26 12 27 13 28 14 29 15 30 16 14 17 13 18 12 19 11 20 10 21
REMARK SMILES IDX 9 22 8 23 7 24 6 25 5 26 4 27 3 28 2 29 1 30
REMARK H PARENT
REMARK Flexibility Score: inf
ROOT
ATOM      1  C   UNL     1      -2.810 -21.640  15.687  1.00  0.00     0.000 C 
ENDROOT
BRANCH   1   2
ATOM      2  C   UNL     1      -2.028 -22.951  15.884  1.00  0.00     0.000 C 
BRANCH   2   3
ATOM      3  C   UNL     1      -0.835 -23.093  14.921  1.00  0.00     0.000 C 
BRANCH   3   4
ATOM      4  C   UNL     1       0.427 -22.304  15.318  1.00  0.00     0.000 C 
BRANCH   4   5
ATOM      5  C   UNL     1       1.271 -23.019  16.388  1.00  0.00     0.000 C 
BRANCH   5   6
ATOM      6  C   UNL     1       2.760 -23.124  15.993  1.00  0.00     0.000 C 
BRANCH   6   7
ATOM      7  C   UNL     1       3.663 -22.100  16.708  1.00  0.00     0.000 C 
BRANCH   7   8
ATOM      8  C   UNL     1       5.170 -22.411  16.647  1.00  0.00     0.000 C 
BRANCH   8   9
ATOM      9  C   UNL     1       5.980 -21.961  17.879  1.00  0.00     0.000 C 
BRANCH   9  10
ATOM     10  C   UNL     1       7.227 -21.114  17.568  1.00  0.00     0.000 C 
BRANCH  10  11
ATOM     11  C   UNL     1       8.365 -21.931  16.939  1.00  0.00     0.000 C 
BRANCH  11  12
ATOM     12  C   UNL     1       7.991 -22.399  15.527  1.00  0.00     0.006 C 
BRANCH  12  13
ATOM     13  C   UNL     1       8.121 -21.255  14.517  1.00  0.00     0.053 C 
BRANCH  13  14
ATOM     14  C   UNL     1       8.256 -21.791  13.126  1.00  0.00     0.041 C 
ATOM     15  O   UNL     1       8.933 -22.830  12.911  1.00  0.00    -0.550 OA
ATOM     16  O   UNL     1       7.658 -21.127  12.063  1.00  0.00    -0.550 OA
ENDBRANCH  13  14
ENDBRANCH  12  13
ENDBRANCH  11  12
ENDBRANCH  10  11
ENDBRANCH   9  10
ENDBRANCH   8   9
ENDBRANCH   7   8
ENDBRANCH   6   7
ENDBRANCH   5   6
ENDBRANCH   4   5
ENDBRANCH   3   4
ENDBRANCH   2   3
ENDBRANCH   1   2
BRANCH   1  17
ATOM     17  C   UNL     1      -4.316 -21.791  15.971  1.00  0.00     0.000 C 
BRANCH  17  18
ATOM     18  C   UNL     1      -4.717 -23.086  16.700  1.00  0.00     0.000 C 
BRANCH  18  19
ATOM     19  C   UNL     1      -5.942 -22.906  17.609  1.00  0.00     0.000 C 
BRANCH  19  20
ATOM     20  C   UNL     1      -6.920 -21.881  17.015  1.00  0.00     0.000 C 
BRANCH  20  21
ATOM     21  C   UNL     1      -8.238 -21.792  17.800  1.00  0.00     0.000 C 
BRANCH  21  22
ATOM     22  C   UNL     1      -9.375 -22.586  17.133  1.00  0.00    -0.000 C 
BRANCH  22  23
ATOM     23  C   UNL     1     -10.453 -23.042  18.132  1.00  0.00    -0.000 C 
BRANCH  23  24
ATOM     24  C   UNL     1     -10.028 -23.018  19.612  1.00  0.00    -0.000 C 
BRANCH  24  25
ATOM     25  C   UNL     1     -11.091 -22.402  20.534  1.00  0.00    -0.000 C 
BRANCH  25  26
ATOM     26  C   UNL     1     -10.445 -21.477  21.576  1.00  0.00    -0.000 C 
BRANCH  26  27
ATOM     27  C   UNL     1      -9.913 -22.244  22.798  1.00  0.00    -0.000 C 
BRANCH  27  28
ATOM     28  C   UNL     1      -8.428 -21.958  23.071  1.00  0.00    -0.000 C 
BRANCH  28  29
ATOM     29  C   UNL     1      -7.549 -23.113  22.579  1.00  0.00    -0.003 C 
ATOM     30  C   UNL     1      -6.938 -22.799  21.215  1.00  0.00     0.004 C 
ENDBRANCH  28  29
ENDBRANCH  27  28
ENDBRANCH  26  27
ENDBRANCH  25  26
ENDBRANCH  24  25
ENDBRANCH  23  24
ENDBRANCH  22  23
ENDBRANCH  21  22
ENDBRANCH  20  21
ENDBRANCH  19  20
ENDBRANCH  18  19
ENDBRANCH  17  18
ENDBRANCH   1  17
TORSDOF 26
ENDMDL
MODEL 2
REMARK VINA RESULT:     1.920      5.212     14.676
REMARK INTER + INTRA:           3.544
REMARK INTER:                   4.524
REMARK INTRA:                  -0.980
REMARK UNBOUND:                -1.295
REMARK SMILES CCCCCCCCCCCCCCCCCCCCCCCCCCCC(=O)[O-]
REMARK SMILES IDX 15 1 16 2 17 3 18 4 19 5 20 6 21 7 22 8 23 9 24 10 25 11
REMARK SMILES IDX 26 12 27 13 28 14 29 15 30 16 14 17 13 18 12 19 11 20 10 21
REMARK SMILES IDX 9 22 8 23 7 24 6 25 5 26 4 27 3 28 2 29 1 30
REMARK H PARENT
REMARK Flexibility Score: inf
ROOT
ATOM      1  C   UNL     1      -3.360 -21.378  16.185  1.00  0.00     0.000 C 
ENDROOT
BRANCH   1   2
ATOM      2  C   UNL     1      -4.429 -22.273  16.837  1.00  0.00     0.000 C 
BRANCH   2   3
ATOM      3  C   UNL     1      -5.660 -22.497  15.939  1.00  0.00     0.000 C 
BRANCH   3   4
ATOM      4  C   UNL     1      -6.988 -22.718  16.689  1.00  0.00     0.000 C 
BRANCH   4   5
ATOM      5  C   UNL     1      -8.102 -21.760  16.235  1.00  0.00     0.000 C 
BRANCH   5   6
ATOM      6  C   UNL     1      -9.503 -22.223  16.692  1.00  0.00     0.000 C 
BRANCH   6   7
ATOM      7  C   UNL     1      -9.913 -21.680  18.074  1.00  0.00     0.000 C 
BRANCH   7   8
ATOM      8  C   UNL     1     -10.208 -22.759  19.133  1.00  0.00     0.000 C 
BRANCH   8   9
ATOM      9  C   UNL     1      -9.038 -23.072  20.088  1.00  0.00     0.000 C 
BRANCH   9  10
ATOM     10  C   UNL     1      -9.370 -22.958  21.586  1.00  0.00     0.000 C 
BRANCH  10  11
ATOM     11  C   UNL     1      -8.128 -22.733  22.460  1.00  0.00     0.000 C 
BRANCH  11  12
ATOM     12  C   UNL     1      -7.954 -21.246  22.795  1.00  0.00     0.006 C 
BRANCH  12  13
ATOM     13  C   UNL     1      -9.309 -20.535  22.860  1.00  0.00     0.053 C 
BRANCH  13  14
ATOM     14  C   UNL     1      -9.694 -20.006  21.514  1.00  0.00     0.041 C 
ATOM     15  O   UNL     1      -8.805 -19.697  20.678  1.00  0.00    -0.550 OA
ATOM     16  O   UNL     1     -11.033 -19.828  21.194  1.00  0.00    -0.550 OA
ENDBRANCH  13  14
ENDBRANCH  12  13
ENDBRANCH  11  12
ENDBRANCH  10  11
ENDBRANCH   9  10
ENDBRANCH   8   9
ENDBRANCH   7   8
ENDBRANCH   6   7
ENDBRANCH   5   6
ENDBRANCH   4   5
ENDBRANCH   3   4
ENDBRANCH   2   3
ENDBRANCH   1   2
BRANCH   1  17
ATOM     17  C   UNL     1      -1.924 -21.793  16.552  1.00  0.00     0.000 C 
BRANCH  17  18
ATOM     18  C   UNL     1      -1.169 -22.572  15.461  1.00  0.00     0.000 C 
BRANCH  18  19
ATOM     19  C   UNL     1       0.180 -23.125  15.945  1.00  0.00     0.000 C 
BRANCH  19  20
ATOM     20  C   UNL     1       1.266 -22.935  14.875  1.00  0.00     0.000 C 
BRANCH  20  21
ATOM     21  C   UNL     1       2.357 -21.941  15.305  1.00  0.00     0.000 C 
BRANCH  21  22
ATOM     22  C   UNL     1       3.408 -22.584  16.227  1.00  0.00    -0.000 C 
BRANCH  22  23
ATOM     23  C   UNL     1       4.692 -22.988  15.481  1.00  0.00    -0.000 C 
BRANCH  23  24
ATOM     24  C   UNL     1       5.970 -23.011  16.341  1.00  0.00    -0.000 C 
BRANCH  24  25
ATOM     25  C   UNL     1       6.165 -21.728  17.162  1.00  0.00    -0.000 C 
BRANCH  25  26
ATOM     26  C   UNL     1       7.647 -21.325  17.210  1.00  0.00    -0.000 C 
BRANCH  26  27
ATOM     27  C   UNL     1       8.429 -21.804  15.976  1.00  0.00    -0.000 C 
BRANCH  27  28
ATOM     28  C   UNL     1       8.253 -20.869  14.769  1.00  0.00    -0.000 C 
BRANCH  28  29
ATOM     29  C   UNL     1       8.280 -21.659  13.457  1.00  0.00    -0.003 C 
ATOM     30  C   UNL     1       8.853 -20.819  12.318  1.00  0.00     0.004 C 
ENDBRANCH  28  29
ENDBRANCH  27  28
ENDBRANCH  26  27
ENDBRANCH  25  26
ENDBRANCH  24  25
ENDBRANCH  23  24
ENDBRANCH  22  23
ENDBRANCH  21  22
ENDBRANCH  20  21
ENDBRANCH  19  20
ENDBRANCH  18  19
ENDBRANCH  17  18
ENDBRANCH   1  17
TORSDOF 26
ENDMDL
MODEL 3
REMARK VINA RESULT:     2.464      5.068     14.774
REMARK INTER + INTRA:           4.915
REMARK INTER:                   6.358
REMARK INTRA:                  -1.444
REMARK UNBOUND:                -1.295
REMARK SMILES CCCCCCCCCCCCCCCCCCCCCCCCCCCC(=O)[O-]
REMARK SMILES IDX 15 1 16 2 17 3 18 4 19 5 20 6 21 7 22 8 23 9 24 10 25 11
REMARK SMILES IDX 26 12 27 13 28 14 29 15 30 16 14 17 13 18 12 19 11 20 10 21
REMARK SMILES IDX 9 22 8 23 7 24 6 25 5 26 4 27 3 28 2 29 1 30
REMARK H PARENT
REMARK Flexibility Score: inf
ROOT
ATOM      1  C   UNL     1      -3.257 -21.158  16.251  1.00  0.00     0.000 C 
ENDROOT
BRANCH   1   2
ATOM      2  C   UNL     1      -4.490 -22.074  16.339  1.00  0.00     0.000 C 
BRANCH   2   3
ATOM      3  C   UNL     1      -5.545 -21.773  15.257  1.00  0.00     0.000 C 
BRANCH   3   4
ATOM      4  C   UNL     1      -7.004 -21.748  15.751  1.00  0.00     0.000 C 
BRANCH   4   5
ATOM      5  C   UNL     1      -7.753 -20.466  15.350  1.00  0.00     0.000 C 
BRANCH   5   6
ATOM      6  C   UNL     1      -9.191 -20.750  14.862  1.00  0.00     0.000 C 
BRANCH   6   7
ATOM      7  C   UNL     1     -10.270 -20.476  15.928  1.00  0.00     0.000 C 
BRANCH   7   8
ATOM      8  C   UNL     1     -11.018 -21.725  16.428  1.00  0.00     0.000 C 
BRANCH   8   9
ATOM      9  C   UNL     1     -10.267 -22.555  17.489  1.00  0.00     0.000 C 
BRANCH   9  10
ATOM     10  C   UNL     1     -11.124 -23.026  18.677  1.00  0.00     0.000 C 
BRANCH  10  11
ATOM     11  C   UNL     1     -10.362 -23.013  20.009  1.00  0.00     0.000 C 
BRANCH  11  12
ATOM     12  C   UNL     1      -9.782 -21.623  20.298  1.00  0.00     0.006 C 
BRANCH  12  13
ATOM     13  C   UNL     1      -9.660 -21.380  21.806  1.00  0.00     0.053 C 
BRANCH  13  14
ATOM     14  C   UNL     1      -8.501 -22.141  22.371  1.00  0.00     0.041 C 
ATOM     15  O   UNL     1      -8.334 -22.207  23.616  1.00  0.00    -0.550 OA
ATOM     16  O   UNL     1      -7.589 -22.753  21.520  1.00  0.00    -0.550 OA
ENDBRANCH  13  14
ENDBRANCH  12  13
ENDBRANCH  11  12
ENDBRANCH  10  11
ENDBRANCH   9  10
ENDBRANCH   8   9
ENDBRANCH   7   8
ENDBRANCH   6   7
ENDBRANCH   5   6
ENDBRANCH   4   5
ENDBRANCH   3   4
ENDBRANCH   2   3
ENDBRANCH   1   2
BRANCH   1  17
ATOM     17  C   UNL     1      -1.964 -21.847  16.724  1.00  0.00     0.000 C 
BRANCH  17  18
ATOM     18  C   UNL     1      -1.109 -22.472  15.607  1.00  0.00     0.000 C 
BRANCH  18  19
ATOM     19  C   UNL     1       0.182 -23.117  16.131  1.00  0.00     0.000 C 
BRANCH  19  20
ATOM     20  C   UNL     1       1.415 -22.519  15.435  1.00  0.00     0.000 C 
BRANCH  20  21
ATOM     21  C   UNL     1       2.501 -22.074  16.427  1.00  0.00     0.000 C 
BRANCH  21  22
ATOM     22  C   UNL     1       3.612 -23.125  16.592  1.00  0.00    -0.000 C 
BRANCH  22  23
ATOM     23  C   UNL     1       4.727 -22.989  15.539  1.00  0.00    -0.000 C 
BRANCH  23  24
ATOM     24  C   UNL     1       6.162 -23.124  16.083  1.00  0.00    -0.000 C 
BRANCH  24  25
ATOM     25  C   UNL     1       6.670 -21.847  16.767  1.00  0.00    -0.000 C 
BRANCH  25  26
ATOM     26  C   UNL     1       7.975 -21.358  16.122  1.00  0.00    -0.000 C 
BRANCH  26  27
ATOM     27  C   UNL     1       8.479 -22.304  15.020  1.00  0.00    -0.000 C 
BRANCH  27  28
ATOM     28  C   UNL     1       8.241 -21.744  13.609  1.00  0.00    -0.000 C 
BRANCH  28  29
ATOM     29  C   UNL     1       7.630 -22.810  12.694  1.00  0.00    -0.003 C 
ATOM     30  C   UNL     1       6.278 -22.359  12.146  1.00  0.00     0.004 C 
ENDBRANCH  28  29
ENDBRANCH  27  28
ENDBRANCH  26  27
ENDBRANCH  25  26
ENDBRANCH  24  25
ENDBRANCH  23  24
ENDBRANCH  22  23
ENDBRANCH  21  22
ENDBRANCH  20  21
ENDBRANCH  19  20
ENDBRANCH  18  19
ENDBRANCH  17  18
ENDBRANCH   1  17
TORSDOF 26
ENDMDL
