MODEL 1
REMARK VINA RESULT:    -3.475      0.000      0.000
REMARK INTER + INTRA:          -4.411
REMARK INTER:                  -4.288
REMARK INTRA:                  -0.122
REMARK UNBOUND:                -0.122
REMARK SMILES CCCCCC(=O)[O-]
REMARK SMILES IDX 4 1 5 2 6 3 7 4 8 5 3 6 2 7 1 8
REMARK H PARENT
REMARK Flexibility Score: inf
ROOT
ATOM      1  C   UNL     1     -10.950   1.325  15.289  1.00  0.00     0.006 C 
ENDROOT
BRANCH   1   2
ATOM      2  C   UNL     1     -12.283   1.677  15.962  1.00  0.00     0.053 C 
BRANCH   2   3
ATOM      3  C   UNL     1     -12.257   3.085  16.466  1.00  0.00     0.041 C 
ATOM      4  O   UNL     1     -13.120   3.477  17.296  1.00  0.00    -0.550 OA
ATOM      5  O   UNL     1     -11.312   3.980  15.983  1.00  0.00    -0.550 OA
ENDBRANCH   2   3
ENDBRANCH   1   2
BRANCH   1   6
ATOM      6  C   UNL     1     -11.112   0.303  14.154  1.00  0.00     0.000 C 
BRANCH   6   7
ATOM      7  C   UNL     1     -12.578  -0.089  13.916  1.00  0.00    -0.003 C 
ATOM      8  C   UNL     1     -12.693  -1.547  13.479  1.00  0.00     0.004 C 
ENDBRANCH   6   7
ENDBRANCH   1   6
TORSDOF 4
ENDMDL
MODEL 2
REMARK VINA RESULT:    -3.337      2.765      4.236
REMARK INTER + INTRA:          -4.240
REMARK INTER:                  -4.077
REMARK INTRA:                  -0.163
REMARK UNBOUND:                -0.122
REMARK SMILES CCCCCC(=O)[O-]
REMARK SMILES IDX 4 1 5 2 6 3 7 4 8 5 3 6 2 7 1 8
REMARK H PARENT
REMARK Flexibility Score: inf
ROOT
ATOM      1  C   UNL     1     -10.103   2.855  15.647  1.00  0.00     0.006 C 
ENDROOT
BRANCH   1   2
ATOM      2  C   UNL     1     -10.426   1.362  15.785  1.00  0.00     0.053 C 
BRANCH   2   3
ATOM      3  C   UNL     1     -10.432   0.702  14.443  1.00  0.00     0.041 C 
ATOM      4  O   UNL     1     -11.520   0.368  13.906  1.00  0.00    -0.550 OA
ATOM      5  O   UNL     1      -9.233   0.411  13.806  1.00  0.00    -0.550 OA
ENDBRANCH   2   3
ENDBRANCH   1   2
BRANCH   1   6
ATOM      6  C   UNL     1     -11.312   3.754  15.948  1.00  0.00     0.000 C 
BRANCH   6   7
ATOM      7  C   UNL     1     -12.481   2.981  16.577  1.00  0.00    -0.003 C 
ATOM      8  C   UNL     1     -13.033   3.717  17.795  1.00  0.00     0.004 C 
ENDBRANCH   6   7
ENDBRANCH   1   6
TORSDOF 4
ENDMDL
MODEL 3
REMARK VINA RESULT:    -3.299      2.712      4.538
REMARK INTER + INTRA:          -4.193
REMARK INTER:                  -4.131
REMARK INTRA:                  -0.062
REMARK UNBOUND:                -0.122
REMARK SMILES CCCCCC(=O)[O-]
REMARK SMILES IDX 4 1 5 2 6 3 7 4 8 5 3 6 2 7 1 8
REMARK H PARENT
REMARK Flexibility Score: inf
ROOT
ATOM      1  C   UNL     1     -11.572   1.977  15.874  1.00  0.00     0.006 C 
ENDROOT
BRANCH   1   2
ATOM      2  C   UNL     1     -12.518   0.885  15.359  1.00  0.00     0.053 C 
BRANCH   2   3
ATOM      3  C   UNL     1     -11.933   0.208  14.160  1.00  0.00     0.041 C 
ATOM      4  O   UNL     1     -12.672  -0.438  13.373  1.00  0.00    -0.550 OA
ATOM      5  O   UNL     1     -10.562   0.249  13.939  1.00  0.00    -0.550 OA
ENDBRANCH   2   3
ENDBRANCH   1   2
BRANCH   1   6
ATOM      6  C   UNL     1     -11.912   2.430  17.302  1.00  0.00     0.000 C 
BRANCH   6   7
ATOM      7  C   UNL     1     -12.918   3.590  17.330  1.00  0.00    -0.003 C 
ATOM      8  C   UNL     1     -13.258   3.988  18.764  1.00  0.00     0.004 C 
ENDBRANCH   6   7
ENDBRANCH   1   6
TORSDOF 4
ENDMDL
MODEL 4
REMARK VINA RESULT:    -3.280      2.529      4.036
REMARK INTER + INTRA:          -4.170
REMARK INTER:                  -3.960
REMARK INTRA:                  -0.210
REMARK UNBOUND:                -0.122
REMARK SMILES CCCCCC(=O)[O-]
REMARK SMILES IDX 4 1 5 2 6 3 7 4 8 5 3 6 2 7 1 8
REMARK H PARENT
REMARK Flexibility Score: inf
ROOT
ATOM      1  C   UNL     1     -10.157   1.160  15.621  1.00  0.00     0.006 C 
ENDROOT
BRANCH   1   2
ATOM      2  C   UNL     1     -10.612   0.655  14.247  1.00  0.00     0.053 C 
BRANCH   2   3
ATOM      3  C   UNL     1     -12.024   0.164  14.311  1.00  0.00     0.041 C 
ATOM      4  O   UNL     1     -12.776   0.520  15.256  1.00  0.00    -0.550 OA
ATOM      5  O   UNL     1     -12.495  -0.726  13.356  1.00  0.00    -0.550 OA
ENDBRANCH   2   3
ENDBRANCH   1   2
BRANCH   1   6
ATOM      6  C   UNL     1      -9.852   2.666  15.628  1.00  0.00     0.000 C 
BRANCH   6   7
ATOM      7  C   UNL     1     -11.073   3.514  16.015  1.00  0.00    -0.003 C 
ATOM      8  C   UNL     1     -11.670   3.045  17.340  1.00  0.00     0.004 C 
ENDBRANCH   6   7
ENDBRANCH   1   6
TORSDOF 4
ENDMDL
MODEL 5
REMARK VINA RESULT:    -3.246      4.010      5.212
REMARK INTER + INTRA:          -4.127
REMARK INTER:                  -4.030
REMARK INTRA:                  -0.097
REMARK UNBOUND:                -0.122
REMARK SMILES CCCCCC(=O)[O-]
REMARK SMILES IDX 4 1 5 2 6 3 7 4 8 5 3 6 2 7 1 8
REMARK H PARENT
REMARK Flexibility Score: inf
ROOT
ATOM      1  C   UNL     1     -12.135  -0.216  13.795  1.00  0.00     0.006 C 
ENDROOT
BRANCH   1   2
ATOM      2  C   UNL     1     -12.947  -1.517  13.773  1.00  0.00     0.053 C 
BRANCH   2   3
ATOM      3  C   UNL     1     -12.214  -2.578  13.015  1.00  0.00     0.041 C 
ATOM      4  O   UNL     1     -12.771  -3.169  12.053  1.00  0.00    -0.550 OA
ATOM      5  O   UNL     1     -10.932  -2.949  13.401  1.00  0.00    -0.550 OA
ENDBRANCH   2   3
ENDBRANCH   1   2
BRANCH   1   6
ATOM      6  C   UNL     1     -12.468   0.670  15.005  1.00  0.00     0.000 C 
BRANCH   6   7
ATOM      7  C   UNL     1     -11.222   1.330  15.615  1.00  0.00    -0.003 C 
ATOM      8  C   UNL     1      -9.987   1.071  14.756  1.00  0.00     0.004 C 
ENDBRANCH   6   7
ENDBRANCH   1   6
TORSDOF 4
ENDMDL
MODEL 6
REMARK VINA RESULT:    -3.232      1.923      2.345
REMARK INTER + INTRA:          -4.111
REMARK INTER:                  -3.987
REMARK INTRA:                  -0.124
REMARK UNBOUND:                -0.122
REMARK SMILES CCCCCC(=O)[O-]
REMARK SMILES IDX 4 1 5 2 6 3 7 4 8 5 3 6 2 7 1 8
REMARK H PARENT
REMARK Flexibility Score: inf
ROOT
ATOM      1  C   UNL     1     -10.760  -0.220  14.106  1.00  0.00     0.006 C 
ENDROOT
BRANCH   1   2
ATOM      2  C   UNL     1      -9.932   1.071  14.076  1.00  0.00     0.053 C 
BRANCH   2   3
ATOM      3  C   UNL     1     -10.003   1.769  15.397  1.00  0.00     0.041 C 
ATOM      4  O   UNL     1      -9.913   1.111  16.467  1.00  0.00    -0.550 OA
ATOM      5  O   UNL     1     -10.220   3.140  15.449  1.00  0.00    -0.550 OA
ENDBRANCH   2   3
ENDBRANCH   1   2
BRANCH   1   6
ATOM      6  C   UNL     1     -12.259   0.033  13.881  1.00  0.00     0.000 C 
BRANCH   6   7
ATOM      7  C   UNL     1     -13.081  -1.265  13.866  1.00  0.00    -0.003 C 
ATOM      8  C   UNL     1     -12.356  -2.365  13.095  1.00  0.00     0.004 C 
ENDBRANCH   6   7
ENDBRANCH   1   6
TORSDOF 4
ENDMDL
MODEL 7
REMARK VINA RESULT:    -3.185     13.731     14.533
REMARK INTER + INTRA:          -4.053
REMARK INTER:                  -3.878
REMARK INTRA:                  -0.175
REMARK UNBOUND:                -0.122
REMARK SMILES CCCCCC(=O)[O-]
REMARK SMILES IDX 4 1 5 2 6 3 7 4 8 5 3 6 2 7 1 8
REMARK H PARENT
REMARK Flexibility Score: inf
ROOT
ATOM      1  C   UNL     1      -1.280  -2.985  22.319  1.00  0.00     0.006 C 
ENDROOT
BRANCH   1   2
ATOM      2  C   UNL     1      -0.518  -4.199  22.864  1.00  0.00     0.053 C 
BRANCH   2   3
ATOM      3  C   UNL     1      -0.085  -3.955  24.275  1.00  0.00     0.041 C 
ATOM      4  O   UNL     1       0.905  -4.571  24.750  1.00  0.00    -0.550 OA
ATOM      5  O   UNL     1      -0.805  -3.083  25.082  1.00  0.00    -0.550 OA
ENDBRANCH   2   3
ENDBRANCH   1   2
BRANCH   1   6
ATOM      6  C   UNL     1      -2.749  -3.301  22.001  1.00  0.00     0.000 C 
BRANCH   6   7
ATOM      7  C   UNL     1      -3.694  -2.144  22.360  1.00  0.00    -0.003 C 
ATOM      8  C   UNL     1      -2.995  -1.120  23.251  1.00  0.00     0.004 C 
ENDBRANCH   6   7
ENDBRANCH   1   6
TORSDOF 4
ENDMDL
MODEL 8
REMARK VINA RESULT:    -3.100      1.909      2.285
REMARK INTER + INTRA:          -3.947
REMARK INTER:                  -3.870
REMARK INTRA:                  -0.076
REMARK UNBOUND:                -0.122
REMARK SMILES CCCCCC(=O)[O-]
REMARK SMILES IDX 4 1 5 2 6 3 7 4 8 5 3 6 2 7 1 8
REMARK H PARENT
REMARK Flexibility Score: inf
ROOT
ATOM      1  C   UNL     1     -10.760   3.375  15.896  1.00  0.00     0.006 C 
ENDROOT
BRANCH   1   2
ATOM      2  C   UNL     1     -12.148   3.021  16.445  1.00  0.00     0.053 C 
BRANCH   2   3
ATOM      3  C   UNL     1     -12.579   4.027  17.465  1.00  0.00     0.041 C 
ATOM      4  O   UNL     1     -13.528   3.767  18.250  1.00  0.00    -0.550 OA
ATOM      5  O   UNL     1     -11.964   5.271  17.518  1.00  0.00    -0.550 OA
ENDBRANCH   2   3
ENDBRANCH   1   2
BRANCH   1   6
ATOM      6  C   UNL     1      -9.864   2.141  15.711  1.00  0.00     0.000 C 
BRANCH   6   7
ATOM      7  C   UNL     1     -10.539   1.039  14.880  1.00  0.00    -0.003 C 
ATOM      8  C   UNL     1      -9.520   0.301  14.016  1.00  0.00     0.004 C 
ENDBRANCH   6   7
ENDBRANCH   1   6
TORSDOF 4
ENDMDL
MODEL 9
REMARK VINA RESULT:    -3.014      1.457      2.009
REMARK INTER + INTRA:          -3.842
REMARK INTER:                  -3.749
REMARK INTRA:                  -0.092
REMARK UNBOUND:                -0.122
REMARK SMILES CCCCCC(=O)[O-]
REMARK SMILES IDX 4 1 5 2 6 3 7 4 8 5 3 6 2 7 1 8
REMARK H PARENT
REMARK Flexibility Score: inf
ROOT
ATOM      1  C   UNL     1     -11.659   1.765  16.194  1.00  0.00     0.006 C 
ENDROOT
BRANCH   1   2
ATOM      2  C   UNL     1     -12.482   2.964  16.684  1.00  0.00     0.053 C 
BRANCH   2   3
ATOM      3  C   UNL     1     -11.596   4.147  16.914  1.00  0.00     0.041 C 
ATOM      4  O   UNL     1     -10.567   4.038  17.631  1.00  0.00    -0.550 OA
ATOM      5  O   UNL     1     -11.934   5.383  16.379  1.00  0.00    -0.550 OA
ENDBRANCH   2   3
ENDBRANCH   1   2
BRANCH   1   6
ATOM      6  C   UNL     1     -12.430   0.883  15.201  1.00  0.00     0.000 C 
BRANCH   6   7
ATOM      7  C   UNL     1     -11.518   0.251  14.139  1.00  0.00    -0.003 C 
ATOM      8  C   UNL     1     -10.110   0.838  14.206  1.00  0.00     0.004 C 
ENDBRANCH   6   7
ENDBRANCH   1   6
TORSDOF 4
ENDMDL
