MODEL 1
REMARK VINA RESULT:    -7.610      0.000      0.000
REMARK INTER + INTRA:          -7.833
REMARK INTER:                  -7.833
REMARK INTRA:                   0.000
REMARK UNBOUND:                 0.000
REMARK SMILES C[C@@H]1CC[C@]2(OC1)O[C@@H]1C[C@@H]3[C@H]4CC=C5C[C@H](O)CC[C@]5(C)[C@H]4CC[C@]3(C)[C@@H]1[C@H]2C
REMARK SMILES IDX 1 1 2 2 3 3 4 4 5 5 29 6 28 7 9 8 8 9 10 10 11 11 26 12
REMARK SMILES IDX 25 13 24 14 23 15 12 16 13 17 14 18 15 19 21 20 20 21 19 22
REMARK SMILES IDX 17 23 16 24 22 25 27 26 30 27 6 28 7 29 18 30
REMARK H PARENT 18 31
REMARK Flexibility Score: inf
ROOT
ATOM      1  C   UNL     1      17.036 -15.875  12.492  1.00  0.00     0.010 C 
ATOM      2  C   UNL     1      18.462 -15.317  12.625  1.00  0.00     0.012 C 
ATOM      3  C   UNL     1      18.670 -14.133  11.665  1.00  0.00     0.011 C 
ATOM      4  C   UNL     1      20.157 -13.900  11.415  1.00  0.00     0.066 C 
ATOM      5  C   UNL     1      20.840 -15.199  10.864  1.00  0.00     0.171 C 
ATOM      6  C   UNL     1      21.191 -15.063   9.349  1.00  0.00     0.052 C 
ATOM      7  C   UNL     1      22.654 -15.512   9.274  1.00  0.00     0.033 C 
ATOM      8  C   UNL     1      22.930 -16.044  10.660  1.00  0.00     0.126 C 
ATOM      9  O   UNL     1      22.063 -15.385  11.549  1.00  0.00    -0.346 OA
ATOM     10  C   UNL     1      24.386 -15.741  10.988  1.00  0.00     0.037 C 
ATOM     11  C   UNL     1      24.974 -15.035   9.759  1.00  0.00     0.002 C 
ATOM     12  C   UNL     1      23.760 -14.438   9.001  1.00  0.00    -0.024 C 
ATOM     13  C   UNL     1      23.391 -13.035   9.571  1.00  0.00     0.008 C 
ATOM     14  C   UNL     1      24.585 -12.089   9.720  1.00  0.00     0.005 C 
ATOM     15  C   UNL     1      25.652 -12.680  10.673  1.00  0.00     0.003 C 
ATOM     16  C   UNL     1      26.126 -14.061  10.154  1.00  0.00     0.000 C 
ATOM     17  C   UNL     1      27.157 -13.861   9.027  1.00  0.00     0.031 C 
ATOM     18  C   UNL     1      28.360 -13.185   9.597  1.00  0.00    -0.027 C 
ATOM     19  C   UNL     1      28.250 -12.257  10.569  1.00  0.00    -0.065 C 
ATOM     20  C   UNL     1      26.882 -11.710  11.036  1.00  0.00    -0.008 C 
ATOM     21  C   UNL     1      26.905 -11.573  12.595  1.00  0.00     0.014 C 
ATOM     22  C   UNL     1      28.174 -10.918  13.161  1.00  0.00     0.033 C 
ATOM     23  C   UNL     1      29.430 -11.675  12.708  1.00  0.00     0.118 C 
ATOM     24  C   UNL     1      29.519 -11.688  11.180  1.00  0.00     0.063 C 
ATOM     25  C   UNL     1      26.723 -10.299  10.416  1.00  0.00     0.016 C 
ATOM     26  C   UNL     1      24.005 -14.356   7.478  1.00  0.00     0.012 C 
ATOM     27  C   UNL     1      20.291 -15.909   8.432  1.00  0.00     0.014 C 
ATOM     28  O   UNL     1      20.023 -16.353  11.069  1.00  0.00    -0.349 OA
ATOM     29  C   UNL     1      19.530 -16.410  12.390  1.00  0.00     0.167 C 
ENDROOT
BRANCH  23  30
ATOM     30  O   UNL     1      29.404 -12.994  13.191  1.00  0.00    -0.393 OA
ATOM     31  H   UNL     1      29.515 -13.595  12.405  1.00  0.00     0.210 HD
ENDBRANCH  23  30
TORSDOF 1
ENDMDL
MODEL 2
REMARK VINA RESULT:    -7.369      1.842      8.000
REMARK INTER + INTRA:          -7.584
REMARK INTER:                  -7.584
REMARK INTRA:                   0.000
REMARK UNBOUND:                 0.000
REMARK SMILES C[C@@H]1CC[C@]2(OC1)O[C@@H]1C[C@@H]3[C@H]4CC=C5C[C@H](O)CC[C@]5(C)[C@H]4CC[C@]3(C)[C@@H]1[C@H]2C
REMARK SMILES IDX 1 1 2 2 3 3 4 4 5 5 29 6 28 7 9 8 8 9 10 10 11 11 26 12
REMARK SMILES IDX 25 13 24 14 23 15 12 16 13 17 14 18 15 19 21 20 20 21 19 22
REMARK SMILES IDX 17 23 16 24 22 25 27 26 30 27 6 28 7 29 18 30
REMARK H PARENT 18 31
REMARK Flexibility Score: inf
ROOT
ATOM      1  C   UNL     1      31.122 -10.155  14.130  1.00  0.00     0.010 C 
ATOM      2  C   UNL     1      29.661 -10.540  13.851  1.00  0.00     0.012 C 
ATOM      3  C   UNL     1      29.509 -12.069  13.783  1.00  0.00     0.011 C 
ATOM      4  C   UNL     1      28.235 -12.450  13.034  1.00  0.00     0.066 C 
ATOM      5  C   UNL     1      28.223 -11.818  11.599  1.00  0.00     0.171 C 
ATOM      6  C   UNL     1      28.462 -12.897  10.497  1.00  0.00     0.052 C 
ATOM      7  C   UNL     1      27.338 -12.640   9.488  1.00  0.00     0.033 C 
ATOM      8  C   UNL     1      26.713 -11.355   9.978  1.00  0.00     0.126 C 
ATOM      9  O   UNL     1      26.940 -11.273  11.363  1.00  0.00    -0.346 OA
ATOM     10  C   UNL     1      25.223 -11.420   9.668  1.00  0.00     0.037 C 
ATOM     11  C   UNL     1      24.980 -12.764   8.966  1.00  0.00     0.002 C 
ATOM     12  C   UNL     1      26.166 -13.672   9.384  1.00  0.00    -0.024 C 
ATOM     13  C   UNL     1      25.865 -14.381  10.740  1.00  0.00     0.008 C 
ATOM     14  C   UNL     1      24.490 -15.049  10.803  1.00  0.00     0.005 C 
ATOM     15  C   UNL     1      23.356 -14.016  10.590  1.00  0.00     0.003 C 
ATOM     16  C   UNL     1      23.539 -13.296   9.230  1.00  0.00     0.000 C 
ATOM     17  C   UNL     1      23.013 -14.195   8.096  1.00  0.00     0.031 C 
ATOM     18  C   UNL     1      21.544 -14.387   8.282  1.00  0.00    -0.027 C 
ATOM     19  C   UNL     1      20.998 -14.481   9.512  1.00  0.00    -0.065 C 
ATOM     20  C   UNL     1      21.859 -14.567  10.792  1.00  0.00    -0.008 C 
ATOM     21  C   UNL     1      21.197 -13.681  11.900  1.00  0.00     0.014 C 
ATOM     22  C   UNL     1      19.678 -13.862  12.040  1.00  0.00     0.033 C 
ATOM     23  C   UNL     1      18.970 -13.601  10.703  1.00  0.00     0.118 C 
ATOM     24  C   UNL     1      19.486 -14.567   9.633  1.00  0.00     0.063 C 
ATOM     25  C   UNL     1      21.833 -16.045  11.258  1.00  0.00     0.016 C 
ATOM     26  C   UNL     1      26.516 -14.711   8.297  1.00  0.00     0.012 C 
ATOM     27  C   UNL     1      29.848 -12.803   9.836  1.00  0.00     0.014 C 
ATOM     28  O   UNL     1      29.192 -10.775  11.473  1.00  0.00    -0.349 OA
ATOM     29  C   UNL     1      29.129  -9.877  12.558  1.00  0.00     0.167 C 
ENDROOT
BRANCH  23  30
ATOM     30  O   UNL     1      19.185 -12.277  10.288  1.00  0.00    -0.393 OA
ATOM     31  H   UNL     1      19.103 -11.700  11.096  1.00  0.00     0.210 HD
ENDBRANCH  23  30
TORSDOF 1
ENDMDL
MODEL 3
REMARK VINA RESULT:    -7.363     16.066     19.303
REMARK INTER + INTRA:          -7.578
REMARK INTER:                  -7.578
REMARK INTRA:                   0.000
REMARK UNBOUND:                 0.000
REMARK SMILES C[C@@H]1CC[C@]2(OC1)O[C@@H]1C[C@@H]3[C@H]4CC=C5C[C@H](O)CC[C@]5(C)[C@H]4CC[C@]3(C)[C@@H]1[C@H]2C
REMARK SMILES IDX 1 1 2 2 3 3 4 4 5 5 29 6 28 7 9 8 8 9 10 10 11 11 26 12
REMARK SMILES IDX 25 13 24 14 23 15 12 16 13 17 14 18 15 19 21 20 20 21 19 22
REMARK SMILES IDX 17 23 16 24 22 25 27 26 30 27 6 28 7 29 18 30
REMARK H PARENT 18 31
REMARK Flexibility Score: inf
ROOT
ATOM      1  C   UNL     1      31.125 -29.816  21.875  1.00  0.00     0.010 C 
ATOM      2  C   UNL     1      29.839 -29.012  21.627  1.00  0.00     0.012 C 
ATOM      3  C   UNL     1      29.639 -27.962  22.734  1.00  0.00     0.011 C 
ATOM      4  C   UNL     1      28.180 -27.519  22.796  1.00  0.00     0.066 C 
ATOM      5  C   UNL     1      27.232 -28.750  23.008  1.00  0.00     0.171 C 
ATOM      6  C   UNL     1      26.646 -28.778  24.454  1.00  0.00     0.052 C 
ATOM      7  C   UNL     1      25.143 -28.978  24.232  1.00  0.00     0.033 C 
ATOM      8  C   UNL     1      25.040 -29.249  22.750  1.00  0.00     0.126 C 
ATOM      9  O   UNL     1      26.133 -28.624  22.126  1.00  0.00    -0.346 OA
ATOM     10  C   UNL     1      23.721 -28.659  22.265  1.00  0.00     0.037 C 
ATOM     11  C   UNL     1      23.035 -28.050  23.496  1.00  0.00     0.002 C 
ATOM     12  C   UNL     1      24.172 -27.785  24.517  1.00  0.00    -0.024 C 
ATOM     13  C   UNL     1      24.831 -26.396  24.257  1.00  0.00     0.008 C 
ATOM     14  C   UNL     1      23.830 -25.250  24.096  1.00  0.00     0.005 C 
ATOM     15  C   UNL     1      22.872 -25.507  22.907  1.00  0.00     0.003 C 
ATOM     16  C   UNL     1      22.122 -26.848  23.106  1.00  0.00     0.000 C 
ATOM     17  C   UNL     1      20.949 -26.642  24.084  1.00  0.00     0.031 C 
ATOM     18  C   UNL     1      19.974 -25.697  23.465  1.00  0.00    -0.027 C 
ATOM     19  C   UNL     1      20.383 -24.669  22.693  1.00  0.00    -0.065 C 
ATOM     20  C   UNL     1      21.876 -24.300  22.537  1.00  0.00    -0.008 C 
ATOM     21  C   UNL     1      22.145 -23.936  21.038  1.00  0.00     0.014 C 
ATOM     22  C   UNL     1      21.101 -23.000  20.410  1.00  0.00     0.033 C 
ATOM     23  C   UNL     1      19.690 -23.591  20.534  1.00  0.00     0.118 C 
ATOM     24  C   UNL     1      19.335 -23.811  22.006  1.00  0.00     0.063 C 
ATOM     25  C   UNL     1      22.125 -23.041  23.405  1.00  0.00     0.016 C 
ATOM     26  C   UNL     1      23.679 -27.884  25.977  1.00  0.00     0.012 C 
ATOM     27  C   UNL     1      27.241 -29.889  25.337  1.00  0.00     0.014 C 
ATOM     28  O   UNL     1      27.899 -29.983  22.732  1.00  0.00    -0.349 OA
ATOM     29  C   UNL     1      28.601 -29.930  21.510  1.00  0.00     0.167 C 
ENDROOT
BRANCH  23  30
ATOM     30  O   UNL     1      19.611 -24.811  19.841  1.00  0.00    -0.393 OA
ATOM     31  H   UNL     1      19.145 -25.457  20.440  1.00  0.00     0.210 HD
ENDBRANCH  23  30
TORSDOF 1
ENDMDL
MODEL 4
REMARK VINA RESULT:    -7.297     15.729     17.919
REMARK INTER + INTRA:          -7.511
REMARK INTER:                  -7.511
REMARK INTRA:                   0.000
REMARK UNBOUND:                 0.000
REMARK SMILES C[C@@H]1CC[C@]2(OC1)O[C@@H]1C[C@@H]3[C@H]4CC=C5C[C@H](O)CC[C@]5(C)[C@H]4CC[C@]3(C)[C@@H]1[C@H]2C
REMARK SMILES IDX 1 1 2 2 3 3 4 4 5 5 29 6 28 7 9 8 8 9 10 10 11 11 26 12
REMARK SMILES IDX 25 13 24 14 23 15 12 16 13 17 14 18 15 19 21 20 20 21 19 22
REMARK SMILES IDX 17 23 16 24 22 25 27 26 30 27 6 28 7 29 18 30
REMARK H PARENT 18 31
REMARK Flexibility Score: inf
ROOT
ATOM      1  C   UNL     1      16.716 -26.198  18.707  1.00  0.00     0.010 C 
ATOM      2  C   UNL     1      18.206 -26.351  19.048  1.00  0.00     0.012 C 
ATOM      3  C   UNL     1      18.428 -27.572  19.957  1.00  0.00     0.011 C 
ATOM      4  C   UNL     1      19.758 -27.456  20.697  1.00  0.00     0.066 C 
ATOM      5  C   UNL     1      19.824 -26.122  21.518  1.00  0.00     0.171 C 
ATOM      6  C   UNL     1      19.696 -26.387  23.051  1.00  0.00     0.052 C 
ATOM      7  C   UNL     1      20.863 -25.599  23.654  1.00  0.00     0.033 C 
ATOM      8  C   UNL     1      21.402 -24.816  22.481  1.00  0.00     0.126 C 
ATOM      9  O   UNL     1      21.093 -25.534  21.312  1.00  0.00    -0.346 OA
ATOM     10  C   UNL     1      22.908 -24.688  22.665  1.00  0.00     0.037 C 
ATOM     11  C   UNL     1      23.250 -25.396  23.984  1.00  0.00     0.002 C 
ATOM     12  C   UNL     1      22.083 -26.386  24.239  1.00  0.00    -0.024 C 
ATOM     13  C   UNL     1      22.337 -27.737  23.503  1.00  0.00     0.008 C 
ATOM     14  C   UNL     1      23.735 -28.317  23.730  1.00  0.00     0.005 C 
ATOM     15  C   UNL     1      24.832 -27.341  23.240  1.00  0.00     0.003 C 
ATOM     16  C   UNL     1      24.696 -25.978  23.963  1.00  0.00     0.000 C 
ATOM     17  C   UNL     1      25.325 -26.074  25.366  1.00  0.00     0.031 C 
ATOM     18  C   UNL     1      26.787 -26.332  25.216  1.00  0.00    -0.027 C 
ATOM     19  C   UNL     1      27.267 -27.104  24.219  1.00  0.00    -0.065 C 
ATOM     20  C   UNL     1      26.338 -27.904  23.278  1.00  0.00    -0.008 C 
ATOM     21  C   UNL     1      26.897 -27.799  21.819  1.00  0.00     0.014 C 
ATOM     22  C   UNL     1      28.412 -28.021  21.697  1.00  0.00     0.033 C 
ATOM     23  C   UNL     1      29.183 -27.046  22.597  1.00  0.00     0.118 C 
ATOM     24  C   UNL     1      28.771 -27.237  24.059  1.00  0.00     0.063 C 
ATOM     25  C   UNL     1      26.404 -29.385  23.728  1.00  0.00     0.016 C 
ATOM     26  C   UNL     1      21.842 -26.628  25.745  1.00  0.00     0.012 C 
ATOM     27  C   UNL     1      18.347 -25.941  23.641  1.00  0.00     0.014 C 
ATOM     28  O   UNL     1      18.819 -25.195  21.102  1.00  0.00    -0.349 OA
ATOM     29  C   UNL     1      18.780 -25.070  19.698  1.00  0.00     0.167 C 
ENDROOT
BRANCH  23  30
ATOM     30  O   UNL     1      28.934 -25.720  22.205  1.00  0.00    -0.393 OA
ATOM     31  H   UNL     1      28.307 -25.331  22.874  1.00  0.00     0.210 HD
ENDBRANCH  23  30
TORSDOF 1
ENDMDL
MODEL 5
REMARK VINA RESULT:    -7.249      2.501      8.163
REMARK INTER + INTRA:          -7.461
REMARK INTER:                  -7.461
REMARK INTRA:                   0.000
REMARK UNBOUND:                 0.000
REMARK SMILES C[C@@H]1CC[C@]2(OC1)O[C@@H]1C[C@@H]3[C@H]4CC=C5C[C@H](O)CC[C@]5(C)[C@H]4CC[C@]3(C)[C@@H]1[C@H]2C
REMARK SMILES IDX 1 1 2 2 3 3 4 4 5 5 29 6 28 7 9 8 8 9 10 10 11 11 26 12
REMARK SMILES IDX 25 13 24 14 23 15 12 16 13 17 14 18 15 19 21 20 20 21 19 22
REMARK SMILES IDX 17 23 16 24 22 25 27 26 30 27 6 28 7 29 18 30
REMARK H PARENT 18 31
REMARK Flexibility Score: inf
ROOT
ATOM      1  C   UNL     1      31.125 -12.909  17.287  1.00  0.00     0.010 C 
ATOM      2  C   UNL     1      29.970 -13.148  16.303  1.00  0.00     0.012 C 
ATOM      3  C   UNL     1      30.487 -13.815  15.016  1.00  0.00     0.011 C 
ATOM      4  C   UNL     1      29.502 -13.606  13.870  1.00  0.00     0.066 C 
ATOM      5  C   UNL     1      29.227 -12.079  13.643  1.00  0.00     0.171 C 
ATOM      6  C   UNL     1      29.909 -11.563  12.337  1.00  0.00     0.052 C 
ATOM      7  C   UNL     1      28.787 -10.809  11.616  1.00  0.00     0.033 C 
ATOM      8  C   UNL     1      27.671 -10.782  12.633  1.00  0.00     0.126 C 
ATOM      9  O   UNL     1      27.835 -11.897  13.473  1.00  0.00    -0.346 OA
ATOM     10  C   UNL     1      26.354 -10.857  11.872  1.00  0.00     0.037 C 
ATOM     11  C   UNL     1      26.712 -10.909  10.380  1.00  0.00     0.002 C 
ATOM     12  C   UNL     1      28.170 -11.433  10.320  1.00  0.00    -0.024 C 
ATOM     13  C   UNL     1      28.196 -12.992  10.331  1.00  0.00     0.008 C 
ATOM     14  C   UNL     1      27.238 -13.638   9.328  1.00  0.00     0.005 C 
ATOM     15  C   UNL     1      25.772 -13.224   9.607  1.00  0.00     0.003 C 
ATOM     16  C   UNL     1      25.635 -11.681   9.559  1.00  0.00     0.000 C 
ATOM     17  C   UNL     1      25.549 -11.217   8.093  1.00  0.00     0.031 C 
ATOM     18  C   UNL     1      24.303 -11.774   7.489  1.00  0.00    -0.027 C 
ATOM     19  C   UNL     1      23.844 -12.997   7.826  1.00  0.00    -0.065 C 
ATOM     20  C   UNL     1      24.654 -13.963   8.719  1.00  0.00    -0.008 C 
ATOM     21  C   UNL     1      23.671 -14.660   9.719  1.00  0.00     0.014 C 
ATOM     22  C   UNL     1      22.375 -15.183   9.082  1.00  0.00     0.033 C 
ATOM     23  C   UNL     1      21.629 -14.056   8.354  1.00  0.00     0.118 C 
ATOM     24  C   UNL     1      22.513 -13.458   7.257  1.00  0.00     0.063 C 
ATOM     25  C   UNL     1      25.259 -15.042   7.786  1.00  0.00     0.016 C 
ATOM     26  C   UNL     1      28.936 -10.888   9.094  1.00  0.00     0.012 C 
ATOM     27  C   UNL     1      31.125 -10.656  12.597  1.00  0.00     0.014 C 
ATOM     28  O   UNL     1      29.657 -11.293  14.756  1.00  0.00    -0.349 OA
ATOM     29  C   UNL     1      29.212 -11.840  15.978  1.00  0.00     0.167 C 
ENDROOT
BRANCH  23  30
ATOM     30  O   UNL     1      21.259 -13.051   9.263  1.00  0.00    -0.393 OA
ATOM     31  H   UNL     1      22.094 -12.588   9.543  1.00  0.00     0.210 HD
ENDBRANCH  23  30
TORSDOF 1
ENDMDL
MODEL 6
REMARK VINA RESULT:    -7.231     16.036     19.687
REMARK INTER + INTRA:          -7.443
REMARK INTER:                  -7.443
REMARK INTRA:                   0.000
REMARK UNBOUND:                 0.000
REMARK SMILES C[C@@H]1CC[C@]2(OC1)O[C@@H]1C[C@@H]3[C@H]4CC=C5C[C@H](O)CC[C@]5(C)[C@H]4CC[C@]3(C)[C@@H]1[C@H]2C
REMARK SMILES IDX 1 1 2 2 3 3 4 4 5 5 29 6 28 7 9 8 8 9 10 10 11 11 26 12
REMARK SMILES IDX 25 13 24 14 23 15 12 16 13 17 14 18 15 19 21 20 20 21 19 22
REMARK SMILES IDX 17 23 16 24 22 25 27 26 30 27 6 28 7 29 18 30
REMARK H PARENT 18 31
REMARK Flexibility Score: inf
ROOT
ATOM      1  C   UNL     1      30.285 -29.356  23.037  1.00  0.00     0.010 C 
ATOM      2  C   UNL     1      28.822 -29.173  22.605  1.00  0.00     0.012 C 
ATOM      3  C   UNL     1      28.528 -27.693  22.308  1.00  0.00     0.011 C 
ATOM      4  C   UNL     1      27.028 -27.420  22.372  1.00  0.00     0.066 C 
ATOM      5  C   UNL     1      26.444 -27.841  23.765  1.00  0.00     0.171 C 
ATOM      6  C   UNL     1      26.087 -26.596  24.636  1.00  0.00     0.052 C 
ATOM      7  C   UNL     1      24.662 -26.887  25.116  1.00  0.00     0.033 C 
ATOM      8  C   UNL     1      24.424 -28.310  24.670  1.00  0.00     0.126 C 
ATOM      9  O   UNL     1      25.237 -28.545  23.548  1.00  0.00    -0.346 OA
ATOM     10  C   UNL     1      22.948 -28.440  24.315  1.00  0.00     0.037 C 
ATOM     11  C   UNL     1      22.311 -27.068  24.579  1.00  0.00     0.002 C 
ATOM     12  C   UNL     1      23.479 -26.050  24.524  1.00  0.00    -0.024 C 
ATOM     13  C   UNL     1      23.742 -25.592  23.057  1.00  0.00     0.008 C 
ATOM     14  C   UNL     1      22.481 -25.167  22.301  1.00  0.00     0.005 C 
ATOM     15  C   UNL     1      21.459 -26.327  22.220  1.00  0.00     0.003 C 
ATOM     16  C   UNL     1      21.090 -26.814  23.644  1.00  0.00     0.000 C 
ATOM     17  C   UNL     1      20.048 -25.862  24.261  1.00  0.00     0.031 C 
ATOM     18  C   UNL     1      18.798 -25.933  23.449  1.00  0.00    -0.027 C 
ATOM     19  C   UNL     1      18.836 -26.098  22.110  1.00  0.00    -0.065 C 
ATOM     20  C   UNL     1      20.159 -26.054  21.313  1.00  0.00    -0.008 C 
ATOM     21  C   UNL     1      20.124 -27.179  20.224  1.00  0.00     0.014 C 
ATOM     22  C   UNL     1      18.808 -27.262  19.435  1.00  0.00     0.033 C 
ATOM     23  C   UNL     1      17.613 -27.445  20.380  1.00  0.00     0.118 C 
ATOM     24  C   UNL     1      17.528 -26.272  21.360  1.00  0.00     0.063 C 
ATOM     25  C   UNL     1      20.214 -24.678  20.603  1.00  0.00     0.016 C 
ATOM     26  C   UNL     1      23.232 -24.828  25.435  1.00  0.00     0.012 C 
ATOM     27  C   UNL     1      27.049 -26.376  25.817  1.00  0.00     0.014 C 
ATOM     28  O   UNL     1      27.345 -28.690  24.480  1.00  0.00    -0.349 OA
ATOM     29  C   UNL     1      27.838 -29.727  23.662  1.00  0.00     0.167 C 
ENDROOT
BRANCH  23  30
ATOM     30  O   UNL     1      17.736 -28.649  21.095  1.00  0.00    -0.393 OA
ATOM     31  H   UNL     1      16.967 -28.694  21.725  1.00  0.00     0.210 HD
ENDBRANCH  23  30
TORSDOF 1
ENDMDL
MODEL 7
REMARK VINA RESULT:    -7.205      2.124      3.198
REMARK INTER + INTRA:          -7.416
REMARK INTER:                  -7.416
REMARK INTRA:                   0.000
REMARK UNBOUND:                 0.000
REMARK SMILES C[C@@H]1CC[C@]2(OC1)O[C@@H]1C[C@@H]3[C@H]4CC=C5C[C@H](O)CC[C@]5(C)[C@H]4CC[C@]3(C)[C@@H]1[C@H]2C
REMARK SMILES IDX 1 1 2 2 3 3 4 4 5 5 29 6 28 7 9 8 8 9 10 10 11 11 26 12
REMARK SMILES IDX 25 13 24 14 23 15 12 16 13 17 14 18 15 19 21 20 20 21 19 22
REMARK SMILES IDX 17 23 16 24 22 25 27 26 30 27 6 28 7 29 18 30
REMARK H PARENT 18 31
REMARK Flexibility Score: inf
ROOT
ATOM      1  C   UNL     1      14.347 -12.300  13.116  1.00  0.00     0.010 C 
ATOM      2  C   UNL     1      15.850 -12.008  13.002  1.00  0.00     0.012 C 
ATOM      3  C   UNL     1      16.276 -11.944  11.525  1.00  0.00     0.011 C 
ATOM      4  C   UNL     1      17.782 -12.157  11.391  1.00  0.00     0.066 C 
ATOM      5  C   UNL     1      18.212 -13.515  12.043  1.00  0.00     0.171 C 
ATOM      6  C   UNL     1      18.585 -14.577  10.961  1.00  0.00     0.052 C 
ATOM      7  C   UNL     1      19.939 -15.116  11.434  1.00  0.00     0.033 C 
ATOM      8  C   UNL     1      20.109 -14.492  12.798  1.00  0.00     0.126 C 
ATOM      9  O   UNL     1      19.379 -13.291  12.811  1.00  0.00    -0.346 OA
ATOM     10  C   UNL     1      21.596 -14.232  13.004  1.00  0.00     0.037 C 
ATOM     11  C   UNL     1      22.307 -14.733  11.739  1.00  0.00     0.002 C 
ATOM     12  C   UNL     1      21.226 -14.736  10.627  1.00  0.00    -0.024 C 
ATOM     13  C   UNL     1      21.123 -13.332   9.956  1.00  0.00     0.008 C 
ATOM     14  C   UNL     1      22.471 -12.740   9.541  1.00  0.00     0.005 C 
ATOM     15  C   UNL     1      23.409 -12.571  10.762  1.00  0.00     0.003 C 
ATOM     16  C   UNL     1      23.619 -13.936  11.465  1.00  0.00     0.000 C 
ATOM     17  C   UNL     1      24.671 -14.756  10.696  1.00  0.00     0.031 C 
ATOM     18  C   UNL     1      25.978 -14.037  10.763  1.00  0.00    -0.027 C 
ATOM     19  C   UNL     1      26.041 -12.689  10.742  1.00  0.00    -0.065 C 
ATOM     20  C   UNL     1      24.797 -11.810  10.480  1.00  0.00    -0.008 C 
ATOM     21  C   UNL     1      24.842 -10.580  11.447  1.00  0.00     0.014 C 
ATOM     22  C   UNL     1      26.210  -9.886  11.535  1.00  0.00     0.033 C 
ATOM     23  C   UNL     1      27.304 -10.882  11.943  1.00  0.00     0.118 C 
ATOM     24  C   UNL     1      27.392 -12.020  10.924  1.00  0.00     0.063 C 
ATOM     25  C   UNL     1      24.904 -11.299   9.021  1.00  0.00     0.016 C 
ATOM     26  C   UNL     1      21.484 -15.826   9.564  1.00  0.00     0.012 C 
ATOM     27  C   UNL     1      17.545 -15.703  10.822  1.00  0.00     0.014 C 
ATOM     28  O   UNL     1      17.194 -14.036  12.901  1.00  0.00    -0.349 OA
ATOM     29  C   UNL     1      16.698 -13.046  13.774  1.00  0.00     0.167 C 
ENDROOT
BRANCH  23  30
ATOM     30  O   UNL     1      27.033 -11.408  13.217  1.00  0.00    -0.393 OA
ATOM     31  H   UNL     1      27.345 -10.737  13.883  1.00  0.00     0.210 HD
ENDBRANCH  23  30
TORSDOF 1
ENDMDL
MODEL 8
REMARK VINA RESULT:    -7.144     14.571     17.423
REMARK INTER + INTRA:          -7.353
REMARK INTER:                  -7.353
REMARK INTRA:                   0.000
REMARK UNBOUND:                 0.000
REMARK SMILES C[C@@H]1CC[C@]2(OC1)O[C@@H]1C[C@@H]3[C@H]4CC=C5C[C@H](O)CC[C@]5(C)[C@H]4CC[C@]3(C)[C@@H]1[C@H]2C
REMARK SMILES IDX 1 1 2 2 3 3 4 4 5 5 29 6 28 7 9 8 8 9 10 10 11 11 26 12
REMARK SMILES IDX 25 13 24 14 23 15 12 16 13 17 14 18 15 19 21 20 20 21 19 22
REMARK SMILES IDX 17 23 16 24 22 25 27 26 30 27 6 28 7 29 18 30
REMARK H PARENT 18 31
REMARK Flexibility Score: inf
ROOT
ATOM      1  C   UNL     1      16.078 -23.704  18.112  1.00  0.00     0.010 C 
ATOM      2  C   UNL     1      17.448 -24.193  18.608  1.00  0.00     0.012 C 
ATOM      3  C   UNL     1      17.282 -25.403  19.543  1.00  0.00     0.011 C 
ATOM      4  C   UNL     1      18.522 -25.580  20.416  1.00  0.00     0.066 C 
ATOM      5  C   UNL     1      18.820 -24.275  21.231  1.00  0.00     0.171 C 
ATOM      6  C   UNL     1      18.480 -24.455  22.744  1.00  0.00     0.052 C 
ATOM      7  C   UNL     1      19.735 -23.945  23.460  1.00  0.00     0.033 C 
ATOM      8  C   UNL     1      20.558 -23.347  22.345  1.00  0.00     0.126 C 
ATOM      9  O   UNL     1      20.207 -24.008  21.155  1.00  0.00    -0.346 OA
ATOM     10  C   UNL     1      22.026 -23.572  22.684  1.00  0.00     0.037 C 
ATOM     11  C   UNL     1      22.057 -24.299  24.036  1.00  0.00     0.002 C 
ATOM     12  C   UNL     1      20.669 -24.978  24.174  1.00  0.00    -0.024 C 
ATOM     13  C   UNL     1      20.668 -26.373  23.478  1.00  0.00     0.008 C 
ATOM     14  C   UNL     1      21.858 -27.259  23.852  1.00  0.00     0.005 C 
ATOM     15  C   UNL     1      23.199 -26.584  23.473  1.00  0.00     0.003 C 
ATOM     16  C   UNL     1      23.319 -25.205  24.170  1.00  0.00     0.000 C 
ATOM     17  C   UNL     1      23.764 -25.403  25.631  1.00  0.00     0.031 C 
ATOM     18  C   UNL     1      25.131 -26.002  25.636  1.00  0.00    -0.027 C 
ATOM     19  C   UNL     1      25.510 -26.896  24.699  1.00  0.00    -0.065 C 
ATOM     20  C   UNL     1      24.517 -27.484  23.671  1.00  0.00    -0.008 C 
ATOM     21  C   UNL     1      25.227 -27.558  22.278  1.00  0.00     0.014 C 
ATOM     22  C   UNL     1      26.651 -28.134  22.316  1.00  0.00     0.033 C 
ATOM     23  C   UNL     1      27.537 -27.340  23.285  1.00  0.00     0.118 C 
ATOM     24  C   UNL     1      26.949 -27.383  24.698  1.00  0.00     0.063 C 
ATOM     25  C   UNL     1      24.184 -28.924  24.135  1.00  0.00     0.016 C 
ATOM     26  C   UNL     1      20.229 -25.110  25.648  1.00  0.00     0.012 C 
ATOM     27  C   UNL     1      17.224 -23.686  23.187  1.00  0.00     0.014 C 
ATOM     28  O   UNL     1      18.110 -23.150  20.707  1.00  0.00    -0.349 OA
ATOM     29  C   UNL     1      18.242 -23.064  19.306  1.00  0.00     0.167 C 
ENDROOT
BRANCH  23  30
ATOM     30  O   UNL     1      27.650 -26.005  22.861  1.00  0.00    -0.393 OA
ATOM     31  H   UNL     1      26.823 -25.535  23.154  1.00  0.00     0.210 HD
ENDBRANCH  23  30
TORSDOF 1
ENDMDL
MODEL 9
REMARK VINA RESULT:    -6.954      2.861      4.960
REMARK INTER + INTRA:          -7.157
REMARK INTER:                  -7.157
REMARK INTRA:                   0.000
REMARK UNBOUND:                 0.000
REMARK SMILES C[C@@H]1CC[C@]2(OC1)O[C@@H]1C[C@@H]3[C@H]4CC=C5C[C@H](O)CC[C@]5(C)[C@H]4CC[C@]3(C)[C@@H]1[C@H]2C
REMARK SMILES IDX 1 1 2 2 3 3 4 4 5 5 29 6 28 7 9 8 8 9 10 10 11 11 26 12
REMARK SMILES IDX 25 13 24 14 23 15 12 16 13 17 14 18 15 19 21 20 20 21 19 22
REMARK SMILES IDX 17 23 16 24 22 25 27 26 30 27 6 28 7 29 18 30
REMARK H PARENT 18 31
REMARK Flexibility Score: inf
ROOT
ATOM      1  C   UNL     1      13.923 -14.084   8.074  1.00  0.00     0.010 C 
ATOM      2  C   UNL     1      15.457 -14.155   8.030  1.00  0.00     0.012 C 
ATOM      3  C   UNL     1      15.987 -15.084   9.136  1.00  0.00     0.011 C 
ATOM      4  C   UNL     1      17.454 -14.786   9.431  1.00  0.00     0.066 C 
ATOM      5  C   UNL     1      17.649 -13.279   9.818  1.00  0.00     0.171 C 
ATOM      6  C   UNL     1      17.945 -13.114  11.342  1.00  0.00     0.052 C 
ATOM      7  C   UNL     1      19.177 -12.205  11.376  1.00  0.00     0.033 C 
ATOM      8  C   UNL     1      19.339 -11.778   9.937  1.00  0.00     0.126 C 
ATOM      9  O   UNL     1      18.781 -12.784   9.129  1.00  0.00    -0.346 OA
ATOM     10  C   UNL     1      20.830 -11.622   9.667  1.00  0.00     0.037 C 
ATOM     11  C   UNL     1      21.549 -11.947  10.983  1.00  0.00     0.002 C 
ATOM     12  C   UNL     1      20.555 -12.816  11.797  1.00  0.00    -0.024 C 
ATOM     13  C   UNL     1      20.692 -14.320  11.407  1.00  0.00     0.008 C 
ATOM     14  C   UNL     1      22.134 -14.832  11.394  1.00  0.00     0.005 C 
ATOM     15  C   UNL     1      23.001 -14.040  10.386  1.00  0.00     0.003 C 
ATOM     16  C   UNL     1      22.973 -12.529  10.730  1.00  0.00     0.000 C 
ATOM     17  C   UNL     1      23.953 -12.246  11.884  1.00  0.00     0.031 C 
ATOM     18  C   UNL     1      25.338 -12.552  11.419  1.00  0.00    -0.027 C 
ATOM     19  C   UNL     1      25.587 -13.572  10.573  1.00  0.00    -0.065 C 
ATOM     20  C   UNL     1      24.496 -14.588  10.164  1.00  0.00    -0.008 C 
ATOM     21  C   UNL     1      24.644 -14.891   8.635  1.00  0.00     0.014 C 
ATOM     22  C   UNL     1      26.085 -15.156   8.173  1.00  0.00     0.033 C 
ATOM     23  C   UNL     1      27.002 -13.981   8.539  1.00  0.00     0.118 C 
ATOM     24  C   UNL     1      27.002 -13.760  10.054  1.00  0.00     0.063 C 
ATOM     25  C   UNL     1      24.770 -15.890  10.957  1.00  0.00     0.016 C 
ATOM     26  C   UNL     1      20.733 -12.635  13.320  1.00  0.00     0.012 C 
ATOM     27  C   UNL     1      16.773 -12.508  12.133  1.00  0.00     0.014 C 
ATOM     28  O   UNL     1      16.514 -12.489   9.458  1.00  0.00    -0.349 OA
ATOM     29  C   UNL     1      16.100 -12.752   8.136  1.00  0.00     0.167 C 
ENDROOT
BRANCH  23  30
ATOM     30  O   UNL     1      26.576 -12.809   7.891  1.00  0.00    -0.393 OA
ATOM     31  H   UNL     1      26.723 -12.945   6.916  1.00  0.00     0.210 HD
ENDBRANCH  23  30
TORSDOF 1
ENDMDL
