MODEL 1
REMARK VINA RESULT:    -3.148      0.000      0.000
REMARK INTER + INTRA:          -4.966
REMARK INTER:                  -4.621
REMARK INTRA:                  -0.345
REMARK UNBOUND:                -0.345
REMARK SMILES O=C([O-])CCCCCCCC(=O)[O-]
REMARK SMILES IDX 7 1 6 2 5 3 4 4 2 5 1 6 3 7 8 8 9 9 10 10 11 11 12 12 13 13
REMARK H PARENT
REMARK Flexibility Score: inf
ROOT
ATOM      1  C   UNL     1      -5.296  20.724  14.725  1.00  0.00     0.000 C 
ENDROOT
BRANCH   1   2
ATOM      2  C   UNL     1      -4.762  20.051  15.998  1.00  0.00     0.000 C 
BRANCH   2   3
ATOM      3  C   UNL     1      -3.229  19.924  16.002  1.00  0.00     0.006 C 
BRANCH   3   4
ATOM      4  C   UNL     1      -2.619  20.193  17.384  1.00  0.00     0.053 C 
BRANCH   4   5
ATOM      5  C   UNL     1      -1.376  21.014  17.254  1.00  0.00     0.041 C 
ATOM      6  O   UNL     1      -0.976  21.716  18.220  1.00  0.00    -0.550 OA
ATOM      7  O   UNL     1      -0.684  21.044  16.050  1.00  0.00    -0.550 OA
ENDBRANCH   4   5
ENDBRANCH   3   4
ENDBRANCH   2   3
ENDBRANCH   1   2
BRANCH   1   8
ATOM      8  C   UNL     1      -6.734  21.217  14.928  1.00  0.00     0.000 C 
BRANCH   8   9
ATOM      9  C   UNL     1      -7.347  20.621  16.201  1.00  0.00     0.006 C 
BRANCH   9  10
ATOM     10  C   UNL     1      -8.361  21.583  16.825  1.00  0.00     0.053 C 
BRANCH  10  11
ATOM     11  C   UNL     1      -8.180  21.645  18.308  1.00  0.00     0.041 C 
ATOM     12  O   UNL     1      -7.397  20.844  18.885  1.00  0.00    -0.550 OA
ATOM     13  O   UNL     1      -8.912  22.554  19.062  1.00  0.00    -0.550 OA
ENDBRANCH  10  11
ENDBRANCH   9  10
ENDBRANCH   8   9
ENDBRANCH   1   8
TORSDOF 8
ENDMDL
MODEL 2
REMARK VINA RESULT:    -3.120      0.364      5.796
REMARK INTER + INTRA:          -4.925
REMARK INTER:                  -4.543
REMARK INTRA:                  -0.381
REMARK UNBOUND:                -0.345
REMARK SMILES O=C([O-])CCCCCCCC(=O)[O-]
REMARK SMILES IDX 7 1 6 2 5 3 4 4 2 5 1 6 3 7 8 8 9 9 10 10 11 11 12 12 13 13
REMARK H PARENT
REMARK Flexibility Score: inf
ROOT
ATOM      1  C   UNL     1      -5.567  20.884  14.694  1.00  0.00     0.000 C 
ENDROOT
BRANCH   1   2
ATOM      2  C   UNL     1      -7.088  21.043  14.849  1.00  0.00     0.000 C 
BRANCH   2   3
ATOM      3  C   UNL     1      -7.591  20.609  16.235  1.00  0.00     0.006 C 
BRANCH   3   4
ATOM      4  C   UNL     1      -8.339  21.730  16.969  1.00  0.00     0.053 C 
BRANCH   4   5
ATOM      5  C   UNL     1      -8.051  21.673  18.436  1.00  0.00     0.041 C 
ATOM      6  O   UNL     1      -8.605  22.487  19.222  1.00  0.00    -0.550 OA
ATOM      7  O   UNL     1      -7.135  20.754  18.931  1.00  0.00    -0.550 OA
ENDBRANCH   4   5
ENDBRANCH   3   4
ENDBRANCH   2   3
ENDBRANCH   1   2
BRANCH   1   8
ATOM      8  C   UNL     1      -4.951  20.260  15.952  1.00  0.00     0.000 C 
BRANCH   8   9
ATOM      9  C   UNL     1      -3.486  19.875  15.716  1.00  0.00     0.006 C 
BRANCH   9  10
ATOM     10  C   UNL     1      -2.670  19.997  17.006  1.00  0.00     0.053 C 
BRANCH  10  11
ATOM     11  C   UNL     1      -1.551  20.973  16.828  1.00  0.00     0.041 C 
ATOM     12  O   UNL     1      -1.128  21.249  15.674  1.00  0.00    -0.550 OA
ATOM     13  O   UNL     1      -0.940  21.542  17.939  1.00  0.00    -0.550 OA
ENDBRANCH  10  11
ENDBRANCH   9  10
ENDBRANCH   8   9
ENDBRANCH   1   8
TORSDOF 8
ENDMDL
MODEL 3
REMARK VINA RESULT:    -2.646     11.290     14.741
REMARK INTER + INTRA:          -4.229
REMARK INTER:                  -3.845
REMARK INTRA:                  -0.384
REMARK UNBOUND:                -0.345
REMARK SMILES O=C([O-])CCCCCCCC(=O)[O-]
REMARK SMILES IDX 7 1 6 2 5 3 4 4 2 5 1 6 3 7 8 8 9 9 10 10 11 11 12 12 13 13
REMARK H PARENT
REMARK Flexibility Score: inf
ROOT
ATOM      1  C   UNL     1       9.331  20.872  12.220  1.00  0.00     0.000 C 
ENDROOT
BRANCH   1   2
ATOM      2  C   UNL     1       9.839  22.067  13.043  1.00  0.00     0.000 C 
BRANCH   2   3
ATOM      3  C   UNL     1      11.125  22.679  12.465  1.00  0.00     0.006 C 
BRANCH   3   4
ATOM      4  C   UNL     1      11.120  22.723  10.931  1.00  0.00     0.053 C 
BRANCH   4   5
ATOM      5  C   UNL     1      10.831  24.111  10.451  1.00  0.00     0.041 C 
ATOM      6  O   UNL     1      10.846  24.370   9.218  1.00  0.00    -0.550 OA
ATOM      7  O   UNL     1      10.594  25.129  11.365  1.00  0.00    -0.550 OA
ENDBRANCH   4   5
ENDBRANCH   3   4
ENDBRANCH   2   3
ENDBRANCH   1   2
BRANCH   1   8
ATOM      8  C   UNL     1       8.354  20.020  13.038  1.00  0.00     0.000 C 
BRANCH   8   9
ATOM      9  C   UNL     1       8.158  20.600  14.444  1.00  0.00     0.006 C 
BRANCH   9  10
ATOM     10  C   UNL     1       7.017  19.890  15.178  1.00  0.00     0.053 C 
BRANCH  10  11
ATOM     11  C   UNL     1       5.797  20.753  15.208  1.00  0.00     0.041 C 
ATOM     12  O   UNL     1       5.134  20.951  14.155  1.00  0.00    -0.550 OA
ATOM     13  O   UNL     1       5.416  21.380  16.388  1.00  0.00    -0.550 OA
ENDBRANCH  10  11
ENDBRANCH   9  10
ENDBRANCH   8   9
ENDBRANCH   1   8
TORSDOF 8
ENDMDL
MODEL 4
REMARK VINA RESULT:    -2.518     11.256     15.352
REMARK INTER + INTRA:          -4.041
REMARK INTER:                  -3.708
REMARK INTRA:                  -0.334
REMARK UNBOUND:                -0.345
REMARK SMILES O=C([O-])CCCCCCCC(=O)[O-]
REMARK SMILES IDX 7 1 6 2 5 3 4 4 2 5 1 6 3 7 8 8 9 9 10 10 11 11 12 12 13 13
REMARK H PARENT
REMARK Flexibility Score: inf
ROOT
ATOM      1  C   UNL     1       8.751  20.748  13.078  1.00  0.00     0.000 C 
ENDROOT
BRANCH   1   2
ATOM      2  C   UNL     1       9.109  20.080  14.414  1.00  0.00     0.000 C 
BRANCH   2   3
ATOM      3  C   UNL     1       8.207  20.543  15.569  1.00  0.00     0.006 C 
BRANCH   3   4
ATOM      4  C   UNL     1       6.825  19.875  15.543  1.00  0.00     0.053 C 
BRANCH   4   5
ATOM      5  C   UNL     1       5.749  20.909  15.435  1.00  0.00     0.041 C 
ATOM      6  O   UNL     1       5.512  21.680  16.402  1.00  0.00    -0.550 OA
ATOM      7  O   UNL     1       4.973  20.989  14.286  1.00  0.00    -0.550 OA
ENDBRANCH   4   5
ENDBRANCH   3   4
ENDBRANCH   2   3
ENDBRANCH   1   2
BRANCH   1   8
ATOM      8  C   UNL     1       9.794  20.420  12.003  1.00  0.00     0.000 C 
BRANCH   8   9
ATOM      9  C   UNL     1      11.033  21.311  12.146  1.00  0.00     0.006 C 
BRANCH   9  10
ATOM     10  C   UNL     1      10.664  22.675  12.736  1.00  0.00     0.053 C 
BRANCH  10  11
ATOM     11  C   UNL     1      10.970  23.767  11.762  1.00  0.00     0.041 C 
ATOM     12  O   UNL     1      11.060  24.961  12.155  1.00  0.00    -0.550 OA
ATOM     13  O   UNL     1      11.107  23.476  10.410  1.00  0.00    -0.550 OA
ENDBRANCH  10  11
ENDBRANCH   9  10
ENDBRANCH   8   9
ENDBRANCH   1   8
TORSDOF 8
ENDMDL
MODEL 5
REMARK VINA RESULT:    -2.492      3.223      4.874
REMARK INTER + INTRA:          -4.004
REMARK INTER:                  -3.585
REMARK INTRA:                  -0.419
REMARK UNBOUND:                -0.345
REMARK SMILES O=C([O-])CCCCCCCC(=O)[O-]
REMARK SMILES IDX 7 1 6 2 5 3 4 4 2 5 1 6 3 7 8 8 9 9 10 10 11 11 12 12 13 13
REMARK H PARENT
REMARK Flexibility Score: inf
ROOT
ATOM      1  C   UNL     1      -8.487  22.280  17.834  1.00  0.00     0.000 C 
ENDROOT
BRANCH   1   2
ATOM      2  C   UNL     1      -9.125  20.913  17.544  1.00  0.00     0.000 C 
BRANCH   2   3
ATOM      3  C   UNL     1      -8.350  20.111  16.486  1.00  0.00     0.006 C 
BRANCH   3   4
ATOM      4  C   UNL     1      -7.698  21.008  15.426  1.00  0.00     0.053 C 
BRANCH   4   5
ATOM      5  C   UNL     1      -6.235  20.714  15.322  1.00  0.00     0.041 C 
ATOM      6  O   UNL     1      -5.634  20.864  14.225  1.00  0.00    -0.550 OA
ATOM      7  O   UNL     1      -5.543  20.226  16.423  1.00  0.00    -0.550 OA
ENDBRANCH   4   5
ENDBRANCH   3   4
ENDBRANCH   2   3
ENDBRANCH   1   2
BRANCH   1   8
ATOM      8  C   UNL     1      -8.422  22.546  19.343  1.00  0.00     0.000 C 
BRANCH   8   9
ATOM      9  C   UNL     1      -9.124  21.433  20.130  1.00  0.00     0.006 C 
BRANCH   9  10
ATOM     10  C   UNL     1      -8.938  21.623  21.637  1.00  0.00     0.053 C 
BRANCH  10  11
ATOM     11  C   UNL     1      -7.832  20.753  22.142  1.00  0.00     0.041 C 
ATOM     12  O   UNL     1      -7.562  20.720  23.373  1.00  0.00    -0.550 OA
ATOM     13  O   UNL     1      -7.065  20.013  21.250  1.00  0.00    -0.550 OA
ENDBRANCH  10  11
ENDBRANCH   9  10
ENDBRANCH   8   9
ENDBRANCH   1   8
TORSDOF 8
ENDMDL
MODEL 6
REMARK VINA RESULT:    -2.484     11.225     15.513
REMARK INTER + INTRA:          -3.992
REMARK INTER:                  -3.608
REMARK INTRA:                  -0.383
REMARK UNBOUND:                -0.345
REMARK SMILES O=C([O-])CCCCCCCC(=O)[O-]
REMARK SMILES IDX 7 1 6 2 5 3 4 4 2 5 1 6 3 7 8 8 9 9 10 10 11 11 12 12 13 13
REMARK H PARENT
REMARK Flexibility Score: inf
ROOT
ATOM      1  C   UNL     1       9.633  21.186  13.122  1.00  0.00     0.000 C 
ENDROOT
BRANCH   1   2
ATOM      2  C   UNL     1       9.253  20.956  14.592  1.00  0.00     0.000 C 
BRANCH   2   3
ATOM      3  C   UNL     1       8.095  19.959  14.756  1.00  0.00     0.006 C 
BRANCH   3   4
ATOM      4  C   UNL     1       7.218  20.267  15.978  1.00  0.00     0.053 C 
BRANCH   4   5
ATOM      5  C   UNL     1       5.876  20.765  15.543  1.00  0.00     0.041 C 
ATOM      6  O   UNL     1       5.504  20.622  14.349  1.00  0.00    -0.550 OA
ATOM      7  O   UNL     1       5.056  21.432  16.444  1.00  0.00    -0.550 OA
ENDBRANCH   4   5
ENDBRANCH   3   4
ENDBRANCH   2   3
ENDBRANCH   1   2
BRANCH   1   8
ATOM      8  C   UNL     1       9.008  20.114  12.220  1.00  0.00     0.000 C 
BRANCH   8   9
ATOM      9  C   UNL     1       9.723  20.047  10.866  1.00  0.00     0.006 C 
BRANCH   9  10
ATOM     10  C   UNL     1      10.712  21.205  10.708  1.00  0.00     0.053 C 
BRANCH  10  11
ATOM     11  C   UNL     1      10.623  21.786   9.333  1.00  0.00     0.041 C 
ATOM     12  O   UNL     1      11.123  22.916   9.088  1.00  0.00    -0.550 OA
ATOM     13  O   UNL     1       9.945  21.102   8.331  1.00  0.00    -0.550 OA
ENDBRANCH  10  11
ENDBRANCH   9  10
ENDBRANCH   8   9
ENDBRANCH   1   8
TORSDOF 8
ENDMDL
MODEL 7
REMARK VINA RESULT:    -2.451     11.936     15.733
REMARK INTER + INTRA:          -3.942
REMARK INTER:                  -3.326
REMARK INTRA:                  -0.617
REMARK UNBOUND:                -0.345
REMARK SMILES O=C([O-])CCCCCCCC(=O)[O-]
REMARK SMILES IDX 7 1 6 2 5 3 4 4 2 5 1 6 3 7 8 8 9 9 10 10 11 11 12 12 13 13
REMARK H PARENT
REMARK Flexibility Score: inf
ROOT
ATOM      1  C   UNL     1       9.731  21.695  12.893  1.00  0.00     0.000 C 
ENDROOT
BRANCH   1   2
ATOM      2  C   UNL     1       9.928  20.977  14.237  1.00  0.00     0.000 C 
BRANCH   2   3
ATOM      3  C   UNL     1       8.876  19.883  14.484  1.00  0.00     0.006 C 
BRANCH   3   4
ATOM      4  C   UNL     1       7.520  20.214  13.846  1.00  0.00     0.053 C 
BRANCH   4   5
ATOM      5  C   UNL     1       6.532  20.608  14.898  1.00  0.00     0.041 C 
ATOM      6  O   UNL     1       5.374  20.979  14.571  1.00  0.00    -0.550 OA
ATOM      7  O   UNL     1       6.904  20.612  16.236  1.00  0.00    -0.550 OA
ENDBRANCH   4   5
ENDBRANCH   3   4
ENDBRANCH   2   3
ENDBRANCH   1   2
BRANCH   1   8
ATOM      8  C   UNL     1      11.011  21.643  12.050  1.00  0.00     0.000 C 
BRANCH   8   9
ATOM      9  C   UNL     1      10.989  20.450  11.086  1.00  0.00     0.006 C 
BRANCH   9  10
ATOM     10  C   UNL     1       9.599  20.268  10.470  1.00  0.00     0.053 C 
BRANCH  10  11
ATOM     11  C   UNL     1       9.626  20.594   9.011  1.00  0.00     0.041 C 
ATOM     12  O   UNL     1       8.936  19.922   8.198  1.00  0.00    -0.550 OA
ATOM     13  O   UNL     1      10.451  21.607   8.539  1.00  0.00    -0.550 OA
ENDBRANCH  10  11
ENDBRANCH   9  10
ENDBRANCH   8   9
ENDBRANCH   1   8
TORSDOF 8
ENDMDL
MODEL 8
REMARK VINA RESULT:    -2.354     11.339     14.860
REMARK INTER + INTRA:          -3.800
REMARK INTER:                  -3.485
REMARK INTRA:                  -0.315
REMARK UNBOUND:                -0.345
REMARK SMILES O=C([O-])CCCCCCCC(=O)[O-]
REMARK SMILES IDX 7 1 6 2 5 3 4 4 2 5 1 6 3 7 8 8 9 9 10 10 11 11 12 12 13 13
REMARK H PARENT
REMARK Flexibility Score: inf
ROOT
ATOM      1  C   UNL     1       9.166  20.731  12.954  1.00  0.00     0.000 C 
ENDROOT
BRANCH   1   2
ATOM      2  C   UNL     1      10.141  21.887  12.683  1.00  0.00     0.000 C 
BRANCH   2   3
ATOM      3  C   UNL     1      11.064  21.614  11.485  1.00  0.00     0.006 C 
BRANCH   3   4
ATOM      4  C   UNL     1      10.397  20.743  10.412  1.00  0.00     0.053 C 
BRANCH   4   5
ATOM      5  C   UNL     1      10.443  21.428   9.083  1.00  0.00     0.041 C 
ATOM      6  O   UNL     1      10.263  20.770   8.024  1.00  0.00    -0.550 OA
ATOM      7  O   UNL     1      10.732  22.785   9.008  1.00  0.00    -0.550 OA
ENDBRANCH   4   5
ENDBRANCH   3   4
ENDBRANCH   2   3
ENDBRANCH   1   2
BRANCH   1   8
ATOM      8  C   UNL     1       9.363  20.167  14.367  1.00  0.00     0.000 C 
BRANCH   8   9
ATOM      9  C   UNL     1       8.353  20.774  15.348  1.00  0.00     0.006 C 
BRANCH   9  10
ATOM     10  C   UNL     1       7.122  19.875  15.495  1.00  0.00     0.053 C 
BRANCH  10  11
ATOM     11  C   UNL     1       5.868  20.682  15.375  1.00  0.00     0.041 C 
ATOM     12  O   UNL     1       5.456  21.362  16.352  1.00  0.00    -0.550 OA
ATOM     13  O   UNL     1       5.128  20.646  14.200  1.00  0.00    -0.550 OA
ENDBRANCH  10  11
ENDBRANCH   9  10
ENDBRANCH   8   9
ENDBRANCH   1   8
TORSDOF 8
ENDMDL
MODEL 9
REMARK VINA RESULT:    -2.246      1.509      6.296
REMARK INTER + INTRA:          -3.642
REMARK INTER:                  -3.296
REMARK INTRA:                  -0.346
REMARK UNBOUND:                -0.345
REMARK SMILES O=C([O-])CCCCCCCC(=O)[O-]
REMARK SMILES IDX 7 1 6 2 5 3 4 4 2 5 1 6 3 7 8 8 9 9 10 10 11 11 12 12 13 13
REMARK H PARENT
REMARK Flexibility Score: inf
ROOT
ATOM      1  C   UNL     1      -5.683  20.264  18.692  1.00  0.00     0.000 C 
ENDROOT
BRANCH   1   2
ATOM      2  C   UNL     1      -6.648  19.962  17.536  1.00  0.00     0.000 C 
BRANCH   2   3
ATOM      3  C   UNL     1      -8.115  20.243  17.901  1.00  0.00     0.006 C 
BRANCH   3   4
ATOM      4  C   UNL     1      -8.457  21.739  17.859  1.00  0.00     0.053 C 
BRANCH   4   5
ATOM      5  C   UNL     1      -8.544  22.292  19.246  1.00  0.00     0.041 C 
ATOM      6  O   UNL     1      -8.415  23.530  19.443  1.00  0.00    -0.550 OA
ATOM      7  O   UNL     1      -8.717  21.438  20.327  1.00  0.00    -0.550 OA
ENDBRANCH   4   5
ENDBRANCH   3   4
ENDBRANCH   2   3
ENDBRANCH   1   2
BRANCH   1   8
ATOM      8  C   UNL     1      -4.246  19.875  18.323  1.00  0.00     0.000 C 
BRANCH   8   9
ATOM      9  C   UNL     1      -3.930  20.248  16.869  1.00  0.00     0.006 C 
BRANCH   9  10
ATOM     10  C   UNL     1      -2.490  19.876  16.507  1.00  0.00     0.053 C 
BRANCH  10  11
ATOM     11  C   UNL     1      -1.602  21.076  16.591  1.00  0.00     0.041 C 
ATOM     12  O   UNL     1      -1.264  21.688  15.543  1.00  0.00    -0.550 OA
ATOM     13  O   UNL     1      -1.107  21.491  17.821  1.00  0.00    -0.550 OA
ENDBRANCH  10  11
ENDBRANCH   9  10
ENDBRANCH   8   9
ENDBRANCH   1   8
TORSDOF 8
ENDMDL
