MODEL 1
REMARK VINA RESULT:     4.026      0.000      0.000
REMARK INTER + INTRA:           4.026
REMARK INTER:                   4.026
REMARK INTRA:                   0.000
REMARK UNBOUND:                 0.000
REMARK SMILES CC1=CC[C@@H]2[C@@H](C1)C2(C)C
REMARK SMILES IDX 1 1 2 2 3 3 4 4 5 5 6 6 7 7 8 8 9 9 10 10
REMARK H PARENT
REMARK Flexibility Score: inf
ROOT
ATOM      1  C   UNL     1      -0.018   6.627  -7.255  1.00  0.00     0.039 C 
ATOM      2  C   UNL     1      -0.156   6.215  -8.693  1.00  0.00    -0.077 C 
ATOM      3  C   UNL     1       0.933   5.734  -9.362  1.00  0.00    -0.028 C 
ATOM      4  C   UNL     1       0.863   5.323 -10.831  1.00  0.00     0.031 C 
ATOM      5  C   UNL     1      -0.319   6.061 -11.469  1.00  0.00     0.003 C 
ATOM      6  C   UNL     1      -1.523   5.488 -10.633  1.00  0.00     0.003 C 
ATOM      7  C   UNL     1      -1.501   6.405  -9.406  1.00  0.00     0.034 C 
ATOM      8  C   UNL     1      -1.622   5.671 -12.131  1.00  0.00    -0.029 C 
ATOM      9  C   UNL     1      -1.574   4.403 -12.990  1.00  0.00     0.012 C 
ATOM     10  C   UNL     1      -2.532   6.809 -12.600  1.00  0.00     0.012 C 
ENDROOT
TORSDOF 0
ENDMDL
MODEL 2
REMARK VINA RESULT:     4.695      1.102      4.047
REMARK INTER + INTRA:           4.695
REMARK INTER:                   4.695
REMARK INTRA:                   0.000
REMARK UNBOUND:                 0.000
REMARK SMILES CC1=CC[C@@H]2[C@@H](C1)C2(C)C
REMARK SMILES IDX 1 1 2 2 3 3 4 4 5 5 6 6 7 7 8 8 9 9 10 10
REMARK H PARENT
REMARK Flexibility Score: inf
ROOT
ATOM      1  C   UNL     1      -0.802   5.135 -12.667  1.00  0.00     0.039 C 
ATOM      2  C   UNL     1      -0.384   5.446 -11.258  1.00  0.00    -0.077 C 
ATOM      3  C   UNL     1       0.752   4.881 -10.753  1.00  0.00    -0.028 C 
ATOM      4  C   UNL     1       1.215   5.138  -9.321  1.00  0.00     0.031 C 
ATOM      5  C   UNL     1      -0.008   5.563  -8.501  1.00  0.00     0.003 C 
ATOM      6  C   UNL     1      -0.423   6.890  -9.239  1.00  0.00     0.003 C 
ATOM      7  C   UNL     1      -1.275   6.340 -10.388  1.00  0.00     0.034 C 
ATOM      8  C   UNL     1      -0.433   6.792  -7.729  1.00  0.00    -0.029 C 
ATOM      9  C   UNL     1       0.686   7.522  -6.980  1.00  0.00     0.012 C 
ATOM     10  C   UNL     1      -1.817   6.760  -7.077  1.00  0.00     0.012 C 
ENDROOT
TORSDOF 0
ENDMDL
MODEL 3
REMARK VINA RESULT:     4.990      1.571      2.699
REMARK INTER + INTRA:           4.990
REMARK INTER:                   4.990
REMARK INTRA:                   0.000
REMARK UNBOUND:                 0.000
REMARK SMILES CC1=CC[C@@H]2[C@@H](C1)C2(C)C
REMARK SMILES IDX 1 1 2 2 3 3 4 4 5 5 6 6 7 7 8 8 9 9 10 10
REMARK H PARENT
REMARK Flexibility Score: inf
ROOT
ATOM      1  C   UNL     1      -1.827   8.312  -6.676  1.00  0.00     0.039 C 
ATOM      2  C   UNL     1      -0.913   7.404  -7.450  1.00  0.00    -0.077 C 
ATOM      3  C   UNL     1       0.356   7.184  -6.997  1.00  0.00    -0.028 C 
ATOM      4  C   UNL     1       1.340   6.293  -7.753  1.00  0.00     0.031 C 
ATOM      5  C   UNL     1       0.895   6.239  -9.219  1.00  0.00     0.003 C 
ATOM      6  C   UNL     1      -0.525   5.574  -9.081  1.00  0.00     0.003 C 
ATOM      7  C   UNL     1      -1.399   6.794  -8.770  1.00  0.00     0.034 C 
ATOM      8  C   UNL     1       0.431   5.168 -10.181  1.00  0.00    -0.029 C 
ATOM      9  C   UNL     1       1.118   3.807 -10.036  1.00  0.00     0.012 C 
ATOM     10  C   UNL     1       0.048   5.620 -11.592  1.00  0.00     0.012 C 
ENDROOT
TORSDOF 0
ENDMDL
MODEL 4
REMARK VINA RESULT:     5.159     10.771     12.614
REMARK INTER + INTRA:           5.159
REMARK INTER:                   5.159
REMARK INTRA:                   0.000
REMARK UNBOUND:                 0.000
REMARK SMILES CC1=CC[C@@H]2[C@@H](C1)C2(C)C
REMARK SMILES IDX 1 1 2 2 3 3 4 4 5 5 6 6 7 7 8 8 9 9 10 10
REMARK H PARENT
REMARK Flexibility Score: inf
ROOT
ATOM      1  C   UNL     1       8.170   7.769  -5.959  1.00  0.00     0.039 C 
ATOM      2  C   UNL     1       9.535   7.696  -6.582  1.00  0.00    -0.077 C 
ATOM      3  C   UNL     1      10.568   7.148  -5.875  1.00  0.00    -0.028 C 
ATOM      4  C   UNL     1      11.983   7.070  -6.444  1.00  0.00     0.031 C 
ATOM      5  C   UNL     1      12.117   8.147  -7.525  1.00  0.00     0.003 C 
ATOM      6  C   UNL     1      11.031   7.674  -8.562  1.00  0.00     0.003 C 
ATOM      7  C   UNL     1       9.761   8.297  -7.974  1.00  0.00     0.034 C 
ATOM      8  C   UNL     1      12.386   8.175  -9.013  1.00  0.00    -0.029 C 
ATOM      9  C   UNL     1      13.378   7.127  -9.525  1.00  0.00     0.012 C 
ATOM     10  C   UNL     1      12.391   9.546  -9.693  1.00  0.00     0.012 C 
ENDROOT
TORSDOF 0
ENDMDL
MODEL 5
REMARK VINA RESULT:     5.658      1.712      4.006
REMARK INTER + INTRA:           5.658
REMARK INTER:                   5.658
REMARK INTRA:                   0.000
REMARK UNBOUND:                 0.000
REMARK SMILES CC1=CC[C@@H]2[C@@H](C1)C2(C)C
REMARK SMILES IDX 1 1 2 2 3 3 4 4 5 5 6 6 7 7 8 8 9 9 10 10
REMARK H PARENT
REMARK Flexibility Score: inf
ROOT
ATOM      1  C   UNL     1       2.079   3.410 -10.035  1.00  0.00     0.039 C 
ATOM      2  C   UNL     1       1.110   4.507  -9.697  1.00  0.00    -0.077 C 
ATOM      3  C   UNL     1       0.213   4.925 -10.638  1.00  0.00    -0.028 C 
ATOM      4  C   UNL     1      -0.780   6.053 -10.363  1.00  0.00     0.031 C 
ATOM      5  C   UNL     1      -0.211   6.915  -9.231  1.00  0.00     0.003 C 
ATOM      6  C   UNL     1      -0.154   5.872  -8.053  1.00  0.00     0.003 C 
ATOM      7  C   UNL     1       1.189   5.185  -8.324  1.00  0.00     0.034 C 
ATOM      8  C   UNL     1      -0.630   7.289  -7.827  1.00  0.00    -0.029 C 
ATOM      9  C   UNL     1      -2.133   7.493  -7.617  1.00  0.00     0.012 C 
ATOM     10  C   UNL     1       0.323   8.188  -7.033  1.00  0.00     0.012 C 
ENDROOT
TORSDOF 0
ENDMDL
MODEL 6
REMARK VINA RESULT:     6.122      0.646      2.225
REMARK INTER + INTRA:           6.122
REMARK INTER:                   6.122
REMARK INTRA:                   0.000
REMARK UNBOUND:                 0.000
REMARK SMILES CC1=CC[C@@H]2[C@@H](C1)C2(C)C
REMARK SMILES IDX 1 1 2 2 3 3 4 4 5 5 6 6 7 7 8 8 9 9 10 10
REMARK H PARENT
REMARK Flexibility Score: inf
ROOT
ATOM      1  C   UNL     1       2.073   5.407  -8.922  1.00  0.00     0.039 C 
ATOM      2  C   UNL     1       0.766   5.621  -9.630  1.00  0.00    -0.077 C 
ATOM      3  C   UNL     1      -0.322   6.041  -8.919  1.00  0.00    -0.028 C 
ATOM      4  C   UNL     1      -1.684   6.252  -9.576  1.00  0.00     0.031 C 
ATOM      5  C   UNL     1      -1.727   5.404 -10.852  1.00  0.00     0.003 C 
ATOM      6  C   UNL     1      -0.558   6.049 -11.686  1.00  0.00     0.003 C 
ATOM      7  C   UNL     1       0.657   5.303 -11.126  1.00  0.00     0.034 C 
ATOM      8  C   UNL     1      -1.870   5.667 -12.334  1.00  0.00    -0.029 C 
ATOM      9  C   UNL     1      -2.815   6.811 -12.715  1.00  0.00     0.012 C 
ATOM     10  C   UNL     1      -1.819   4.452 -13.265  1.00  0.00     0.012 C 
ENDROOT
TORSDOF 0
ENDMDL
MODEL 7
REMARK VINA RESULT:     6.606     11.739     13.820
REMARK INTER + INTRA:           6.606
REMARK INTER:                   6.606
REMARK INTRA:                   0.000
REMARK UNBOUND:                 0.000
REMARK SMILES CC1=CC[C@@H]2[C@@H](C1)C2(C)C
REMARK SMILES IDX 1 1 2 2 3 3 4 4 5 5 6 6 7 7 8 8 9 9 10 10
REMARK H PARENT
REMARK Flexibility Score: inf
ROOT
ATOM      1  C   UNL     1      14.229   8.164 -11.228  1.00  0.00     0.039 C 
ATOM      2  C   UNL     1      13.270   8.287 -10.079  1.00  0.00    -0.077 C 
ATOM      3  C   UNL     1      12.596   9.460  -9.890  1.00  0.00    -0.028 C 
ATOM      4  C   UNL     1      11.627   9.656  -8.725  1.00  0.00     0.031 C 
ATOM      5  C   UNL     1      12.006   8.660  -7.625  1.00  0.00     0.003 C 
ATOM      6  C   UNL     1      11.779   7.289  -8.364  1.00  0.00     0.003 C 
ATOM      7  C   UNL     1      13.112   7.119  -9.100  1.00  0.00     0.034 C 
ATOM      8  C   UNL     1      11.340   7.493  -6.931  1.00  0.00    -0.029 C 
ATOM      9  C   UNL     1       9.837   7.643  -6.679  1.00  0.00     0.012 C 
ATOM     10  C   UNL     1      12.163   6.750  -5.875  1.00  0.00     0.012 C 
ENDROOT
TORSDOF 0
ENDMDL
