MODEL 1
REMARK VINA RESULT:    -5.396      0.000      0.000
REMARK INTER + INTRA:          -9.646
REMARK INTER:                  -8.236
REMARK INTRA:                  -1.410
REMARK UNBOUND:                -1.410
REMARK SMILES CC(=O)CCC=C(C)CCC=C(C)CCC=C(C)C
REMARK SMILES IDX 10 1 11 2 12 3 13 4 14 5 15 6 16 7 18 8 17 9 19 10 9 11 7 12
REMARK SMILES IDX 6 13 8 14 5 15 4 16 2 17 3 18 1 19
REMARK H PARENT
REMARK Flexibility Score: inf
ROOT
ATOM      1  C   UNL     1      12.168  19.075  17.931  1.00  0.00     0.032 C 
ENDROOT
BRANCH   1   2
ATOM      2  C   UNL     1      13.661  19.171  17.729  1.00  0.00    -0.028 C 
ATOM      3  C   UNL     1      14.408  18.189  17.174  1.00  0.00    -0.077 C 
ATOM      4  C   UNL     1      15.888  18.414  17.015  1.00  0.00     0.039 C 
BRANCH   3   5
ATOM      5  C   UNL     1      13.807  16.899  16.652  1.00  0.00     0.034 C 
BRANCH   5   6
ATOM      6  C   UNL     1      14.809  16.158  15.761  1.00  0.00     0.032 C 
BRANCH   6   7
ATOM      7  C   UNL     1      14.936  14.717  16.183  1.00  0.00    -0.028 C 
ATOM      8  C   UNL     1      13.150  13.930  14.613  1.00  0.00     0.039 C 
ATOM      9  C   UNL     1      14.216  13.700  15.659  1.00  0.00    -0.080 C 
ATOM     10  C   UNL     1      14.481  12.302  16.155  1.00  0.00     0.039 C 
ENDBRANCH   6   7
ENDBRANCH   5   6
ENDBRANCH   3   5
ENDBRANCH   1   2
BRANCH   1  11
ATOM     11  C   UNL     1      11.419  20.034  17.001  1.00  0.00     0.034 C 
BRANCH  11  12
ATOM     12  C   UNL     1      10.562  19.268  16.014  1.00  0.00    -0.077 C 
ATOM     13  C   UNL     1       9.234  19.155  16.248  1.00  0.00    -0.028 C 
ATOM     14  C   UNL     1      11.210  18.665  14.790  1.00  0.00     0.039 C 
BRANCH  13  15
ATOM     15  C   UNL     1       8.275  18.391  15.371  1.00  0.00     0.035 C 
BRANCH  15  16
ATOM     16  C   UNL     1       7.904  17.050  16.010  1.00  0.00     0.079 C 
BRANCH  16  17
ATOM     17  C   UNL     1       7.897  15.952  14.979  1.00  0.00     0.130 C 
ATOM     18  O   UNL     1       6.869  15.323  14.776  1.00  0.00    -0.300 OA
ATOM     19  C   UNL     1       9.130  15.606  14.198  1.00  0.00     0.087 C 
ENDBRANCH  16  17
ENDBRANCH  15  16
ENDBRANCH  13  15
ENDBRANCH  11  12
ENDBRANCH   1  11
TORSDOF 9
ENDMDL
MODEL 2
REMARK VINA RESULT:    -5.251      1.801      3.894
REMARK INTER + INTRA:          -9.424
REMARK INTER:                  -7.987
REMARK INTRA:                  -1.436
REMARK UNBOUND:                -1.410
REMARK SMILES CC(=O)CCC=C(C)CCC=C(C)CCC=C(C)C
REMARK SMILES IDX 10 1 11 2 12 3 13 4 14 5 15 6 16 7 18 8 17 9 19 10 9 11 7 12
REMARK SMILES IDX 6 13 8 14 5 15 4 16 2 17 3 18 1 19
REMARK H PARENT
REMARK Flexibility Score: inf
ROOT
ATOM      1  C   UNL     1       9.614  18.722  16.329  1.00  0.00     0.032 C 
ENDROOT
BRANCH   1   2
ATOM      2  C   UNL     1      10.392  19.990  16.071  1.00  0.00    -0.028 C 
ATOM      3  C   UNL     1      11.458  20.379  16.807  1.00  0.00    -0.077 C 
ATOM      4  C   UNL     1      12.158  21.660  16.439  1.00  0.00     0.039 C 
BRANCH   3   5
ATOM      5  C   UNL     1      12.012  19.549  17.948  1.00  0.00     0.034 C 
BRANCH   5   6
ATOM      6  C   UNL     1      13.521  19.337  17.780  1.00  0.00     0.032 C 
BRANCH   6   7
ATOM      7  C   UNL     1      13.820  17.908  17.403  1.00  0.00    -0.028 C 
ATOM      8  C   UNL     1      13.959  18.412  14.954  1.00  0.00     0.039 C 
ATOM      9  C   UNL     1      14.045  17.481  16.141  1.00  0.00    -0.080 C 
ATOM     10  C   UNL     1      14.373  16.026  15.923  1.00  0.00     0.039 C 
ENDBRANCH   6   7
ENDBRANCH   5   6
ENDBRANCH   3   5
ENDBRANCH   1   2
BRANCH   1  11
ATOM     11  C   UNL     1       9.587  17.825  15.088  1.00  0.00     0.034 C 
BRANCH  11  12
ATOM     12  C   UNL     1       8.477  16.799  15.187  1.00  0.00    -0.077 C 
ATOM     13  C   UNL     1       8.486  15.740  14.345  1.00  0.00    -0.028 C 
ATOM     14  C   UNL     1       7.400  16.979  16.230  1.00  0.00     0.039 C 
BRANCH  13  15
ATOM     15  C   UNL     1       7.425  14.669  14.310  1.00  0.00     0.035 C 
BRANCH  15  16
ATOM     16  C   UNL     1       6.488  14.871  13.115  1.00  0.00     0.079 C 
BRANCH  16  17
ATOM     17  C   UNL     1       5.064  14.560  13.497  1.00  0.00     0.130 C 
ATOM     18  O   UNL     1       4.512  13.583  13.015  1.00  0.00    -0.300 OA
ATOM     19  C   UNL     1       4.304  15.432  14.453  1.00  0.00     0.087 C 
ENDBRANCH  16  17
ENDBRANCH  15  16
ENDBRANCH  13  15
ENDBRANCH  11  12
ENDBRANCH   1  11
TORSDOF 9
ENDMDL
MODEL 3
REMARK VINA RESULT:    -5.237      1.592      3.908
REMARK INTER + INTRA:          -9.403
REMARK INTER:                  -7.618
REMARK INTRA:                  -1.785
REMARK UNBOUND:                -1.410
REMARK SMILES CC(=O)CCC=C(C)CCC=C(C)CCC=C(C)C
REMARK SMILES IDX 10 1 11 2 12 3 13 4 14 5 15 6 16 7 18 8 17 9 19 10 9 11 7 12
REMARK SMILES IDX 6 13 8 14 5 15 4 16 2 17 3 18 1 19
REMARK H PARENT
REMARK Flexibility Score: inf
ROOT
ATOM      1  C   UNL     1       9.912  18.650  16.626  1.00  0.00     0.032 C 
ENDROOT
BRANCH   1   2
ATOM      2  C   UNL     1      10.565  19.956  16.246  1.00  0.00    -0.028 C 
ATOM      3  C   UNL     1      11.669  20.447  16.853  1.00  0.00    -0.077 C 
ATOM      4  C   UNL     1      12.233  21.757  16.371  1.00  0.00     0.039 C 
BRANCH   3   5
ATOM      5  C   UNL     1      12.396  19.705  17.957  1.00  0.00     0.034 C 
BRANCH   5   6
ATOM      6  C   UNL     1      13.865  19.483  17.584  1.00  0.00     0.032 C 
BRANCH   6   7
ATOM      7  C   UNL     1      14.150  18.017  17.381  1.00  0.00    -0.028 C 
ATOM      8  C   UNL     1      13.653  18.093  14.927  1.00  0.00     0.039 C 
ATOM      9  C   UNL     1      14.083  17.383  16.190  1.00  0.00    -0.080 C 
ATOM     10  C   UNL     1      14.435  15.918  16.135  1.00  0.00     0.039 C 
ENDBRANCH   6   7
ENDBRANCH   5   6
ENDBRANCH   3   5
ENDBRANCH   1   2
BRANCH   1  11
ATOM     11  C   UNL     1       8.671  18.378  15.769  1.00  0.00     0.034 C 
BRANCH  11  12
ATOM     12  C   UNL     1       8.792  17.051  15.050  1.00  0.00    -0.077 C 
ATOM     13  C   UNL     1       9.924  16.779  14.360  1.00  0.00    -0.028 C 
ATOM     14  C   UNL     1       7.653  16.062  15.133  1.00  0.00     0.039 C 
BRANCH  13  15
ATOM     15  C   UNL     1      10.160  15.516  13.570  1.00  0.00     0.035 C 
BRANCH  15  16
ATOM     16  C   UNL     1      11.575  14.983  13.809  1.00  0.00     0.079 C 
BRANCH  16  17
ATOM     17  C   UNL     1      11.537  13.531  14.209  1.00  0.00     0.130 C 
ATOM     18  O   UNL     1      10.659  12.808  13.762  1.00  0.00    -0.300 OA
ATOM     19  C   UNL     1      12.549  12.954  15.153  1.00  0.00     0.087 C 
ENDBRANCH  16  17
ENDBRANCH  15  16
ENDBRANCH  13  15
ENDBRANCH  11  12
ENDBRANCH   1  11
TORSDOF 9
ENDMDL
MODEL 4
REMARK VINA RESULT:    -5.216      3.202      5.983
REMARK INTER + INTRA:          -9.371
REMARK INTER:                  -7.322
REMARK INTRA:                  -2.049
REMARK UNBOUND:                -1.410
REMARK SMILES CC(=O)CCC=C(C)CCC=C(C)CCC=C(C)C
REMARK SMILES IDX 10 1 11 2 12 3 13 4 14 5 15 6 16 7 18 8 17 9 19 10 9 11 7 12
REMARK SMILES IDX 6 13 8 14 5 15 4 16 2 17 3 18 1 19
REMARK H PARENT
REMARK Flexibility Score: inf
ROOT
ATOM      1  C   UNL     1      15.324  18.541  16.638  1.00  0.00     0.032 C 
ENDROOT
BRANCH   1   2
ATOM      2  C   UNL     1      14.989  17.099  16.339  1.00  0.00    -0.028 C 
ATOM      3  C   UNL     1      14.174  16.712  15.332  1.00  0.00    -0.077 C 
ATOM      4  C   UNL     1      13.931  15.240  15.130  1.00  0.00     0.039 C 
BRANCH   3   5
ATOM      5  C   UNL     1      13.544  17.693  14.364  1.00  0.00     0.034 C 
BRANCH   5   6
ATOM      6  C   UNL     1      12.059  17.375  14.161  1.00  0.00     0.032 C 
BRANCH   6   7
ATOM      7  C   UNL     1      11.197  18.315  14.964  1.00  0.00    -0.028 C 
ATOM      8  C   UNL     1       9.110  16.982  14.587  1.00  0.00     0.039 C 
ATOM      9  C   UNL     1       9.876  18.139  15.186  1.00  0.00    -0.080 C 
ATOM     10  C   UNL     1       9.152  19.145  16.044  1.00  0.00     0.039 C 
ENDBRANCH   6   7
ENDBRANCH   5   6
ENDBRANCH   3   5
ENDBRANCH   1   2
BRANCH   1  11
ATOM     11  C   UNL     1      14.604  19.029  17.900  1.00  0.00     0.034 C 
BRANCH  11  12
ATOM     12  C   UNL     1      13.373  19.833  17.542  1.00  0.00    -0.077 C 
ATOM     13  C   UNL     1      13.464  20.776  16.575  1.00  0.00    -0.028 C 
ATOM     14  C   UNL     1      12.075  19.553  18.262  1.00  0.00     0.039 C 
BRANCH  13  15
ATOM     15  C   UNL     1      12.329  21.673  16.148  1.00  0.00     0.035 C 
BRANCH  15  16
ATOM     16  C   UNL     1      12.861  22.939  15.472  1.00  0.00     0.079 C 
BRANCH  16  17
ATOM     17  C   UNL     1      12.372  24.171  16.188  1.00  0.00     0.130 C 
ATOM     18  O   UNL     1      11.393  24.094  16.916  1.00  0.00    -0.300 OA
ATOM     19  C   UNL     1      13.056  25.495  16.021  1.00  0.00     0.087 C 
ENDBRANCH  16  17
ENDBRANCH  15  16
ENDBRANCH  13  15
ENDBRANCH  11  12
ENDBRANCH   1  11
TORSDOF 9
ENDMDL
MODEL 5
REMARK VINA RESULT:    -5.215      2.415      5.359
REMARK INTER + INTRA:          -9.369
REMARK INTER:                  -7.059
REMARK INTRA:                  -2.310
REMARK UNBOUND:                -1.410
REMARK SMILES CC(=O)CCC=C(C)CCC=C(C)CCC=C(C)C
REMARK SMILES IDX 10 1 11 2 12 3 13 4 14 5 15 6 16 7 18 8 17 9 19 10 9 11 7 12
REMARK SMILES IDX 6 13 8 14 5 15 4 16 2 17 3 18 1 19
REMARK H PARENT
REMARK Flexibility Score: inf
ROOT
ATOM      1  C   UNL     1      12.760  18.825  17.594  1.00  0.00     0.032 C 
ENDROOT
BRANCH   1   2
ATOM      2  C   UNL     1      12.332  20.265  17.439  1.00  0.00    -0.028 C 
ATOM      3  C   UNL     1      12.612  21.017  16.350  1.00  0.00    -0.077 C 
ATOM      4  C   UNL     1      12.115  22.438  16.311  1.00  0.00     0.039 C 
BRANCH   3   5
ATOM      5  C   UNL     1      13.352  20.471  15.145  1.00  0.00     0.034 C 
BRANCH   5   6
ATOM      6  C   UNL     1      12.375  20.160  14.006  1.00  0.00     0.032 C 
BRANCH   6   7
ATOM      7  C   UNL     1      12.240  18.672  13.809  1.00  0.00    -0.028 C 
ATOM      8  C   UNL     1      10.051  18.546  15.021  1.00  0.00     0.039 C 
ATOM      9  C   UNL     1      11.190  17.936  14.237  1.00  0.00    -0.080 C 
ATOM     10  C   UNL     1      11.176  16.460  13.932  1.00  0.00     0.039 C 
ENDBRANCH   6   7
ENDBRANCH   5   6
ENDBRANCH   3   5
ENDBRANCH   1   2
BRANCH   1  11
ATOM     11  C   UNL     1      14.279  18.713  17.767  1.00  0.00     0.034 C 
BRANCH  11  12
ATOM     12  C   UNL     1      14.865  17.739  16.766  1.00  0.00    -0.077 C 
ATOM     13  C   UNL     1      14.108  16.700  16.342  1.00  0.00    -0.028 C 
ATOM     14  C   UNL     1      16.270  17.961  16.259  1.00  0.00     0.039 C 
BRANCH  13  15
ATOM     15  C   UNL     1      14.579  15.638  15.380  1.00  0.00     0.035 C 
BRANCH  15  16
ATOM     16  C   UNL     1      15.076  14.402  16.136  1.00  0.00     0.079 C 
BRANCH  16  17
ATOM     17  C   UNL     1      14.245  13.196  15.787  1.00  0.00     0.130 C 
ATOM     18  O   UNL     1      14.580  12.095  16.200  1.00  0.00    -0.300 OA
ATOM     19  C   UNL     1      13.016  13.313  14.935  1.00  0.00     0.087 C 
ENDBRANCH  16  17
ENDBRANCH  15  16
ENDBRANCH  13  15
ENDBRANCH  11  12
ENDBRANCH   1  11
TORSDOF 9
ENDMDL
MODEL 6
REMARK VINA RESULT:    -5.171      1.837      5.708
REMARK INTER + INTRA:          -9.302
REMARK INTER:                  -8.209
REMARK INTRA:                  -1.093
REMARK UNBOUND:                -1.410
REMARK SMILES CC(=O)CCC=C(C)CCC=C(C)CCC=C(C)C
REMARK SMILES IDX 10 1 11 2 12 3 13 4 14 5 15 6 16 7 18 8 17 9 19 10 9 11 7 12
REMARK SMILES IDX 6 13 8 14 5 15 4 16 2 17 3 18 1 19
REMARK H PARENT
REMARK Flexibility Score: inf
ROOT
ATOM      1  C   UNL     1      14.143  18.621  17.754  1.00  0.00     0.032 C 
ENDROOT
BRANCH   1   2
ATOM      2  C   UNL     1      13.618  19.968  17.319  1.00  0.00    -0.028 C 
ATOM      3  C   UNL     1      12.325  20.201  16.999  1.00  0.00    -0.077 C 
ATOM      4  C   UNL     1      11.925  21.595  16.592  1.00  0.00     0.039 C 
BRANCH   3   5
ATOM      5  C   UNL     1      11.253  19.134  17.090  1.00  0.00     0.034 C 
BRANCH   5   6
ATOM      6  C   UNL     1      10.267  19.256  15.923  1.00  0.00     0.032 C 
BRANCH   6   7
ATOM      7  C   UNL     1       8.971  18.556  16.242  1.00  0.00    -0.028 C 
ATOM      8  C   UNL     1       9.253  16.857  14.423  1.00  0.00     0.039 C 
ATOM      9  C   UNL     1       8.514  17.461  15.594  1.00  0.00    -0.080 C 
ATOM     10  C   UNL     1       7.217  16.845  16.053  1.00  0.00     0.039 C 
ENDBRANCH   6   7
ENDBRANCH   5   6
ENDBRANCH   3   5
ENDBRANCH   1   2
BRANCH   1  11
ATOM     11  C   UNL     1      15.619  18.452  17.379  1.00  0.00     0.034 C 
BRANCH  11  12
ATOM     12  C   UNL     1      15.782  17.422  16.282  1.00  0.00    -0.077 C 
ATOM     13  C   UNL     1      14.710  16.685  15.909  1.00  0.00    -0.028 C 
ATOM     14  C   UNL     1      17.132  17.254  15.625  1.00  0.00     0.039 C 
BRANCH  13  15
ATOM     15  C   UNL     1      14.742  15.602  14.860  1.00  0.00     0.035 C 
BRANCH  15  16
ATOM     16  C   UNL     1      13.477  14.741  14.930  1.00  0.00     0.079 C 
BRANCH  16  17
ATOM     17  C   UNL     1      13.753  13.448  15.651  1.00  0.00     0.130 C 
ATOM     18  O   UNL     1      12.883  12.591  15.703  1.00  0.00    -0.300 OA
ATOM     19  C   UNL     1      15.072  13.191  16.317  1.00  0.00     0.087 C 
ENDBRANCH  16  17
ENDBRANCH  15  16
ENDBRANCH  13  15
ENDBRANCH  11  12
ENDBRANCH   1  11
TORSDOF 9
ENDMDL
MODEL 7
REMARK VINA RESULT:    -5.166      1.814      3.417
REMARK INTER + INTRA:          -9.295
REMARK INTER:                  -6.686
REMARK INTRA:                  -2.609
REMARK UNBOUND:                -1.410
REMARK SMILES CC(=O)CCC=C(C)CCC=C(C)CCC=C(C)C
REMARK SMILES IDX 10 1 11 2 12 3 13 4 14 5 15 6 16 7 18 8 17 9 19 10 9 11 7 12
REMARK SMILES IDX 6 13 8 14 5 15 4 16 2 17 3 18 1 19
REMARK H PARENT
REMARK Flexibility Score: inf
ROOT
ATOM      1  C   UNL     1      13.749  18.396  17.727  1.00  0.00     0.032 C 
ENDROOT
BRANCH   1   2
ATOM      2  C   UNL     1      15.113  18.151  17.128  1.00  0.00    -0.028 C 
ATOM      3  C   UNL     1      15.368  17.185  16.216  1.00  0.00    -0.077 C 
ATOM      4  C   UNL     1      16.771  17.051  15.684  1.00  0.00     0.039 C 
BRANCH   3   5
ATOM      5  C   UNL     1      14.291  16.271  15.666  1.00  0.00     0.034 C 
BRANCH   5   6
ATOM      6  C   UNL     1      14.091  16.514  14.166  1.00  0.00     0.032 C 
BRANCH   6   7
ATOM      7  C   UNL     1      12.958  17.480  13.928  1.00  0.00    -0.028 C 
ATOM      8  C   UNL     1      14.482  19.442  13.610  1.00  0.00     0.039 C 
ATOM      9  C   UNL     1      13.119  18.793  13.652  1.00  0.00    -0.080 C 
ATOM     10  C   UNL     1      11.890  19.628  13.397  1.00  0.00     0.039 C 
ENDBRANCH   6   7
ENDBRANCH   5   6
ENDBRANCH   3   5
ENDBRANCH   1   2
BRANCH   1  11
ATOM     11  C   UNL     1      13.415  19.891  17.757  1.00  0.00     0.034 C 
BRANCH  11  12
ATOM     12  C   UNL     1      12.074  20.157  17.106  1.00  0.00    -0.077 C 
ATOM     13  C   UNL     1      11.142  19.176  17.099  1.00  0.00    -0.028 C 
ATOM     14  C   UNL     1      11.810  21.513  16.493  1.00  0.00     0.039 C 
BRANCH  13  15
ATOM     15  C   UNL     1       9.784  19.294  16.454  1.00  0.00     0.035 C 
BRANCH  15  16
ATOM     16  C   UNL     1       9.478  18.059  15.602  1.00  0.00     0.079 C 
BRANCH  16  17
ATOM     17  C   UNL     1       8.016  17.708  15.680  1.00  0.00     0.130 C 
ATOM     18  O   UNL     1       7.637  16.886  16.501  1.00  0.00    -0.300 OA
ATOM     19  C   UNL     1       7.011  18.339  14.761  1.00  0.00     0.087 C 
ENDBRANCH  16  17
ENDBRANCH  15  16
ENDBRANCH  13  15
ENDBRANCH  11  12
ENDBRANCH   1  11
TORSDOF 9
ENDMDL
MODEL 8
REMARK VINA RESULT:    -5.081      2.692      6.504
REMARK INTER + INTRA:          -9.165
REMARK INTER:                  -7.613
REMARK INTRA:                  -1.552
REMARK UNBOUND:                -1.410
REMARK SMILES CC(=O)CCC=C(C)CCC=C(C)CCC=C(C)C
REMARK SMILES IDX 10 1 11 2 12 3 13 4 14 5 15 6 16 7 18 8 17 9 19 10 9 11 7 12
REMARK SMILES IDX 6 13 8 14 5 15 4 16 2 17 3 18 1 19
REMARK H PARENT
REMARK Flexibility Score: inf
ROOT
ATOM      1  C   UNL     1      13.919  19.740  17.687  1.00  0.00     0.032 C 
ENDROOT
BRANCH   1   2
ATOM      2  C   UNL     1      12.447  19.406  17.677  1.00  0.00    -0.028 C 
ATOM      3  C   UNL     1      11.706  19.318  16.549  1.00  0.00    -0.077 C 
ATOM      4  C   UNL     1      10.248  18.963  16.672  1.00  0.00     0.039 C 
BRANCH   3   5
ATOM      5  C   UNL     1      12.296  19.501  15.165  1.00  0.00     0.034 C 
BRANCH   5   6
ATOM      6  C   UNL     1      11.590  20.642  14.423  1.00  0.00     0.032 C 
BRANCH   6   7
ATOM      7  C   UNL     1      11.462  21.856  15.308  1.00  0.00    -0.028 C 
ATOM      8  C   UNL     1      13.778  22.666  14.809  1.00  0.00     0.039 C 
ATOM      9  C   UNL     1      12.426  22.787  15.472  1.00  0.00    -0.080 C 
ATOM     10  C   UNL     1      12.138  23.970  16.360  1.00  0.00     0.039 C 
ENDBRANCH   6   7
ENDBRANCH   5   6
ENDBRANCH   3   5
ENDBRANCH   1   2
BRANCH   1  11
ATOM     11  C   UNL     1      14.762  18.521  18.075  1.00  0.00     0.034 C 
BRANCH  11  12
ATOM     12  C   UNL     1      15.050  17.657  16.865  1.00  0.00    -0.077 C 
ATOM     13  C   UNL     1      14.246  16.598  16.609  1.00  0.00    -0.028 C 
ATOM     14  C   UNL     1      16.215  18.007  15.970  1.00  0.00     0.039 C 
BRANCH  13  15
ATOM     15  C   UNL     1      14.440  15.636  15.464  1.00  0.00     0.035 C 
BRANCH  15  16
ATOM     16  C   UNL     1      15.179  14.379  15.930  1.00  0.00     0.079 C 
BRANCH  16  17
ATOM     17  C   UNL     1      14.277  13.175  15.861  1.00  0.00     0.130 C 
ATOM     18  O   UNL     1      14.644  12.119  16.354  1.00  0.00    -0.300 OA
ATOM     19  C   UNL     1      12.936  13.241  15.191  1.00  0.00     0.087 C 
ENDBRANCH  16  17
ENDBRANCH  15  16
ENDBRANCH  13  15
ENDBRANCH  11  12
ENDBRANCH   1  11
TORSDOF 9
ENDMDL
MODEL 9
REMARK VINA RESULT:    -5.043      1.934      5.740
REMARK INTER + INTRA:          -9.107
REMARK INTER:                  -7.262
REMARK INTRA:                  -1.845
REMARK UNBOUND:                -1.410
REMARK SMILES CC(=O)CCC=C(C)CCC=C(C)CCC=C(C)C
REMARK SMILES IDX 10 1 11 2 12 3 13 4 14 5 15 6 16 7 18 8 17 9 19 10 9 11 7 12
REMARK SMILES IDX 6 13 8 14 5 15 4 16 2 17 3 18 1 19
REMARK H PARENT
REMARK Flexibility Score: inf
ROOT
ATOM      1  C   UNL     1      11.644  19.291  17.295  1.00  0.00     0.032 C 
ENDROOT
BRANCH   1   2
ATOM      2  C   UNL     1      11.297  20.387  16.316  1.00  0.00    -0.028 C 
ATOM      3  C   UNL     1      11.206  20.197  14.980  1.00  0.00    -0.077 C 
ATOM      4  C   UNL     1      10.838  21.370  14.110  1.00  0.00     0.039 C 
BRANCH   3   5
ATOM      5  C   UNL     1      11.399  18.842  14.329  1.00  0.00     0.034 C 
BRANCH   5   6
ATOM      6  C   UNL     1      10.089  18.348  13.707  1.00  0.00     0.032 C 
BRANCH   6   7
ATOM      7  C   UNL     1       9.340  17.464  14.671  1.00  0.00    -0.028 C 
ATOM      8  C   UNL     1       7.742  19.272  15.343  1.00  0.00     0.039 C 
ATOM      9  C   UNL     1       8.268  17.857  15.394  1.00  0.00    -0.080 C 
ATOM     10  C   UNL     1       7.596  16.846  16.288  1.00  0.00     0.039 C 
ENDBRANCH   6   7
ENDBRANCH   5   6
ENDBRANCH   3   5
ENDBRANCH   1   2
BRANCH   1  11
ATOM     11  C   UNL     1      12.965  19.586  18.013  1.00  0.00     0.034 C 
BRANCH  11  12
ATOM     12  C   UNL     1      14.026  18.577  17.625  1.00  0.00    -0.077 C 
ATOM     13  C   UNL     1      13.692  17.558  16.800  1.00  0.00    -0.028 C 
ATOM     14  C   UNL     1      15.430  18.745  18.157  1.00  0.00     0.039 C 
BRANCH  13  15
ATOM     15  C   UNL     1      14.637  16.466  16.366  1.00  0.00     0.035 C 
BRANCH  15  16
ATOM     16  C   UNL     1      14.120  15.769  15.104  1.00  0.00     0.079 C 
BRANCH  16  17
ATOM     17  C   UNL     1      14.140  14.273  15.276  1.00  0.00     0.130 C 
ATOM     18  O   UNL     1      13.436  13.576  14.561  1.00  0.00    -0.300 OA
ATOM     19  C   UNL     1      15.001  13.618  16.316  1.00  0.00     0.087 C 
ENDBRANCH  16  17
ENDBRANCH  15  16
ENDBRANCH  13  15
ENDBRANCH  11  12
ENDBRANCH   1  11
TORSDOF 9
ENDMDL
