MODEL 1
REMARK VINA RESULT:    -4.893      0.000      0.000
REMARK INTER + INTRA:          -7.993
REMARK INTER:                  -7.038
REMARK INTRA:                  -0.955
REMARK UNBOUND:                -0.955
REMARK SMILES O=C(CO)[C@@H](O)[C@@H](O)[C@@H](O)CO
REMARK SMILES IDX 7 1 9 2 11 3 12 4 10 6 5 8 2 9 1 10 3 11 4 12 6 14 8 16
REMARK H PARENT 12 5 10 7 4 13 6 15 8 17
REMARK Flexibility Score: inf
ROOT
ATOM      1  C   UNL     1       9.806 -11.803  36.115  1.00  0.00     0.181 C 
ENDROOT
BRANCH   1   2
ATOM      2  C   UNL     1       8.250 -11.802  36.086  1.00  0.00     0.171 C 
BRANCH   2   3
ATOM      3  C   UNL     1       7.668 -12.414  34.798  1.00  0.00     0.190 C 
BRANCH   3   4
ATOM      4  O   UNL     1       8.000 -11.625  33.687  1.00  0.00    -0.394 OA
ATOM      5  H   UNL     1       7.916 -10.678  33.974  1.00  0.00     0.210 HD
ENDBRANCH   3   4
ENDBRANCH   2   3
BRANCH   2   6
ATOM      6  O   UNL     1       7.751 -10.501  36.270  1.00  0.00    -0.388 OA
ATOM      7  H   UNL     1       7.286 -10.489  37.147  1.00  0.00     0.211 HD
ENDBRANCH   2   6
ENDBRANCH   1   2
BRANCH   1   8
ATOM      8  C   UNL     1      10.477 -11.932  37.515  1.00  0.00     0.214 C 
BRANCH   8   9
ATOM      9  C   UNL     1      11.916 -11.460  37.520  1.00  0.00     0.189 C 
ATOM     10  O   UNL     1      12.698 -11.933  36.708  1.00  0.00    -0.294 OA
BRANCH   9  11
ATOM     11  C   UNL     1      12.425 -10.500  38.568  1.00  0.00     0.234 C 
BRANCH  11  12
ATOM     12  O   UNL     1      11.750  -9.271  38.501  1.00  0.00    -0.388 OA
ATOM     13  H   UNL     1      12.369  -8.631  38.063  1.00  0.00     0.211 HD
ENDBRANCH  11  12
ENDBRANCH   9  11
ENDBRANCH   8   9
BRANCH   8  14
ATOM     14  O   UNL     1       9.733 -11.258  38.500  1.00  0.00    -0.382 OA
ATOM     15  H   UNL     1       9.004 -11.867  38.788  1.00  0.00     0.211 HD
ENDBRANCH   8  14
ENDBRANCH   1   8
BRANCH   1  16
ATOM     16  O   UNL     1      10.298 -12.810  35.263  1.00  0.00    -0.387 OA
ATOM     17  H   UNL     1      11.229 -12.573  35.017  1.00  0.00     0.211 HD
ENDBRANCH   1  16
TORSDOF 10
ENDMDL
MODEL 2
REMARK VINA RESULT:    -4.868      2.106      2.613
REMARK INTER + INTRA:          -7.957
REMARK INTER:                  -7.095
REMARK INTRA:                  -0.863
REMARK UNBOUND:                -0.955
REMARK SMILES O=C(CO)[C@@H](O)[C@@H](O)[C@@H](O)CO
REMARK SMILES IDX 7 1 9 2 11 3 12 4 10 6 5 8 2 9 1 10 3 11 4 12 6 14 8 16
REMARK H PARENT 12 5 10 7 4 13 6 15 8 17
REMARK Flexibility Score: inf
ROOT
ATOM      1  C   UNL     1       9.549 -12.925  36.102  1.00  0.00     0.181 C 
ENDROOT
BRANCH   1   2
ATOM      2  C   UNL     1       8.469 -11.845  36.398  1.00  0.00     0.171 C 
BRANCH   2   3
ATOM      3  C   UNL     1       7.251 -11.932  35.459  1.00  0.00     0.190 C 
BRANCH   3   4
ATOM      4  O   UNL     1       7.626 -11.625  34.143  1.00  0.00    -0.394 OA
ATOM      5  H   UNL     1       8.597 -11.820  34.070  1.00  0.00     0.210 HD
ENDBRANCH   3   4
ENDBRANCH   2   3
BRANCH   2   6
ATOM      6  O   UNL     1       9.027 -10.556  36.347  1.00  0.00    -0.388 OA
ATOM      7  H   UNL     1       8.584 -10.076  35.599  1.00  0.00     0.211 HD
ENDBRANCH   2   6
ENDBRANCH   1   2
BRANCH   1   8
ATOM      8  C   UNL     1      10.266 -13.550  37.336  1.00  0.00     0.214 C 
BRANCH   8   9
ATOM      9  C   UNL     1      11.289 -14.597  36.948  1.00  0.00     0.189 C 
ATOM     10  O   UNL     1      10.922 -15.749  36.772  1.00  0.00    -0.294 OA
BRANCH   9  11
ATOM     11  C   UNL     1      12.761 -14.268  36.876  1.00  0.00     0.234 C 
BRANCH  11  12
ATOM     12  O   UNL     1      13.250 -13.856  38.125  1.00  0.00    -0.388 OA
ATOM     13  H   UNL     1      14.029 -13.267  37.945  1.00  0.00     0.211 HD
ENDBRANCH  11  12
ENDBRANCH   9  11
ENDBRANCH   8   9
BRANCH   8  14
ATOM     14  O   UNL     1      10.855 -12.557  38.139  1.00  0.00    -0.382 OA
ATOM     15  H   UNL     1      11.572 -12.130  37.602  1.00  0.00     0.211 HD
ENDBRANCH   8  14
ENDBRANCH   1   8
BRANCH   1  16
ATOM     16  O   UNL     1       8.994 -13.949  35.311  1.00  0.00    -0.387 OA
ATOM     17  H   UNL     1       8.922 -14.763  35.874  1.00  0.00     0.211 HD
ENDBRANCH   1  16
TORSDOF 10
ENDMDL
MODEL 3
REMARK VINA RESULT:    -4.857      1.610      4.143
REMARK INTER + INTRA:          -7.941
REMARK INTER:                  -6.860
REMARK INTRA:                  -1.081
REMARK UNBOUND:                -0.955
REMARK SMILES O=C(CO)[C@@H](O)[C@@H](O)[C@@H](O)CO
REMARK SMILES IDX 7 1 9 2 11 3 12 4 10 6 5 8 2 9 1 10 3 11 4 12 6 14 8 16
REMARK H PARENT 12 5 10 7 4 13 6 15 8 17
REMARK Flexibility Score: inf
ROOT
ATOM      1  C   UNL     1      10.406 -12.146  35.462  1.00  0.00     0.181 C 
ENDROOT
BRANCH   1   2
ATOM      2  C   UNL     1      10.980 -11.175  36.535  1.00  0.00     0.171 C 
BRANCH   2   3
ATOM      3  C   UNL     1      10.777 -11.676  37.977  1.00  0.00     0.190 C 
BRANCH   3   4
ATOM      4  O   UNL     1       9.625 -11.104  38.535  1.00  0.00    -0.394 OA
ATOM      5  H   UNL     1       8.848 -11.559  38.116  1.00  0.00     0.210 HD
ENDBRANCH   3   4
ENDBRANCH   2   3
BRANCH   2   6
ATOM      6  O   UNL     1      10.429  -9.890  36.388  1.00  0.00    -0.388 OA
ATOM      7  H   UNL     1       9.657  -9.974  35.769  1.00  0.00     0.211 HD
ENDBRANCH   2   6
ENDBRANCH   1   2
BRANCH   1   8
ATOM      8  C   UNL     1       9.299 -13.133  35.939  1.00  0.00     0.214 C 
BRANCH   8   9
ATOM      9  C   UNL     1       7.923 -12.756  35.432  1.00  0.00     0.189 C 
ATOM     10  O   UNL     1       7.581 -13.120  34.316  1.00  0.00    -0.294 OA
BRANCH   9  11
ATOM     11  C   UNL     1       7.010 -11.856  36.231  1.00  0.00     0.234 C 
BRANCH  11  12
ATOM     12  O   UNL     1       7.556 -10.570  36.363  1.00  0.00    -0.388 OA
ATOM     13  H   UNL     1       6.909 -10.041  36.900  1.00  0.00     0.211 HD
ENDBRANCH  11  12
ENDBRANCH   9  11
ENDBRANCH   8   9
BRANCH   8  14
ATOM     14  O   UNL     1       9.610 -14.458  35.582  1.00  0.00    -0.382 OA
ATOM     15  H   UNL     1      10.592 -14.503  35.444  1.00  0.00     0.211 HD
ENDBRANCH   8  14
ENDBRANCH   1   8
BRANCH   1  16
ATOM     16  O   UNL     1       9.938 -11.411  34.357  1.00  0.00    -0.387 OA
ATOM     17  H   UNL     1       8.948 -11.492  34.335  1.00  0.00     0.211 HD
ENDBRANCH   1  16
TORSDOF 10
ENDMDL
MODEL 4
REMARK VINA RESULT:    -4.830      1.581      4.647
REMARK INTER + INTRA:          -7.903
REMARK INTER:                  -7.087
REMARK INTRA:                  -0.816
REMARK UNBOUND:                -0.955
REMARK SMILES O=C(CO)[C@@H](O)[C@@H](O)[C@@H](O)CO
REMARK SMILES IDX 7 1 9 2 11 3 12 4 10 6 5 8 2 9 1 10 3 11 4 12 6 14 8 16
REMARK H PARENT 12 5 10 7 4 13 6 15 8 17
REMARK Flexibility Score: inf
ROOT
ATOM      1  C   UNL     1      10.989 -11.851  37.535  1.00  0.00     0.181 C 
ENDROOT
BRANCH   1   2
ATOM      2  C   UNL     1      12.516 -12.058  37.323  1.00  0.00     0.171 C 
BRANCH   2   3
ATOM      3  C   UNL     1      12.873 -13.466  36.812  1.00  0.00     0.190 C 
BRANCH   3   4
ATOM      4  O   UNL     1      13.154 -14.320  37.889  1.00  0.00    -0.394 OA
ATOM      5  H   UNL     1      13.254 -13.745  38.691  1.00  0.00     0.210 HD
ENDBRANCH   3   4
ENDBRANCH   2   3
BRANCH   2   6
ATOM      6  O   UNL     1      13.224 -11.780  38.505  1.00  0.00    -0.388 OA
ATOM      7  H   UNL     1      13.810 -12.561  38.684  1.00  0.00     0.211 HD
ENDBRANCH   2   6
ENDBRANCH   1   2
BRANCH   1   8
ATOM      8  C   UNL     1      10.132 -11.627  36.253  1.00  0.00     0.214 C 
BRANCH   8   9
ATOM      9  C   UNL     1       9.071 -12.692  36.066  1.00  0.00     0.189 C 
ATOM     10  O   UNL     1       9.416 -13.859  35.951  1.00  0.00    -0.294 OA
BRANCH   9  11
ATOM     11  C   UNL     1       7.613 -12.330  35.915  1.00  0.00     0.234 C 
BRANCH  11  12
ATOM     12  O   UNL     1       7.394 -11.583  34.748  1.00  0.00    -0.388 OA
ATOM     13  H   UNL     1       6.588 -11.966  34.313  1.00  0.00     0.211 HD
ENDBRANCH  11  12
ENDBRANCH   9  11
ENDBRANCH   8   9
BRANCH   8  14
ATOM     14  O   UNL     1       9.553 -10.346  36.245  1.00  0.00    -0.382 OA
ATOM     15  H   UNL     1       8.724 -10.400  35.702  1.00  0.00     0.211 HD
ENDBRANCH   8  14
ENDBRANCH   1   8
BRANCH   1  16
ATOM     16  O   UNL     1      10.460 -12.928  38.272  1.00  0.00    -0.387 OA
ATOM     17  H   UNL     1      11.125 -13.177  38.965  1.00  0.00     0.211 HD
ENDBRANCH   1  16
TORSDOF 10
ENDMDL
MODEL 5
REMARK VINA RESULT:    -4.825      2.133      4.533
REMARK INTER + INTRA:          -7.895
REMARK INTER:                  -7.089
REMARK INTRA:                  -0.807
REMARK UNBOUND:                -0.955
REMARK SMILES O=C(CO)[C@@H](O)[C@@H](O)[C@@H](O)CO
REMARK SMILES IDX 7 1 9 2 11 3 12 4 10 6 5 8 2 9 1 10 3 11 4 12 6 14 8 16
REMARK H PARENT 12 5 10 7 4 13 6 15 8 17
REMARK Flexibility Score: inf
ROOT
ATOM      1  C   UNL     1      10.309 -14.213  36.613  1.00  0.00     0.181 C 
ENDROOT
BRANCH   1   2
ATOM      2  C   UNL     1      11.355 -13.089  36.864  1.00  0.00     0.171 C 
BRANCH   2   3
ATOM      3  C   UNL     1      12.810 -13.587  36.786  1.00  0.00     0.190 C 
BRANCH   3   4
ATOM      4  O   UNL     1      13.118 -14.374  37.906  1.00  0.00    -0.394 OA
ATOM      5  H   UNL     1      12.962 -13.806  38.705  1.00  0.00     0.210 HD
ENDBRANCH   3   4
ENDBRANCH   2   3
BRANCH   2   6
ATOM      6  O   UNL     1      11.124 -12.463  38.101  1.00  0.00    -0.388 OA
ATOM      7  H   UNL     1      11.077 -13.180  38.786  1.00  0.00     0.211 HD
ENDBRANCH   2   6
ENDBRANCH   1   2
BRANCH   1   8
ATOM      8  C   UNL     1       9.022 -13.807  35.835  1.00  0.00     0.214 C 
BRANCH   8   9
ATOM      9  C   UNL     1       8.019 -13.078  36.706  1.00  0.00     0.189 C 
ATOM     10  O   UNL     1       7.411 -13.704  37.562  1.00  0.00    -0.294 OA
BRANCH   9  11
ATOM     11  C   UNL     1       7.682 -11.625  36.469  1.00  0.00     0.234 C 
BRANCH  11  12
ATOM     12  O   UNL     1       8.823 -10.816  36.576  1.00  0.00    -0.388 OA
ATOM     13  H   UNL     1       9.566 -11.410  36.860  1.00  0.00     0.211 HD
ENDBRANCH  11  12
ENDBRANCH   9  11
ENDBRANCH   8   9
BRANCH   8  14
ATOM     14  O   UNL     1       9.335 -13.042  34.697  1.00  0.00    -0.382 OA
ATOM     15  H   UNL     1       9.743 -13.656  34.032  1.00  0.00     0.211 HD
ENDBRANCH   8  14
ENDBRANCH   1   8
BRANCH   1  16
ATOM     16  O   UNL     1      10.925 -15.301  35.968  1.00  0.00    -0.387 OA
ATOM     17  H   UNL     1      11.105 -15.999  36.651  1.00  0.00     0.211 HD
ENDBRANCH   1  16
TORSDOF 10
ENDMDL
MODEL 6
REMARK VINA RESULT:    -4.817      2.034      4.386
REMARK INTER + INTRA:          -7.884
REMARK INTER:                  -6.847
REMARK INTRA:                  -1.037
REMARK UNBOUND:                -0.955
REMARK SMILES O=C(CO)[C@@H](O)[C@@H](O)[C@@H](O)CO
REMARK SMILES IDX 7 1 9 2 11 3 12 4 10 6 5 8 2 9 1 10 3 11 4 12 6 14 8 16
REMARK H PARENT 12 5 10 7 4 13 6 15 8 17
REMARK Flexibility Score: inf
ROOT
ATOM      1  C   UNL     1      11.166 -10.736  35.973  1.00  0.00     0.181 C 
ENDROOT
BRANCH   1   2
ATOM      2  C   UNL     1      12.028  -9.611  36.616  1.00  0.00     0.171 C 
BRANCH   2   3
ATOM      3  C   UNL     1      12.465  -9.932  38.058  1.00  0.00     0.190 C 
BRANCH   3   4
ATOM      4  O   UNL     1      11.379  -9.809  38.937  1.00  0.00    -0.394 OA
ATOM      5  H   UNL     1      11.547  -8.999  39.487  1.00  0.00     0.210 HD
ENDBRANCH   3   4
ENDBRANCH   2   3
BRANCH   2   6
ATOM      6  O   UNL     1      11.347  -8.382  36.580  1.00  0.00    -0.388 OA
ATOM      7  H   UNL     1      10.460  -8.552  36.167  1.00  0.00     0.211 HD
ENDBRANCH   2   6
ENDBRANCH   1   2
BRANCH   1   8
ATOM      8  C   UNL     1      11.592 -12.202  36.282  1.00  0.00     0.214 C 
BRANCH   8   9
ATOM      9  C   UNL     1      10.512 -12.984  37.001  1.00  0.00     0.189 C 
ATOM     10  O   UNL     1      10.278 -12.731  38.174  1.00  0.00    -0.294 OA
BRANCH   9  11
ATOM     11  C   UNL     1       9.796 -14.133  36.332  1.00  0.00     0.234 C 
BRANCH  11  12
ATOM     12  O   UNL     1      10.683 -15.180  36.037  1.00  0.00    -0.388 OA
ATOM     13  H   UNL     1      10.601 -15.356  35.063  1.00  0.00     0.211 HD
ENDBRANCH  11  12
ENDBRANCH   9  11
ENDBRANCH   8   9
BRANCH   8  14
ATOM     14  O   UNL     1      11.992 -12.873  35.113  1.00  0.00    -0.382 OA
ATOM     15  H   UNL     1      11.375 -13.640  34.987  1.00  0.00     0.211 HD
ENDBRANCH   8  14
ENDBRANCH   1   8
BRANCH   1  16
ATOM     16  O   UNL     1       9.814 -10.555  36.317  1.00  0.00    -0.387 OA
ATOM     17  H   UNL     1       9.279 -11.225  35.815  1.00  0.00     0.211 HD
ENDBRANCH   1  16
TORSDOF 10
ENDMDL
MODEL 7
REMARK VINA RESULT:    -4.812      1.446      4.598
REMARK INTER + INTRA:          -7.877
REMARK INTER:                  -7.023
REMARK INTRA:                  -0.854
REMARK UNBOUND:                -0.955
REMARK SMILES O=C(CO)[C@@H](O)[C@@H](O)[C@@H](O)CO
REMARK SMILES IDX 7 1 9 2 11 3 12 4 10 6 5 8 2 9 1 10 3 11 4 12 6 14 8 16
REMARK H PARENT 12 5 10 7 4 13 6 15 8 17
REMARK Flexibility Score: inf
ROOT
ATOM      1  C   UNL     1      10.456 -11.603  37.127  1.00  0.00     0.181 C 
ENDROOT
BRANCH   1   2
ATOM      2  C   UNL     1      11.413 -10.454  36.699  1.00  0.00     0.171 C 
BRANCH   2   3
ATOM      3  C   UNL     1      12.287  -9.931  37.855  1.00  0.00     0.190 C 
BRANCH   3   4
ATOM      4  O   UNL     1      11.482  -9.406  38.877  1.00  0.00    -0.394 OA
ATOM      5  H   UNL     1      11.784  -9.827  39.723  1.00  0.00     0.210 HD
ENDBRANCH   3   4
ENDBRANCH   2   3
BRANCH   2   6
ATOM      6  O   UNL     1      10.692  -9.395  36.121  1.00  0.00    -0.388 OA
ATOM      7  H   UNL     1       9.728  -9.596  36.249  1.00  0.00     0.211 HD
ENDBRANCH   2   6
ENDBRANCH   1   2
BRANCH   1   8
ATOM      8  C   UNL     1      10.109 -12.663  36.039  1.00  0.00     0.214 C 
BRANCH   8   9
ATOM      9  C   UNL     1       8.646 -13.053  36.048  1.00  0.00     0.189 C 
ATOM     10  O   UNL     1       8.146 -13.456  37.089  1.00  0.00    -0.294 OA
BRANCH   9  11
ATOM     11  C   UNL     1       7.824 -13.053  34.782  1.00  0.00     0.234 C 
BRANCH  11  12
ATOM     12  O   UNL     1       7.683 -11.754  34.269  1.00  0.00    -0.388 OA
ATOM     13  H   UNL     1       7.212 -11.224  34.964  1.00  0.00     0.211 HD
ENDBRANCH  11  12
ENDBRANCH   9  11
ENDBRANCH   8   9
BRANCH   8  14
ATOM     14  O   UNL     1      10.495 -12.224  34.759  1.00  0.00    -0.382 OA
ATOM     15  H   UNL     1      10.879 -11.315  34.863  1.00  0.00     0.211 HD
ENDBRANCH   8  14
ENDBRANCH   1   8
BRANCH   1  16
ATOM     16  O   UNL     1      10.968 -12.250  38.267  1.00  0.00    -0.387 OA
ATOM     17  H   UNL     1      11.915 -11.974  38.374  1.00  0.00     0.211 HD
ENDBRANCH   1  16
TORSDOF 10
ENDMDL
MODEL 8
REMARK VINA RESULT:    -4.810      2.088      3.032
REMARK INTER + INTRA:          -7.873
REMARK INTER:                  -6.627
REMARK INTRA:                  -1.246
REMARK UNBOUND:                -0.955
REMARK SMILES O=C(CO)[C@@H](O)[C@@H](O)[C@@H](O)CO
REMARK SMILES IDX 7 1 9 2 11 3 12 4 10 6 5 8 2 9 1 10 3 11 4 12 6 14 8 16
REMARK H PARENT 12 5 10 7 4 13 6 15 8 17
REMARK Flexibility Score: inf
ROOT
ATOM      1  C   UNL     1       9.942 -12.946  38.121  1.00  0.00     0.181 C 
ENDROOT
BRANCH   1   2
ATOM      2  C   UNL     1       8.575 -12.236  37.897  1.00  0.00     0.171 C 
BRANCH   2   3
ATOM      3  C   UNL     1       8.433 -11.625  36.490  1.00  0.00     0.190 C 
BRANCH   3   4
ATOM      4  O   UNL     1       9.360 -10.587  36.312  1.00  0.00    -0.394 OA
ATOM      5  H   UNL     1       9.750 -10.705  35.406  1.00  0.00     0.210 HD
ENDBRANCH   3   4
ENDBRANCH   2   3
BRANCH   2   6
ATOM      6  O   UNL     1       8.361 -11.250  38.875  1.00  0.00    -0.388 OA
ATOM      7  H   UNL     1       9.175 -10.681  38.898  1.00  0.00     0.211 HD
ENDBRANCH   2   6
ENDBRANCH   1   2
BRANCH   1   8
ATOM      8  C   UNL     1      10.483 -13.804  36.939  1.00  0.00     0.214 C 
BRANCH   8   9
ATOM      9  C   UNL     1      11.780 -13.264  36.371  1.00  0.00     0.189 C 
ATOM     10  O   UNL     1      11.736 -12.370  35.538  1.00  0.00    -0.294 OA
BRANCH   9  11
ATOM     11  C   UNL     1      13.112 -13.875  36.734  1.00  0.00     0.234 C 
BRANCH  11  12
ATOM     12  O   UNL     1      13.250 -14.000  38.125  1.00  0.00    -0.388 OA
ATOM     13  H   UNL     1      13.381 -14.966  38.311  1.00  0.00     0.211 HD
ENDBRANCH  11  12
ENDBRANCH   9  11
ENDBRANCH   8   9
BRANCH   8  14
ATOM     14  O   UNL     1      10.632 -15.151  37.313  1.00  0.00    -0.382 OA
ATOM     15  H   UNL     1      10.307 -15.705  36.557  1.00  0.00     0.211 HD
ENDBRANCH   8  14
ENDBRANCH   1   8
BRANCH   1  16
ATOM     16  O   UNL     1      10.913 -12.000  38.500  1.00  0.00    -0.387 OA
ATOM     17  H   UNL     1      10.439 -11.189  38.822  1.00  0.00     0.211 HD
ENDBRANCH   1  16
TORSDOF 10
ENDMDL
MODEL 9
REMARK VINA RESULT:    -4.795      2.211      4.071
REMARK INTER + INTRA:          -7.852
REMARK INTER:                  -6.808
REMARK INTRA:                  -1.044
REMARK UNBOUND:                -0.955
REMARK SMILES O=C(CO)[C@@H](O)[C@@H](O)[C@@H](O)CO
REMARK SMILES IDX 7 1 9 2 11 3 12 4 10 6 5 8 2 9 1 10 3 11 4 12 6 14 8 16
REMARK H PARENT 12 5 10 7 4 13 6 15 8 17
REMARK Flexibility Score: inf
ROOT
ATOM      1  C   UNL     1      11.653 -11.780  35.597  1.00  0.00     0.181 C 
ENDROOT
BRANCH   1   2
ATOM      2  C   UNL     1      11.354 -10.273  35.844  1.00  0.00     0.171 C 
BRANCH   2   3
ATOM      3  C   UNL     1      12.340  -9.612  36.825  1.00  0.00     0.190 C 
BRANCH   3   4
ATOM      4  O   UNL     1      11.677  -9.230  38.001  1.00  0.00    -0.394 OA
ATOM      5  H   UNL     1      11.275  -8.339  37.826  1.00  0.00     0.210 HD
ENDBRANCH   3   4
ENDBRANCH   2   3
BRANCH   2   6
ATOM      6  O   UNL     1      10.034 -10.096  36.293  1.00  0.00    -0.388 OA
ATOM      7  H   UNL     1       9.888  -9.119  36.390  1.00  0.00     0.211 HD
ENDBRANCH   2   6
ENDBRANCH   1   2
BRANCH   1   8
ATOM      8  C   UNL     1      11.965 -12.644  36.856  1.00  0.00     0.214 C 
BRANCH   8   9
ATOM      9  C   UNL     1      10.742 -13.360  37.389  1.00  0.00     0.189 C 
ATOM     10  O   UNL     1       9.890 -12.717  37.986  1.00  0.00    -0.294 OA
BRANCH   9  11
ATOM     11  C   UNL     1      10.604 -14.860  37.291  1.00  0.00     0.234 C 
BRANCH  11  12
ATOM     12  O   UNL     1      10.685 -15.291  35.958  1.00  0.00    -0.388 OA
ATOM     13  H   UNL     1      11.637 -15.521  35.791  1.00  0.00     0.211 HD
ENDBRANCH  11  12
ENDBRANCH   9  11
ENDBRANCH   8   9
BRANCH   8  14
ATOM     14  O   UNL     1      13.002 -13.559  36.601  1.00  0.00    -0.382 OA
ATOM     15  H   UNL     1      12.940 -14.273  37.288  1.00  0.00     0.211 HD
ENDBRANCH   8  14
ENDBRANCH   1   8
BRANCH   1  16
ATOM     16  O   UNL     1      10.595 -12.364  34.875  1.00  0.00    -0.387 OA
ATOM     17  H   UNL     1      10.710 -12.124  33.919  1.00  0.00     0.211 HD
ENDBRANCH   1  16
TORSDOF 10
ENDMDL
