MODEL 1
REMARK VINA RESULT:    -3.869      0.000      0.000
REMARK INTER + INTRA:          -7.796
REMARK INTER:                  -6.810
REMARK INTRA:                  -0.987
REMARK UNBOUND:                -0.987
REMARK SMILES CCCCCCCCCCCCCCC(=O)[O-]
REMARK SMILES IDX 9 1 10 2 11 3 12 4 13 5 14 6 15 7 16 8 17 9 8 10 7 11 6 12
REMARK SMILES IDX 5 13 4 14 3 15 2 16 1 17
REMARK H PARENT
REMARK Flexibility Score: inf
ROOT
ATOM      1  C   UNL     1      -4.643   7.477  -2.540  1.00  0.00     0.000 C 
ENDROOT
BRANCH   1   2
ATOM      2  C   UNL     1      -4.376   8.623  -1.550  1.00  0.00     0.000 C 
BRANCH   2   3
ATOM      3  C   UNL     1      -3.348   9.633  -2.080  1.00  0.00     0.000 C 
BRANCH   3   4
ATOM      4  C   UNL     1      -2.183   9.798  -1.097  1.00  0.00     0.000 C 
BRANCH   4   5
ATOM      5  C   UNL     1      -2.254   8.748   0.022  1.00  0.00     0.006 C 
BRANCH   5   6
ATOM      6  C   UNL     1      -1.736   9.289   1.360  1.00  0.00     0.053 C 
BRANCH   6   7
ATOM      7  C   UNL     1      -2.750  10.158   2.040  1.00  0.00     0.041 C 
ATOM      8  O   UNL     1      -2.412  10.885   3.011  1.00  0.00    -0.550 OA
ATOM      9  O   UNL     1      -4.075  10.138   1.623  1.00  0.00    -0.550 OA
ENDBRANCH   6   7
ENDBRANCH   5   6
ENDBRANCH   4   5
ENDBRANCH   3   4
ENDBRANCH   2   3
ENDBRANCH   1   2
BRANCH   1  10
ATOM     10  C   UNL     1      -4.489   7.915  -4.006  1.00  0.00     0.000 C 
BRANCH  10  11
ATOM     11  C   UNL     1      -3.520   7.017  -4.797  1.00  0.00    -0.000 C 
BRANCH  11  12
ATOM     12  C   UNL     1      -2.026   7.282  -4.525  1.00  0.00    -0.000 C 
BRANCH  12  13
ATOM     13  C   UNL     1      -1.056   6.241  -5.119  1.00  0.00    -0.000 C 
BRANCH  13  14
ATOM     14  C   UNL     1      -1.622   5.415  -6.288  1.00  0.00    -0.000 C 
BRANCH  14  15
ATOM     15  C   UNL     1      -0.984   4.019  -6.394  1.00  0.00    -0.000 C 
BRANCH  15  16
ATOM     16  C   UNL     1      -1.812   2.939  -5.679  1.00  0.00    -0.003 C 
ATOM     17  C   UNL     1      -0.964   2.049  -4.768  1.00  0.00     0.004 C 
ENDBRANCH  15  16
ENDBRANCH  14  15
ENDBRANCH  13  14
ENDBRANCH  12  13
ENDBRANCH  11  12
ENDBRANCH  10  11
ENDBRANCH   1  10
TORSDOF 13
ENDMDL
MODEL 2
REMARK VINA RESULT:    -3.745      3.803      7.680
REMARK INTER + INTRA:          -7.578
REMARK INTER:                  -6.597
REMARK INTRA:                  -0.981
REMARK UNBOUND:                -0.987
REMARK SMILES CCCCCCCCCCCCCCC(=O)[O-]
REMARK SMILES IDX 9 1 10 2 11 3 12 4 13 5 14 6 15 7 16 8 17 9 8 10 7 11 6 12
REMARK SMILES IDX 5 13 4 14 3 15 2 16 1 17
REMARK H PARENT
REMARK Flexibility Score: inf
ROOT
ATOM      1  C   UNL     1      -4.571   7.533  -3.506  1.00  0.00     0.000 C 
ENDROOT
BRANCH   1   2
ATOM      2  C   UNL     1      -3.681   7.617  -4.756  1.00  0.00     0.000 C 
BRANCH   2   3
ATOM      3  C   UNL     1      -2.185   7.503  -4.424  1.00  0.00     0.000 C 
BRANCH   3   4
ATOM      4  C   UNL     1      -1.336   7.534  -5.700  1.00  0.00     0.000 C 
BRANCH   4   5
ATOM      5  C   UNL     1      -0.961   6.113  -6.146  1.00  0.00     0.006 C 
BRANCH   5   6
ATOM      6  C   UNL     1      -0.897   5.132  -4.968  1.00  0.00     0.053 C 
BRANCH   6   7
ATOM      7  C   UNL     1      -1.198   3.728  -5.395  1.00  0.00     0.041 C 
ATOM      8  O   UNL     1      -0.876   2.759  -4.658  1.00  0.00    -0.550 OA
ATOM      9  O   UNL     1      -1.803   3.488  -6.622  1.00  0.00    -0.550 OA
ENDBRANCH   6   7
ENDBRANCH   5   6
ENDBRANCH   4   5
ENDBRANCH   3   4
ENDBRANCH   2   3
ENDBRANCH   1   2
BRANCH   1  10
ATOM     10  C   UNL     1      -4.630   8.860  -2.731  1.00  0.00     0.000 C 
BRANCH  10  11
ATOM     11  C   UNL     1      -4.339   8.686  -1.230  1.00  0.00    -0.000 C 
BRANCH  11  12
ATOM     12  C   UNL     1      -2.970   8.054  -0.905  1.00  0.00    -0.000 C 
BRANCH  12  13
ATOM     13  C   UNL     1      -1.934   9.014  -0.288  1.00  0.00    -0.000 C 
BRANCH  13  14
ATOM     14  C   UNL     1      -1.642   8.787   1.206  1.00  0.00    -0.000 C 
BRANCH  14  15
ATOM     15  C   UNL     1      -1.855  10.052   2.054  1.00  0.00    -0.000 C 
BRANCH  15  16
ATOM     16  C   UNL     1      -3.163  10.780   1.706  1.00  0.00    -0.003 C 
ATOM     17  C   UNL     1      -4.178  10.755   2.851  1.00  0.00     0.004 C 
ENDBRANCH  15  16
ENDBRANCH  14  15
ENDBRANCH  13  14
ENDBRANCH  12  13
ENDBRANCH  11  12
ENDBRANCH  10  11
ENDBRANCH   1  10
TORSDOF 13
ENDMDL
MODEL 3
REMARK VINA RESULT:    -3.580      3.806      7.177
REMARK INTER + INTRA:          -7.288
REMARK INTER:                  -5.944
REMARK INTRA:                  -1.343
REMARK UNBOUND:                -0.987
REMARK SMILES CCCCCCCCCCCCCCC(=O)[O-]
REMARK SMILES IDX 9 1 10 2 11 3 12 4 13 5 14 6 15 7 16 8 17 9 8 10 7 11 6 12
REMARK SMILES IDX 5 13 4 14 3 15 2 16 1 17
REMARK H PARENT
REMARK Flexibility Score: inf
ROOT
ATOM      1  C   UNL     1      -4.831   8.345  -1.541  1.00  0.00     0.000 C 
ENDROOT
BRANCH   1   2
ATOM      2  C   UNL     1      -4.142   7.558  -2.668  1.00  0.00     0.000 C 
BRANCH   2   3
ATOM      3  C   UNL     1      -3.779   8.444  -3.869  1.00  0.00     0.000 C 
BRANCH   3   4
ATOM      4  C   UNL     1      -2.258   8.554  -4.030  1.00  0.00     0.000 C 
BRANCH   4   5
ATOM      5  C   UNL     1      -1.768   7.712  -5.218  1.00  0.00     0.006 C 
BRANCH   5   6
ATOM      6  C   UNL     1      -1.358   6.296  -4.796  1.00  0.00     0.053 C 
BRANCH   6   7
ATOM      7  C   UNL     1      -1.609   5.296  -5.883  1.00  0.00     0.041 C 
ATOM      8  O   UNL     1      -1.345   5.582  -7.081  1.00  0.00    -0.550 OA
ATOM      9  O   UNL     1      -2.166   4.061  -5.578  1.00  0.00    -0.550 OA
ENDBRANCH   6   7
ENDBRANCH   5   6
ENDBRANCH   4   5
ENDBRANCH   3   4
ENDBRANCH   2   3
ENDBRANCH   1   2
BRANCH   1  10
ATOM     10  C   UNL     1      -4.805   9.864  -1.780  1.00  0.00     0.000 C 
BRANCH  10  11
ATOM     11  C   UNL     1      -3.627  10.558  -1.073  1.00  0.00    -0.000 C 
BRANCH  11  12
ATOM     12  C   UNL     1      -3.932  11.058   0.353  1.00  0.00    -0.000 C 
BRANCH  12  13
ATOM     13  C   UNL     1      -3.599  10.063   1.483  1.00  0.00    -0.000 C 
BRANCH  13  14
ATOM     14  C   UNL     1      -2.306  10.366   2.260  1.00  0.00    -0.000 C 
BRANCH  14  15
ATOM     15  C   UNL     1      -1.046   9.848   1.547  1.00  0.00    -0.000 C 
BRANCH  15  16
ATOM     16  C   UNL     1      -1.216   8.413   1.022  1.00  0.00    -0.003 C 
ATOM     17  C   UNL     1      -0.876   8.282  -0.464  1.00  0.00     0.004 C 
ENDBRANCH  15  16
ENDBRANCH  14  15
ENDBRANCH  13  14
ENDBRANCH  12  13
ENDBRANCH  11  12
ENDBRANCH  10  11
ENDBRANCH   1  10
TORSDOF 13
ENDMDL
MODEL 4
REMARK VINA RESULT:    -3.323      3.963      7.415
REMARK INTER + INTRA:          -6.834
REMARK INTER:                  -5.310
REMARK INTRA:                  -1.525
REMARK UNBOUND:                -0.987
REMARK SMILES CCCCCCCCCCCCCCC(=O)[O-]
REMARK SMILES IDX 9 1 10 2 11 3 12 4 13 5 14 6 15 7 16 8 17 9 8 10 7 11 6 12
REMARK SMILES IDX 5 13 4 14 3 15 2 16 1 17
REMARK H PARENT
REMARK Flexibility Score: inf
ROOT
ATOM      1  C   UNL     1      -1.831  10.344  -4.244  1.00  0.00     0.000 C 
ENDROOT
BRANCH   1   2
ATOM      2  C   UNL     1      -2.528   9.129  -4.879  1.00  0.00     0.000 C 
BRANCH   2   3
ATOM      3  C   UNL     1      -1.983   7.794  -4.351  1.00  0.00     0.000 C 
BRANCH   3   4
ATOM      4  C   UNL     1      -2.185   6.674  -5.378  1.00  0.00     0.000 C 
BRANCH   4   5
ATOM      5  C   UNL     1      -1.215   5.510  -5.122  1.00  0.00     0.006 C 
BRANCH   5   6
ATOM      6  C   UNL     1      -1.233   4.479  -6.257  1.00  0.00     0.053 C 
BRANCH   6   7
ATOM      7  C   UNL     1      -1.181   3.075  -5.737  1.00  0.00     0.041 C 
ATOM      8  O   UNL     1      -1.445   2.107  -6.497  1.00  0.00    -0.550 OA
ATOM      9  O   UNL     1      -0.876   2.839  -4.403  1.00  0.00    -0.550 OA
ENDBRANCH   6   7
ENDBRANCH   5   6
ENDBRANCH   4   5
ENDBRANCH   3   4
ENDBRANCH   2   3
ENDBRANCH   1   2
BRANCH   1  10
ATOM     10  C   UNL     1      -1.095   9.988  -2.942  1.00  0.00     0.000 C 
BRANCH  10  11
ATOM     11  C   UNL     1      -1.669  10.720  -1.715  1.00  0.00    -0.000 C 
BRANCH  11  12
ATOM     12  C   UNL     1      -1.300  10.091  -0.357  1.00  0.00    -0.000 C 
BRANCH  12  13
ATOM     13  C   UNL     1      -2.495   9.612   0.491  1.00  0.00    -0.000 C 
BRANCH  13  14
ATOM     14  C   UNL     1      -3.837   9.531  -0.259  1.00  0.00    -0.000 C 
BRANCH  14  15
ATOM     15  C   UNL     1      -4.066   8.163  -0.923  1.00  0.00    -0.000 C 
BRANCH  15  16
ATOM     16  C   UNL     1      -4.922   8.263  -2.197  1.00  0.00    -0.003 C 
ATOM     17  C   UNL     1      -5.317   9.701  -2.534  1.00  0.00     0.004 C 
ENDBRANCH  15  16
ENDBRANCH  14  15
ENDBRANCH  13  14
ENDBRANCH  12  13
ENDBRANCH  11  12
ENDBRANCH  10  11
ENDBRANCH   1  10
TORSDOF 13
ENDMDL
MODEL 5
REMARK VINA RESULT:    -3.264      1.388      1.804
REMARK INTER + INTRA:          -6.732
REMARK INTER:                  -6.021
REMARK INTRA:                  -0.711
REMARK UNBOUND:                -0.987
REMARK SMILES CCCCCCCCCCCCCCC(=O)[O-]
REMARK SMILES IDX 9 1 10 2 11 3 12 4 13 5 14 6 15 7 16 8 17 9 8 10 7 11 6 12
REMARK SMILES IDX 5 13 4 14 3 15 2 16 1 17
REMARK H PARENT
REMARK Flexibility Score: inf
ROOT
ATOM      1  C   UNL     1      -2.461   8.145  -1.846  1.00  0.00     0.000 C 
ENDROOT
BRANCH   1   2
ATOM      2  C   UNL     1      -2.227   9.663  -1.902  1.00  0.00     0.000 C 
BRANCH   2   3
ATOM      3  C   UNL     1      -0.875  10.074  -1.299  1.00  0.00     0.000 C 
BRANCH   3   4
ATOM      4  C   UNL     1      -1.069  10.821   0.026  1.00  0.00     0.000 C 
BRANCH   4   5
ATOM      5  C   UNL     1      -1.458   9.851   1.152  1.00  0.00     0.006 C 
BRANCH   5   6
ATOM      6  C   UNL     1      -2.232  10.549   2.278  1.00  0.00     0.053 C 
BRANCH   6   7
ATOM      7  C   UNL     1      -3.712  10.381   2.124  1.00  0.00     0.041 C 
ATOM      8  O   UNL     1      -4.487  10.700   3.064  1.00  0.00    -0.550 OA
ATOM      9  O   UNL     1      -4.234   9.841   0.955  1.00  0.00    -0.550 OA
ENDBRANCH   6   7
ENDBRANCH   5   6
ENDBRANCH   4   5
ENDBRANCH   3   4
ENDBRANCH   2   3
ENDBRANCH   1   2
BRANCH   1  10
ATOM     10  C   UNL     1      -1.441   7.358  -2.686  1.00  0.00     0.000 C 
BRANCH  10  11
ATOM     11  C   UNL     1      -1.471   7.746  -4.176  1.00  0.00    -0.000 C 
BRANCH  11  12
ATOM     12  C   UNL     1      -2.389   6.872  -5.053  1.00  0.00    -0.000 C 
BRANCH  12  13
ATOM     13  C   UNL     1      -1.660   5.926  -6.027  1.00  0.00    -0.000 C 
BRANCH  13  14
ATOM     14  C   UNL     1      -1.995   4.433  -5.862  1.00  0.00    -0.000 C 
BRANCH  14  15
ATOM     15  C   UNL     1      -1.064   3.519  -6.676  1.00  0.00    -0.000 C 
BRANCH  15  16
ATOM     16  C   UNL     1      -0.932   2.116  -6.062  1.00  0.00    -0.003 C 
ATOM     17  C   UNL     1      -1.200   2.100  -4.557  1.00  0.00     0.004 C 
ENDBRANCH  15  16
ENDBRANCH  14  15
ENDBRANCH  13  14
ENDBRANCH  12  13
ENDBRANCH  11  12
ENDBRANCH  10  11
ENDBRANCH   1  10
TORSDOF 13
ENDMDL
MODEL 6
REMARK VINA RESULT:    -2.939      2.580      3.323
REMARK INTER + INTRA:          -6.160
REMARK INTER:                  -4.838
REMARK INTRA:                  -1.322
REMARK UNBOUND:                -0.987
REMARK SMILES CCCCCCCCCCCCCCC(=O)[O-]
REMARK SMILES IDX 9 1 10 2 11 3 12 4 13 5 14 6 15 7 16 8 17 9 8 10 7 11 6 12
REMARK SMILES IDX 5 13 4 14 3 15 2 16 1 17
REMARK H PARENT
REMARK Flexibility Score: inf
ROOT
ATOM      1  C   UNL     1      -4.083   8.148  -1.126  1.00  0.00     0.000 C 
ENDROOT
BRANCH   1   2
ATOM      2  C   UNL     1      -4.608   9.394  -0.396  1.00  0.00     0.000 C 
BRANCH   2   3
ATOM      3  C   UNL     1      -3.648  10.589  -0.503  1.00  0.00     0.000 C 
BRANCH   3   4
ATOM      4  C   UNL     1      -2.188  10.125  -0.467  1.00  0.00     0.000 C 
BRANCH   4   5
ATOM      5  C   UNL     1      -1.321  10.962  -1.419  1.00  0.00     0.006 C 
BRANCH   5   6
ATOM      6  C   UNL     1      -0.944  10.190  -2.690  1.00  0.00     0.053 C 
BRANCH   6   7
ATOM      7  C   UNL     1      -1.625  10.747  -3.903  1.00  0.00     0.041 C 
ATOM      8  O   UNL     1      -2.880  10.845  -3.936  1.00  0.00    -0.550 OA
ATOM      9  O   UNL     1      -0.876  11.125  -5.010  1.00  0.00    -0.550 OA
ENDBRANCH   6   7
ENDBRANCH   5   6
ENDBRANCH   4   5
ENDBRANCH   3   4
ENDBRANCH   2   3
ENDBRANCH   1   2
BRANCH   1  10
ATOM     10  C   UNL     1      -4.350   8.194  -2.640  1.00  0.00     0.000 C 
BRANCH  10  11
ATOM     11  C   UNL     1      -3.643   7.060  -3.405  1.00  0.00    -0.000 C 
BRANCH  11  12
ATOM     12  C   UNL     1      -3.331   7.373  -4.881  1.00  0.00    -0.000 C 
BRANCH  12  13
ATOM     13  C   UNL     1      -1.840   7.299  -5.267  1.00  0.00    -0.000 C 
BRANCH  13  14
ATOM     14  C   UNL     1      -1.232   5.885  -5.256  1.00  0.00    -0.000 C 
BRANCH  14  15
ATOM     15  C   UNL     1      -1.442   5.135  -6.582  1.00  0.00    -0.000 C 
BRANCH  15  16
ATOM     16  C   UNL     1      -1.703   3.634  -6.374  1.00  0.00    -0.003 C 
ATOM     17  C   UNL     1      -1.172   3.120  -5.035  1.00  0.00     0.004 C 
ENDBRANCH  15  16
ENDBRANCH  14  15
ENDBRANCH  13  14
ENDBRANCH  12  13
ENDBRANCH  11  12
ENDBRANCH  10  11
ENDBRANCH   1  10
TORSDOF 13
ENDMDL
MODEL 7
REMARK VINA RESULT:    -2.876      1.883      4.409
REMARK INTER + INTRA:          -6.048
REMARK INTER:                  -4.351
REMARK INTRA:                  -1.698
REMARK UNBOUND:                -0.987
REMARK SMILES CCCCCCCCCCCCCCC(=O)[O-]
REMARK SMILES IDX 9 1 10 2 11 3 12 4 13 5 14 6 15 7 16 8 17 9 8 10 7 11 6 12
REMARK SMILES IDX 5 13 4 14 3 15 2 16 1 17
REMARK H PARENT
REMARK Flexibility Score: inf
ROOT
ATOM      1  C   UNL     1      -0.993   8.467  -4.037  1.00  0.00     0.000 C 
ENDROOT
BRANCH   1   2
ATOM      2  C   UNL     1      -0.880   8.976  -2.591  1.00  0.00     0.000 C 
BRANCH   2   3
ATOM      3  C   UNL     1      -0.926   7.839  -1.560  1.00  0.00     0.000 C 
BRANCH   3   4
ATOM      4  C   UNL     1      -2.034   8.080  -0.528  1.00  0.00     0.000 C 
BRANCH   4   5
ATOM      5  C   UNL     1      -2.129   9.568  -0.159  1.00  0.00     0.006 C 
BRANCH   5   6
ATOM      6  C   UNL     1      -1.072   9.980   0.873  1.00  0.00     0.053 C 
BRANCH   6   7
ATOM      7  C   UNL     1      -1.691  10.605   2.085  1.00  0.00     0.041 C 
ATOM      8  O   UNL     1      -0.962  11.046   3.013  1.00  0.00    -0.550 OA
ATOM      9  O   UNL     1      -3.073  10.667   2.208  1.00  0.00    -0.550 OA
ENDBRANCH   6   7
ENDBRANCH   5   6
ENDBRANCH   4   5
ENDBRANCH   3   4
ENDBRANCH   2   3
ENDBRANCH   1   2
BRANCH   1  10
ATOM     10  C   UNL     1      -1.074   6.934  -4.119  1.00  0.00     0.000 C 
BRANCH  10  11
ATOM     11  C   UNL     1      -2.136   6.447  -5.121  1.00  0.00    -0.000 C 
BRANCH  11  12
ATOM     12  C   UNL     1      -3.419   7.300  -5.169  1.00  0.00    -0.000 C 
BRANCH  12  13
ATOM     13  C   UNL     1      -4.465   6.974  -4.085  1.00  0.00    -0.000 C 
BRANCH  13  14
ATOM     14  C   UNL     1      -4.393   7.852  -2.822  1.00  0.00    -0.000 C 
BRANCH  14  15
ATOM     15  C   UNL     1      -5.341   9.062  -2.883  1.00  0.00    -0.000 C 
BRANCH  15  16
ATOM     16  C   UNL     1      -4.744  10.311  -2.214  1.00  0.00    -0.003 C 
ATOM     17  C   UNL     1      -3.840  11.111  -3.153  1.00  0.00     0.004 C 
ENDBRANCH  15  16
ENDBRANCH  14  15
ENDBRANCH  13  14
ENDBRANCH  12  13
ENDBRANCH  11  12
ENDBRANCH  10  11
ENDBRANCH   1  10
TORSDOF 13
ENDMDL
MODEL 8
REMARK VINA RESULT:    -2.767      4.079      7.549
REMARK INTER + INTRA:          -5.856
REMARK INTER:                  -4.989
REMARK INTRA:                  -0.867
REMARK UNBOUND:                -0.987
REMARK SMILES CCCCCCCCCCCCCCC(=O)[O-]
REMARK SMILES IDX 9 1 10 2 11 3 12 4 13 5 14 6 15 7 16 8 17 9 8 10 7 11 6 12
REMARK SMILES IDX 5 13 4 14 3 15 2 16 1 17
REMARK H PARENT
REMARK Flexibility Score: inf
ROOT
ATOM      1  C   UNL     1      -4.443   7.500  -3.433  1.00  0.00     0.000 C 
ENDROOT
BRANCH   1   2
ATOM      2  C   UNL     1      -3.847   8.054  -4.737  1.00  0.00     0.000 C 
BRANCH   2   3
ATOM      3  C   UNL     1      -2.931   7.043  -5.443  1.00  0.00     0.000 C 
BRANCH   3   4
ATOM      4  C   UNL     1      -1.888   6.477  -4.473  1.00  0.00     0.000 C 
BRANCH   4   5
ATOM      5  C   UNL     1      -0.895   5.562  -5.206  1.00  0.00     0.006 C 
BRANCH   5   6
ATOM      6  C   UNL     1      -0.896   4.135  -4.643  1.00  0.00     0.053 C 
BRANCH   6   7
ATOM      7  C   UNL     1      -1.506   3.158  -5.602  1.00  0.00     0.041 C 
ATOM      8  O   UNL     1      -1.937   3.551  -6.718  1.00  0.00    -0.550 OA
ATOM      9  O   UNL     1      -1.630   1.821  -5.249  1.00  0.00    -0.550 OA
ENDBRANCH   6   7
ENDBRANCH   5   6
ENDBRANCH   4   5
ENDBRANCH   3   4
ENDBRANCH   2   3
ENDBRANCH   1   2
BRANCH   1  10
ATOM     10  C   UNL     1      -4.681   8.596  -2.380  1.00  0.00     0.000 C 
BRANCH  10  11
ATOM     11  C   UNL     1      -4.242   9.990  -2.862  1.00  0.00    -0.000 C 
BRANCH  11  12
ATOM     12  C   UNL     1      -4.329  11.100  -1.796  1.00  0.00    -0.000 C 
BRANCH  12  13
ATOM     13  C   UNL     1      -4.196  10.621  -0.337  1.00  0.00    -0.000 C 
BRANCH  13  14
ATOM     14  C   UNL     1      -2.785  10.747   0.266  1.00  0.00    -0.000 C 
BRANCH  14  15
ATOM     15  C   UNL     1      -2.654  10.044   1.627  1.00  0.00    -0.000 C 
BRANCH  15  16
ATOM     16  C   UNL     1      -1.362   9.218   1.741  1.00  0.00    -0.003 C 
ATOM     17  C   UNL     1      -1.117   8.330   0.520  1.00  0.00     0.004 C 
ENDBRANCH  15  16
ENDBRANCH  14  15
ENDBRANCH  13  14
ENDBRANCH  12  13
ENDBRANCH  11  12
ENDBRANCH  10  11
ENDBRANCH   1  10
TORSDOF 13
ENDMDL
MODEL 9
REMARK VINA RESULT:    -2.691      3.633      7.917
REMARK INTER + INTRA:          -5.722
REMARK INTER:                  -4.796
REMARK INTRA:                  -0.927
REMARK UNBOUND:                -0.987
REMARK SMILES CCCCCCCCCCCCCCC(=O)[O-]
REMARK SMILES IDX 9 1 10 2 11 3 12 4 13 5 14 6 15 7 16 8 17 9 8 10 7 11 6 12
REMARK SMILES IDX 5 13 4 14 3 15 2 16 1 17
REMARK H PARENT
REMARK Flexibility Score: inf
ROOT
ATOM      1  C   UNL     1      -4.793   7.836  -1.815  1.00  0.00     0.000 C 
ENDROOT
BRANCH   1   2
ATOM      2  C   UNL     1      -3.710   7.329  -2.781  1.00  0.00     0.000 C 
BRANCH   2   3
ATOM      3  C   UNL     1      -3.033   8.467  -3.559  1.00  0.00     0.000 C 
BRANCH   3   4
ATOM      4  C   UNL     1      -2.926   8.125  -5.050  1.00  0.00     0.000 C 
BRANCH   4   5
ATOM      5  C   UNL     1      -1.457   7.986  -5.478  1.00  0.00     0.006 C 
BRANCH   5   6
ATOM      6  C   UNL     1      -0.882   6.605  -5.141  1.00  0.00     0.053 C 
BRANCH   6   7
ATOM      7  C   UNL     1      -1.572   5.513  -5.901  1.00  0.00     0.041 C 
ATOM      8  O   UNL     1      -2.425   4.784  -5.329  1.00  0.00    -0.550 OA
ATOM      9  O   UNL     1      -1.247   5.278  -7.231  1.00  0.00    -0.550 OA
ENDBRANCH   6   7
ENDBRANCH   5   6
ENDBRANCH   4   5
ENDBRANCH   3   4
ENDBRANCH   2   3
ENDBRANCH   1   2
BRANCH   1  10
ATOM     10  C   UNL     1      -4.333   9.057  -1.001  1.00  0.00     0.000 C 
BRANCH  10  11
ATOM     11  C   UNL     1      -3.246   8.708   0.032  1.00  0.00    -0.000 C 
BRANCH  11  12
ATOM     12  C   UNL     1      -1.879   9.376  -0.218  1.00  0.00    -0.000 C 
BRANCH  12  13
ATOM     13  C   UNL     1      -1.549  10.562   0.710  1.00  0.00    -0.000 C 
BRANCH  13  14
ATOM     14  C   UNL     1      -1.500  10.223   2.211  1.00  0.00    -0.000 C 
BRANCH  14  15
ATOM     15  C   UNL     1      -2.415  11.125   3.055  1.00  0.00    -0.000 C 
BRANCH  15  16
ATOM     16  C   UNL     1      -3.882  11.065   2.600  1.00  0.00    -0.003 C 
ATOM     17  C   UNL     1      -4.857  10.871   3.763  1.00  0.00     0.004 C 
ENDBRANCH  15  16
ENDBRANCH  14  15
ENDBRANCH  13  14
ENDBRANCH  12  13
ENDBRANCH  11  12
ENDBRANCH  10  11
ENDBRANCH   1  10
TORSDOF 13
ENDMDL
