MODEL 1
REMARK VINA RESULT:    -3.610      0.000      0.000
REMARK INTER + INTRA:          -4.282
REMARK INTER:                  -4.244
REMARK INTRA:                  -0.038
REMARK UNBOUND:                -0.038
REMARK SMILES O=C([O-])CCC(=O)[O-]
REMARK SMILES IDX 4 1 2 2 1 3 3 4 5 5 6 6 7 7 8 8
REMARK H PARENT
REMARK Flexibility Score: inf
ROOT
ATOM      1  C   UNL     1      31.959  17.833  25.472  1.00  0.00     0.059 C 
ENDROOT
BRANCH   1   2
ATOM      2  C   UNL     1      31.241  18.288  26.703  1.00  0.00     0.042 C 
ATOM      3  O   UNL     1      31.672  17.969  27.842  1.00  0.00    -0.550 OA
ATOM      4  O   UNL     1      30.123  19.106  26.594  1.00  0.00    -0.550 OA
ENDBRANCH   1   2
BRANCH   1   5
ATOM      5  C   UNL     1      31.815  18.870  24.356  1.00  0.00     0.059 C 
BRANCH   5   6
ATOM      6  C   UNL     1      32.984  18.801  23.426  1.00  0.00     0.042 C 
ATOM      7  O   UNL     1      33.759  17.809  23.452  1.00  0.00    -0.550 OA
ATOM      8  O   UNL     1      33.248  19.857  22.561  1.00  0.00    -0.550 OA
ENDBRANCH   5   6
ENDBRANCH   1   5
TORSDOF 3
ENDMDL
MODEL 2
REMARK VINA RESULT:    -3.578      0.156      4.341
REMARK INTER + INTRA:          -4.243
REMARK INTER:                  -4.206
REMARK INTRA:                  -0.038
REMARK UNBOUND:                -0.038
REMARK SMILES O=C([O-])CCC(=O)[O-]
REMARK SMILES IDX 4 1 2 2 1 3 3 4 5 5 6 6 7 7 8 8
REMARK H PARENT
REMARK Flexibility Score: inf
ROOT
ATOM      1  C   UNL     1      31.893  18.934  24.343  1.00  0.00     0.059 C 
ENDROOT
BRANCH   1   2
ATOM      2  C   UNL     1      33.014  18.857  23.356  1.00  0.00     0.042 C 
ATOM      3  O   UNL     1      33.184  19.779  22.515  1.00  0.00    -0.550 OA
ATOM      4  O   UNL     1      33.903  17.789  23.395  1.00  0.00    -0.550 OA
ENDBRANCH   1   2
BRANCH   1   5
ATOM      5  C   UNL     1      32.027  17.826  25.390  1.00  0.00     0.059 C 
BRANCH   5   6
ATOM      6  C   UNL     1      31.329  18.217  26.654  1.00  0.00     0.042 C 
ATOM      7  O   UNL     1      30.300  18.939  26.614  1.00  0.00    -0.550 OA
ATOM      8  O   UNL     1      31.845  17.822  27.883  1.00  0.00    -0.550 OA
ENDBRANCH   5   6
ENDBRANCH   1   5
TORSDOF 3
ENDMDL
MODEL 3
REMARK VINA RESULT:    -3.520      0.171      4.213
REMARK INTER + INTRA:          -4.176
REMARK INTER:                  -4.139
REMARK INTRA:                  -0.037
REMARK UNBOUND:                -0.038
REMARK SMILES O=C([O-])CCC(=O)[O-]
REMARK SMILES IDX 4 1 2 2 1 3 3 4 5 5 6 6 7 7 8 8
REMARK H PARENT
REMARK Flexibility Score: inf
ROOT
ATOM      1  C   UNL     1      31.898  18.958  24.317  1.00  0.00     0.059 C 
ENDROOT
BRANCH   1   2
ATOM      2  C   UNL     1      33.035  18.885  23.348  1.00  0.00     0.042 C 
ATOM      3  O   UNL     1      33.214  19.805  22.508  1.00  0.00    -0.550 OA
ATOM      4  O   UNL     1      33.928  17.821  23.404  1.00  0.00    -0.550 OA
ENDBRANCH   1   2
BRANCH   1   5
ATOM      5  C   UNL     1      32.018  17.852  25.367  1.00  0.00     0.059 C 
BRANCH   5   6
ATOM      6  C   UNL     1      31.252  18.216  26.599  1.00  0.00     0.042 C 
ATOM      7  O   UNL     1      31.533  17.679  27.702  1.00  0.00    -0.550 OA
ATOM      8  O   UNL     1      30.194  19.114  26.520  1.00  0.00    -0.550 OA
ENDBRANCH   5   6
ENDBRANCH   1   5
TORSDOF 3
ENDMDL
MODEL 4
REMARK VINA RESULT:    -2.818     10.292     10.680
REMARK INTER + INTRA:          -3.351
REMARK INTER:                  -3.291
REMARK INTRA:                  -0.060
REMARK UNBOUND:                -0.038
REMARK SMILES O=C([O-])CCC(=O)[O-]
REMARK SMILES IDX 4 1 2 2 1 3 3 4 5 5 6 6 7 7 8 8
REMARK H PARENT
REMARK Flexibility Score: inf
ROOT
ATOM      1  C   UNL     1      28.700   8.910  20.876  1.00  0.00     0.059 C 
ENDROOT
BRANCH   1   2
ATOM      2  C   UNL     1      28.591   9.800  22.073  1.00  0.00     0.042 C 
ATOM      3  O   UNL     1      29.618  10.348  22.552  1.00  0.00    -0.550 OA
ATOM      4  O   UNL     1      27.346  10.065  22.631  1.00  0.00    -0.550 OA
ENDBRANCH   1   2
BRANCH   1   5
ATOM      5  C   UNL     1      30.034   9.136  20.162  1.00  0.00     0.059 C 
BRANCH   5   6
ATOM      6  C   UNL     1      29.831   9.190  18.681  1.00  0.00     0.042 C 
ATOM      7  O   UNL     1      30.767   8.875  17.900  1.00  0.00    -0.550 OA
ATOM      8  O   UNL     1      28.621   9.634  18.160  1.00  0.00    -0.550 OA
ENDBRANCH   5   6
ENDBRANCH   1   5
TORSDOF 3
ENDMDL
MODEL 5
REMARK VINA RESULT:    -2.778     10.187     11.293
REMARK INTER + INTRA:          -3.304
REMARK INTER:                  -3.269
REMARK INTRA:                  -0.035
REMARK UNBOUND:                -0.038
REMARK SMILES O=C([O-])CCC(=O)[O-]
REMARK SMILES IDX 4 1 2 2 1 3 3 4 5 5 6 6 7 7 8 8
REMARK H PARENT
REMARK Flexibility Score: inf
ROOT
ATOM      1  C   UNL     1      30.120   9.228  20.182  1.00  0.00     0.059 C 
ENDROOT
BRANCH   1   2
ATOM      2  C   UNL     1      29.877   9.244  18.706  1.00  0.00     0.042 C 
ATOM      3  O   UNL     1      30.781   8.878  17.910  1.00  0.00    -0.550 OA
ATOM      4  O   UNL     1      28.634   9.617  18.210  1.00  0.00    -0.550 OA
ENDBRANCH   1   2
BRANCH   1   5
ATOM      5  C   UNL     1      28.792   9.201  20.941  1.00  0.00     0.059 C 
BRANCH   5   6
ATOM      6  C   UNL     1      28.977   9.710  22.335  1.00  0.00     0.042 C 
ATOM      7  O   UNL     1      28.509  10.829  22.670  1.00  0.00    -0.550 OA
ATOM      8  O   UNL     1      29.710   8.968  23.254  1.00  0.00    -0.550 OA
ENDBRANCH   5   6
ENDBRANCH   1   5
TORSDOF 3
ENDMDL
MODEL 6
REMARK VINA RESULT:    -2.614      9.990     10.373
REMARK INTER + INTRA:          -3.110
REMARK INTER:                  -3.077
REMARK INTRA:                  -0.033
REMARK UNBOUND:                -0.038
REMARK SMILES O=C([O-])CCC(=O)[O-]
REMARK SMILES IDX 4 1 2 2 1 3 3 4 5 5 6 6 7 7 8 8
REMARK H PARENT
REMARK Flexibility Score: inf
ROOT
ATOM      1  C   UNL     1      28.103   9.820  21.702  1.00  0.00     0.059 C 
ENDROOT
BRANCH   1   2
ATOM      2  C   UNL     1      27.911   9.817  23.186  1.00  0.00     0.042 C 
ATOM      3  O   UNL     1      27.123  10.637  23.725  1.00  0.00    -0.550 OA
ATOM      4  O   UNL     1      28.566   8.875  23.970  1.00  0.00    -0.550 OA
ENDBRANCH   1   2
BRANCH   1   5
ATOM      5  C   UNL     1      29.400   9.101  21.330  1.00  0.00     0.059 C 
BRANCH   5   6
ATOM      6  C   UNL     1      29.680   9.251  19.869  1.00  0.00     0.042 C 
ATOM      7  O   UNL     1      28.786   8.992  19.022  1.00  0.00    -0.550 OA
ATOM      8  O   UNL     1      30.946   9.630  19.438  1.00  0.00    -0.550 OA
ENDBRANCH   5   6
ENDBRANCH   1   5
TORSDOF 3
ENDMDL
MODEL 7
REMARK VINA RESULT:    -2.594      8.862     10.423
REMARK INTER + INTRA:          -3.087
REMARK INTER:                  -2.990
REMARK INTRA:                  -0.097
REMARK UNBOUND:                -0.038
REMARK SMILES O=C([O-])CCC(=O)[O-]
REMARK SMILES IDX 4 1 2 2 1 3 3 4 5 5 6 6 7 7 8 8
REMARK H PARENT
REMARK Flexibility Score: inf
ROOT
ATOM      1  C   UNL     1      38.589  15.469  18.476  1.00  0.00     0.059 C 
ENDROOT
BRANCH   1   2
ATOM      2  C   UNL     1      39.826  14.690  18.154  1.00  0.00     0.042 C 
ATOM      3  O   UNL     1      40.208  14.571  16.961  1.00  0.00    -0.550 OA
ATOM      4  O   UNL     1      40.584  14.137  19.179  1.00  0.00    -0.550 OA
ENDBRANCH   1   2
BRANCH   1   5
ATOM      5  C   UNL     1      38.692  16.080  19.874  1.00  0.00     0.059 C 
BRANCH   5   6
ATOM      6  C   UNL     1      39.093  17.519  19.787  1.00  0.00     0.042 C 
ATOM      7  O   UNL     1      39.439  18.145  20.823  1.00  0.00    -0.550 OA
ATOM      8  O   UNL     1      39.038  18.183  18.568  1.00  0.00    -0.550 OA
ENDBRANCH   5   6
ENDBRANCH   1   5
TORSDOF 3
ENDMDL
MODEL 8
REMARK VINA RESULT:    -2.580     11.488     12.256
REMARK INTER + INTRA:          -3.071
REMARK INTER:                  -2.951
REMARK INTRA:                  -0.120
REMARK UNBOUND:                -0.038
REMARK SMILES O=C([O-])CCC(=O)[O-]
REMARK SMILES IDX 4 1 2 2 1 3 3 4 5 5 6 6 7 7 8 8
REMARK H PARENT
REMARK Flexibility Score: inf
ROOT
ATOM      1  C   UNL     1      22.905  12.266  20.139  1.00  0.00     0.059 C 
ENDROOT
BRANCH   1   2
ATOM      2  C   UNL     1      24.132  12.981  19.668  1.00  0.00     0.042 C 
ATOM      3  O   UNL     1      25.269  12.470  19.840  1.00  0.00    -0.550 OA
ATOM      4  O   UNL     1      24.015  14.190  18.993  1.00  0.00    -0.550 OA
ENDBRANCH   1   2
BRANCH   1   5
ATOM      5  C   UNL     1      23.252  10.843  20.580  1.00  0.00     0.059 C 
BRANCH   5   6
ATOM      6  C   UNL     1      23.125  10.710  22.065  1.00  0.00     0.042 C 
ATOM      7  O   UNL     1      24.052  11.106  22.818  1.00  0.00    -0.550 OA
ATOM      8  O   UNL     1      22.002  10.104  22.615  1.00  0.00    -0.550 OA
ENDBRANCH   5   6
ENDBRANCH   1   5
TORSDOF 3
ENDMDL
MODEL 9
REMARK VINA RESULT:    -2.541     11.416     11.666
REMARK INTER + INTRA:          -3.025
REMARK INTER:                  -2.911
REMARK INTRA:                  -0.114
REMARK UNBOUND:                -0.038
REMARK SMILES O=C([O-])CCC(=O)[O-]
REMARK SMILES IDX 4 1 2 2 1 3 3 4 5 5 6 6 7 7 8 8
REMARK H PARENT
REMARK Flexibility Score: inf
ROOT
ATOM      1  C   UNL     1      23.382  10.983  20.404  1.00  0.00     0.059 C 
ENDROOT
BRANCH   1   2
ATOM      2  C   UNL     1      23.204  10.758  21.872  1.00  0.00     0.042 C 
ATOM      3  O   UNL     1      22.229  10.084  22.297  1.00  0.00    -0.550 OA
ATOM      4  O   UNL     1      24.142  11.252  22.770  1.00  0.00    -0.550 OA
ENDBRANCH   1   2
BRANCH   1   5
ATOM      5  C   UNL     1      22.960  12.404  20.027  1.00  0.00     0.059 C 
BRANCH   5   6
ATOM      6  C   UNL     1      24.139  13.187  19.542  1.00  0.00     0.042 C 
ATOM      7  O   UNL     1      25.303  12.726  19.669  1.00  0.00    -0.550 OA
ATOM      8  O   UNL     1      23.956  14.450  18.992  1.00  0.00    -0.550 OA
ENDBRANCH   5   6
ENDBRANCH   1   5
TORSDOF 3
ENDMDL
