MODEL 1
REMARK VINA RESULT:    -2.493      0.000      0.000
REMARK INTER + INTRA:          -2.110
REMARK INTER:                  -3.804
REMARK INTRA:                   1.695
REMARK UNBOUND:                 1.695
REMARK SMILES CC1=CCC[C@H](C)C(=O)C[C@@H](C(C)C)C(=O)C1
REMARK SMILES IDX 8 1 9 2 6 3 7 4 5 5 4 6 3 7 2 8 1 9 10 11 11 12 15 13 16 14
REMARK SMILES IDX 17 15 12 17 13 18 14 19
REMARK H PARENT
REMARK Flexibility Score: 70.00
ROOT
ATOM      1  C   UNL     1      28.364  39.537  19.708  1.00  0.00     0.136 C 
ATOM      2  O   UNL     1      29.064  39.323  20.688  1.00  0.00    -0.299 OA
ENDROOT
BRANCH   1   3
ATOM      3  C   UNL     1      27.911  38.380  18.825  1.00  0.00     0.053 C 
ATOM      4  C   UNL     1      28.853  38.150  17.633  1.00  0.00     0.016 C 
BRANCH   3   5
ATOM      5  C   UNL     1      27.706  37.076  19.629  1.00  0.00     0.015 C 
BRANCH   5   6
ATOM      6  C   UNL     1      27.246  37.318  21.079  1.00  0.00     0.028 C 
BRANCH   6   7
ATOM      7  C   UNL     1      25.746  37.318  21.223  1.00  0.00    -0.028 C 
ATOM      8  C   UNL     1      24.912  38.334  20.882  1.00  0.00    -0.070 CG0
ATOM      9  C   UNL     1      23.448  38.165  21.211  1.00  0.00     0.039 C 
ATOM     10  G   UNL     1      25.348  39.593  20.137  1.00  0.00     0.000 G0
ENDBRANCH   6   7
ENDBRANCH   5   6
ENDBRANCH   3   5
ENDBRANCH   1   3
BRANCH   1  11
ATOM     11  C   UNL     1      27.998  40.963  19.370  1.00  0.00     0.087 C 
BRANCH  11  12
ATOM     12  C   UNL     1      27.060  41.611  20.428  1.00  0.00     0.066 C 
BRANCH  12  13
ATOM     13  C   UNL     1      25.982  40.668  20.959  1.00  0.00     0.140 C 
ATOM     14  O   UNL     1      25.517  40.880  22.069  1.00  0.00    -0.299 OA
BRANCH  13  15
ATOM     15  C   UNL     1      25.352  39.588  20.110  1.00  0.00     0.106 CG0
ATOM     16  G   UNL     1      24.903  38.356  20.892  1.00  0.00     0.000 G0
ENDBRANCH  13  15
ENDBRANCH  12  13
BRANCH  12  17
ATOM     17  C   UNL     1      26.446  42.973  19.970  1.00  0.00    -0.006 C 
ATOM     18  C   UNL     1      26.962  43.477  18.610  1.00  0.00     0.008 C 
ATOM     19  C   UNL     1      26.645  44.068  21.031  1.00  0.00     0.008 C 
ENDBRANCH  12  17
ENDBRANCH  11  12
ENDBRANCH   1  11
TORSDOF 1
ENDMDL
MODEL 2
REMARK VINA RESULT:    -2.154      1.465      4.100
REMARK INTER + INTRA:          -1.593
REMARK INTER:                  -3.675
REMARK INTRA:                   2.082
REMARK UNBOUND:                 1.695
REMARK SMILES CC1=CCC[C@H](C)C(=O)C[C@@H](C(C)C)C(=O)C1
REMARK SMILES IDX 8 1 9 2 6 3 7 4 5 5 4 6 3 7 2 8 1 9 10 11 11 12 15 13 16 14
REMARK SMILES IDX 17 15 12 17 13 18 14 19
REMARK H PARENT
REMARK Flexibility Score: 70.00
ROOT
ATOM      1  C   UNL     1      27.531  41.463  19.287  1.00  0.00     0.136 C 
ATOM      2  O   UNL     1      27.249  41.507  18.097  1.00  0.00    -0.299 OA
ENDROOT
BRANCH   1   3
ATOM      3  C   UNL     1      27.015  42.540  20.235  1.00  0.00     0.053 C 
ATOM      4  C   UNL     1      26.665  43.845  19.502  1.00  0.00     0.016 C 
BRANCH   3   5
ATOM      5  C   UNL     1      25.824  42.047  21.088  1.00  0.00     0.015 C 
BRANCH   5   6
ATOM      6  C   UNL     1      26.055  40.659  21.716  1.00  0.00     0.028 C 
BRANCH   6   7
ATOM      7  C   UNL     1      25.167  39.595  21.124  1.00  0.00    -0.028 C 
ATOM      8  C   UNL     1      25.531  38.317  20.846  1.00  0.00    -0.070 CG0
ATOM      9  C   UNL     1      24.511  37.445  20.153  1.00  0.00     0.039 C 
ATOM     10  G   UNL     1      26.868  37.696  21.242  1.00  0.00     0.000 G0
ENDBRANCH   6   7
ENDBRANCH   5   6
ENDBRANCH   3   5
ENDBRANCH   1   3
BRANCH   1  11
ATOM     11  C   UNL     1      28.429  40.355  19.784  1.00  0.00     0.087 C 
BRANCH  11  12
ATOM     12  C   UNL     1      28.037  38.962  19.215  1.00  0.00     0.066 C 
BRANCH  12  13
ATOM     13  C   UNL     1      28.002  37.852  20.264  1.00  0.00     0.140 C 
ATOM     14  O   UNL     1      28.988  37.140  20.392  1.00  0.00    -0.299 OA
BRANCH  13  15
ATOM     15  C   UNL     1      26.874  37.703  21.258  1.00  0.00     0.106 CG0
ATOM     16  G   UNL     1      25.556  38.330  20.811  1.00  0.00     0.000 G0
ENDBRANCH  13  15
ENDBRANCH  12  13
BRANCH  12  17
ATOM     17  C   UNL     1      28.877  38.536  17.967  1.00  0.00    -0.006 C 
ATOM     18  C   UNL     1      28.280  38.979  16.619  1.00  0.00     0.008 C 
ATOM     19  C   UNL     1      29.125  37.019  17.944  1.00  0.00     0.008 C 
ENDBRANCH  12  17
ENDBRANCH  11  12
ENDBRANCH   1  11
TORSDOF 1
ENDMDL
MODEL 3
REMARK VINA RESULT:    -2.026      2.021      5.039
REMARK INTER + INTRA:          -1.398
REMARK INTER:                  -3.350
REMARK INTRA:                   1.952
REMARK UNBOUND:                 1.695
REMARK SMILES CC1=CCC[C@H](C)C(=O)C[C@@H](C(C)C)C(=O)C1
REMARK SMILES IDX 8 1 9 2 6 3 7 4 5 5 4 6 3 7 2 8 1 9 10 11 11 12 15 13 16 14
REMARK SMILES IDX 17 15 12 17 13 18 14 19
REMARK H PARENT
REMARK Flexibility Score: 70.00
ROOT
ATOM      1  C   UNL     1      26.091  40.082  21.267  1.00  0.00     0.136 C 
ATOM      2  O   UNL     1      24.921  39.726  21.224  1.00  0.00    -0.299 OA
ENDROOT
BRANCH   1   3
ATOM      3  C   UNL     1      26.460  41.530  20.970  1.00  0.00     0.053 C 
ATOM      4  C   UNL     1      27.171  42.207  22.153  1.00  0.00     0.016 C 
BRANCH   3   5
ATOM      5  C   UNL     1      27.288  41.669  19.673  1.00  0.00     0.015 C 
BRANCH   5   6
ATOM      6  C   UNL     1      28.726  41.132  19.804  1.00  0.00     0.028 C 
BRANCH   6   7
ATOM      7  C   UNL     1      29.123  40.240  18.657  1.00  0.00    -0.028 C 
ATOM      8  C   UNL     1      28.313  39.362  18.012  1.00  0.00    -0.070 CG0
ATOM      9  C   UNL     1      28.946  38.486  16.958  1.00  0.00     0.039 C 
ATOM     10  G   UNL     1      26.808  39.251  18.240  1.00  0.00     0.000 G0
ENDBRANCH   6   7
ENDBRANCH   5   6
ENDBRANCH   3   5
ENDBRANCH   1   3
BRANCH   1  11
ATOM     11  C   UNL     1      27.155  39.055  21.577  1.00  0.00     0.087 C 
BRANCH  11  12
ATOM     12  C   UNL     1      27.233  37.927  20.509  1.00  0.00     0.066 C 
BRANCH  12  13
ATOM     13  C   UNL     1      26.401  38.202  19.258  1.00  0.00     0.140 C 
ATOM     14  O   UNL     1      25.307  37.666  19.156  1.00  0.00    -0.299 OA
BRANCH  13  15
ATOM     15  C   UNL     1      26.796  39.230  18.224  1.00  0.00     0.106 CG0
ATOM     16  G   UNL     1      28.302  39.351  18.001  1.00  0.00     0.000 G0
ENDBRANCH  13  15
ENDBRANCH  12  13
BRANCH  12  17
ATOM     17  C   UNL     1      26.942  36.502  21.081  1.00  0.00    -0.006 C 
ATOM     18  C   UNL     1      26.378  36.496  22.514  1.00  0.00     0.008 C 
ATOM     19  C   UNL     1      28.188  35.603  21.018  1.00  0.00     0.008 C 
ENDBRANCH  12  17
ENDBRANCH  11  12
ENDBRANCH   1  11
TORSDOF 1
ENDMDL
MODEL 4
REMARK VINA RESULT:    -1.993      2.059      4.501
REMARK INTER + INTRA:          -1.346
REMARK INTER:                  -3.114
REMARK INTRA:                   1.768
REMARK UNBOUND:                 1.695
REMARK SMILES CC1=CCC[C@H](C)C(=O)C[C@@H](C(C)C)C(=O)C1
REMARK SMILES IDX 8 1 9 2 6 3 7 4 5 5 4 6 3 7 2 8 1 9 10 11 11 12 15 13 16 14
REMARK SMILES IDX 17 15 12 17 13 18 14 19
REMARK H PARENT
REMARK Flexibility Score: 70.00
ROOT
ATOM      1  C   UNL     1      26.593  39.198  18.768  1.00  0.00     0.136 C 
ATOM      2  O   UNL     1      26.149  38.290  18.078  1.00  0.00    -0.299 OA
ENDROOT
BRANCH   1   3
ATOM      3  C   UNL     1      27.849  39.944  18.333  1.00  0.00     0.053 C 
ATOM      4  C   UNL     1      28.420  39.407  17.011  1.00  0.00     0.016 C 
BRANCH   3   5
ATOM      5  C   UNL     1      27.627  41.472  18.262  1.00  0.00     0.015 C 
BRANCH   5   6
ATOM      6  C   UNL     1      28.427  42.256  19.319  1.00  0.00     0.028 C 
BRANCH   6   7
ATOM      7  C   UNL     1      27.589  42.657  20.506  1.00  0.00    -0.028 C 
ATOM      8  C   UNL     1      27.522  42.002  21.693  1.00  0.00    -0.070 CG0
ATOM      9  C   UNL     1      26.534  42.519  22.711  1.00  0.00     0.039 C 
ATOM     10  G   UNL     1      28.417  40.827  22.081  1.00  0.00     0.000 G0
ENDBRANCH   6   7
ENDBRANCH   5   6
ENDBRANCH   3   5
ENDBRANCH   1   3
BRANCH   1  11
ATOM     11  C   UNL     1      25.900  39.531  20.068  1.00  0.00     0.087 C 
BRANCH  11  12
ATOM     12  C   UNL     1      26.660  38.989  21.312  1.00  0.00     0.066 C 
BRANCH  12  13
ATOM     13  C   UNL     1      28.089  39.513  21.441  1.00  0.00     0.140 C 
ATOM     14  O   UNL     1      28.985  38.910  20.869  1.00  0.00    -0.299 OA
BRANCH  13  15
ATOM     15  C   UNL     1      28.418  40.830  22.105  1.00  0.00     0.106 CG0
ATOM     16  G   UNL     1      27.516  41.988  21.684  1.00  0.00     0.000 G0
ENDBRANCH  13  15
ENDBRANCH  12  13
BRANCH  12  17
ATOM     17  C   UNL     1      26.614  37.431  21.444  1.00  0.00    -0.006 C 
ATOM     18  C   UNL     1      27.634  36.689  20.561  1.00  0.00     0.008 C 
ATOM     19  C   UNL     1      25.204  36.883  21.168  1.00  0.00     0.008 C 
ENDBRANCH  12  17
ENDBRANCH  11  12
ENDBRANCH   1  11
TORSDOF 1
ENDMDL
MODEL 5
REMARK VINA RESULT:    -1.839      1.955      4.642
REMARK INTER + INTRA:          -1.112
REMARK INTER:                  -2.219
REMARK INTRA:                   1.107
REMARK UNBOUND:                 1.695
REMARK SMILES CC1=CCC[C@H](C)C(=O)C[C@@H](C(C)C)C(=O)C1
REMARK SMILES IDX 8 1 9 2 6 3 7 4 5 5 4 6 3 7 2 8 1 9 10 11 11 12 15 13 16 14
REMARK SMILES IDX 17 15 12 17 13 18 14 19
REMARK H PARENT
REMARK Flexibility Score: 70.00
ROOT
ATOM      1  C   UNL     1      27.885  38.636  19.204  1.00  0.00     0.136 C 
ATOM      2  O   UNL     1      27.248  38.545  18.163  1.00  0.00    -0.299 OA
ENDROOT
BRANCH   1   3
ATOM      3  C   UNL     1      27.887  39.945  19.986  1.00  0.00     0.053 C 
ATOM      4  C   UNL     1      28.771  41.017  19.329  1.00  0.00     0.016 C 
BRANCH   3   5
ATOM      5  C   UNL     1      26.459  40.480  20.235  1.00  0.00     0.015 C 
BRANCH   5   6
ATOM      6  C   UNL     1      25.642  39.612  21.212  1.00  0.00     0.028 C 
BRANCH   6   7
ATOM      7  C   UNL     1      24.621  38.751  20.514  1.00  0.00    -0.028 C 
ATOM      8  C   UNL     1      24.556  37.396  20.557  1.00  0.00    -0.070 CG0
ATOM      9  C   UNL     1      23.513  36.728  19.695  1.00  0.00     0.039 C 
ATOM     10  G   UNL     1      25.421  36.521  21.461  1.00  0.00     0.000 G0
ENDBRANCH   6   7
ENDBRANCH   5   6
ENDBRANCH   3   5
ENDBRANCH   1   3
BRANCH   1  11
ATOM     11  C   UNL     1      28.695  37.450  19.671  1.00  0.00     0.087 C 
BRANCH  11  12
ATOM     12  C   UNL     1      27.816  36.329  20.296  1.00  0.00     0.066 C 
BRANCH  12  13
ATOM     13  C   UNL     1      26.903  36.814  21.420  1.00  0.00     0.140 C 
ATOM     14  O   UNL     1      27.359  37.592  22.246  1.00  0.00    -0.299 OA
BRANCH  13  15
ATOM     15  C   UNL     1      25.425  36.507  21.461  1.00  0.00     0.106 CG0
ATOM     16  G   UNL     1      24.574  37.388  20.550  1.00  0.00     0.000 G0
ENDBRANCH  13  15
ENDBRANCH  12  13
BRANCH  12  17
ATOM     17  C   UNL     1      28.628  35.066  20.731  1.00  0.00    -0.006 C 
ATOM     18  C   UNL     1      28.528  33.880  19.754  1.00  0.00     0.008 C 
ATOM     19  C   UNL     1      28.237  34.601  22.143  1.00  0.00     0.008 C 
ENDBRANCH  12  17
ENDBRANCH  11  12
ENDBRANCH   1  11
TORSDOF 1
ENDMDL
MODEL 6
REMARK VINA RESULT:    -1.429      1.725      4.528
REMARK INTER + INTRA:          -0.486
REMARK INTER:                  -2.045
REMARK INTRA:                   1.560
REMARK UNBOUND:                 1.695
REMARK SMILES CC1=CCC[C@H](C)C(=O)C[C@@H](C(C)C)C(=O)C1
REMARK SMILES IDX 8 1 9 2 6 3 7 4 5 5 4 6 3 7 2 8 1 9 10 11 11 12 15 13 16 14
REMARK SMILES IDX 17 15 12 17 13 18 14 19
REMARK H PARENT
REMARK Flexibility Score: 70.00
ROOT
ATOM      1  C   UNL     1      26.007  40.476  20.774  1.00  0.00     0.136 C 
ATOM      2  O   UNL     1      26.463  40.572  21.906  1.00  0.00    -0.299 OA
ENDROOT
BRANCH   1   3
ATOM      3  C   UNL     1      26.728  41.132  19.602  1.00  0.00     0.053 C 
ATOM      4  C   UNL     1      27.178  42.567  19.921  1.00  0.00     0.016 C 
BRANCH   3   5
ATOM      5  C   UNL     1      27.913  40.280  19.093  1.00  0.00     0.015 C 
BRANCH   5   6
ATOM      6  C   UNL     1      27.476  39.053  18.270  1.00  0.00     0.028 C 
BRANCH   6   7
ATOM      7  C   UNL     1      28.253  37.810  18.617  1.00  0.00    -0.028 C 
ATOM      8  C   UNL     1      28.175  37.119  19.783  1.00  0.00    -0.070 CG0
ATOM      9  C   UNL     1      29.125  35.959  19.963  1.00  0.00     0.039 C 
ATOM     10  G   UNL     1      27.156  37.400  20.885  1.00  0.00     0.000 G0
ENDBRANCH   6   7
ENDBRANCH   5   6
ENDBRANCH   3   5
ENDBRANCH   1   3
BRANCH   1  11
ATOM     11  C   UNL     1      24.705  39.737  20.572  1.00  0.00     0.087 C 
BRANCH  11  12
ATOM     12  C   UNL     1      24.716  38.315  21.199  1.00  0.00     0.066 C 
BRANCH  12  13
ATOM     13  C   UNL     1      25.727  37.365  20.559  1.00  0.00     0.140 C 
ATOM     14  O   UNL     1      25.364  36.675  19.618  1.00  0.00    -0.299 OA
BRANCH  13  15
ATOM     15  C   UNL     1      27.192  37.362  20.930  1.00  0.00     0.106 CG0
ATOM     16  G   UNL     1      28.136  37.109  19.757  1.00  0.00     0.000 G0
ENDBRANCH  13  15
ENDBRANCH  12  13
BRANCH  12  17
ATOM     17  C   UNL     1      23.300  37.659  21.288  1.00  0.00    -0.006 C 
ATOM     18  C   UNL     1      22.928  36.786  20.075  1.00  0.00     0.008 C 
ATOM     19  C   UNL     1      22.203  38.711  21.517  1.00  0.00     0.008 C 
ENDBRANCH  12  17
ENDBRANCH  11  12
ENDBRANCH   1  11
TORSDOF 1
ENDMDL
MODEL 7
REMARK VINA RESULT:     0.215     12.942     14.922
REMARK INTER + INTRA:           2.024
REMARK INTER:                   2.375
REMARK INTRA:                  -0.352
REMARK UNBOUND:                 1.695
REMARK SMILES CC1=CCC[C@H](C)C(=O)C[C@@H](C(C)C)C(=O)C1
REMARK SMILES IDX 8 1 9 2 6 3 7 4 5 5 4 6 3 7 2 8 1 9 10 11 11 12 15 13 16 14
REMARK SMILES IDX 17 15 12 17 13 18 14 19
REMARK H PARENT
REMARK Flexibility Score: 70.00
ROOT
ATOM      1  C   UNL     1      26.859  28.349  26.172  1.00  0.00     0.136 C 
ATOM      2  O   UNL     1      27.407  29.294  26.722  1.00  0.00    -0.299 OA
ENDROOT
BRANCH   1   3
ATOM      3  C   UNL     1      27.683  27.349  25.370  1.00  0.00     0.053 C 
ATOM      4  C   UNL     1      28.756  28.033  24.507  1.00  0.00     0.016 C 
BRANCH   3   5
ATOM      5  C   UNL     1      28.307  26.254  26.264  1.00  0.00     0.015 C 
BRANCH   5   6
ATOM      6  C   UNL     1      27.696  24.858  26.038  1.00  0.00     0.028 C 
BRANCH   6   7
ATOM      7  C   UNL     1      27.117  24.263  27.295  1.00  0.00    -0.028 C 
ATOM      8  C   UNL     1      25.875  24.499  27.791  1.00  0.00    -0.070 CG0
ATOM      9  C   UNL     1      25.536  23.881  29.126  1.00  0.00     0.039 C 
ATOM     10  G   UNL     1      24.792  25.290  27.061  1.00  0.00     0.000 G0
ENDBRANCH   6   7
ENDBRANCH   5   6
ENDBRANCH   3   5
ENDBRANCH   1   3
BRANCH   1  11
ATOM     11  C   UNL     1      25.357  28.220  26.268  1.00  0.00     0.087 C 
BRANCH  11  12
ATOM     12  C   UNL     1      24.874  27.860  27.702  1.00  0.00     0.066 C 
BRANCH  12  13
ATOM     13  C   UNL     1      24.248  26.471  27.812  1.00  0.00     0.140 C 
ATOM     14  O   UNL     1      23.196  26.353  28.424  1.00  0.00    -0.299 OA
BRANCH  13  15
ATOM     15  C   UNL     1      24.782  25.273  27.063  1.00  0.00     0.106 CG0
ATOM     16  G   UNL     1      25.883  24.512  27.797  1.00  0.00     0.000 G0
ENDBRANCH  13  15
ENDBRANCH  12  13
BRANCH  12  17
ATOM     17  C   UNL     1      23.955  28.949  28.345  1.00  0.00    -0.006 C 
ATOM     18  C   UNL     1      23.393  29.976  27.345  1.00  0.00     0.008 C 
ATOM     19  C   UNL     1      24.669  29.686  29.490  1.00  0.00     0.008 C 
ENDBRANCH  12  17
ENDBRANCH  11  12
ENDBRANCH   1  11
TORSDOF 1
ENDMDL
MODEL 8
REMARK VINA RESULT:     0.245      1.828      4.807
REMARK INTER + INTRA:           2.068
REMARK INTER:                  -1.339
REMARK INTRA:                   3.407
REMARK UNBOUND:                 1.695
REMARK SMILES CC1=CCC[C@H](C)C(=O)C[C@@H](C(C)C)C(=O)C1
REMARK SMILES IDX 8 1 9 2 6 3 7 4 5 5 4 6 3 7 2 8 1 9 10 11 11 12 15 13 16 14
REMARK SMILES IDX 17 15 12 17 13 18 14 19
REMARK H PARENT
REMARK Flexibility Score: 70.00
ROOT
ATOM      1  C   UNL     1      26.778  41.674  21.691  1.00  0.00     0.136 C 
ATOM      2  O   UNL     1      25.582  41.501  21.497  1.00  0.00    -0.299 OA
ENDROOT
BRANCH   1   3
ATOM      3  C   UNL     1      27.446  42.967  21.240  1.00  0.00     0.053 C 
ATOM      4  C   UNL     1      28.980  42.885  21.302  1.00  0.00     0.016 C 
BRANCH   3   5
ATOM      5  C   UNL     1      26.972  43.413  19.838  1.00  0.00     0.015 C 
BRANCH   5   6
ATOM      6  C   UNL     1      27.907  42.956  18.702  1.00  0.00     0.028 C 
BRANCH   6   7
ATOM      7  C   UNL     1      27.473  41.657  18.075  1.00  0.00    -0.028 C 
ATOM      8  C   UNL     1      27.940  40.423  18.393  1.00  0.00    -0.070 CG0
ATOM      9  C   UNL     1      27.444  39.263  17.563  1.00  0.00     0.039 C 
ATOM     10  G   UNL     1      28.875  40.130  19.564  1.00  0.00     0.000 G0
ENDBRANCH   6   7
ENDBRANCH   5   6
ENDBRANCH   3   5
ENDBRANCH   1   3
BRANCH   1  11
ATOM     11  C   UNL     1      27.577  40.571  22.344  1.00  0.00     0.087 C 
BRANCH  11  12
ATOM     12  C   UNL     1      27.431  39.207  21.612  1.00  0.00     0.066 C 
BRANCH  12  13
ATOM     13  C   UNL     1      28.440  38.998  20.485  1.00  0.00     0.140 C 
ATOM     14  O   UNL     1      28.797  37.858  20.226  1.00  0.00    -0.299 OA
BRANCH  13  15
ATOM     15  C   UNL     1      28.887  40.116  19.572  1.00  0.00     0.106 CG0
ATOM     16  G   UNL     1      27.930  40.405  18.417  1.00  0.00     0.000 G0
ENDBRANCH  13  15
ENDBRANCH  12  13
BRANCH  12  17
ATOM     17  C   UNL     1      25.973  38.907  21.132  1.00  0.00    -0.006 C 
ATOM     18  C   UNL     1      25.429  37.536  21.573  1.00  0.00     0.008 C 
ATOM     19  C   UNL     1      25.843  39.043  19.606  1.00  0.00     0.008 C 
ENDBRANCH  12  17
ENDBRANCH  11  12
ENDBRANCH   1  11
TORSDOF 1
ENDMDL
