MODEL 1
REMARK VINA RESULT:    -3.176      0.000      0.000
REMARK INTER + INTRA:          -4.096
REMARK INTER:                  -3.918
REMARK INTRA:                  -0.178
REMARK UNBOUND:                -0.178
REMARK SMILES CCCCCC(C)=O
REMARK SMILES IDX 4 1 3 2 2 3 1 4 5 5 6 6 8 7 7 8
REMARK H PARENT
REMARK Flexibility Score: inf
ROOT
ATOM      1  C   UNL     1      -6.536  -9.555  -4.516  1.00  0.00     0.008 C 
ENDROOT
BRANCH   1   2
ATOM      2  C   UNL     1      -7.639  -8.539  -4.859  1.00  0.00     0.000 C 
BRANCH   2   3
ATOM      3  C   UNL     1      -8.955  -8.825  -4.121  1.00  0.00    -0.003 C 
ATOM      4  C   UNL     1      -8.707  -9.083  -2.636  1.00  0.00     0.004 C 
ENDBRANCH   2   3
ENDBRANCH   1   2
BRANCH   1   5
ATOM      5  C   UNL     1      -5.141  -8.908  -4.442  1.00  0.00     0.075 C 
BRANCH   5   6
ATOM      6  C   UNL     1      -4.455  -9.060  -3.102  1.00  0.00     0.129 C 
ATOM      7  O   UNL     1      -5.122  -8.913  -2.089  1.00  0.00    -0.300 OA
ATOM      8  C   UNL     1      -2.993  -9.382  -2.961  1.00  0.00     0.087 C 
ENDBRANCH   5   6
ENDBRANCH   1   5
TORSDOF 4
ENDMDL
MODEL 2
REMARK VINA RESULT:    -3.085     19.645     20.405
REMARK INTER + INTRA:          -3.985
REMARK INTER:                  -3.689
REMARK INTRA:                  -0.295
REMARK UNBOUND:                -0.178
REMARK SMILES CCCCCC(C)=O
REMARK SMILES IDX 4 1 3 2 2 3 1 4 5 5 6 6 8 7 7 8
REMARK H PARENT
REMARK Flexibility Score: inf
ROOT
ATOM      1  C   UNL     1       7.080   2.747   7.169  1.00  0.00     0.008 C 
ENDROOT
BRANCH   1   2
ATOM      2  C   UNL     1       6.827   1.404   6.463  1.00  0.00     0.000 C 
BRANCH   2   3
ATOM      3  C   UNL     1       8.098   0.820   5.830  1.00  0.00    -0.003 C 
ATOM      4  C   UNL     1       8.443   1.540   4.529  1.00  0.00     0.004 C 
ENDBRANCH   2   3
ENDBRANCH   1   2
BRANCH   1   5
ATOM      5  C   UNL     1       5.902   3.726   7.015  1.00  0.00     0.075 C 
BRANCH   5   6
ATOM      6  C   UNL     1       5.851   4.435   5.679  1.00  0.00     0.129 C 
ATOM      7  O   UNL     1       4.759   4.628   5.167  1.00  0.00    -0.300 OA
ATOM      8  C   UNL     1       7.081   4.910   4.955  1.00  0.00     0.087 C 
ENDBRANCH   5   6
ENDBRANCH   1   5
TORSDOF 4
ENDMDL
MODEL 3
REMARK VINA RESULT:    -2.971     19.533     20.549
REMARK INTER + INTRA:          -3.843
REMARK INTER:                  -3.531
REMARK INTRA:                  -0.312
REMARK UNBOUND:                -0.178
REMARK SMILES CCCCCC(C)=O
REMARK SMILES IDX 4 1 3 2 2 3 1 4 5 5 6 6 8 7 7 8
REMARK H PARENT
REMARK Flexibility Score: inf
ROOT
ATOM      1  C   UNL     1       8.137   3.577   5.543  1.00  0.00     0.008 C 
ENDROOT
BRANCH   1   2
ATOM      2  C   UNL     1       8.095   2.150   4.970  1.00  0.00     0.000 C 
BRANCH   2   3
ATOM      3  C   UNL     1       7.275   1.187   5.842  1.00  0.00    -0.003 C 
ATOM      4  C   UNL     1       7.841   1.112   7.258  1.00  0.00     0.004 C 
ENDBRANCH   2   3
ENDBRANCH   1   2
BRANCH   1   5
ATOM      5  C   UNL     1       7.046   4.484   4.947  1.00  0.00     0.075 C 
BRANCH   5   6
ATOM      6  C   UNL     1       5.775   4.551   5.765  1.00  0.00     0.129 C 
ATOM      7  O   UNL     1       4.709   4.629   5.173  1.00  0.00    -0.300 OA
ATOM      8  C   UNL     1       5.764   4.524   7.268  1.00  0.00     0.087 C 
ENDBRANCH   5   6
ENDBRANCH   1   5
TORSDOF 4
ENDMDL
MODEL 4
REMARK VINA RESULT:    -2.833     17.865     18.741
REMARK INTER + INTRA:          -3.674
REMARK INTER:                  -3.552
REMARK INTRA:                  -0.122
REMARK UNBOUND:                -0.178
REMARK SMILES CCCCCC(C)=O
REMARK SMILES IDX 4 1 3 2 2 3 1 4 5 5 6 6 8 7 7 8
REMARK H PARENT
REMARK Flexibility Score: inf
ROOT
ATOM      1  C   UNL     1       0.146   8.614  -0.967  1.00  0.00     0.008 C 
ENDROOT
BRANCH   1   2
ATOM      2  C   UNL     1       0.666   9.270  -2.257  1.00  0.00     0.000 C 
BRANCH   2   3
ATOM      3  C   UNL     1       2.129   9.723  -2.143  1.00  0.00    -0.003 C 
ATOM      4  C   UNL     1       2.857   8.951  -1.044  1.00  0.00     0.004 C 
ENDBRANCH   2   3
ENDBRANCH   1   2
BRANCH   1   5
ATOM      5  C   UNL     1      -0.965   7.583  -1.235  1.00  0.00     0.075 C 
BRANCH   5   6
ATOM      6  C   UNL     1      -1.380   6.783  -0.019  1.00  0.00     0.129 C 
ATOM      7  O   UNL     1      -1.778   5.641  -0.186  1.00  0.00    -0.300 OA
ATOM      8  C   UNL     1      -1.323   7.330   1.381  1.00  0.00     0.087 C 
ENDBRANCH   5   6
ENDBRANCH   1   5
TORSDOF 4
ENDMDL
MODEL 5
REMARK VINA RESULT:    -2.828      1.777      4.542
REMARK INTER + INTRA:          -3.667
REMARK INTER:                  -3.583
REMARK INTRA:                  -0.084
REMARK UNBOUND:                -0.178
REMARK SMILES CCCCCC(C)=O
REMARK SMILES IDX 4 1 3 2 2 3 1 4 5 5 6 6 8 7 7 8
REMARK H PARENT
REMARK Flexibility Score: inf
ROOT
ATOM      1  C   UNL     1      -6.256  -9.397  -2.347  1.00  0.00     0.008 C 
ENDROOT
BRANCH   1   2
ATOM      2  C   UNL     1      -4.856  -8.985  -2.832  1.00  0.00     0.000 C 
BRANCH   2   3
ATOM      3  C   UNL     1      -3.766  -9.978  -2.405  1.00  0.00    -0.003 C 
ATOM      4  C   UNL     1      -2.385  -9.503  -2.852  1.00  0.00     0.004 C 
ENDBRANCH   2   3
ENDBRANCH   1   2
BRANCH   1   5
ATOM      5  C   UNL     1      -7.186  -9.800  -3.506  1.00  0.00     0.075 C 
BRANCH   5   6
ATOM      6  C   UNL     1      -8.401  -8.913  -3.667  1.00  0.00     0.129 C 
ATOM      7  O   UNL     1      -9.114  -8.725  -2.693  1.00  0.00    -0.300 OA
ATOM      8  C   UNL     1      -8.770  -8.255  -4.968  1.00  0.00     0.087 C 
ENDBRANCH   5   6
ENDBRANCH   1   5
TORSDOF 4
ENDMDL
MODEL 6
REMARK VINA RESULT:    -2.786     11.281     12.692
REMARK INTER + INTRA:          -3.615
REMARK INTER:                  -3.463
REMARK INTRA:                  -0.152
REMARK UNBOUND:                -0.178
REMARK SMILES CCCCCC(C)=O
REMARK SMILES IDX 4 1 3 2 2 3 1 4 5 5 6 6 8 7 7 8
REMARK H PARENT
REMARK Flexibility Score: inf
ROOT
ATOM      1  C   UNL     1       5.562  -5.187  -4.928  1.00  0.00     0.008 C 
ENDROOT
BRANCH   1   2
ATOM      2  C   UNL     1       5.105  -6.650  -4.802  1.00  0.00     0.000 C 
BRANCH   2   3
ATOM      3  C   UNL     1       3.970  -7.001  -5.776  1.00  0.00    -0.003 C 
ATOM      4  C   UNL     1       3.545  -5.778  -6.586  1.00  0.00     0.004 C 
ENDBRANCH   2   3
ENDBRANCH   1   2
BRANCH   1   5
ATOM      5  C   UNL     1       6.197  -4.653  -3.632  1.00  0.00     0.075 C 
BRANCH   5   6
ATOM      6  C   UNL     1       6.248  -3.143  -3.539  1.00  0.00     0.129 C 
ATOM      7  O   UNL     1       6.917  -2.641  -2.649  1.00  0.00    -0.300 OA
ATOM      8  C   UNL     1       5.516  -2.237  -4.489  1.00  0.00     0.087 C 
ENDBRANCH   5   6
ENDBRANCH   1   5
TORSDOF 4
ENDMDL
MODEL 7
REMARK VINA RESULT:    -2.739     10.526     11.410
REMARK INTER + INTRA:          -3.557
REMARK INTER:                  -3.433
REMARK INTRA:                  -0.124
REMARK UNBOUND:                -0.178
REMARK SMILES CCCCCC(C)=O
REMARK SMILES IDX 4 1 3 2 2 3 1 4 5 5 6 6 8 7 7 8
REMARK H PARENT
REMARK Flexibility Score: inf
ROOT
ATOM      1  C   UNL     1       3.453  -5.004  -6.857  1.00  0.00     0.008 C 
ENDROOT
BRANCH   1   2
ATOM      2  C   UNL     1       3.268  -6.524  -6.712  1.00  0.00     0.000 C 
BRANCH   2   3
ATOM      3  C   UNL     1       4.058  -7.106  -5.531  1.00  0.00    -0.003 C 
ATOM      4  C   UNL     1       5.188  -6.168  -5.111  1.00  0.00     0.004 C 
ENDBRANCH   2   3
ENDBRANCH   1   2
BRANCH   1   5
ATOM      5  C   UNL     1       2.210  -4.311  -7.442  1.00  0.00     0.075 C 
BRANCH   5   6
ATOM      6  C   UNL     1       2.184  -2.810  -7.249  1.00  0.00     0.129 C 
ATOM      7  O   UNL     1       1.117  -2.228  -7.375  1.00  0.00    -0.300 OA
ATOM      8  C   UNL     1       3.408  -2.005  -6.910  1.00  0.00     0.087 C 
ENDBRANCH   5   6
ENDBRANCH   1   5
TORSDOF 4
ENDMDL
MODEL 8
REMARK VINA RESULT:    -2.696     10.337     11.120
REMARK INTER + INTRA:          -3.505
REMARK INTER:                  -3.434
REMARK INTRA:                  -0.071
REMARK UNBOUND:                -0.178
REMARK SMILES CCCCCC(C)=O
REMARK SMILES IDX 4 1 3 2 2 3 1 4 5 5 6 6 8 7 7 8
REMARK H PARENT
REMARK Flexibility Score: inf
ROOT
ATOM      1  C   UNL     1       2.148  -4.487  -7.362  1.00  0.00     0.008 C 
ENDROOT
BRANCH   1   2
ATOM      2  C   UNL     1       3.394  -5.310  -6.991  1.00  0.00     0.000 C 
BRANCH   2   3
ATOM      3  C   UNL     1       3.056  -6.766  -6.637  1.00  0.00    -0.003 C 
ATOM      4  C   UNL     1       3.976  -7.290  -5.537  1.00  0.00     0.004 C 
ENDBRANCH   2   3
ENDBRANCH   1   2
BRANCH   1   5
ATOM      5  C   UNL     1       2.418  -2.971  -7.352  1.00  0.00     0.075 C 
BRANCH   5   6
ATOM      6  C   UNL     1       1.204  -2.120  -7.654  1.00  0.00     0.129 C 
ATOM      7  O   UNL     1       1.008  -1.128  -6.969  1.00  0.00    -0.300 OA
ATOM      8  C   UNL     1       0.231  -2.440  -8.755  1.00  0.00     0.087 C 
ENDBRANCH   5   6
ENDBRANCH   1   5
TORSDOF 4
ENDMDL
MODEL 9
REMARK VINA RESULT:    -2.614     10.842     11.861
REMARK INTER + INTRA:          -3.404
REMARK INTER:                  -3.078
REMARK INTRA:                  -0.326
REMARK UNBOUND:                -0.178
REMARK SMILES CCCCCC(C)=O
REMARK SMILES IDX 4 1 3 2 2 3 1 4 5 5 6 6 8 7 7 8
REMARK H PARENT
REMARK Flexibility Score: inf
ROOT
ATOM      1  C   UNL     1      -0.913  -1.603  -8.911  1.00  0.00     0.008 C 
ENDROOT
BRANCH   1   2
ATOM      2  C   UNL     1      -1.116  -0.258  -9.628  1.00  0.00     0.000 C 
BRANCH   2   3
ATOM      3  C   UNL     1       0.129   0.192 -10.405  1.00  0.00    -0.003 C 
ATOM      4  C   UNL     1       0.547   1.604 -10.002  1.00  0.00     0.004 C 
ENDBRANCH   2   3
ENDBRANCH   1   2
BRANCH   1   5
ATOM      5  C   UNL     1       0.541  -2.102  -8.993  1.00  0.00     0.075 C 
BRANCH   5   6
ATOM      6  C   UNL     1       1.298  -2.036  -7.685  1.00  0.00     0.129 C 
ATOM      7  O   UNL     1       1.421  -3.062  -7.034  1.00  0.00    -0.300 OA
ATOM      8  C   UNL     1       1.904  -0.767  -7.151  1.00  0.00     0.087 C 
ENDBRANCH   5   6
ENDBRANCH   1   5
TORSDOF 4
ENDMDL
