MODEL 1
REMARK VINA RESULT:    -3.565      0.000      0.000
REMARK INTER + INTRA:          -5.768
REMARK INTER:                  -5.232
REMARK INTRA:                  -0.536
REMARK UNBOUND:                -0.536
REMARK SMILES O=C([O-])CCCCCCCC(=O)[O-]
REMARK SMILES IDX 7 1 6 2 5 3 4 4 2 5 1 6 3 7 8 8 9 9 10 10 11 11 12 12 13 13
REMARK H PARENT
REMARK Flexibility Score: inf
ROOT
ATOM      1  C   UNL     1     154.995 154.414 164.333  1.00  0.00     0.000 C 
ENDROOT
BRANCH   1   2
ATOM      2  C   UNL     1     156.200 155.127 164.981  1.00  0.00     0.000 C 
BRANCH   2   3
ATOM      3  C   UNL     1     155.864 155.692 166.369  1.00  0.00     0.006 C 
BRANCH   3   4
ATOM      4  C   UNL     1     156.054 154.629 167.456  1.00  0.00     0.053 C 
BRANCH   4   5
ATOM      5  C   UNL     1     154.793 154.451 168.240  1.00  0.00     0.041 C 
ATOM      6  O   UNL     1     154.654 153.456 169.000  1.00  0.00    -0.550 OA
ATOM      7  O   UNL     1     153.749 155.356 168.094  1.00  0.00    -0.550 OA
ENDBRANCH   4   5
ENDBRANCH   3   4
ENDBRANCH   2   3
ENDBRANCH   1   2
BRANCH   1   8
ATOM      8  C   UNL     1     153.651 155.114 164.594  1.00  0.00     0.000 C 
BRANCH   8   9
ATOM      9  C   UNL     1     153.103 155.838 163.356  1.00  0.00     0.006 C 
BRANCH   9  10
ATOM     10  C   UNL     1     154.038 156.971 162.924  1.00  0.00     0.053 C 
BRANCH  10  11
ATOM     11  C   UNL     1     153.587 158.273 163.505  1.00  0.00     0.041 C 
ATOM     12  O   UNL     1     152.879 159.060 162.823  1.00  0.00    -0.550 OA
ATOM     13  O   UNL     1     153.988 158.641 164.783  1.00  0.00    -0.550 OA
ENDBRANCH  10  11
ENDBRANCH   9  10
ENDBRANCH   8   9
ENDBRANCH   1   8
TORSDOF 8
ENDMDL
MODEL 2
REMARK VINA RESULT:    -3.553      1.427      4.924
REMARK INTER + INTRA:          -5.751
REMARK INTER:                  -4.914
REMARK INTRA:                  -0.837
REMARK UNBOUND:                -0.536
REMARK SMILES O=C([O-])CCCCCCCC(=O)[O-]
REMARK SMILES IDX 7 1 6 2 5 3 4 4 2 5 1 6 3 7 8 8 9 9 10 10 11 11 12 12 13 13
REMARK H PARENT
REMARK Flexibility Score: inf
ROOT
ATOM      1  C   UNL     1     155.196 155.524 163.773  1.00  0.00     0.000 C 
ENDROOT
BRANCH   1   2
ATOM      2  C   UNL     1     153.657 155.422 163.809  1.00  0.00     0.000 C 
BRANCH   2   3
ATOM      3  C   UNL     1     153.036 156.362 164.853  1.00  0.00     0.006 C 
BRANCH   3   4
ATOM      4  C   UNL     1     154.072 157.362 165.377  1.00  0.00     0.053 C 
BRANCH   4   5
ATOM      5  C   UNL     1     153.759 158.742 164.894  1.00  0.00     0.041 C 
ATOM      6  O   UNL     1     153.478 159.654 165.716  1.00  0.00    -0.550 OA
ATOM      7  O   UNL     1     153.727 159.012 163.531  1.00  0.00    -0.550 OA
ENDBRANCH   4   5
ENDBRANCH   3   4
ENDBRANCH   2   3
ENDBRANCH   1   2
BRANCH   1   8
ATOM      8  C   UNL     1     155.906 154.159 163.786  1.00  0.00     0.000 C 
BRANCH   8   9
ATOM      9  C   UNL     1     155.690 153.385 165.095  1.00  0.00     0.006 C 
BRANCH   9  10
ATOM     10  C   UNL     1     156.065 154.242 166.308  1.00  0.00     0.053 C 
BRANCH  10  11
ATOM     11  C   UNL     1     154.961 154.234 167.316  1.00  0.00     0.041 C 
ATOM     12  O   UNL     1     155.138 154.743 168.454  1.00  0.00    -0.550 OA
ATOM     13  O   UNL     1     153.750 153.621 167.017  1.00  0.00    -0.550 OA
ENDBRANCH  10  11
ENDBRANCH   9  10
ENDBRANCH   8   9
ENDBRANCH   1   8
TORSDOF 8
ENDMDL
MODEL 3
REMARK VINA RESULT:    -3.441      1.399      5.595
REMARK INTER + INTRA:          -5.587
REMARK INTER:                  -4.952
REMARK INTRA:                  -0.634
REMARK UNBOUND:                -0.536
REMARK SMILES O=C([O-])CCCCCCCC(=O)[O-]
REMARK SMILES IDX 7 1 6 2 5 3 4 4 2 5 1 6 3 7 8 8 9 9 10 10 11 11 12 12 13 13
REMARK H PARENT
REMARK Flexibility Score: inf
ROOT
ATOM      1  C   UNL     1     155.888 155.753 166.298  1.00  0.00     0.000 C 
ENDROOT
BRANCH   1   2
ATOM      2  C   UNL     1     155.793 155.234 164.848  1.00  0.00     0.000 C 
BRANCH   2   3
ATOM      3  C   UNL     1     154.351 154.893 164.447  1.00  0.00     0.006 C 
BRANCH   3   4
ATOM      4  C   UNL     1     153.908 155.717 163.233  1.00  0.00     0.053 C 
BRANCH   4   5
ATOM      5  C   UNL     1     153.629 157.131 163.634  1.00  0.00     0.041 C 
ATOM      6  O   UNL     1     152.960 157.375 164.672  1.00  0.00    -0.550 OA
ATOM      7  O   UNL     1     154.064 158.179 162.833  1.00  0.00    -0.550 OA
ENDBRANCH   4   5
ENDBRANCH   3   4
ENDBRANCH   2   3
ENDBRANCH   1   2
BRANCH   1   8
ATOM      8  C   UNL     1     156.068 154.638 167.342  1.00  0.00     0.000 C 
BRANCH   8   9
ATOM      9  C   UNL     1     155.002 154.674 168.445  1.00  0.00     0.006 C 
BRANCH   9  10
ATOM     10  C   UNL     1     153.710 153.992 167.984  1.00  0.00     0.053 C 
BRANCH  10  11
ATOM     11  C   UNL     1     153.937 152.528 167.776  1.00  0.00     0.041 C 
ATOM     12  O   UNL     1     154.284 151.797 168.740  1.00  0.00    -0.550 OA
ATOM     13  O   UNL     1     153.813 151.979 166.506  1.00  0.00    -0.550 OA
ENDBRANCH  10  11
ENDBRANCH   9  10
ENDBRANCH   8   9
ENDBRANCH   1   8
TORSDOF 8
ENDMDL
MODEL 4
REMARK VINA RESULT:    -3.430      3.199      5.520
REMARK INTER + INTRA:          -5.570
REMARK INTER:                  -5.027
REMARK INTRA:                  -0.544
REMARK UNBOUND:                -0.536
REMARK SMILES O=C([O-])CCCCCCCC(=O)[O-]
REMARK SMILES IDX 7 1 6 2 5 3 4 4 2 5 1 6 3 7 8 8 9 9 10 10 11 11 12 12 13 13
REMARK H PARENT
REMARK Flexibility Score: inf
ROOT
ATOM      1  C   UNL     1     156.125 155.769 166.167  1.00  0.00     0.000 C 
ENDROOT
BRANCH   1   2
ATOM      2  C   UNL     1     154.633 156.136 166.310  1.00  0.00     0.000 C 
BRANCH   2   3
ATOM      3  C   UNL     1     154.217 157.261 165.351  1.00  0.00     0.006 C 
BRANCH   3   4
ATOM      4  C   UNL     1     154.142 156.752 163.907  1.00  0.00     0.053 C 
BRANCH   4   5
ATOM      5  C   UNL     1     153.673 157.840 162.993  1.00  0.00     0.041 C 
ATOM      6  O   UNL     1     153.169 157.554 161.875  1.00  0.00    -0.550 OA
ATOM      7  O   UNL     1     153.840 159.171 163.353  1.00  0.00    -0.550 OA
ENDBRANCH   4   5
ENDBRANCH   3   4
ENDBRANCH   2   3
ENDBRANCH   1   2
BRANCH   1   8
ATOM      8  C   UNL     1     156.384 154.254 166.093  1.00  0.00     0.000 C 
BRANCH   8   9
ATOM      9  C   UNL     1     155.986 153.646 164.741  1.00  0.00     0.006 C 
BRANCH   9  10
ATOM     10  C   UNL     1     156.771 154.291 163.595  1.00  0.00     0.053 C 
BRANCH  10  11
ATOM     11  C   UNL     1     157.885 153.395 163.155  1.00  0.00     0.041 C 
ATOM     12  O   UNL     1     159.068 153.632 163.515  1.00  0.00    -0.550 OA
ATOM     13  O   UNL     1     157.624 152.327 162.306  1.00  0.00    -0.550 OA
ENDBRANCH  10  11
ENDBRANCH   9  10
ENDBRANCH   8   9
ENDBRANCH   1   8
TORSDOF 8
ENDMDL
MODEL 5
REMARK VINA RESULT:    -3.427      3.499      5.752
REMARK INTER + INTRA:          -5.566
REMARK INTER:                  -5.063
REMARK INTRA:                  -0.503
REMARK UNBOUND:                -0.536
REMARK SMILES O=C([O-])CCCCCCCC(=O)[O-]
REMARK SMILES IDX 7 1 6 2 5 3 4 4 2 5 1 6 3 7 8 8 9 9 10 10 11 11 12 12 13 13
REMARK H PARENT
REMARK Flexibility Score: inf
ROOT
ATOM      1  C   UNL     1     156.350 154.814 167.244  1.00  0.00     0.000 C 
ENDROOT
BRANCH   1   2
ATOM      2  C   UNL     1     155.865 155.791 166.153  1.00  0.00     0.000 C 
BRANCH   2   3
ATOM      3  C   UNL     1     155.745 155.116 164.779  1.00  0.00     0.006 C 
BRANCH   3   4
ATOM      4  C   UNL     1     156.972 154.247 164.485  1.00  0.00     0.053 C 
BRANCH   4   5
ATOM      5  C   UNL     1     156.558 152.838 164.197  1.00  0.00     0.041 C 
ATOM      6  O   UNL     1     155.612 152.311 164.840  1.00  0.00    -0.550 OA
ATOM      7  O   UNL     1     157.252 152.088 163.255  1.00  0.00    -0.550 OA
ENDBRANCH   4   5
ENDBRANCH   3   4
ENDBRANCH   2   3
ENDBRANCH   1   2
BRANCH   1   8
ATOM      8  C   UNL     1     155.208 154.159 168.040  1.00  0.00     0.000 C 
BRANCH   8   9
ATOM      9  C   UNL     1     154.083 155.144 168.390  1.00  0.00     0.006 C 
BRANCH   9  10
ATOM     10  C   UNL     1     153.176 154.574 169.484  1.00  0.00     0.053 C 
BRANCH  10  11
ATOM     11  C   UNL     1     153.890 154.551 170.797  1.00  0.00     0.041 C 
ATOM     12  O   UNL     1     154.497 155.575 171.207  1.00  0.00    -0.550 OA
ATOM     13  O   UNL     1     153.928 153.382 171.548  1.00  0.00    -0.550 OA
ENDBRANCH  10  11
ENDBRANCH   9  10
ENDBRANCH   8   9
ENDBRANCH   1   8
TORSDOF 8
ENDMDL
MODEL 6
REMARK VINA RESULT:    -3.399      2.911      5.087
REMARK INTER + INTRA:          -5.525
REMARK INTER:                  -4.905
REMARK INTRA:                  -0.620
REMARK UNBOUND:                -0.536
REMARK SMILES O=C([O-])CCCCCCCC(=O)[O-]
REMARK SMILES IDX 7 1 6 2 5 3 4 4 2 5 1 6 3 7 8 8 9 9 10 10 11 11 12 12 13 13
REMARK H PARENT
REMARK Flexibility Score: inf
ROOT
ATOM      1  C   UNL     1     155.141 155.643 164.704  1.00  0.00     0.000 C 
ENDROOT
BRANCH   1   2
ATOM      2  C   UNL     1     155.568 154.239 164.229  1.00  0.00     0.000 C 
BRANCH   2   3
ATOM      3  C   UNL     1     156.837 154.278 163.364  1.00  0.00     0.006 C 
BRANCH   3   4
ATOM      4  C   UNL     1     157.411 152.872 163.165  1.00  0.00     0.053 C 
BRANCH   4   5
ATOM      5  C   UNL     1     157.719 152.239 164.485  1.00  0.00     0.041 C 
ATOM      6  O   UNL     1     157.119 151.191 164.841  1.00  0.00    -0.550 OA
ATOM      7  O   UNL     1     158.631 152.836 165.346  1.00  0.00    -0.550 OA
ENDBRANCH   4   5
ENDBRANCH   3   4
ENDBRANCH   2   3
ENDBRANCH   1   2
BRANCH   1   8
ATOM      8  C   UNL     1     155.806 156.077 166.022  1.00  0.00     0.000 C 
BRANCH   8   9
ATOM      9  C   UNL     1     156.131 154.895 166.945  1.00  0.00     0.006 C 
BRANCH   9  10
ATOM     10  C   UNL     1     155.114 154.792 168.085  1.00  0.00     0.053 C 
BRANCH  10  11
ATOM     11  C   UNL     1     154.205 153.624 167.873  1.00  0.00     0.041 C 
ATOM     12  O   UNL     1     153.264 153.697 167.039  1.00  0.00    -0.550 OA
ATOM     13  O   UNL     1     154.365 152.471 168.630  1.00  0.00    -0.550 OA
ENDBRANCH  10  11
ENDBRANCH   9  10
ENDBRANCH   8   9
ENDBRANCH   1   8
TORSDOF 8
ENDMDL
MODEL 7
REMARK VINA RESULT:    -3.389      1.930      5.326
REMARK INTER + INTRA:          -5.511
REMARK INTER:                  -4.901
REMARK INTRA:                  -0.610
REMARK UNBOUND:                -0.536
REMARK SMILES O=C([O-])CCCCCCCC(=O)[O-]
REMARK SMILES IDX 7 1 6 2 5 3 4 4 2 5 1 6 3 7 8 8 9 9 10 10 11 11 12 12 13 13
REMARK H PARENT
REMARK Flexibility Score: inf
ROOT
ATOM      1  C   UNL     1     156.085 155.720 165.740  1.00  0.00     0.000 C 
ENDROOT
BRANCH   1   2
ATOM      2  C   UNL     1     154.804 155.998 166.554  1.00  0.00     0.000 C 
BRANCH   2   3
ATOM      3  C   UNL     1     153.648 156.490 165.671  1.00  0.00     0.006 C 
BRANCH   3   4
ATOM      4  C   UNL     1     153.934 157.893 165.124  1.00  0.00     0.053 C 
BRANCH   4   5
ATOM      5  C   UNL     1     153.675 157.944 163.652  1.00  0.00     0.041 C 
ATOM      6  O   UNL     1     153.289 156.913 163.040  1.00  0.00    -0.550 OA
ATOM      7  O   UNL     1     153.909 159.117 162.944  1.00  0.00    -0.550 OA
ENDBRANCH   4   5
ENDBRANCH   3   4
ENDBRANCH   2   3
ENDBRANCH   1   2
BRANCH   1   8
ATOM      8  C   UNL     1     156.563 154.261 165.819  1.00  0.00     0.000 C 
BRANCH   8   9
ATOM      9  C   UNL     1     155.930 153.365 164.745  1.00  0.00     0.006 C 
BRANCH   9  10
ATOM     10  C   UNL     1     155.375 152.077 165.360  1.00  0.00     0.053 C 
BRANCH  10  11
ATOM     11  C   UNL     1     154.227 152.383 166.268  1.00  0.00     0.041 C 
ATOM     12  O   UNL     1     154.274 152.055 167.482  1.00  0.00    -0.550 OA
ATOM     13  O   UNL     1     153.083 152.988 165.763  1.00  0.00    -0.550 OA
ENDBRANCH  10  11
ENDBRANCH   9  10
ENDBRANCH   8   9
ENDBRANCH   1   8
TORSDOF 8
ENDMDL
MODEL 8
REMARK VINA RESULT:    -3.387      3.353      4.234
REMARK INTER + INTRA:          -5.508
REMARK INTER:                  -5.080
REMARK INTRA:                  -0.427
REMARK UNBOUND:                -0.536
REMARK SMILES O=C([O-])CCCCCCCC(=O)[O-]
REMARK SMILES IDX 7 1 6 2 5 3 4 4 2 5 1 6 3 7 8 8 9 9 10 10 11 11 12 12 13 13
REMARK H PARENT
REMARK Flexibility Score: inf
ROOT
ATOM      1  C   UNL     1     156.246 155.324 166.748  1.00  0.00     0.000 C 
ENDROOT
BRANCH   1   2
ATOM      2  C   UNL     1     156.073 153.927 166.117  1.00  0.00     0.000 C 
BRANCH   2   3
ATOM      3  C   UNL     1     157.213 153.582 165.147  1.00  0.00     0.006 C 
BRANCH   3   4
ATOM      4  C   UNL     1     156.770 153.763 163.691  1.00  0.00     0.053 C 
BRANCH   4   5
ATOM      5  C   UNL     1     157.898 153.456 162.758  1.00  0.00     0.041 C 
ATOM      6  O   UNL     1     158.921 154.190 162.737  1.00  0.00    -0.550 OA
ATOM      7  O   UNL     1     157.799 152.388 161.875  1.00  0.00    -0.550 OA
ENDBRANCH   4   5
ENDBRANCH   3   4
ENDBRANCH   2   3
ENDBRANCH   1   2
BRANCH   1   8
ATOM      8  C   UNL     1     155.541 156.445 165.966  1.00  0.00     0.000 C 
BRANCH   8   9
ATOM      9  C   UNL     1     154.071 156.126 165.657  1.00  0.00     0.006 C 
BRANCH   9  10
ATOM     10  C   UNL     1     153.181 157.349 165.897  1.00  0.00     0.053 C 
BRANCH  10  11
ATOM     11  C   UNL     1     153.649 158.506 165.073  1.00  0.00     0.041 C 
ATOM     12  O   UNL     1     153.915 159.608 165.622  1.00  0.00    -0.550 OA
ATOM     13  O   UNL     1     153.743 158.385 163.693  1.00  0.00    -0.550 OA
ENDBRANCH  10  11
ENDBRANCH   9  10
ENDBRANCH   8   9
ENDBRANCH   1   8
TORSDOF 8
ENDMDL
