MODEL 1
REMARK VINA RESULT:    -4.388      0.000      0.000
REMARK INTER + INTRA:          -7.548
REMARK INTER:                  -6.826
REMARK INTRA:                  -0.723
REMARK UNBOUND:                -0.723
REMARK SMILES COc1cc(CNC(=O)CCCCC=CC(C)C)ccc1O
REMARK SMILES IDX 11 1 12 2 13 3 14 4 15 5 16 6 17 7 18 8 10 9 8 10 9 11 7 12
REMARK SMILES IDX 6 14 5 15 4 16 19 17 3 18 20 19 21 20 2 21 1 22 22 23
REMARK H PARENT 7 13 22 24
REMARK Flexibility Score: inf
ROOT
ATOM      1  C   UNL     1     144.489 150.971 138.400  1.00  0.00     0.010 C 
ENDROOT
BRANCH   1   2
ATOM      2  C   UNL     1     144.562 150.847 139.930  1.00  0.00     0.005 C 
BRANCH   2   3
ATOM      3  C   UNL     1     145.490 149.708 140.377  1.00  0.00     0.027 C 
BRANCH   3   4
ATOM      4  C   UNL     1     145.401 148.531 139.444  1.00  0.00    -0.031 C 
ATOM      5  C   UNL     1     144.512 147.543 139.637  1.00  0.00    -0.028 C 
BRANCH   5   6
ATOM      6  C   UNL     1     144.444 146.358 138.704  1.00  0.00     0.005 C 
ATOM      7  C   UNL     1     145.848 145.957 138.242  1.00  0.00     0.012 C 
ATOM      8  C   UNL     1     143.556 146.677 137.496  1.00  0.00     0.012 C 
ENDBRANCH   5   6
ENDBRANCH   3   4
ENDBRANCH   2   3
ENDBRANCH   1   2
BRANCH   1   9
ATOM      9  C   UNL     1     145.580 151.890 137.835  1.00  0.00     0.100 C 
BRANCH   9  10
ATOM     10  C   UNL     1     145.179 153.324 137.994  1.00  0.00     0.220 C 
ATOM     11  O   UNL     1     143.964 153.645 137.903  1.00  0.00    -0.275 OA
ATOM     12  N   UNL     1     146.169 154.316 138.298  1.00  0.00    -0.352 N 
ATOM     13  H   UNL     1     147.174 154.033 138.313  1.00  0.00     0.163 HD
BRANCH  12  14
ATOM     14  C   UNL     1     145.820 155.635 138.816  1.00  0.00     0.151 C 
BRANCH  14  15
ATOM     15  C   UNL     1     147.065 156.461 138.975  1.00  0.00    -0.025 A 
ATOM     16  C   UNL     1     146.977 157.846 139.185  1.00  0.00     0.056 A 
ATOM     17  C   UNL     1     148.321 155.841 138.986  1.00  0.00     0.009 A 
ATOM     18  C   UNL     1     148.141 158.617 139.382  1.00  0.00     0.160 A 
ATOM     19  C   UNL     1     149.478 156.598 139.176  1.00  0.00     0.050 A 
ATOM     20  C   UNL     1     149.396 157.980 139.372  1.00  0.00     0.157 A 
BRANCH  18  21
ATOM     21  O   UNL     1     148.087 160.004 139.595  1.00  0.00    -0.493 OA
ATOM     22  C   UNL     1     147.487 160.625 140.728  1.00  0.00     0.278 C 
ENDBRANCH  18  21
BRANCH  20  23
ATOM     23  O   UNL     1     150.575 158.705 139.558  1.00  0.00    -0.504 OA
ATOM     24  H   UNL     1     151.240 158.856 138.809  1.00  0.00     0.293 HD
ENDBRANCH  20  23
ENDBRANCH  14  15
ENDBRANCH  12  14
ENDBRANCH   9  10
ENDBRANCH   1   9
TORSDOF 10
ENDMDL
MODEL 2
REMARK VINA RESULT:    -4.263      0.796      2.092
REMARK INTER + INTRA:          -7.353
REMARK INTER:                  -6.607
REMARK INTRA:                  -0.745
REMARK UNBOUND:                -0.723
REMARK SMILES COc1cc(CNC(=O)CCCCC=CC(C)C)ccc1O
REMARK SMILES IDX 11 1 12 2 13 3 14 4 15 5 16 6 17 7 18 8 10 9 8 10 9 11 7 12
REMARK SMILES IDX 6 14 5 15 4 16 19 17 3 18 20 19 21 20 2 21 1 22 22 23
REMARK H PARENT 7 13 22 24
REMARK Flexibility Score: inf
ROOT
ATOM      1  C   UNL     1     144.504 150.960 138.380  1.00  0.00     0.010 C 
ENDROOT
BRANCH   1   2
ATOM      2  C   UNL     1     144.561 150.828 139.910  1.00  0.00     0.005 C 
BRANCH   2   3
ATOM      3  C   UNL     1     145.496 149.695 140.362  1.00  0.00     0.027 C 
BRANCH   3   4
ATOM      4  C   UNL     1     145.425 148.522 139.424  1.00  0.00    -0.031 C 
ATOM      5  C   UNL     1     144.551 147.520 139.611  1.00  0.00    -0.028 C 
BRANCH   5   6
ATOM      6  C   UNL     1     144.502 146.337 138.672  1.00  0.00     0.005 C 
ATOM      7  C   UNL     1     145.914 145.953 138.220  1.00  0.00     0.012 C 
ATOM      8  C   UNL     1     143.620 146.653 137.460  1.00  0.00     0.012 C 
ENDBRANCH   5   6
ENDBRANCH   3   4
ENDBRANCH   2   3
ENDBRANCH   1   2
BRANCH   1   9
ATOM      9  C   UNL     1     145.608 151.873 137.830  1.00  0.00     0.100 C 
BRANCH   9  10
ATOM     10  C   UNL     1     145.203 153.308 137.965  1.00  0.00     0.220 C 
ATOM     11  O   UNL     1     143.994 153.630 137.826  1.00  0.00    -0.275 OA
ATOM     12  N   UNL     1     146.183 154.300 138.302  1.00  0.00    -0.352 N 
ATOM     13  H   UNL     1     147.186 154.015 138.358  1.00  0.00     0.163 HD
BRANCH  12  14
ATOM     14  C   UNL     1     145.816 155.623 138.799  1.00  0.00     0.151 C 
BRANCH  14  15
ATOM     15  C   UNL     1     147.058 156.435 139.036  1.00  0.00    -0.025 A 
ATOM     16  C   UNL     1     148.326 155.843 138.934  1.00  0.00     0.056 A 
ATOM     17  C   UNL     1     146.959 157.809 139.291  1.00  0.00     0.009 A 
ATOM     18  C   UNL     1     149.494 156.612 139.108  1.00  0.00     0.160 A 
ATOM     19  C   UNL     1     148.110 158.577 139.470  1.00  0.00     0.050 A 
ATOM     20  C   UNL     1     149.375 157.988 139.382  1.00  0.00     0.157 A 
BRANCH  18  21
ATOM     21  O   UNL     1     150.776 156.049 139.012  1.00  0.00    -0.493 OA
ATOM     22  C   UNL     1     151.332 155.504 137.819  1.00  0.00     0.278 C 
ENDBRANCH  18  21
BRANCH  20  23
ATOM     23  O   UNL     1     150.505 158.787 139.567  1.00  0.00    -0.504 OA
ATOM     24  H   UNL     1     150.752 159.171 140.471  1.00  0.00     0.293 HD
ENDBRANCH  20  23
ENDBRANCH  14  15
ENDBRANCH  12  14
ENDBRANCH   9  10
ENDBRANCH   1   9
TORSDOF 10
ENDMDL
MODEL 3
REMARK VINA RESULT:    -4.248      3.942      8.007
REMARK INTER + INTRA:          -7.331
REMARK INTER:                  -4.959
REMARK INTRA:                  -2.371
REMARK UNBOUND:                -0.723
REMARK SMILES COc1cc(CNC(=O)CCCCC=CC(C)C)ccc1O
REMARK SMILES IDX 11 1 12 2 13 3 14 4 15 5 16 6 17 7 18 8 10 9 8 10 9 11 7 12
REMARK SMILES IDX 6 14 5 15 4 16 19 17 3 18 20 19 21 20 2 21 1 22 22 23
REMARK H PARENT 7 13 22 24
REMARK Flexibility Score: inf
ROOT
ATOM      1  C   UNL     1     149.709 160.380 137.490  1.00  0.00     0.010 C 
ENDROOT
BRANCH   1   2
ATOM      2  C   UNL     1     150.901 159.410 137.537  1.00  0.00     0.005 C 
BRANCH   2   3
ATOM      3  C   UNL     1     150.770 158.278 136.507  1.00  0.00     0.027 C 
BRANCH   3   4
ATOM      4  C   UNL     1     150.461 156.966 137.174  1.00  0.00    -0.031 C 
ATOM      5  C   UNL     1     150.602 156.797 138.498  1.00  0.00    -0.028 C 
BRANCH   5   6
ATOM      6  C   UNL     1     150.307 155.469 139.154  1.00  0.00     0.005 C 
ATOM      7  C   UNL     1     149.508 154.569 138.207  1.00  0.00     0.012 C 
ATOM      8  C   UNL     1     149.540 155.678 140.465  1.00  0.00     0.012 C 
ENDBRANCH   5   6
ENDBRANCH   3   4
ENDBRANCH   2   3
ENDBRANCH   1   2
BRANCH   1   9
ATOM      9  C   UNL     1     149.402 160.996 138.862  1.00  0.00     0.100 C 
BRANCH   9  10
ATOM     10  C   UNL     1     148.162 160.383 139.435  1.00  0.00     0.220 C 
ATOM     11  O   UNL     1     147.129 161.089 139.581  1.00  0.00    -0.275 OA
ATOM     12  N   UNL     1     148.140 158.989 139.767  1.00  0.00    -0.352 N 
ATOM     13  H   UNL     1     149.025 158.440 139.689  1.00  0.00     0.163 HD
BRANCH  12  14
ATOM     14  C   UNL     1     146.895 158.256 139.980  1.00  0.00     0.151 C 
BRANCH  14  15
ATOM     15  C   UNL     1     146.686 157.278 138.858  1.00  0.00    -0.025 A 
ATOM     16  C   UNL     1     146.124 156.017 139.110  1.00  0.00     0.056 A 
ATOM     17  C   UNL     1     146.987 157.647 137.541  1.00  0.00     0.009 A 
ATOM     18  C   UNL     1     145.883 155.115 138.054  1.00  0.00     0.160 A 
ATOM     19  C   UNL     1     146.756 156.758 136.490  1.00  0.00     0.050 A 
ATOM     20  C   UNL     1     146.208 155.496 136.738  1.00  0.00     0.157 A 
BRANCH  18  21
ATOM     21  O   UNL     1     145.321 153.847 138.272  1.00  0.00    -0.493 OA
ATOM     22  C   UNL     1     143.928 153.594 138.421  1.00  0.00     0.278 C 
ENDBRANCH  18  21
BRANCH  20  23
ATOM     23  O   UNL     1     145.992 154.632 135.663  1.00  0.00    -0.504 OA
ATOM     24  H   UNL     1     146.539 153.790 135.527  1.00  0.00     0.293 HD
ENDBRANCH  20  23
ENDBRANCH  14  15
ENDBRANCH  12  14
ENDBRANCH   9  10
ENDBRANCH   1   9
TORSDOF 10
ENDMDL
MODEL 4
REMARK VINA RESULT:    -4.194      5.871      7.084
REMARK INTER + INTRA:          -7.246
REMARK INTER:                  -5.119
REMARK INTRA:                  -2.127
REMARK UNBOUND:                -0.723
REMARK SMILES COc1cc(CNC(=O)CCCCC=CC(C)C)ccc1O
REMARK SMILES IDX 11 1 12 2 13 3 14 4 15 5 16 6 17 7 18 8 10 9 8 10 9 11 7 12
REMARK SMILES IDX 6 14 5 15 4 16 19 17 3 18 20 19 21 20 2 21 1 22 22 23
REMARK H PARENT 7 13 22 24
REMARK Flexibility Score: inf
ROOT
ATOM      1  C   UNL     1     148.383 146.128 137.178  1.00  0.00     0.010 C 
ENDROOT
BRANCH   1   2
ATOM      2  C   UNL     1     148.047 144.802 137.878  1.00  0.00     0.005 C 
BRANCH   2   3
ATOM      3  C   UNL     1     146.871 144.942 138.856  1.00  0.00     0.027 C 
BRANCH   3   4
ATOM      4  C   UNL     1     145.806 145.849 138.304  1.00  0.00    -0.031 C 
ATOM      5  C   UNL     1     144.786 146.284 139.061  1.00  0.00    -0.028 C 
BRANCH   5   6
ATOM      6  C   UNL     1     143.712 147.179 138.490  1.00  0.00     0.005 C 
ATOM      7  C   UNL     1     142.529 147.280 139.457  1.00  0.00     0.012 C 
ATOM      8  C   UNL     1     143.245 146.654 137.128  1.00  0.00     0.012 C 
ENDBRANCH   5   6
ENDBRANCH   3   4
ENDBRANCH   2   3
ENDBRANCH   1   2
BRANCH   1   9
ATOM      9  C   UNL     1     148.177 146.057 135.659  1.00  0.00     0.100 C 
BRANCH   9  10
ATOM     10  C   UNL     1     147.352 147.219 135.197  1.00  0.00     0.220 C 
ATOM     11  O   UNL     1     146.600 147.089 134.195  1.00  0.00    -0.275 OA
ATOM     12  N   UNL     1     147.383 148.454 135.925  1.00  0.00    -0.352 N 
ATOM     13  H   UNL     1     148.055 148.552 136.718  1.00  0.00     0.163 HD
BRANCH  12  14
ATOM     14  C   UNL     1     146.361 149.484 135.760  1.00  0.00     0.151 C 
BRANCH  14  15
ATOM     15  C   UNL     1     145.819 149.877 137.105  1.00  0.00    -0.025 A 
ATOM     16  C   UNL     1     144.571 150.511 137.211  1.00  0.00     0.056 A 
ATOM     17  C   UNL     1     146.525 149.548 138.269  1.00  0.00     0.009 A 
ATOM     18  C   UNL     1     144.038 150.839 138.474  1.00  0.00     0.160 A 
ATOM     19  C   UNL     1     146.006 149.873 139.523  1.00  0.00     0.050 A 
ATOM     20  C   UNL     1     144.770 150.517 139.633  1.00  0.00     0.157 A 
BRANCH  18  21
ATOM     21  O   UNL     1     142.793 151.473 138.613  1.00  0.00    -0.493 OA
ATOM     22  C   UNL     1     141.535 150.810 138.537  1.00  0.00     0.278 C 
ENDBRANCH  18  21
BRANCH  20  23
ATOM     23  O   UNL     1     144.282 150.828 140.903  1.00  0.00    -0.504 OA
ATOM     24  H   UNL     1     143.517 151.477 141.045  1.00  0.00     0.293 HD
ENDBRANCH  20  23
ENDBRANCH  14  15
ENDBRANCH  12  14
ENDBRANCH   9  10
ENDBRANCH   1   9
TORSDOF 10
ENDMDL
MODEL 5
REMARK VINA RESULT:    -4.135      3.775      8.498
REMARK INTER + INTRA:          -7.154
REMARK INTER:                  -4.817
REMARK INTRA:                  -2.337
REMARK UNBOUND:                -0.723
REMARK SMILES COc1cc(CNC(=O)CCCCC=CC(C)C)ccc1O
REMARK SMILES IDX 11 1 12 2 13 3 14 4 15 5 16 6 17 7 18 8 10 9 8 10 9 11 7 12
REMARK SMILES IDX 6 14 5 15 4 16 19 17 3 18 20 19 21 20 2 21 1 22 22 23
REMARK H PARENT 7 13 22 24
REMARK Flexibility Score: inf
ROOT
ATOM      1  C   UNL     1     150.618 159.965 138.806  1.00  0.00     0.010 C 
ENDROOT
BRANCH   1   2
ATOM      2  C   UNL     1     150.250 160.127 137.323  1.00  0.00     0.005 C 
BRANCH   2   3
ATOM      3  C   UNL     1     150.294 158.792 136.563  1.00  0.00     0.027 C 
BRANCH   3   4
ATOM      4  C   UNL     1     148.917 158.356 136.144  1.00  0.00    -0.031 C 
ATOM      5  C   UNL     1     147.821 159.050 136.491  1.00  0.00    -0.028 C 
BRANCH   5   6
ATOM      6  C   UNL     1     146.441 158.592 136.080  1.00  0.00     0.005 C 
ATOM      7  C   UNL     1     146.530 157.335 135.210  1.00  0.00     0.012 C 
ATOM      8  C   UNL     1     145.708 159.710 135.331  1.00  0.00     0.012 C 
ENDBRANCH   5   6
ENDBRANCH   3   4
ENDBRANCH   2   3
ENDBRANCH   1   2
BRANCH   1   9
ATOM      9  C   UNL     1     149.813 160.903 139.715  1.00  0.00     0.100 C 
BRANCH   9  10
ATOM     10  C   UNL     1     148.429 160.365 139.913  1.00  0.00     0.220 C 
ATOM     11  O   UNL     1     147.437 161.125 139.757  1.00  0.00    -0.275 OA
ATOM     12  N   UNL     1     148.237 158.979 140.227  1.00  0.00    -0.352 N 
ATOM     13  H   UNL     1     149.077 158.384 140.404  1.00  0.00     0.163 HD
BRANCH  12  14
ATOM     14  C   UNL     1     146.946 158.315 140.077  1.00  0.00     0.151 C 
BRANCH  14  15
ATOM     15  C   UNL     1     147.134 156.992 139.390  1.00  0.00    -0.025 A 
ATOM     16  C   UNL     1     146.024 156.262 138.937  1.00  0.00     0.056 A 
ATOM     17  C   UNL     1     148.425 156.513 139.134  1.00  0.00     0.009 A 
ATOM     18  C   UNL     1     146.198 155.044 138.250  1.00  0.00     0.160 A 
ATOM     19  C   UNL     1     148.606 155.305 138.459  1.00  0.00     0.050 A 
ATOM     20  C   UNL     1     147.503 154.568 138.017  1.00  0.00     0.157 A 
BRANCH  18  21
ATOM     21  O   UNL     1     145.109 154.291 137.784  1.00  0.00    -0.493 OA
ATOM     22  C   UNL     1     144.329 153.413 138.590  1.00  0.00     0.278 C 
ENDBRANCH  18  21
BRANCH  20  23
ATOM     23  O   UNL     1     147.722 153.363 137.346  1.00  0.00    -0.504 OA
ATOM     24  H   UNL     1     147.552 153.260 136.352  1.00  0.00     0.293 HD
ENDBRANCH  20  23
ENDBRANCH  14  15
ENDBRANCH  12  14
ENDBRANCH   9  10
ENDBRANCH   1   9
TORSDOF 10
ENDMDL
MODEL 6
REMARK VINA RESULT:    -4.131      3.767      6.814
REMARK INTER + INTRA:          -7.148
REMARK INTER:                  -5.148
REMARK INTRA:                  -2.000
REMARK UNBOUND:                -0.723
REMARK SMILES COc1cc(CNC(=O)CCCCC=CC(C)C)ccc1O
REMARK SMILES IDX 11 1 12 2 13 3 14 4 15 5 16 6 17 7 18 8 10 9 8 10 9 11 7 12
REMARK SMILES IDX 6 14 5 15 4 16 19 17 3 18 20 19 21 20 2 21 1 22 22 23
REMARK H PARENT 7 13 22 24
REMARK Flexibility Score: inf
ROOT
ATOM      1  C   UNL     1     145.854 153.932 136.706  1.00  0.00     0.010 C 
ENDROOT
BRANCH   1   2
ATOM      2  C   UNL     1     146.631 155.139 137.258  1.00  0.00     0.005 C 
BRANCH   2   3
ATOM      3  C   UNL     1     146.154 155.546 138.660  1.00  0.00     0.027 C 
BRANCH   3   4
ATOM      4  C   UNL     1     146.380 157.013 138.909  1.00  0.00    -0.031 C 
ATOM      5  C   UNL     1     147.109 157.767 138.071  1.00  0.00    -0.028 C 
BRANCH   5   6
ATOM      6  C   UNL     1     147.346 159.234 138.341  1.00  0.00     0.005 C 
ATOM      7  C   UNL     1     148.671 159.686 137.720  1.00  0.00     0.012 C 
ATOM      8  C   UNL     1     147.342 159.508 139.848  1.00  0.00     0.012 C 
ENDBRANCH   5   6
ENDBRANCH   3   4
ENDBRANCH   2   3
ENDBRANCH   1   2
BRANCH   1   9
ATOM      9  C   UNL     1     146.604 152.610 136.914  1.00  0.00     0.100 C 
BRANCH   9  10
ATOM     10  C   UNL     1     148.071 152.809 136.686  1.00  0.00     0.220 C 
ATOM     11  O   UNL     1     148.495 153.032 135.522  1.00  0.00    -0.275 OA
ATOM     12  N   UNL     1     148.977 152.795 137.797  1.00  0.00    -0.352 N 
ATOM     13  H   UNL     1     148.607 152.553 138.744  1.00  0.00     0.163 HD
BRANCH  12  14
ATOM     14  C   UNL     1     150.332 153.330 137.707  1.00  0.00     0.151 C 
BRANCH  14  15
ATOM     15  C   UNL     1     150.405 154.646 138.430  1.00  0.00    -0.025 A 
ATOM     16  C   UNL     1     151.116 155.722 137.877  1.00  0.00     0.056 A 
ATOM     17  C   UNL     1     149.701 154.828 139.627  1.00  0.00     0.009 A 
ATOM     18  C   UNL     1     151.147 156.972 138.528  1.00  0.00     0.160 A 
ATOM     19  C   UNL     1     149.731 156.061 140.280  1.00  0.00     0.050 A 
ATOM     20  C   UNL     1     150.450 157.132 139.740  1.00  0.00     0.157 A 
BRANCH  18  21
ATOM     21  O   UNL     1     151.849 158.068 138.001  1.00  0.00    -0.493 OA
ATOM     22  C   UNL     1     152.009 158.333 136.611  1.00  0.00     0.278 C 
ENDBRANCH  18  21
BRANCH  20  23
ATOM     23  O   UNL     1     150.457 158.350 140.422  1.00  0.00    -0.504 OA
ATOM     24  H   UNL     1     150.974 159.154 140.086  1.00  0.00     0.293 HD
ENDBRANCH  20  23
ENDBRANCH  14  15
ENDBRANCH  12  14
ENDBRANCH   9  10
ENDBRANCH   1   9
TORSDOF 10
ENDMDL
MODEL 7
REMARK VINA RESULT:    -4.107      8.575     11.831
REMARK INTER + INTRA:          -7.111
REMARK INTER:                  -4.800
REMARK INTRA:                  -2.312
REMARK UNBOUND:                -0.723
REMARK SMILES COc1cc(CNC(=O)CCCCC=CC(C)C)ccc1O
REMARK SMILES IDX 11 1 12 2 13 3 14 4 15 5 16 6 17 7 18 8 10 9 8 10 9 11 7 12
REMARK SMILES IDX 6 14 5 15 4 16 19 17 3 18 20 19 21 20 2 21 1 22 22 23
REMARK H PARENT 7 13 22 24
REMARK Flexibility Score: inf
ROOT
ATOM      1  C   UNL     1     153.928 155.298 136.704  1.00  0.00     0.010 C 
ENDROOT
BRANCH   1   2
ATOM      2  C   UNL     1     154.296 155.964 138.040  1.00  0.00     0.005 C 
BRANCH   2   3
ATOM      3  C   UNL     1     155.531 155.321 138.690  1.00  0.00     0.027 C 
BRANCH   3   4
ATOM      4  C   UNL     1     156.339 154.551 137.682  1.00  0.00    -0.031 C 
ATOM      5  C   UNL     1     157.682 154.542 137.712  1.00  0.00    -0.028 C 
BRANCH   5   6
ATOM      6  C   UNL     1     158.484 153.781 136.683  1.00  0.00     0.005 C 
ATOM      7  C   UNL     1     157.568 152.884 135.846  1.00  0.00     0.012 C 
ATOM      8  C   UNL     1     159.572 152.945 137.364  1.00  0.00     0.012 C 
ENDBRANCH   5   6
ENDBRANCH   3   4
ENDBRANCH   2   3
ENDBRANCH   1   2
BRANCH   1   9
ATOM      9  C   UNL     1     152.559 154.608 136.752  1.00  0.00     0.100 C 
BRANCH   9  10
ATOM     10  C   UNL     1     152.728 153.122 136.671  1.00  0.00     0.220 C 
ATOM     11  O   UNL     1     152.649 152.546 135.553  1.00  0.00    -0.275 OA
ATOM     12  N   UNL     1     153.030 152.370 137.854  1.00  0.00    -0.352 N 
ATOM     13  H   UNL     1     153.035 152.863 138.774  1.00  0.00     0.163 HD
BRANCH  12  14
ATOM     14  C   UNL     1     153.558 151.009 137.801  1.00  0.00     0.151 C 
BRANCH  14  15
ATOM     15  C   UNL     1     154.911 150.967 138.452  1.00  0.00    -0.025 A 
ATOM     16  C   UNL     1     155.952 150.220 137.881  1.00  0.00     0.056 A 
ATOM     17  C   UNL     1     155.162 151.733 139.598  1.00  0.00     0.009 A 
ATOM     18  C   UNL     1     157.236 150.216 138.462  1.00  0.00     0.160 A 
ATOM     19  C   UNL     1     156.429 151.730 140.183  1.00  0.00     0.050 A 
ATOM     20  C   UNL     1     157.466 150.977 139.624  1.00  0.00     0.157 A 
BRANCH  18  21
ATOM     21  O   UNL     1     158.299 149.479 137.914  1.00  0.00    -0.493 OA
ATOM     22  C   UNL     1     158.555 149.346 136.520  1.00  0.00     0.278 C 
ENDBRANCH  18  21
BRANCH  20  23
ATOM     23  O   UNL     1     158.720 150.998 140.236  1.00  0.00    -0.504 OA
ATOM     24  H   UNL     1     158.835 150.888 141.237  1.00  0.00     0.293 HD
ENDBRANCH  20  23
ENDBRANCH  14  15
ENDBRANCH  12  14
ENDBRANCH   9  10
ENDBRANCH   1   9
TORSDOF 10
ENDMDL
MODEL 8
REMARK VINA RESULT:    -4.089      9.160     13.974
REMARK INTER + INTRA:          -7.082
REMARK INTER:                  -6.484
REMARK INTRA:                  -0.598
REMARK UNBOUND:                -0.723
REMARK SMILES COc1cc(CNC(=O)CCCCC=CC(C)C)ccc1O
REMARK SMILES IDX 11 1 12 2 13 3 14 4 15 5 16 6 17 7 18 8 10 9 8 10 9 11 7 12
REMARK SMILES IDX 6 14 5 15 4 16 19 17 3 18 20 19 21 20 2 21 1 22 22 23
REMARK H PARENT 7 13 22 24
REMARK Flexibility Score: inf
ROOT
ATOM      1  C   UNL     1     156.420 149.535 138.594  1.00  0.00     0.010 C 
ENDROOT
BRANCH   1   2
ATOM      2  C   UNL     1     156.943 150.425 139.734  1.00  0.00     0.005 C 
BRANCH   2   3
ATOM      3  C   UNL     1     155.912 151.478 140.169  1.00  0.00     0.027 C 
BRANCH   3   4
ATOM      4  C   UNL     1     155.932 152.672 139.255  1.00  0.00    -0.031 C 
ATOM      5  C   UNL     1     156.555 153.812 139.596  1.00  0.00    -0.028 C 
BRANCH   5   6
ATOM      6  C   UNL     1     156.552 155.011 138.678  1.00  0.00     0.005 C 
ATOM      7  C   UNL     1     155.119 155.482 138.414  1.00  0.00     0.012 C 
ATOM      8  C   UNL     1     157.255 154.677 137.358  1.00  0.00     0.012 C 
ENDBRANCH   5   6
ENDBRANCH   3   4
ENDBRANCH   2   3
ENDBRANCH   1   2
BRANCH   1   9
ATOM      9  C   UNL     1     157.036 148.130 138.621  1.00  0.00     0.100 C 
BRANCH   9  10
ATOM     10  C   UNL     1     156.080 147.138 138.034  1.00  0.00     0.220 C 
ATOM     11  O   UNL     1     155.643 147.311 136.865  1.00  0.00    -0.275 OA
ATOM     12  N   UNL     1     155.708 145.973 138.781  1.00  0.00    -0.352 N 
ATOM     13  H   UNL     1     156.042 145.881 139.767  1.00  0.00     0.163 HD
BRANCH  12  14
ATOM     14  C   UNL     1     155.090 144.808 138.156  1.00  0.00     0.151 C 
BRANCH  14  15
ATOM     15  C   UNL     1     153.693 144.633 138.682  1.00  0.00    -0.025 A 
ATOM     16  C   UNL     1     153.078 143.372 138.663  1.00  0.00     0.056 A 
ATOM     17  C   UNL     1     153.022 145.717 139.263  1.00  0.00     0.009 A 
ATOM     18  C   UNL     1     151.787 143.194 139.200  1.00  0.00     0.160 A 
ATOM     19  C   UNL     1     151.742 145.551 139.792  1.00  0.00     0.050 A 
ATOM     20  C   UNL     1     151.120 144.299 139.763  1.00  0.00     0.157 A 
BRANCH  18  21
ATOM     21  O   UNL     1     151.145 141.946 139.196  1.00  0.00    -0.493 OA
ATOM     22  C   UNL     1     151.454 140.875 140.082  1.00  0.00     0.278 C 
ENDBRANCH  18  21
BRANCH  20  23
ATOM     23  O   UNL     1     149.838 144.170 140.301  1.00  0.00    -0.504 OA
ATOM     24  H   UNL     1     149.176 143.482 139.961  1.00  0.00     0.293 HD
ENDBRANCH  20  23
ENDBRANCH  14  15
ENDBRANCH  12  14
ENDBRANCH   9  10
ENDBRANCH   1   9
TORSDOF 10
ENDMDL
MODEL 9
REMARK VINA RESULT:    -4.032      6.093     10.019
REMARK INTER + INTRA:          -6.994
REMARK INTER:                  -6.364
REMARK INTRA:                  -0.630
REMARK UNBOUND:                -0.723
REMARK SMILES COc1cc(CNC(=O)CCCCC=CC(C)C)ccc1O
REMARK SMILES IDX 11 1 12 2 13 3 14 4 15 5 16 6 17 7 18 8 10 9 8 10 9 11 7 12
REMARK SMILES IDX 6 14 5 15 4 16 19 17 3 18 20 19 21 20 2 21 1 22 22 23
REMARK H PARENT 7 13 22 24
REMARK Flexibility Score: inf
ROOT
ATOM      1  C   UNL     1     154.494 155.578 138.102  1.00  0.00     0.010 C 
ENDROOT
BRANCH   1   2
ATOM      2  C   UNL     1     155.873 155.168 138.640  1.00  0.00     0.005 C 
BRANCH   2   3
ATOM      3  C   UNL     1     156.872 154.867 137.513  1.00  0.00     0.027 C 
BRANCH   3   4
ATOM      4  C   UNL     1     158.012 154.017 138.005  1.00  0.00    -0.031 C 
ATOM      5  C   UNL     1     158.333 153.952 139.306  1.00  0.00    -0.028 C 
BRANCH   5   6
ATOM      6  C   UNL     1     159.491 153.110 139.787  1.00  0.00     0.005 C 
ATOM      7  C   UNL     1     160.672 154.000 140.186  1.00  0.00     0.012 C 
ATOM      8  C   UNL     1     159.916 152.115 138.702  1.00  0.00     0.012 C 
ENDBRANCH   5   6
ENDBRANCH   3   4
ENDBRANCH   2   3
ENDBRANCH   1   2
BRANCH   1   9
ATOM      9  C   UNL     1     153.882 156.744 138.890  1.00  0.00     0.100 C 
BRANCH   9  10
ATOM     10  C   UNL     1     153.042 157.592 137.986  1.00  0.00     0.220 C 
ATOM     11  O   UNL     1     152.942 157.293 136.766  1.00  0.00    -0.275 OA
ATOM     12  N   UNL     1     152.315 158.707 138.520  1.00  0.00    -0.352 N 
ATOM     13  H   UNL     1     152.458 158.965 139.522  1.00  0.00     0.163 HD
BRANCH  12  14
ATOM     14  C   UNL     1     151.217 159.342 137.798  1.00  0.00     0.151 C 
BRANCH  14  15
ATOM     15  C   UNL     1     149.937 159.162 138.564  1.00  0.00    -0.025 A 
ATOM     16  C   UNL     1     149.362 157.889 138.700  1.00  0.00     0.056 A 
ATOM     17  C   UNL     1     149.346 160.257 139.210  1.00  0.00     0.009 A 
ATOM     18  C   UNL     1     148.188 157.709 139.459  1.00  0.00     0.160 A 
ATOM     19  C   UNL     1     148.181 160.088 139.958  1.00  0.00     0.050 A 
ATOM     20  C   UNL     1     147.598 158.823 140.085  1.00  0.00     0.157 A 
BRANCH  18  21
ATOM     21  O   UNL     1     147.589 156.449 139.614  1.00  0.00    -0.493 OA
ATOM     22  C   UNL     1     146.679 155.866 138.687  1.00  0.00     0.278 C 
ENDBRANCH  18  21
BRANCH  20  23
ATOM     23  O   UNL     1     146.431 158.692 140.841  1.00  0.00    -0.504 OA
ATOM     24  H   UNL     1     145.511 158.680 140.417  1.00  0.00     0.293 HD
ENDBRANCH  20  23
ENDBRANCH  14  15
ENDBRANCH  12  14
ENDBRANCH   9  10
ENDBRANCH   1   9
TORSDOF 10
ENDMDL
