MODEL 1
REMARK VINA RESULT:    -2.727      0.000      0.000
REMARK INTER + INTRA:          -3.930
REMARK INTER:                  -4.003
REMARK INTRA:                   0.073
REMARK UNBOUND:                 0.073
REMARK SMILES CC(C)COC(=O)c1ccccc1C(=O)OCC(C)C
REMARK SMILES IDX 8 1 9 2 10 3 11 4 12 5 13 6 6 7 7 8 5 9 4 10 2 11 1 12 3 13
REMARK SMILES IDX 14 14 15 15 16 16 17 17 18 18 19 19 20 20
REMARK H PARENT
REMARK Flexibility Score: inf
ROOT
ATOM      1  C   UNL     1      47.317  50.234  28.742  1.00  0.00     0.074 A 
ATOM      2  C   UNL     1      46.361  51.265  28.708  1.00  0.00     0.016 A 
ATOM      3  C   UNL     1      45.920  51.791  27.493  1.00  0.00     0.001 A 
ATOM      4  C   UNL     1      46.427  51.296  26.294  1.00  0.00     0.001 A 
ATOM      5  C   UNL     1      47.359  50.258  26.303  1.00  0.00     0.016 A 
ATOM      6  C   UNL     1      47.800  49.697  27.515  1.00  0.00     0.074 A 
ENDROOT
BRANCH   1   7
ATOM      7  C   UNL     1      47.823  49.804  30.065  1.00  0.00     0.339 C 
ATOM      8  O   UNL     1      49.030  49.992  30.379  1.00  0.00    -0.246 OA
BRANCH   7   9
ATOM      9  O   UNL     1      46.937  49.243  30.990  1.00  0.00    -0.462 OA
BRANCH   9  10
ATOM     10  C   UNL     1      45.894  49.990  31.609  1.00  0.00     0.236 C 
BRANCH  10  11
ATOM     11  C   UNL     1      46.490  51.141  32.433  1.00  0.00     0.021 C 
ATOM     12  C   UNL     1      46.280  52.479  31.713  1.00  0.00     0.011 C 
ATOM     13  C   UNL     1      45.875  51.189  33.838  1.00  0.00     0.011 C 
ENDBRANCH  10  11
ENDBRANCH   9  10
ENDBRANCH   7   9
ENDBRANCH   1   7
BRANCH   6  14
ATOM     14  C   UNL     1      48.703  48.526  27.446  1.00  0.00     0.339 C 
ATOM     15  O   UNL     1      48.287  47.380  27.777  1.00  0.00    -0.246 OA
BRANCH  14  16
ATOM     16  O   UNL     1      50.001  48.685  26.953  1.00  0.00    -0.462 OA
BRANCH  16  17
ATOM     17  C   UNL     1      50.301  49.485  25.812  1.00  0.00     0.236 C 
BRANCH  17  18
ATOM     18  C   UNL     1      50.406  48.598  24.563  1.00  0.00     0.021 C 
ATOM     19  C   UNL     1      50.297  49.448  23.293  1.00  0.00     0.011 C 
ATOM     20  C   UNL     1      51.717  47.802  24.561  1.00  0.00     0.011 C 
ENDBRANCH  17  18
ENDBRANCH  16  17
ENDBRANCH  14  16
ENDBRANCH   6  14
TORSDOF 8
ENDMDL
MODEL 2
REMARK VINA RESULT:    -1.435      2.756      6.440
REMARK INTER + INTRA:          -2.033
REMARK INTER:                  -2.099
REMARK INTRA:                   0.065
REMARK UNBOUND:                 0.073
REMARK SMILES CC(C)COC(=O)c1ccccc1C(=O)OCC(C)C
REMARK SMILES IDX 8 1 9 2 10 3 11 4 12 5 13 6 6 7 7 8 5 9 4 10 2 11 1 12 3 13
REMARK SMILES IDX 14 14 15 15 16 16 17 17 18 18 19 19 20 20
REMARK H PARENT
REMARK Flexibility Score: inf
ROOT
ATOM      1  C   UNL     1      49.093  48.093  26.490  1.00  0.00     0.074 A 
ATOM      2  C   UNL     1      50.005  47.465  25.622  1.00  0.00     0.016 A 
ATOM      3  C   UNL     1      50.761  48.212  24.719  1.00  0.00     0.001 A 
ATOM      4  C   UNL     1      50.618  49.597  24.666  1.00  0.00     0.001 A 
ATOM      5  C   UNL     1      49.737  50.243  25.533  1.00  0.00     0.016 A 
ATOM      6  C   UNL     1      48.982  49.512  26.468  1.00  0.00     0.074 A 
ENDROOT
BRANCH   1   7
ATOM      7  C   UNL     1      48.242  47.230  27.341  1.00  0.00     0.339 C 
ATOM      8  O   UNL     1      47.581  47.726  28.294  1.00  0.00    -0.246 OA
BRANCH   7   9
ATOM      9  O   UNL     1      48.130  45.869  27.042  1.00  0.00    -0.462 OA
BRANCH   9  10
ATOM     10  C   UNL     1      47.004  45.319  26.364  1.00  0.00     0.236 C 
BRANCH  10  11
ATOM     11  C   UNL     1      47.337  43.909  25.852  1.00  0.00     0.021 C 
ATOM     12  C   UNL     1      47.377  42.912  27.016  1.00  0.00     0.011 C 
ATOM     13  C   UNL     1      46.323  43.454  24.794  1.00  0.00     0.011 C 
ENDBRANCH  10  11
ENDBRANCH   9  10
ENDBRANCH   7   9
ENDBRANCH   1   7
BRANCH   6  14
ATOM     14  C   UNL     1      48.152  50.272  27.431  1.00  0.00     0.339 C 
ATOM     15  O   UNL     1      46.998  50.665  27.106  1.00  0.00    -0.246 OA
BRANCH  14  16
ATOM     16  O   UNL     1      48.633  50.498  28.724  1.00  0.00    -0.462 OA
BRANCH  16  17
ATOM     17  C   UNL     1      48.506  51.752  29.387  1.00  0.00     0.236 C 
BRANCH  17  18
ATOM     18  C   UNL     1      47.771  51.567  30.722  1.00  0.00     0.021 C 
ATOM     19  C   UNL     1      46.685  52.637  30.889  1.00  0.00     0.011 C 
ATOM     20  C   UNL     1      47.157  50.165  30.824  1.00  0.00     0.011 C 
ENDBRANCH  17  18
ENDBRANCH  16  17
ENDBRANCH  14  16
ENDBRANCH   6  14
TORSDOF 8
ENDMDL
MODEL 3
REMARK VINA RESULT:    -1.392      2.721      4.275
REMARK INTER + INTRA:          -1.970
REMARK INTER:                  -1.984
REMARK INTRA:                   0.013
REMARK UNBOUND:                 0.073
REMARK SMILES CC(C)COC(=O)c1ccccc1C(=O)OCC(C)C
REMARK SMILES IDX 8 1 9 2 10 3 11 4 12 5 13 6 6 7 7 8 5 9 4 10 2 11 1 12 3 13
REMARK SMILES IDX 14 14 15 15 16 16 17 17 18 18 19 19 20 20
REMARK H PARENT
REMARK Flexibility Score: inf
ROOT
ATOM      1  C   UNL     1      48.916  49.532  26.409  1.00  0.00     0.074 A 
ATOM      2  C   UNL     1      49.643  50.261  25.450  1.00  0.00     0.016 A 
ATOM      3  C   UNL     1      50.555  49.623  24.609  1.00  0.00     0.001 A 
ATOM      4  C   UNL     1      50.757  48.249  24.712  1.00  0.00     0.001 A 
ATOM      5  C   UNL     1      50.030  47.503  25.641  1.00  0.00     0.016 A 
ATOM      6  C   UNL     1      49.089  48.121  26.483  1.00  0.00     0.074 A 
ENDROOT
BRANCH   1   7
ATOM      7  C   UNL     1      48.052  50.290  27.344  1.00  0.00     0.339 C 
ATOM      8  O   UNL     1      46.849  50.527  27.049  1.00  0.00    -0.246 OA
BRANCH   7   9
ATOM      9  O   UNL     1      48.563  50.687  28.583  1.00  0.00    -0.462 OA
BRANCH   9  10
ATOM     10  C   UNL     1      47.913  51.643  29.415  1.00  0.00     0.236 C 
BRANCH  10  11
ATOM     11  C   UNL     1      47.698  51.057  30.819  1.00  0.00     0.021 C 
ATOM     12  C   UNL     1      47.144  52.127  31.766  1.00  0.00     0.011 C 
ATOM     13  C   UNL     1      46.756  49.847  30.772  1.00  0.00     0.011 C 
ENDBRANCH  10  11
ENDBRANCH   9  10
ENDBRANCH   7   9
ENDBRANCH   1   7
BRANCH   6  14
ATOM     14  C   UNL     1      48.274  47.254  27.364  1.00  0.00     0.339 C 
ATOM     15  O   UNL     1      47.658  47.744  28.350  1.00  0.00    -0.246 OA
BRANCH  14  16
ATOM     16  O   UNL     1      48.142  45.895  27.059  1.00  0.00    -0.462 OA
BRANCH  16  17
ATOM     17  C   UNL     1      47.022  45.367  26.356  1.00  0.00     0.236 C 
BRANCH  17  18
ATOM     18  C   UNL     1      47.345  43.957  25.839  1.00  0.00     0.021 C 
ATOM     19  C   UNL     1      47.395  42.960  27.002  1.00  0.00     0.011 C 
ATOM     20  C   UNL     1      46.318  43.505  24.794  1.00  0.00     0.011 C 
ENDBRANCH  17  18
ENDBRANCH  16  17
ENDBRANCH  14  16
ENDBRANCH   6  14
TORSDOF 8
ENDMDL
MODEL 4
REMARK VINA RESULT:    -1.243      1.814      2.675
REMARK INTER + INTRA:          -1.750
REMARK INTER:                  -1.627
REMARK INTRA:                  -0.123
REMARK UNBOUND:                 0.073
REMARK SMILES CC(C)COC(=O)c1ccccc1C(=O)OCC(C)C
REMARK SMILES IDX 8 1 9 2 10 3 11 4 12 5 13 6 6 7 7 8 5 9 4 10 2 11 1 12 3 13
REMARK SMILES IDX 14 14 15 15 16 16 17 17 18 18 19 19 20 20
REMARK H PARENT
REMARK Flexibility Score: inf
ROOT
ATOM      1  C   UNL     1      47.979  50.024  28.473  1.00  0.00     0.074 A 
ATOM      2  C   UNL     1      47.812  49.028  29.453  1.00  0.00     0.016 A 
ATOM      3  C   UNL     1      47.763  47.680  29.101  1.00  0.00     0.001 A 
ATOM      4  C   UNL     1      47.879  47.303  27.765  1.00  0.00     0.001 A 
ATOM      5  C   UNL     1      48.069  48.271  26.778  1.00  0.00     0.016 A 
ATOM      6  C   UNL     1      48.145  49.635  27.114  1.00  0.00     0.074 A 
ENDROOT
BRANCH   1   7
ATOM      7  C   UNL     1      47.908  51.438  28.906  1.00  0.00     0.339 C 
ATOM      8  O   UNL     1      48.963  52.111  29.064  1.00  0.00    -0.246 OA
BRANCH   7   9
ATOM      9  O   UNL     1      46.658  52.041  29.077  1.00  0.00    -0.462 OA
BRANCH   9  10
ATOM     10  C   UNL     1      46.256  52.646  30.303  1.00  0.00     0.236 C 
BRANCH  10  11
ATOM     11  C   UNL     1      46.708  51.781  31.489  1.00  0.00     0.021 C 
ATOM     12  C   UNL     1      46.610  52.574  32.798  1.00  0.00     0.011 C 
ATOM     13  C   UNL     1      45.875  50.496  31.581  1.00  0.00     0.011 C 
ENDBRANCH  10  11
ENDBRANCH   9  10
ENDBRANCH   7   9
ENDBRANCH   1   7
BRANCH   6  14
ATOM     14  C   UNL     1      48.460  50.596  26.033  1.00  0.00     0.339 C 
ATOM     15  O   UNL     1      47.733  51.613  25.851  1.00  0.00    -0.246 OA
BRANCH  14  16
ATOM     16  O   UNL     1      49.603  50.403  25.252  1.00  0.00    -0.462 OA
BRANCH  16  17
ATOM     17  C   UNL     1      50.646  49.505  25.620  1.00  0.00     0.236 C 
BRANCH  17  18
ATOM     18  C   UNL     1      51.284  48.899  24.361  1.00  0.00     0.021 C 
ATOM     19  C   UNL     1      51.297  47.369  24.451  1.00  0.00     0.011 C 
ATOM     20  C   UNL     1      50.546  49.352  23.096  1.00  0.00     0.011 C 
ENDBRANCH  17  18
ENDBRANCH  16  17
ENDBRANCH  14  16
ENDBRANCH   6  14
TORSDOF 8
ENDMDL
MODEL 5
REMARK VINA RESULT:    -0.811      2.511      5.701
REMARK INTER + INTRA:          -1.118
REMARK INTER:                  -1.017
REMARK INTRA:                  -0.100
REMARK UNBOUND:                 0.073
REMARK SMILES CC(C)COC(=O)c1ccccc1C(=O)OCC(C)C
REMARK SMILES IDX 8 1 9 2 10 3 11 4 12 5 13 6 6 7 7 8 5 9 4 10 2 11 1 12 3 13
REMARK SMILES IDX 14 14 15 15 16 16 17 17 18 18 19 19 20 20
REMARK H PARENT
REMARK Flexibility Score: inf
ROOT
ATOM      1  C   UNL     1      48.006  50.246  27.606  1.00  0.00     0.074 A 
ATOM      2  C   UNL     1      47.596  51.363  28.356  1.00  0.00     0.016 A 
ATOM      3  C   UNL     1      46.962  51.202  29.587  1.00  0.00     0.001 A 
ATOM      4  C   UNL     1      46.725  49.924  30.089  1.00  0.00     0.001 A 
ATOM      5  C   UNL     1      47.144  48.803  29.373  1.00  0.00     0.016 A 
ATOM      6  C   UNL     1      47.806  48.942  28.140  1.00  0.00     0.074 A 
ENDROOT
BRANCH   1   7
ATOM      7  C   UNL     1      48.570  50.488  26.258  1.00  0.00     0.339 C 
ATOM      8  O   UNL     1      47.915  51.142  25.400  1.00  0.00    -0.246 OA
BRANCH   7   9
ATOM      9  O   UNL     1      49.861  50.040  25.963  1.00  0.00    -0.462 OA
BRANCH   9  10
ATOM     10  C   UNL     1      50.236  49.561  24.674  1.00  0.00     0.236 C 
BRANCH  10  11
ATOM     11  C   UNL     1      51.566  48.798  24.765  1.00  0.00     0.021 C 
ATOM     12  C   UNL     1      51.962  48.584  26.230  1.00  0.00     0.011 C 
ATOM     13  C   UNL     1      51.479  47.451  24.034  1.00  0.00     0.011 C 
ENDBRANCH  10  11
ENDBRANCH   9  10
ENDBRANCH   7   9
ENDBRANCH   1   7
BRANCH   6  14
ATOM     14  C   UNL     1      48.322  47.716  27.490  1.00  0.00     0.339 C 
ATOM     15  O   UNL     1      49.562  47.481  27.465  1.00  0.00    -0.246 OA
BRANCH  14  16
ATOM     16  O   UNL     1      47.421  46.788  26.959  1.00  0.00    -0.462 OA
BRANCH  16  17
ATOM     17  C   UNL     1      47.833  45.669  26.180  1.00  0.00     0.236 C 
BRANCH  17  18
ATOM     18  C   UNL     1      46.828  44.520  26.340  1.00  0.00     0.021 C 
ATOM     19  C   UNL     1      46.315  44.063  24.969  1.00  0.00     0.011 C 
ATOM     20  C   UNL     1      47.454  43.341  27.095  1.00  0.00     0.011 C 
ENDBRANCH  17  18
ENDBRANCH  16  17
ENDBRANCH  14  16
ENDBRANCH   6  14
TORSDOF 8
ENDMDL
MODEL 6
REMARK VINA RESULT:    -0.808      2.512      4.929
REMARK INTER + INTRA:          -1.113
REMARK INTER:                  -1.288
REMARK INTRA:                   0.175
REMARK UNBOUND:                 0.073
REMARK SMILES CC(C)COC(=O)c1ccccc1C(=O)OCC(C)C
REMARK SMILES IDX 8 1 9 2 10 3 11 4 12 5 13 6 6 7 7 8 5 9 4 10 2 11 1 12 3 13
REMARK SMILES IDX 14 14 15 15 16 16 17 17 18 18 19 19 20 20
REMARK H PARENT
REMARK Flexibility Score: inf
ROOT
ATOM      1  C   UNL     1      47.733  48.963  28.131  1.00  0.00     0.074 A 
ATOM      2  C   UNL     1      47.035  48.836  29.346  1.00  0.00     0.016 A 
ATOM      3  C   UNL     1      46.579  49.964  30.029  1.00  0.00     0.001 A 
ATOM      4  C   UNL     1      46.813  51.235  29.511  1.00  0.00     0.001 A 
ATOM      5  C   UNL     1      47.483  51.384  28.296  1.00  0.00     0.016 A 
ATOM      6  C   UNL     1      47.931  50.260  27.579  1.00  0.00     0.074 A 
ENDROOT
BRANCH   1   7
ATOM      7  C   UNL     1      48.286  47.733  27.520  1.00  0.00     0.339 C 
ATOM      8  O   UNL     1      49.533  47.554  27.462  1.00  0.00    -0.246 OA
BRANCH   7   9
ATOM      9  O   UNL     1      47.413  46.741  27.064  1.00  0.00    -0.462 OA
BRANCH   9  10
ATOM     10  C   UNL     1      47.837  45.661  26.236  1.00  0.00     0.236 C 
BRANCH  10  11
ATOM     11  C   UNL     1      46.848  44.491  26.353  1.00  0.00     0.021 C 
ATOM     12  C   UNL     1      46.367  44.057  24.963  1.00  0.00     0.011 C 
ATOM     13  C   UNL     1      47.483  43.305  27.091  1.00  0.00     0.011 C 
ENDBRANCH  10  11
ENDBRANCH   9  10
ENDBRANCH   7   9
ENDBRANCH   1   7
BRANCH   6  14
ATOM     14  C   UNL     1      48.533  50.486  26.245  1.00  0.00     0.339 C 
ATOM     15  O   UNL     1      47.911  51.149  25.369  1.00  0.00    -0.246 OA
BRANCH  14  16
ATOM     16  O   UNL     1      49.821  50.012  25.983  1.00  0.00    -0.462 OA
BRANCH  16  17
ATOM     17  C   UNL     1      50.223  49.537  24.701  1.00  0.00     0.236 C 
BRANCH  17  18
ATOM     18  C   UNL     1      51.559  48.788  24.815  1.00  0.00     0.021 C 
ATOM     19  C   UNL     1      51.912  48.543  26.287  1.00  0.00     0.011 C 
ATOM     20  C   UNL     1      51.514  47.460  24.050  1.00  0.00     0.011 C 
ENDBRANCH  17  18
ENDBRANCH  16  17
ENDBRANCH  14  16
ENDBRANCH   6  14
TORSDOF 8
ENDMDL
MODEL 7
REMARK VINA RESULT:    -0.462     17.888     20.053
REMARK INTER + INTRA:          -0.605
REMARK INTER:                  -1.400
REMARK INTRA:                   0.795
REMARK UNBOUND:                 0.073
REMARK SMILES CC(C)COC(=O)c1ccccc1C(=O)OCC(C)C
REMARK SMILES IDX 8 1 9 2 10 3 11 4 12 5 13 6 6 7 7 8 5 9 4 10 2 11 1 12 3 13
REMARK SMILES IDX 14 14 15 15 16 16 17 17 18 18 19 19 20 20
REMARK H PARENT
REMARK Flexibility Score: inf
ROOT
ATOM      1  C   UNL     1      65.849  54.248  21.818  1.00  0.00     0.074 A 
ATOM      2  C   UNL     1      66.054  53.434  22.947  1.00  0.00     0.016 A 
ATOM      3  C   UNL     1      66.074  53.983  24.229  1.00  0.00     0.001 A 
ATOM      4  C   UNL     1      65.891  55.353  24.405  1.00  0.00     0.001 A 
ATOM      5  C   UNL     1      65.662  56.176  23.301  1.00  0.00     0.016 A 
ATOM      6  C   UNL     1      65.615  55.640  22.002  1.00  0.00     0.074 A 
ENDROOT
BRANCH   1   7
ATOM      7  C   UNL     1      65.953  53.616  20.483  1.00  0.00     0.339 C 
ATOM      8  O   UNL     1      65.946  54.324  19.439  1.00  0.00    -0.246 OA
BRANCH   7   9
ATOM      9  O   UNL     1      66.123  52.232  20.390  1.00  0.00    -0.462 OA
BRANCH   9  10
ATOM     10  C   UNL     1      65.839  51.497  19.202  1.00  0.00     0.236 C 
BRANCH  10  11
ATOM     11  C   UNL     1      66.120  50.004  19.429  1.00  0.00     0.021 C 
ATOM     12  C   UNL     1      65.557  49.552  20.781  1.00  0.00     0.011 C 
ATOM     13  C   UNL     1      65.530  49.155  18.295  1.00  0.00     0.011 C 
ENDBRANCH  10  11
ENDBRANCH   9  10
ENDBRANCH   7   9
ENDBRANCH   1   7
BRANCH   6  14
ATOM     14  C   UNL     1      65.257  56.551  20.892  1.00  0.00     0.339 C 
ATOM     15  O   UNL     1      66.125  56.892  20.041  1.00  0.00    -0.246 OA
BRANCH  14  16
ATOM     16  O   UNL     1      63.934  56.984  20.756  1.00  0.00    -0.462 OA
BRANCH  16  17
ATOM     17  C   UNL     1      63.163  57.464  21.854  1.00  0.00     0.236 C 
BRANCH  17  18
ATOM     18  C   UNL     1      61.694  57.620  21.433  1.00  0.00     0.021 C 
ATOM     19  C   UNL     1      61.182  59.020  21.789  1.00  0.00     0.011 C 
ATOM     20  C   UNL     1      61.519  57.353  19.933  1.00  0.00     0.011 C 
ENDBRANCH  17  18
ENDBRANCH  16  17
ENDBRANCH  14  16
ENDBRANCH   6  14
TORSDOF 8
ENDMDL
