MODEL 1
REMARK VINA RESULT:    -5.264      0.000      0.000
REMARK INTER + INTRA:          -6.327
REMARK INTER:                  -6.341
REMARK INTRA:                   0.014
REMARK UNBOUND:                 0.014
REMARK SMILES O=c1c(O)c(-c2ccc(O)c(O)c2)oc2cc(O)cc(O)c12
REMARK SMILES IDX 5 1 3 2 2 3 1 4 22 5 20 6 19 7 17 8 16 9 15 10 14 11 6 12
REMARK SMILES IDX 7 13 8 14 9 15 13 16 11 17 10 18 12 20 4 22 21 24 18 26
REMARK H PARENT 10 19 12 21 4 23 21 25 18 27
REMARK Flexibility Score: inf
ROOT
ATOM      1  C   UNL     1       6.416  -0.695  -3.748  1.00  0.00     0.180 A 
ATOM      2  C   UNL     1       7.412  -0.069  -4.518  1.00  0.00     0.208 A 
ATOM      3  C   UNL     1       7.189   1.236  -4.988  1.00  0.00     0.238 A 
ATOM      4  O   UNL     1       8.061   1.771  -5.722  1.00  0.00    -0.285 OA
ATOM      5  C   UNL     1       5.982   1.903  -4.669  1.00  0.00     0.111 A 
ATOM      6  C   UNL     1       5.668   3.240  -5.059  1.00  0.00     0.134 A 
ATOM      7  C   UNL     1       4.391   3.753  -4.799  1.00  0.00     0.093 A 
ATOM      8  C   UNL     1       3.440   3.000  -4.107  1.00  0.00     0.123 A 
ATOM      9  C   UNL     1       3.757   1.716  -3.671  1.00  0.00     0.094 A 
ATOM     10  C   UNL     1       5.010   1.163  -3.946  1.00  0.00     0.146 A 
ATOM     11  O   UNL     1       5.268  -0.069  -3.522  1.00  0.00    -0.452 OA
ENDROOT
BRANCH   1  12
ATOM     12  C   UNL     1       6.588  -2.059  -3.196  1.00  0.00     0.025 A 
ATOM     13  C   UNL     1       6.998  -3.131  -4.008  1.00  0.00     0.016 A 
ATOM     14  C   UNL     1       7.178  -4.404  -3.460  1.00  0.00     0.051 A 
ATOM     15  C   UNL     1       6.963  -4.620  -2.092  1.00  0.00     0.157 A 
ATOM     16  C   UNL     1       6.395  -2.277  -1.823  1.00  0.00     0.062 A 
ATOM     17  C   UNL     1       6.573  -3.554  -1.271  1.00  0.00     0.158 A 
BRANCH  15  18
ATOM     18  O   UNL     1       7.139  -5.889  -1.542  1.00  0.00    -0.504 OA
ATOM     19  H   UNL     1       7.020  -6.058  -0.550  1.00  0.00     0.293 HD
ENDBRANCH  15  18
BRANCH  17  20
ATOM     20  O   UNL     1       6.368  -3.771   0.091  1.00  0.00    -0.504 OA
ATOM     21  H   UNL     1       6.328  -3.002   0.749  1.00  0.00     0.293 HD
ENDBRANCH  17  20
ENDBRANCH   1  12
BRANCH   2  22
ATOM     22  O   UNL     1       8.587  -0.754  -4.839  1.00  0.00    -0.502 OA
ATOM     23  H   UNL     1       9.245  -1.064  -4.133  1.00  0.00     0.293 HD
ENDBRANCH   2  22
BRANCH   6  24
ATOM     24  O   UNL     1       6.576   4.107  -5.672  1.00  0.00    -0.507 OA
ATOM     25  H   UNL     1       7.308   3.821  -6.304  1.00  0.00     0.293 HD
ENDBRANCH   6  24
BRANCH   8  26
ATOM     26  O   UNL     1       2.176   3.524  -3.841  1.00  0.00    -0.508 OA
ATOM     27  H   UNL     1       1.838   3.635  -2.893  1.00  0.00     0.293 HD
ENDBRANCH   8  26
TORSDOF 6
ENDMDL
MODEL 2
REMARK VINA RESULT:    -5.100      2.036      3.185
REMARK INTER + INTRA:          -6.130
REMARK INTER:                  -5.796
REMARK INTRA:                  -0.334
REMARK UNBOUND:                 0.014
REMARK SMILES O=c1c(O)c(-c2ccc(O)c(O)c2)oc2cc(O)cc(O)c12
REMARK SMILES IDX 5 1 3 2 2 3 1 4 22 5 20 6 19 7 17 8 16 9 15 10 14 11 6 12
REMARK SMILES IDX 7 13 8 14 9 15 13 16 11 17 10 18 12 20 4 22 21 24 18 26
REMARK H PARENT 10 19 12 21 4 23 21 25 18 27
REMARK Flexibility Score: inf
ROOT
ATOM      1  C   UNL     1       6.246  -0.248  -4.067  1.00  0.00     0.180 A 
ATOM      2  C   UNL     1       4.962  -0.365  -3.506  1.00  0.00     0.208 A 
ATOM      3  C   UNL     1       4.119   0.759  -3.497  1.00  0.00     0.238 A 
ATOM      4  O   UNL     1       2.991   0.664  -2.944  1.00  0.00    -0.285 OA
ATOM      5  C   UNL     1       4.563   1.977  -4.062  1.00  0.00     0.111 A 
ATOM      6  C   UNL     1       3.777   3.167  -4.144  1.00  0.00     0.134 A 
ATOM      7  C   UNL     1       4.364   4.351  -4.607  1.00  0.00     0.093 A 
ATOM      8  C   UNL     1       5.688   4.373  -5.051  1.00  0.00     0.123 A 
ATOM      9  C   UNL     1       6.444   3.204  -5.031  1.00  0.00     0.094 A 
ATOM     10  C   UNL     1       5.899   2.015  -4.542  1.00  0.00     0.146 A 
ATOM     11  O   UNL     1       6.658   0.925  -4.530  1.00  0.00    -0.452 OA
ENDROOT
BRANCH   1  12
ATOM     12  C   UNL     1       7.181  -1.394  -4.135  1.00  0.00     0.025 A 
ATOM     13  C   UNL     1       7.171  -2.284  -5.223  1.00  0.00     0.016 A 
ATOM     14  C   UNL     1       8.080  -3.344  -5.278  1.00  0.00     0.051 A 
ATOM     15  C   UNL     1       9.019  -3.522  -4.254  1.00  0.00     0.157 A 
ATOM     16  C   UNL     1       8.139  -1.566  -3.122  1.00  0.00     0.062 A 
ATOM     17  C   UNL     1       9.051  -2.630  -3.175  1.00  0.00     0.158 A 
BRANCH  15  18
ATOM     18  O   UNL     1       9.926  -4.580  -4.305  1.00  0.00    -0.504 OA
ATOM     19  H   UNL     1      10.560  -4.772  -3.538  1.00  0.00     0.293 HD
ENDBRANCH  15  18
BRANCH  17  20
ATOM     20  O   UNL     1       9.992  -2.805  -2.162  1.00  0.00    -0.504 OA
ATOM     21  H   UNL     1       9.795  -3.376  -1.349  1.00  0.00     0.293 HD
ENDBRANCH  17  20
ENDBRANCH   1  12
BRANCH   2  22
ATOM     22  O   UNL     1       4.552  -1.571  -2.933  1.00  0.00    -0.502 OA
ATOM     23  H   UNL     1       4.819  -1.847  -1.995  1.00  0.00     0.293 HD
ENDBRANCH   2  22
BRANCH   6  24
ATOM     24  O   UNL     1       2.422   3.230  -3.813  1.00  0.00    -0.507 OA
ATOM     25  H   UNL     1       1.803   3.986  -4.064  1.00  0.00     0.293 HD
ENDBRANCH   6  24
BRANCH   8  26
ATOM     26  O   UNL     1       6.260   5.553  -5.523  1.00  0.00    -0.508 OA
ATOM     27  H   UNL     1       5.895   6.029  -6.339  1.00  0.00     0.293 HD
ENDBRANCH   8  26
TORSDOF 6
ENDMDL
MODEL 3
REMARK VINA RESULT:    -4.977      1.824      7.252
REMARK INTER + INTRA:          -5.982
REMARK INTER:                  -5.660
REMARK INTRA:                  -0.322
REMARK UNBOUND:                 0.014
REMARK SMILES O=c1c(O)c(-c2ccc(O)c(O)c2)oc2cc(O)cc(O)c12
REMARK SMILES IDX 5 1 3 2 2 3 1 4 22 5 20 6 19 7 17 8 16 9 15 10 14 11 6 12
REMARK SMILES IDX 7 13 8 14 9 15 13 16 11 17 10 18 12 20 4 22 21 24 18 26
REMARK H PARENT 10 19 12 21 4 23 21 25 18 27
REMARK Flexibility Score: inf
ROOT
ATOM      1  C   UNL     1       5.697   1.198  -4.548  1.00  0.00     0.180 A 
ATOM      2  C   UNL     1       4.486   0.876  -3.910  1.00  0.00     0.208 A 
ATOM      3  C   UNL     1       4.412  -0.300  -3.145  1.00  0.00     0.238 A 
ATOM      4  O   UNL     1       3.311  -0.611  -2.621  1.00  0.00    -0.285 OA
ATOM      5  C   UNL     1       5.552  -1.128  -3.015  1.00  0.00     0.111 A 
ATOM      6  C   UNL     1       5.601  -2.321  -2.232  1.00  0.00     0.134 A 
ATOM      7  C   UNL     1       6.742  -3.132  -2.281  1.00  0.00     0.093 A 
ATOM      8  C   UNL     1       7.859  -2.760  -3.033  1.00  0.00     0.123 A 
ATOM      9  C   UNL     1       7.842  -1.567  -3.753  1.00  0.00     0.094 A 
ATOM     10  C   UNL     1       6.706  -0.755  -3.753  1.00  0.00     0.146 A 
ATOM     11  O   UNL     1       6.728   0.367  -4.462  1.00  0.00    -0.452 OA
ENDROOT
BRANCH   1  12
ATOM     12  C   UNL     1       5.860   2.433  -5.350  1.00  0.00     0.025 A 
ATOM     13  C   UNL     1       5.595   2.451  -6.731  1.00  0.00     0.016 A 
ATOM     14  C   UNL     1       5.733   3.633  -7.462  1.00  0.00     0.051 A 
ATOM     15  C   UNL     1       6.123   4.817  -6.822  1.00  0.00     0.157 A 
ATOM     16  C   UNL     1       6.231   3.628  -4.711  1.00  0.00     0.062 A 
ATOM     17  C   UNL     1       6.370   4.815  -5.443  1.00  0.00     0.158 A 
BRANCH  15  18
ATOM     18  O   UNL     1       6.263   5.999  -7.548  1.00  0.00    -0.504 OA
ATOM     19  H   UNL     1       6.457   5.990  -8.543  1.00  0.00     0.293 HD
ENDBRANCH  15  18
BRANCH  17  20
ATOM     20  O   UNL     1       6.751   5.997  -4.809  1.00  0.00    -0.504 OA
ATOM     21  H   UNL     1       7.586   6.500  -5.083  1.00  0.00     0.293 HD
ENDBRANCH  17  20
ENDBRANCH   1  12
BRANCH   2  22
ATOM     22  O   UNL     1       3.367   1.698  -4.069  1.00  0.00    -0.502 OA
ATOM     23  H   UNL     1       3.264   2.577  -3.576  1.00  0.00     0.293 HD
ENDBRANCH   2  22
BRANCH   6  24
ATOM     24  O   UNL     1       4.577  -2.736  -1.377  1.00  0.00    -0.507 OA
ATOM     25  H   UNL     1       3.855  -2.135  -1.012  1.00  0.00     0.293 HD
ENDBRANCH   6  24
BRANCH   8  26
ATOM     26  O   UNL     1       8.995  -3.565  -3.064  1.00  0.00    -0.508 OA
ATOM     27  H   UNL     1       8.995  -4.499  -2.670  1.00  0.00     0.293 HD
ENDBRANCH   8  26
TORSDOF 6
ENDMDL
MODEL 4
REMARK VINA RESULT:    -4.903      1.814      7.033
REMARK INTER + INTRA:          -5.892
REMARK INTER:                  -5.928
REMARK INTRA:                   0.036
REMARK UNBOUND:                 0.014
REMARK SMILES O=c1c(O)c(-c2ccc(O)c(O)c2)oc2cc(O)cc(O)c12
REMARK SMILES IDX 5 1 3 2 2 3 1 4 22 5 20 6 19 7 17 8 16 9 15 10 14 11 6 12
REMARK SMILES IDX 7 13 8 14 9 15 13 16 11 17 10 18 12 20 4 22 21 24 18 26
REMARK H PARENT 10 19 12 21 4 23 21 25 18 27
REMARK Flexibility Score: inf
ROOT
ATOM      1  C   UNL     1       5.909  -1.037  -3.766  1.00  0.00     0.180 A 
ATOM      2  C   UNL     1       5.958  -1.845  -2.616  1.00  0.00     0.208 A 
ATOM      3  C   UNL     1       6.742  -3.010  -2.637  1.00  0.00     0.238 A 
ATOM      4  O   UNL     1       6.738  -3.758  -1.624  1.00  0.00    -0.285 OA
ATOM      5  C   UNL     1       7.478  -3.344  -3.798  1.00  0.00     0.111 A 
ATOM      6  C   UNL     1       8.336  -4.479  -3.915  1.00  0.00     0.134 A 
ATOM      7  C   UNL     1       8.913  -4.782  -5.154  1.00  0.00     0.093 A 
ATOM      8  C   UNL     1       8.716  -3.956  -6.263  1.00  0.00     0.123 A 
ATOM      9  C   UNL     1       7.928  -2.814  -6.143  1.00  0.00     0.094 A 
ATOM     10  C   UNL     1       7.309  -2.503  -4.930  1.00  0.00     0.146 A 
ATOM     11  O   UNL     1       6.558  -1.411  -4.861  1.00  0.00    -0.452 OA
ENDROOT
BRANCH   1  12
ATOM     12  C   UNL     1       5.126   0.220  -3.812  1.00  0.00     0.025 A 
ATOM     13  C   UNL     1       3.790   0.267  -3.377  1.00  0.00     0.016 A 
ATOM     14  C   UNL     1       3.079   1.469  -3.407  1.00  0.00     0.051 A 
ATOM     15  C   UNL     1       3.695   2.643  -3.860  1.00  0.00     0.157 A 
ATOM     16  C   UNL     1       5.745   1.404  -4.245  1.00  0.00     0.062 A 
ATOM     17  C   UNL     1       5.032   2.611  -4.277  1.00  0.00     0.158 A 
BRANCH  15  18
ATOM     18  O   UNL     1       2.988   3.844  -3.894  1.00  0.00    -0.504 OA
ATOM     19  H   UNL     1       2.744   4.291  -4.769  1.00  0.00     0.293 HD
ENDBRANCH  15  18
BRANCH  17  20
ATOM     20  O   UNL     1       5.645   3.782  -4.720  1.00  0.00    -0.504 OA
ATOM     21  H   UNL     1       5.103   4.587  -5.009  1.00  0.00     0.293 HD
ENDBRANCH  17  20
ENDBRANCH   1  12
BRANCH   2  22
ATOM     22  O   UNL     1       5.206  -1.508  -1.488  1.00  0.00    -0.502 OA
ATOM     23  H   UNL     1       4.470  -2.104  -1.127  1.00  0.00     0.293 HD
ENDBRANCH   2  22
BRANCH   6  24
ATOM     24  O   UNL     1       8.672  -5.315  -2.848  1.00  0.00    -0.507 OA
ATOM     25  H   UNL     1       8.016  -5.686  -2.179  1.00  0.00     0.293 HD
ENDBRANCH   6  24
BRANCH   8  26
ATOM     26  O   UNL     1       9.306  -4.258  -7.489  1.00  0.00    -0.508 OA
ATOM     27  H   UNL     1       9.985  -5.003  -7.581  1.00  0.00     0.293 HD
ENDBRANCH   8  26
TORSDOF 6
ENDMDL
MODEL 5
REMARK VINA RESULT:    -4.810      1.900      6.744
REMARK INTER + INTRA:          -5.781
REMARK INTER:                  -5.547
REMARK INTRA:                  -0.233
REMARK UNBOUND:                 0.014
REMARK SMILES O=c1c(O)c(-c2ccc(O)c(O)c2)oc2cc(O)cc(O)c12
REMARK SMILES IDX 5 1 3 2 2 3 1 4 22 5 20 6 19 7 17 8 16 9 15 10 14 11 6 12
REMARK SMILES IDX 7 13 8 14 9 15 13 16 11 17 10 18 12 20 4 22 21 24 18 26
REMARK H PARENT 10 19 12 21 4 23 21 25 18 27
REMARK Flexibility Score: inf
ROOT
ATOM      1  C   UNL     1       5.762   0.242  -4.492  1.00  0.00     0.180 A 
ATOM      2  C   UNL     1       7.103  -0.174  -4.574  1.00  0.00     0.208 A 
ATOM      3  C   UNL     1       7.510  -1.305  -3.847  1.00  0.00     0.238 A 
ATOM      4  O   UNL     1       8.723  -1.639  -3.882  1.00  0.00    -0.285 OA
ATOM      5  C   UNL     1       6.571  -2.013  -3.062  1.00  0.00     0.111 A 
ATOM      6  C   UNL     1       6.865  -3.196  -2.318  1.00  0.00     0.134 A 
ATOM      7  C   UNL     1       5.890  -3.739  -1.472  1.00  0.00     0.093 A 
ATOM      8  C   UNL     1       4.611  -3.182  -1.395  1.00  0.00     0.123 A 
ATOM      9  C   UNL     1       4.297  -2.063  -2.163  1.00  0.00     0.094 A 
ATOM     10  C   UNL     1       5.258  -1.476  -2.988  1.00  0.00     0.146 A 
ATOM     11  O   UNL     1       4.920  -0.405  -3.695  1.00  0.00    -0.452 OA
ENDROOT
BRANCH   1  12
ATOM     12  C   UNL     1       5.252   1.409  -5.249  1.00  0.00     0.025 A 
ATOM     13  C   UNL     1       4.960   2.626  -4.609  1.00  0.00     0.016 A 
ATOM     14  C   UNL     1       4.503   3.720  -5.348  1.00  0.00     0.051 A 
ATOM     15  C   UNL     1       4.343   3.618  -6.736  1.00  0.00     0.157 A 
ATOM     16  C   UNL     1       5.109   1.318  -6.643  1.00  0.00     0.062 A 
ATOM     17  C   UNL     1       4.649   2.415  -7.385  1.00  0.00     0.158 A 
BRANCH  15  18
ATOM     18  O   UNL     1       3.885   4.707  -7.476  1.00  0.00    -0.504 OA
ATOM     19  H   UNL     1       3.713   5.607  -7.044  1.00  0.00     0.293 HD
ENDBRANCH  15  18
BRANCH  17  20
ATOM     20  O   UNL     1       4.496   2.319  -8.768  1.00  0.00    -0.504 OA
ATOM     21  H   UNL     1       5.074   1.699  -9.323  1.00  0.00     0.293 HD
ENDBRANCH  17  20
ENDBRANCH   1  12
BRANCH   2  22
ATOM     22  O   UNL     1       8.018   0.554  -5.338  1.00  0.00    -0.502 OA
ATOM     23  H   UNL     1       8.855   0.136  -5.728  1.00  0.00     0.293 HD
ENDBRANCH   2  22
BRANCH   6  24
ATOM     24  O   UNL     1       8.078  -3.883  -2.394  1.00  0.00    -0.507 OA
ATOM     25  H   UNL     1       8.440  -4.493  -1.676  1.00  0.00     0.293 HD
ENDBRANCH   6  24
BRANCH   8  26
ATOM     26  O   UNL     1       3.643  -3.738  -0.562  1.00  0.00    -0.508 OA
ATOM     27  H   UNL     1       3.893  -4.244   0.279  1.00  0.00     0.293 HD
ENDBRANCH   8  26
TORSDOF 6
ENDMDL
MODEL 6
REMARK VINA RESULT:    -4.797      2.131      3.830
REMARK INTER + INTRA:          -5.764
REMARK INTER:                  -5.791
REMARK INTRA:                   0.026
REMARK UNBOUND:                 0.014
REMARK SMILES O=c1c(O)c(-c2ccc(O)c(O)c2)oc2cc(O)cc(O)c12
REMARK SMILES IDX 5 1 3 2 2 3 1 4 22 5 20 6 19 7 17 8 16 9 15 10 14 11 6 12
REMARK SMILES IDX 7 13 8 14 9 15 13 16 11 17 10 18 12 20 4 22 21 24 18 26
REMARK H PARENT 10 19 12 21 4 23 21 25 18 27
REMARK Flexibility Score: inf
ROOT
ATOM      1  C   UNL     1       4.448  -0.074  -3.348  1.00  0.00     0.180 A 
ATOM      2  C   UNL     1       3.669   1.096  -3.381  1.00  0.00     0.208 A 
ATOM      3  C   UNL     1       4.186   2.240  -4.011  1.00  0.00     0.238 A 
ATOM      4  O   UNL     1       3.507   3.300  -3.990  1.00  0.00    -0.285 OA
ATOM      5  C   UNL     1       5.467   2.195  -4.611  1.00  0.00     0.111 A 
ATOM      6  C   UNL     1       6.072   3.283  -5.310  1.00  0.00     0.134 A 
ATOM      7  C   UNL     1       7.396   3.168  -5.752  1.00  0.00     0.093 A 
ATOM      8  C   UNL     1       8.114   1.983  -5.576  1.00  0.00     0.123 A 
ATOM      9  C   UNL     1       7.511   0.896  -4.948  1.00  0.00     0.094 A 
ATOM     10  C   UNL     1       6.204   0.991  -4.465  1.00  0.00     0.146 A 
ATOM     11  O   UNL     1       5.671  -0.065  -3.862  1.00  0.00    -0.452 OA
ENDROOT
BRANCH   1  12
ATOM     12  C   UNL     1       3.960  -1.327  -2.725  1.00  0.00     0.025 A 
ATOM     13  C   UNL     1       2.667  -1.816  -2.979  1.00  0.00     0.016 A 
ATOM     14  C   UNL     1       2.238  -3.013  -2.400  1.00  0.00     0.051 A 
ATOM     15  C   UNL     1       3.098  -3.743  -1.570  1.00  0.00     0.157 A 
ATOM     16  C   UNL     1       4.825  -2.074  -1.909  1.00  0.00     0.062 A 
ATOM     17  C   UNL     1       4.395  -3.275  -1.327  1.00  0.00     0.158 A 
BRANCH  15  18
ATOM     18  O   UNL     1       2.673  -4.937  -0.989  1.00  0.00    -0.504 OA
ATOM     19  H   UNL     1       1.775  -5.011  -0.525  1.00  0.00     0.293 HD
ENDBRANCH  15  18
BRANCH  17  20
ATOM     20  O   UNL     1       5.251  -4.009  -0.507  1.00  0.00    -0.504 OA
ATOM     21  H   UNL     1       5.303  -5.019  -0.564  1.00  0.00     0.293 HD
ENDBRANCH  17  20
ENDBRANCH   1  12
BRANCH   2  22
ATOM     22  O   UNL     1       2.416   1.124  -2.763  1.00  0.00    -0.502 OA
ATOM     23  H   UNL     1       1.598   0.689  -3.172  1.00  0.00     0.293 HD
ENDBRANCH   2  22
BRANCH   6  24
ATOM     24  O   UNL     1       5.413   4.476  -5.619  1.00  0.00    -0.507 OA
ATOM     25  H   UNL     1       5.381   5.286  -5.020  1.00  0.00     0.293 HD
ENDBRANCH   6  24
BRANCH   8  26
ATOM     26  O   UNL     1       9.426   1.873  -6.032  1.00  0.00    -0.508 OA
ATOM     27  H   UNL     1       9.995   1.063  -5.818  1.00  0.00     0.293 HD
ENDBRANCH   8  26
TORSDOF 6
ENDMDL
MODEL 7
REMARK VINA RESULT:    -4.743      3.304      5.378
REMARK INTER + INTRA:          -5.699
REMARK INTER:                  -5.570
REMARK INTRA:                  -0.129
REMARK UNBOUND:                 0.014
REMARK SMILES O=c1c(O)c(-c2ccc(O)c(O)c2)oc2cc(O)cc(O)c12
REMARK SMILES IDX 5 1 3 2 2 3 1 4 22 5 20 6 19 7 17 8 16 9 15 10 14 11 6 12
REMARK SMILES IDX 7 13 8 14 9 15 13 16 11 17 10 18 12 20 4 22 21 24 18 26
REMARK H PARENT 10 19 12 21 4 23 21 25 18 27
REMARK Flexibility Score: inf
ROOT
ATOM      1  C   UNL     1       4.950   3.350  -6.155  1.00  0.00     0.180 A 
ATOM      2  C   UNL     1       6.174   4.014  -6.346  1.00  0.00     0.208 A 
ATOM      3  C   UNL     1       6.232   5.084  -7.255  1.00  0.00     0.238 A 
ATOM      4  O   UNL     1       7.343   5.640  -7.463  1.00  0.00    -0.285 OA
ATOM      5  C   UNL     1       5.065   5.485  -7.947  1.00  0.00     0.111 A 
ATOM      6  C   UNL     1       5.000   6.581  -8.860  1.00  0.00     0.134 A 
ATOM      7  C   UNL     1       3.824   6.806  -9.586  1.00  0.00     0.093 A 
ATOM      8  C   UNL     1       2.690   6.015  -9.384  1.00  0.00     0.123 A 
ATOM      9  C   UNL     1       2.726   4.981  -8.452  1.00  0.00     0.094 A 
ATOM     10  C   UNL     1       3.895   4.709  -7.738  1.00  0.00     0.146 A 
ATOM     11  O   UNL     1       3.888   3.707  -6.867  1.00  0.00    -0.452 OA
ENDROOT
BRANCH   1  12
ATOM     12  C   UNL     1       4.804   2.231  -5.195  1.00  0.00     0.025 A 
ATOM     13  C   UNL     1       3.923   2.312  -4.103  1.00  0.00     0.016 A 
ATOM     14  C   UNL     1       3.784   1.234  -3.225  1.00  0.00     0.051 A 
ATOM     15  C   UNL     1       4.512   0.056  -3.433  1.00  0.00     0.157 A 
ATOM     16  C   UNL     1       5.516   1.039  -5.411  1.00  0.00     0.062 A 
ATOM     17  C   UNL     1       5.378  -0.043  -4.530  1.00  0.00     0.158 A 
BRANCH  15  18
ATOM     18  O   UNL     1       4.378  -1.021  -2.558  1.00  0.00    -0.504 OA
ATOM     19  H   UNL     1       3.473  -1.428  -2.353  1.00  0.00     0.293 HD
ENDBRANCH  15  18
BRANCH  17  20
ATOM     20  O   UNL     1       6.096  -1.220  -4.738  1.00  0.00    -0.504 OA
ATOM     21  H   UNL     1       5.802  -2.099  -4.328  1.00  0.00     0.293 HD
ENDBRANCH  17  20
ENDBRANCH   1  12
BRANCH   2  22
ATOM     22  O   UNL     1       7.319   3.588  -5.669  1.00  0.00    -0.502 OA
ATOM     23  H   UNL     1       7.797   2.725  -5.899  1.00  0.00     0.293 HD
ENDBRANCH   2  22
BRANCH   6  24
ATOM     24  O   UNL     1       6.044   7.486  -9.067  1.00  0.00    -0.507 OA
ATOM     25  H   UNL     1       6.154   8.059  -9.890  1.00  0.00     0.293 HD
ENDBRANCH   6  24
BRANCH   8  26
ATOM     26  O   UNL     1       1.520   6.255 -10.100  1.00  0.00    -0.508 OA
ATOM     27  H   UNL     1       0.866   5.512 -10.313  1.00  0.00     0.293 HD
ENDBRANCH   8  26
TORSDOF 6
ENDMDL
MODEL 8
REMARK VINA RESULT:    -4.725      2.371      3.576
REMARK INTER + INTRA:          -5.678
REMARK INTER:                  -5.585
REMARK INTRA:                  -0.093
REMARK UNBOUND:                 0.014
REMARK SMILES O=c1c(O)c(-c2ccc(O)c(O)c2)oc2cc(O)cc(O)c12
REMARK SMILES IDX 5 1 3 2 2 3 1 4 22 5 20 6 19 7 17 8 16 9 15 10 14 11 6 12
REMARK SMILES IDX 7 13 8 14 9 15 13 16 11 17 10 18 12 20 4 22 21 24 18 26
REMARK H PARENT 10 19 12 21 4 23 21 25 18 27
REMARK Flexibility Score: inf
ROOT
ATOM      1  C   UNL     1       5.401   0.122  -4.337  1.00  0.00     0.180 A 
ATOM      2  C   UNL     1       4.751   1.310  -3.961  1.00  0.00     0.208 A 
ATOM      3  C   UNL     1       4.496   2.286  -4.939  1.00  0.00     0.238 A 
ATOM      4  O   UNL     1       3.963   3.371  -4.585  1.00  0.00    -0.285 OA
ATOM      5  C   UNL     1       4.881   2.055  -6.281  1.00  0.00     0.111 A 
ATOM      6  C   UNL     1       4.636   2.958  -7.360  1.00  0.00     0.134 A 
ATOM      7  C   UNL     1       5.176   2.685  -8.623  1.00  0.00     0.093 A 
ATOM      8  C   UNL     1       5.895   1.511  -8.861  1.00  0.00     0.123 A 
ATOM      9  C   UNL     1       6.087   0.596  -7.829  1.00  0.00     0.094 A 
ATOM     10  C   UNL     1       5.593   0.857  -6.549  1.00  0.00     0.146 A 
ATOM     11  O   UNL     1       5.808  -0.037  -5.591  1.00  0.00    -0.452 OA
ENDROOT
BRANCH   1  12
ATOM     12  C   UNL     1       5.681  -0.963  -3.369  1.00  0.00     0.025 A 
ATOM     13  C   UNL     1       4.654  -1.548  -2.607  1.00  0.00     0.016 A 
ATOM     14  C   UNL     1       4.938  -2.587  -1.718  1.00  0.00     0.051 A 
ATOM     15  C   UNL     1       6.248  -3.065  -1.586  1.00  0.00     0.157 A 
ATOM     16  C   UNL     1       6.989  -1.460  -3.248  1.00  0.00     0.062 A 
ATOM     17  C   UNL     1       7.275  -2.502  -2.354  1.00  0.00     0.158 A 
BRANCH  15  18
ATOM     18  O   UNL     1       6.536  -4.100  -0.698  1.00  0.00    -0.504 OA
ATOM     19  H   UNL     1       6.613  -3.938   0.299  1.00  0.00     0.293 HD
ENDBRANCH  15  18
BRANCH  17  20
ATOM     20  O   UNL     1       8.577  -2.985  -2.226  1.00  0.00    -0.504 OA
ATOM     21  H   UNL     1       9.376  -2.441  -2.529  1.00  0.00     0.293 HD
ENDBRANCH  17  20
ENDBRANCH   1  12
BRANCH   2  22
ATOM     22  O   UNL     1       4.400   1.527  -2.626  1.00  0.00    -0.502 OA
ATOM     23  H   UNL     1       3.998   2.400  -2.304  1.00  0.00     0.293 HD
ENDBRANCH   2  22
BRANCH   6  24
ATOM     24  O   UNL     1       3.854   4.110  -7.251  1.00  0.00    -0.507 OA
ATOM     25  H   UNL     1       3.701   4.773  -7.995  1.00  0.00     0.293 HD
ENDBRANCH   6  24
BRANCH   8  26
ATOM     26  O   UNL     1       6.415   1.241 -10.125  1.00  0.00    -0.508 OA
ATOM     27  H   UNL     1       6.157   1.792 -10.934  1.00  0.00     0.293 HD
ENDBRANCH   8  26
TORSDOF 6
ENDMDL
MODEL 9
REMARK VINA RESULT:    -4.577      2.442      6.976
REMARK INTER + INTRA:          -5.500
REMARK INTER:                  -5.454
REMARK INTRA:                  -0.046
REMARK UNBOUND:                 0.014
REMARK SMILES O=c1c(O)c(-c2ccc(O)c(O)c2)oc2cc(O)cc(O)c12
REMARK SMILES IDX 5 1 3 2 2 3 1 4 22 5 20 6 19 7 17 8 16 9 15 10 14 11 6 12
REMARK SMILES IDX 7 13 8 14 9 15 13 16 11 17 10 18 12 20 4 22 21 24 18 26
REMARK H PARENT 10 19 12 21 4 23 21 25 18 27
REMARK Flexibility Score: inf
ROOT
ATOM      1  C   UNL     1       5.920  -0.684  -5.413  1.00  0.00     0.180 A 
ATOM      2  C   UNL     1       5.922  -1.155  -6.737  1.00  0.00     0.208 A 
ATOM      3  C   UNL     1       6.698  -2.281  -7.058  1.00  0.00     0.238 A 
ATOM      4  O   UNL     1       6.738  -2.665  -8.257  1.00  0.00    -0.285 OA
ATOM      5  C   UNL     1       7.447  -2.931  -6.049  1.00  0.00     0.111 A 
ATOM      6  C   UNL     1       8.235  -4.104  -6.254  1.00  0.00     0.134 A 
ATOM      7  C   UNL     1       9.039  -4.585  -5.213  1.00  0.00     0.093 A 
ATOM      8  C   UNL     1       9.032  -3.975  -3.956  1.00  0.00     0.123 A 
ATOM      9  C   UNL     1       8.221  -2.866  -3.730  1.00  0.00     0.094 A 
ATOM     10  C   UNL     1       7.436  -2.340  -4.758  1.00  0.00     0.146 A 
ATOM     11  O   UNL     1       6.685  -1.275  -4.503  1.00  0.00    -0.452 OA
ENDROOT
BRANCH   1  12
ATOM     12  C   UNL     1       5.109   0.481  -4.993  1.00  0.00     0.025 A 
ATOM     13  C   UNL     1       4.188   0.390  -3.935  1.00  0.00     0.016 A 
ATOM     14  C   UNL     1       3.451   1.509  -3.540  1.00  0.00     0.051 A 
ATOM     15  C   UNL     1       3.632   2.738  -4.188  1.00  0.00     0.157 A 
ATOM     16  C   UNL     1       5.301   1.721  -5.625  1.00  0.00     0.062 A 
ATOM     17  C   UNL     1       4.561   2.845  -5.231  1.00  0.00     0.158 A 
BRANCH  15  18
ATOM     18  O   UNL     1       2.897   3.857  -3.799  1.00  0.00    -0.504 OA
ATOM     19  H   UNL     1       3.325   4.771  -3.719  1.00  0.00     0.293 HD
ENDBRANCH  15  18
BRANCH  17  20
ATOM     20  O   UNL     1       4.745   4.071  -5.868  1.00  0.00    -0.504 OA
ATOM     21  H   UNL     1       5.566   4.640  -5.696  1.00  0.00     0.293 HD
ENDBRANCH  17  20
ENDBRANCH   1  12
BRANCH   2  22
ATOM     22  O   UNL     1       5.192  -0.485  -7.722  1.00  0.00    -0.502 OA
ATOM     23  H   UNL     1       4.460   0.179  -7.499  1.00  0.00     0.293 HD
ENDBRANCH   2  22
BRANCH   6  24
ATOM     24  O   UNL     1       8.243  -4.841  -7.440  1.00  0.00    -0.507 OA
ATOM     25  H   UNL     1       7.419  -5.110  -7.956  1.00  0.00     0.293 HD
ENDBRANCH   6  24
BRANCH   8  26
ATOM     26  O   UNL     1       9.824  -4.470  -2.922  1.00  0.00    -0.508 OA
ATOM     27  H   UNL     1       9.416  -4.836  -2.070  1.00  0.00     0.293 HD
ENDBRANCH   8  26
TORSDOF 6
ENDMDL
