MODEL 1
REMARK VINA RESULT:    -4.310      0.000      0.000
REMARK INTER + INTRA:          -6.410
REMARK INTER:                  -5.822
REMARK INTRA:                  -0.588
REMARK UNBOUND:                -0.588
REMARK SMILES CCCCCCC=CC(=O)[O-]
REMARK SMILES IDX 5 1 6 2 7 3 8 4 9 5 10 6 11 7 4 8 3 9 2 10 1 11
REMARK H PARENT
REMARK Flexibility Score: inf
ROOT
ATOM      1  C   UNL     1      10.310  11.430   3.813  1.00  0.00     0.004 C 
ENDROOT
BRANCH   1   2
ATOM      2  C   UNL     1      10.492  10.383   4.919  1.00  0.00     0.027 C 
BRANCH   2   3
ATOM      3  C   UNL     1       9.633  10.695   6.110  1.00  0.00    -0.025 C 
ATOM      4  C   UNL     1       8.469  11.342   5.983  1.00  0.00     0.020 C 
BRANCH   4   5
ATOM      5  C   UNL     1       7.624  11.666   7.141  1.00  0.00     0.064 C 
ATOM      6  O   UNL     1       6.521  12.246   6.962  1.00  0.00    -0.545 OA
ATOM      7  O   UNL     1       8.024  11.342   8.433  1.00  0.00    -0.545 OA
ENDBRANCH   4   5
ENDBRANCH   2   3
ENDBRANCH   1   2
BRANCH   1   8
ATOM      8  C   UNL     1      11.649  12.094   3.460  1.00  0.00     0.000 C 
BRANCH   8   9
ATOM      9  C   UNL     1      12.806  11.605   4.345  1.00  0.00    -0.000 C 
BRANCH   9  10
ATOM     10  C   UNL     1      13.447  12.737   5.160  1.00  0.00    -0.003 C 
ATOM     11  C   UNL     1      12.456  13.325   6.160  1.00  0.00     0.004 C 
ENDBRANCH   9  10
ENDBRANCH   8   9
ENDBRANCH   1   8
TORSDOF 6
ENDMDL
MODEL 2
REMARK VINA RESULT:    -4.290      4.738      6.531
REMARK INTER + INTRA:          -6.383
REMARK INTER:                  -6.036
REMARK INTRA:                  -0.347
REMARK UNBOUND:                -0.588
REMARK SMILES CCCCCCC=CC(=O)[O-]
REMARK SMILES IDX 5 1 6 2 7 3 8 4 9 5 10 6 11 7 4 8 3 9 2 10 1 11
REMARK H PARENT
REMARK Flexibility Score: inf
ROOT
ATOM      1  C   UNL     1      11.713  12.865   4.867  1.00  0.00     0.004 C 
ENDROOT
BRANCH   1   2
ATOM      2  C   UNL     1      13.114  13.016   5.474  1.00  0.00     0.027 C 
BRANCH   2   3
ATOM      3  C   UNL     1      14.181  12.776   4.446  1.00  0.00    -0.025 C 
ATOM      4  C   UNL     1      15.249  13.576   4.348  1.00  0.00     0.020 C 
BRANCH   4   5
ATOM      5  C   UNL     1      16.295  13.362   3.337  1.00  0.00     0.064 C 
ATOM      6  O   UNL     1      15.985  12.890   2.212  1.00  0.00    -0.545 OA
ATOM      7  O   UNL     1      17.624  13.671   3.606  1.00  0.00    -0.545 OA
ENDBRANCH   4   5
ENDBRANCH   2   3
ENDBRANCH   1   2
BRANCH   1   8
ATOM      8  C   UNL     1      11.612  11.581   4.031  1.00  0.00     0.000 C 
BRANCH   8   9
ATOM      9  C   UNL     1      10.363  10.751   4.368  1.00  0.00    -0.000 C 
BRANCH   9  10
ATOM     10  C   UNL     1      10.059  10.722   5.872  1.00  0.00    -0.003 C 
ATOM     11  C   UNL     1       8.634  11.186   6.155  1.00  0.00     0.004 C 
ENDBRANCH   9  10
ENDBRANCH   8   9
ENDBRANCH   1   8
TORSDOF 6
ENDMDL
MODEL 3
REMARK VINA RESULT:    -4.283      1.319      1.958
REMARK INTER + INTRA:          -6.373
REMARK INTER:                  -6.194
REMARK INTRA:                  -0.179
REMARK UNBOUND:                -0.588
REMARK SMILES CCCCCCC=CC(=O)[O-]
REMARK SMILES IDX 5 1 6 2 7 3 8 4 9 5 10 6 11 7 4 8 3 9 2 10 1 11
REMARK H PARENT
REMARK Flexibility Score: inf
ROOT
ATOM      1  C   UNL     1      11.002  11.407   3.968  1.00  0.00     0.004 C 
ENDROOT
BRANCH   1   2
ATOM      2  C   UNL     1      10.530  10.161   4.729  1.00  0.00     0.027 C 
BRANCH   2   3
ATOM      3  C   UNL     1       9.675  10.533   5.906  1.00  0.00    -0.025 C 
ATOM      4  C   UNL     1       8.588  11.299   5.766  1.00  0.00     0.020 C 
BRANCH   4   5
ATOM      5  C   UNL     1       7.750  11.682   6.911  1.00  0.00     0.064 C 
ATOM      6  O   UNL     1       8.206  11.576   8.079  1.00  0.00    -0.545 OA
ATOM      7  O   UNL     1       6.457  12.162   6.724  1.00  0.00    -0.545 OA
ENDBRANCH   4   5
ENDBRANCH   2   3
ENDBRANCH   1   2
BRANCH   1   8
ATOM      8  C   UNL     1      12.499  11.658   4.200  1.00  0.00     0.000 C 
BRANCH   8   9
ATOM      9  C   UNL     1      13.102  12.631   3.175  1.00  0.00    -0.000 C 
BRANCH   9  10
ATOM     10  C   UNL     1      14.488  13.144   3.590  1.00  0.00    -0.003 C 
ATOM     11  C   UNL     1      15.456  13.128   2.410  1.00  0.00     0.004 C 
ENDBRANCH   9  10
ENDBRANCH   8   9
ENDBRANCH   1   8
TORSDOF 6
ENDMDL
MODEL 4
REMARK VINA RESULT:    -4.273      0.397      1.047
REMARK INTER + INTRA:          -6.359
REMARK INTER:                  -5.750
REMARK INTRA:                  -0.609
REMARK UNBOUND:                -0.588
REMARK SMILES CCCCCCC=CC(=O)[O-]
REMARK SMILES IDX 5 1 6 2 7 3 8 4 9 5 10 6 11 7 4 8 3 9 2 10 1 11
REMARK H PARENT
REMARK Flexibility Score: inf
ROOT
ATOM      1  C   UNL     1      10.558  11.706   3.646  1.00  0.00     0.004 C 
ENDROOT
BRANCH   1   2
ATOM      2  C   UNL     1      10.583  10.536   4.639  1.00  0.00     0.027 C 
BRANCH   2   3
ATOM      3  C   UNL     1       9.378  10.557   5.534  1.00  0.00    -0.025 C 
ATOM      4  C   UNL     1       9.016  11.662   6.195  1.00  0.00     0.020 C 
BRANCH   4   5
ATOM      5  C   UNL     1       7.847  11.693   7.085  1.00  0.00     0.064 C 
ATOM      6  O   UNL     1       7.988  11.420   8.306  1.00  0.00    -0.545 OA
ATOM      7  O   UNL     1       6.585  12.020   6.600  1.00  0.00    -0.545 OA
ENDBRANCH   4   5
ENDBRANCH   2   3
ENDBRANCH   1   2
BRANCH   1   8
ATOM      8  C   UNL     1      11.980  12.202   3.347  1.00  0.00     0.000 C 
BRANCH   8   9
ATOM      9  C   UNL     1      12.992  11.793   4.428  1.00  0.00    -0.000 C 
BRANCH   9  10
ATOM     10  C   UNL     1      13.525  12.992   5.224  1.00  0.00    -0.003 C 
ATOM     11  C   UNL     1      12.558  13.388   6.336  1.00  0.00     0.004 C 
ENDBRANCH   9  10
ENDBRANCH   8   9
ENDBRANCH   1   8
TORSDOF 6
ENDMDL
MODEL 5
REMARK VINA RESULT:    -4.243      4.799      6.627
REMARK INTER + INTRA:          -6.320
REMARK INTER:                  -6.053
REMARK INTRA:                  -0.266
REMARK UNBOUND:                -0.588
REMARK SMILES CCCCCCC=CC(=O)[O-]
REMARK SMILES IDX 5 1 6 2 7 3 8 4 9 5 10 6 11 7 4 8 3 9 2 10 1 11
REMARK H PARENT
REMARK Flexibility Score: inf
ROOT
ATOM      1  C   UNL     1      11.957  11.950   3.318  1.00  0.00     0.004 C 
ENDROOT
BRANCH   1   2
ATOM      2  C   UNL     1      13.187  12.001   4.233  1.00  0.00     0.027 C 
BRANCH   2   3
ATOM      3  C   UNL     1      14.311  12.761   3.592  1.00  0.00    -0.025 C 
ATOM      4  C   UNL     1      15.271  13.340   4.323  1.00  0.00     0.020 C 
BRANCH   4   5
ATOM      5  C   UNL     1      16.370  14.098   3.709  1.00  0.00     0.064 C 
ATOM      6  O   UNL     1      16.155  15.258   3.268  1.00  0.00    -0.545 OA
ATOM      7  O   UNL     1      17.646  13.555   3.608  1.00  0.00    -0.545 OA
ENDBRANCH   4   5
ENDBRANCH   2   3
ENDBRANCH   1   2
BRANCH   1   8
ATOM      8  C   UNL     1      10.719  12.518   4.028  1.00  0.00     0.000 C 
BRANCH   8   9
ATOM      9  C   UNL     1       9.506  11.578   3.947  1.00  0.00    -0.000 C 
BRANCH   9  10
ATOM     10  C   UNL     1       9.237  10.843   5.268  1.00  0.00    -0.003 C 
ATOM     11  C   UNL     1      10.131   9.614   5.405  1.00  0.00     0.004 C 
ENDBRANCH   9  10
ENDBRANCH   8   9
ENDBRANCH   1   8
TORSDOF 6
ENDMDL
MODEL 6
REMARK VINA RESULT:    -4.193      5.447      7.157
REMARK INTER + INTRA:          -6.252
REMARK INTER:                  -5.611
REMARK INTRA:                  -0.641
REMARK UNBOUND:                -0.588
REMARK SMILES CCCCCCC=CC(=O)[O-]
REMARK SMILES IDX 5 1 6 2 7 3 8 4 9 5 10 6 11 7 4 8 3 9 2 10 1 11
REMARK H PARENT
REMARK Flexibility Score: inf
ROOT
ATOM      1  C   UNL     1      12.494  13.650   2.519  1.00  0.00     0.004 C 
ENDROOT
BRANCH   1   2
ATOM      2  C   UNL     1      13.604  13.772   1.467  1.00  0.00     0.027 C 
BRANCH   2   3
ATOM      3  C   UNL     1      14.963  13.684   2.099  1.00  0.00    -0.025 C 
ATOM      4  C   UNL     1      15.639  14.780   2.459  1.00  0.00     0.020 C 
BRANCH   4   5
ATOM      5  C   UNL     1      16.977  14.709   3.065  1.00  0.00     0.064 C 
ATOM      6  O   UNL     1      17.723  15.723   3.043  1.00  0.00    -0.545 OA
ATOM      7  O   UNL     1      17.431  13.539   3.664  1.00  0.00    -0.545 OA
ENDBRANCH   4   5
ENDBRANCH   2   3
ENDBRANCH   1   2
BRANCH   1   8
ATOM      8  C   UNL     1      12.524  12.270   3.193  1.00  0.00     0.000 C 
BRANCH   8   9
ATOM      9  C   UNL     1      12.204  12.336   4.694  1.00  0.00    -0.000 C 
BRANCH   9  10
ATOM     10  C   UNL     1      13.114  13.314   5.451  1.00  0.00    -0.003 C 
ATOM     11  C   UNL     1      14.551  12.804   5.496  1.00  0.00     0.004 C 
ENDBRANCH   9  10
ENDBRANCH   8   9
ENDBRANCH   1   8
TORSDOF 6
ENDMDL
MODEL 7
REMARK VINA RESULT:    -4.164      6.487      7.771
REMARK INTER + INTRA:          -6.213
REMARK INTER:                  -5.539
REMARK INTRA:                  -0.674
REMARK UNBOUND:                -0.588
REMARK SMILES CCCCCCC=CC(=O)[O-]
REMARK SMILES IDX 5 1 6 2 7 3 8 4 9 5 10 6 11 7 4 8 3 9 2 10 1 11
REMARK H PARENT
REMARK Flexibility Score: inf
ROOT
ATOM      1  C   UNL     1      13.106  15.024   0.494  1.00  0.00     0.004 C 
ENDROOT
BRANCH   1   2
ATOM      2  C   UNL     1      13.779  13.702   0.884  1.00  0.00     0.027 C 
BRANCH   2   3
ATOM      3  C   UNL     1      14.492  13.821   2.200  1.00  0.00    -0.025 C 
ATOM      4  C   UNL     1      15.678  13.240   2.408  1.00  0.00     0.020 C 
BRANCH   4   5
ATOM      5  C   UNL     1      16.381  13.336   3.695  1.00  0.00     0.064 C 
ATOM      6  O   UNL     1      17.614  13.588   3.713  1.00  0.00    -0.545 OA
ATOM      7  O   UNL     1      15.704  13.154   4.896  1.00  0.00    -0.545 OA
ENDBRANCH   4   5
ENDBRANCH   2   3
ENDBRANCH   1   2
BRANCH   1   8
ATOM      8  C   UNL     1      13.990  15.828  -0.470  1.00  0.00     0.000 C 
BRANCH   8   9
ATOM      9  C   UNL     1      14.531  17.121   0.159  1.00  0.00    -0.000 C 
BRANCH   9  10
ATOM     10  C   UNL     1      16.004  17.005   0.577  1.00  0.00    -0.003 C 
ATOM     11  C   UNL     1      16.153  17.084   2.093  1.00  0.00     0.004 C 
ENDBRANCH   9  10
ENDBRANCH   8   9
ENDBRANCH   1   8
TORSDOF 6
ENDMDL
MODEL 8
REMARK VINA RESULT:    -4.018      3.606      5.170
REMARK INTER + INTRA:          -6.015
REMARK INTER:                  -5.364
REMARK INTRA:                  -0.651
REMARK UNBOUND:                -0.588
REMARK SMILES CCCCCCC=CC(=O)[O-]
REMARK SMILES IDX 5 1 6 2 7 3 8 4 9 5 10 6 11 7 4 8 3 9 2 10 1 11
REMARK H PARENT
REMARK Flexibility Score: inf
ROOT
ATOM      1  C   UNL     1      11.021  10.068   4.528  1.00  0.00     0.004 C 
ENDROOT
BRANCH   1   2
ATOM      2  C   UNL     1      10.890  11.479   3.941  1.00  0.00     0.027 C 
BRANCH   2   3
ATOM      3  C   UNL     1      12.224  12.165   3.873  1.00  0.00    -0.025 C 
ATOM      4  C   UNL     1      12.845  12.599   4.975  1.00  0.00     0.020 C 
BRANCH   4   5
ATOM      5  C   UNL     1      14.144  13.284   4.922  1.00  0.00     0.064 C 
ATOM      6  O   UNL     1      15.145  12.763   5.480  1.00  0.00    -0.545 OA
ATOM      7  O   UNL     1      14.286  14.501   4.264  1.00  0.00    -0.545 OA
ENDBRANCH   4   5
ENDBRANCH   2   3
ENDBRANCH   1   2
BRANCH   1   8
ATOM      8  C   UNL     1       9.891   9.782   5.529  1.00  0.00     0.000 C 
BRANCH   8   9
ATOM      9  C   UNL     1       9.113  11.048   5.922  1.00  0.00    -0.000 C 
BRANCH   9  10
ATOM     10  C   UNL     1       9.407  11.502   7.358  1.00  0.00    -0.003 C 
ATOM     11  C   UNL     1       9.945  12.930   7.384  1.00  0.00     0.004 C 
ENDBRANCH   9  10
ENDBRANCH   8   9
ENDBRANCH   1   8
TORSDOF 6
ENDMDL
MODEL 9
REMARK VINA RESULT:    -3.940      4.097      5.586
REMARK INTER + INTRA:          -5.910
REMARK INTER:                  -5.297
REMARK INTRA:                  -0.613
REMARK UNBOUND:                -0.588
REMARK SMILES CCCCCCC=CC(=O)[O-]
REMARK SMILES IDX 5 1 6 2 7 3 8 4 9 5 10 6 11 7 4 8 3 9 2 10 1 11
REMARK H PARENT
REMARK Flexibility Score: inf
ROOT
ATOM      1  C   UNL     1      10.447  11.023   5.425  1.00  0.00     0.004 C 
ENDROOT
BRANCH   1   2
ATOM      2  C   UNL     1      11.270  10.963   4.131  1.00  0.00     0.027 C 
BRANCH   2   3
ATOM      3  C   UNL     1      12.561  11.716   4.272  1.00  0.00    -0.025 C 
ATOM      4  C   UNL     1      13.030  12.489   3.287  1.00  0.00     0.020 C 
BRANCH   4   5
ATOM      5  C   UNL     1      14.299  13.221   3.406  1.00  0.00     0.064 C 
ATOM      6  O   UNL     1      14.447  14.064   4.330  1.00  0.00    -0.545 OA
ATOM      7  O   UNL     1      15.341  12.999   2.512  1.00  0.00    -0.545 OA
ENDBRANCH   4   5
ENDBRANCH   2   3
ENDBRANCH   1   2
BRANCH   1   8
ATOM      8  C   UNL     1       8.954  11.218   5.118  1.00  0.00     0.000 C 
BRANCH   8   9
ATOM      9  C   UNL     1       8.713  11.940   3.784  1.00  0.00    -0.000 C 
BRANCH   9  10
ATOM     10  C   UNL     1       8.499  13.450   3.958  1.00  0.00    -0.003 C 
ATOM     11  C   UNL     1       9.643  14.244   3.334  1.00  0.00     0.004 C 
ENDBRANCH   9  10
ENDBRANCH   8   9
ENDBRANCH   1   8
TORSDOF 6
ENDMDL
