MODEL 1
REMARK VINA RESULT:    -3.450      0.000      0.000
REMARK INTER + INTRA:          -5.356
REMARK INTER:                  -5.064
REMARK INTRA:                  -0.292
REMARK UNBOUND:                -0.292
REMARK SMILES O=C([O-])CCCCCCCC(=O)[O-]
REMARK SMILES IDX 7 1 6 2 5 3 4 4 2 5 1 6 3 7 8 8 9 9 10 10 11 11 12 12 13 13
REMARK H PARENT
REMARK Flexibility Score: inf
ROOT
ATOM      1  C   UNL     1      33.512   7.531 -30.396  1.00  0.00     0.000 C 
ENDROOT
BRANCH   1   2
ATOM      2  C   UNL     1      34.542   7.680 -31.525  1.00  0.00     0.000 C 
BRANCH   2   3
ATOM      3  C   UNL     1      35.742   6.753 -31.300  1.00  0.00     0.006 C 
BRANCH   3   4
ATOM      4  C   UNL     1      35.351   5.287 -31.511  1.00  0.00     0.053 C 
BRANCH   4   5
ATOM      5  C   UNL     1      35.060   5.024 -32.954  1.00  0.00     0.041 C 
ATOM      6  O   UNL     1      35.824   5.478 -33.848  1.00  0.00    -0.550 OA
ATOM      7  O   UNL     1      33.919   4.321 -33.317  1.00  0.00    -0.550 OA
ENDBRANCH   4   5
ENDBRANCH   3   4
ENDBRANCH   2   3
ENDBRANCH   1   2
BRANCH   1   8
ATOM      8  C   UNL     1      32.421   8.618 -30.429  1.00  0.00     0.000 C 
BRANCH   8   9
ATOM      9  C   UNL     1      32.708   9.854 -29.557  1.00  0.00     0.006 C 
BRANCH   9  10
ATOM     10  C   UNL     1      32.052   9.774 -28.173  1.00  0.00     0.053 C 
BRANCH  10  11
ATOM     11  C   UNL     1      33.065  10.020 -27.101  1.00  0.00     0.041 C 
ATOM     12  O   UNL     1      33.204   9.197 -26.158  1.00  0.00    -0.550 OA
ATOM     13  O   UNL     1      33.891  11.134 -27.167  1.00  0.00    -0.550 OA
ENDBRANCH  10  11
ENDBRANCH   9  10
ENDBRANCH   8   9
ENDBRANCH   1   8
TORSDOF 8
ENDMDL
MODEL 2
REMARK VINA RESULT:    -3.448      0.676      6.860
REMARK INTER + INTRA:          -5.352
REMARK INTER:                  -5.052
REMARK INTRA:                  -0.300
REMARK UNBOUND:                -0.292
REMARK SMILES O=C([O-])CCCCCCCC(=O)[O-]
REMARK SMILES IDX 7 1 6 2 5 3 4 4 2 5 1 6 3 7 8 8 9 9 10 10 11 11 12 12 13 13
REMARK H PARENT
REMARK Flexibility Score: inf
ROOT
ATOM      1  C   UNL     1      33.329   8.102 -30.373  1.00  0.00     0.000 C 
ENDROOT
BRANCH   1   2
ATOM      2  C   UNL     1      32.505   9.383 -30.565  1.00  0.00     0.000 C 
BRANCH   2   3
ATOM      3  C   UNL     1      32.045   9.949 -29.216  1.00  0.00     0.006 C 
BRANCH   3   4
ATOM      4  C   UNL     1      32.863   9.358 -28.065  1.00  0.00     0.053 C 
BRANCH   4   5
ATOM      5  C   UNL     1      33.064  10.377 -26.988  1.00  0.00     0.041 C 
ATOM      6  O   UNL     1      33.999  11.217 -27.076  1.00  0.00    -0.550 OA
ATOM      7  O   UNL     1      32.251  10.369 -25.862  1.00  0.00    -0.550 OA
ENDBRANCH   4   5
ENDBRANCH   3   4
ENDBRANCH   2   3
ENDBRANCH   1   2
BRANCH   1   8
ATOM      8  C   UNL     1      34.369   7.883 -31.487  1.00  0.00     0.000 C 
BRANCH   8   9
ATOM      9  C   UNL     1      35.332   6.705 -31.254  1.00  0.00     0.006 C 
BRANCH   9  10
ATOM     10  C   UNL     1      34.685   5.341 -31.528  1.00  0.00     0.053 C 
BRANCH  10  11
ATOM     11  C   UNL     1      34.904   4.937 -32.952  1.00  0.00     0.041 C 
ATOM     12  O   UNL     1      35.800   5.494 -33.639  1.00  0.00    -0.550 OA
ATOM     13  O   UNL     1      34.149   3.912 -33.507  1.00  0.00    -0.550 OA
ENDBRANCH  10  11
ENDBRANCH   9  10
ENDBRANCH   8   9
ENDBRANCH   1   8
TORSDOF 8
ENDMDL
MODEL 3
REMARK VINA RESULT:    -3.442     15.949     16.941
REMARK INTER + INTRA:          -5.344
REMARK INTER:                  -4.927
REMARK INTRA:                  -0.417
REMARK UNBOUND:                -0.292
REMARK SMILES O=C([O-])CCCCCCCC(=O)[O-]
REMARK SMILES IDX 7 1 6 2 5 3 4 4 2 5 1 6 3 7 8 8 9 9 10 10 11 11 12 12 13 13
REMARK H PARENT
REMARK Flexibility Score: inf
ROOT
ATOM      1  C   UNL     1      24.160  -5.274 -29.018  1.00  0.00     0.000 C 
ENDROOT
BRANCH   1   2
ATOM      2  C   UNL     1      23.923  -6.011 -30.344  1.00  0.00     0.000 C 
BRANCH   2   3
ATOM      3  C   UNL     1      24.778  -5.411 -31.467  1.00  0.00     0.006 C 
BRANCH   3   4
ATOM      4  C   UNL     1      23.929  -4.547 -32.403  1.00  0.00     0.053 C 
BRANCH   4   5
ATOM      5  C   UNL     1      24.622  -4.359 -33.715  1.00  0.00     0.041 C 
ATOM      6  O   UNL     1      25.709  -4.952 -33.948  1.00  0.00    -0.550 OA
ATOM      7  O   UNL     1      24.094  -3.493 -34.663  1.00  0.00    -0.550 OA
ENDBRANCH   4   5
ENDBRANCH   3   4
ENDBRANCH   2   3
ENDBRANCH   1   2
BRANCH   1   8
ATOM      8  C   UNL     1      24.067  -6.199 -27.791  1.00  0.00     0.000 C 
BRANCH   8   9
ATOM      9  C   UNL     1      24.520  -7.649 -28.034  1.00  0.00     0.006 C 
BRANCH   9  10
ATOM     10  C   UNL     1      25.726  -8.051 -27.175  1.00  0.00     0.053 C 
BRANCH  10  11
ATOM     11  C   UNL     1      26.997  -7.869 -27.943  1.00  0.00     0.041 C 
ATOM     12  O   UNL     1      27.007  -8.003 -29.194  1.00  0.00    -0.550 OA
ATOM     13  O   UNL     1      28.163  -7.502 -27.282  1.00  0.00    -0.550 OA
ENDBRANCH  10  11
ENDBRANCH   9  10
ENDBRANCH   8   9
ENDBRANCH   1   8
TORSDOF 8
ENDMDL
MODEL 4
REMARK VINA RESULT:    -3.437      2.261      3.411
REMARK INTER + INTRA:          -5.337
REMARK INTER:                  -4.667
REMARK INTRA:                  -0.670
REMARK UNBOUND:                -0.292
REMARK SMILES O=C([O-])CCCCCCCC(=O)[O-]
REMARK SMILES IDX 7 1 6 2 5 3 4 4 2 5 1 6 3 7 8 8 9 9 10 10 11 11 12 12 13 13
REMARK H PARENT
REMARK Flexibility Score: inf
ROOT
ATOM      1  C   UNL     1      35.987   5.938 -32.124  1.00  0.00     0.000 C 
ENDROOT
BRANCH   1   2
ATOM      2  C   UNL     1      34.974   5.654 -33.243  1.00  0.00     0.000 C 
BRANCH   2   3
ATOM      3  C   UNL     1      34.403   4.237 -33.121  1.00  0.00     0.006 C 
BRANCH   3   4
ATOM      4  C   UNL     1      33.388   4.149 -31.978  1.00  0.00     0.053 C 
BRANCH   4   5
ATOM      5  C   UNL     1      32.054   4.662 -32.421  1.00  0.00     0.041 C 
ATOM      6  O   UNL     1      31.617   4.381 -33.569  1.00  0.00    -0.550 OA
ATOM      7  O   UNL     1      31.315   5.490 -31.587  1.00  0.00    -0.550 OA
ENDBRANCH   4   5
ENDBRANCH   3   4
ENDBRANCH   2   3
ENDBRANCH   1   2
BRANCH   1   8
ATOM      8  C   UNL     1      35.562   7.100 -31.207  1.00  0.00     0.000 C 
BRANCH   8   9
ATOM      9  C   UNL     1      34.270   7.822 -31.631  1.00  0.00     0.006 C 
BRANCH   9  10
ATOM     10  C   UNL     1      33.337   8.119 -30.450  1.00  0.00     0.053 C 
BRANCH  10  11
ATOM     11  C   UNL     1      32.978   9.571 -30.422  1.00  0.00     0.041 C 
ATOM     12  O   UNL     1      32.384  10.058 -29.425  1.00  0.00    -0.550 OA
ATOM     13  O   UNL     1      33.341  10.398 -31.478  1.00  0.00    -0.550 OA
ENDBRANCH  10  11
ENDBRANCH   9  10
ENDBRANCH   8   9
ENDBRANCH   1   8
TORSDOF 8
ENDMDL
MODEL 5
REMARK VINA RESULT:    -3.392     15.220     17.095
REMARK INTER + INTRA:          -5.271
REMARK INTER:                  -4.568
REMARK INTRA:                  -0.703
REMARK UNBOUND:                -0.292
REMARK SMILES O=C([O-])CCCCCCCC(=O)[O-]
REMARK SMILES IDX 7 1 6 2 5 3 4 4 2 5 1 6 3 7 8 8 9 9 10 10 11 11 12 12 13 13
REMARK H PARENT
REMARK Flexibility Score: inf
ROOT
ATOM      1  C   UNL     1      25.228  -8.055 -26.709  1.00  0.00     0.000 C 
ENDROOT
BRANCH   1   2
ATOM      2  C   UNL     1      24.872  -6.796 -25.906  1.00  0.00     0.000 C 
BRANCH   2   3
ATOM      3  C   UNL     1      24.034  -5.826 -26.746  1.00  0.00     0.006 C 
BRANCH   3   4
ATOM      4  C   UNL     1      24.832  -4.565 -27.089  1.00  0.00     0.053 C 
BRANCH   4   5
ATOM      5  C   UNL     1      24.395  -4.011 -28.409  1.00  0.00     0.041 C 
ATOM      6  O   UNL     1      24.599  -2.798 -28.686  1.00  0.00    -0.550 OA
ATOM      7  O   UNL     1      23.719  -4.819 -29.314  1.00  0.00    -0.550 OA
ENDBRANCH   4   5
ENDBRANCH   3   4
ENDBRANCH   2   3
ENDBRANCH   1   2
BRANCH   1   8
ATOM      8  C   UNL     1      24.634  -8.051 -28.130  1.00  0.00     0.000 C 
BRANCH   8   9
ATOM      9  C   UNL     1      25.644  -7.765 -29.256  1.00  0.00     0.006 C 
BRANCH   9  10
ATOM     10  C   UNL     1      27.102  -7.870 -28.791  1.00  0.00     0.053 C 
BRANCH  10  11
ATOM     11  C   UNL     1      27.861  -6.639 -29.175  1.00  0.00     0.041 C 
ATOM     12  O   UNL     1      27.296  -5.725 -29.830  1.00  0.00    -0.550 OA
ATOM     13  O   UNL     1      29.179  -6.479 -28.767  1.00  0.00    -0.550 OA
ENDBRANCH  10  11
ENDBRANCH   9  10
ENDBRANCH   8   9
ENDBRANCH   1   8
TORSDOF 8
ENDMDL
MODEL 6
REMARK VINA RESULT:    -3.379      1.610      2.442
REMARK INTER + INTRA:          -5.252
REMARK INTER:                  -5.016
REMARK INTRA:                  -0.236
REMARK UNBOUND:                -0.292
REMARK SMILES O=C([O-])CCCCCCCC(=O)[O-]
REMARK SMILES IDX 7 1 6 2 5 3 4 4 2 5 1 6 3 7 8 8 9 9 10 10 11 11 12 12 13 13
REMARK H PARENT
REMARK Flexibility Score: inf
ROOT
ATOM      1  C   UNL     1      32.738   9.817 -29.803  1.00  0.00     0.000 C 
ENDROOT
BRANCH   1   2
ATOM      2  C   UNL     1      32.601   8.652 -30.793  1.00  0.00     0.000 C 
BRANCH   2   3
ATOM      3  C   UNL     1      33.655   7.572 -30.520  1.00  0.00     0.006 C 
BRANCH   3   4
ATOM      4  C   UNL     1      34.753   7.594 -31.587  1.00  0.00     0.053 C 
BRANCH   4   5
ATOM      5  C   UNL     1      35.439   6.266 -31.659  1.00  0.00     0.041 C 
ATOM      6  O   UNL     1      35.849   5.706 -30.607  1.00  0.00    -0.550 OA
ATOM      7  O   UNL     1      35.672   5.669 -32.892  1.00  0.00    -0.550 OA
ENDBRANCH   4   5
ENDBRANCH   3   4
ENDBRANCH   2   3
ENDBRANCH   1   2
BRANCH   1   8
ATOM      8  C   UNL     1      32.733   9.361 -28.332  1.00  0.00     0.000 C 
BRANCH   8   9
ATOM      9  C   UNL     1      32.464  10.477 -27.306  1.00  0.00     0.006 C 
BRANCH   9  10
ATOM     10  C   UNL     1      33.745  11.002 -26.645  1.00  0.00     0.053 C 
BRANCH  10  11
ATOM     11  C   UNL     1      33.585  11.042 -25.158  1.00  0.00     0.041 C 
ATOM     12  O   UNL     1      34.118  10.156 -24.439  1.00  0.00    -0.550 OA
ATOM     13  O   UNL     1      32.889  12.085 -24.561  1.00  0.00    -0.550 OA
ENDBRANCH  10  11
ENDBRANCH   9  10
ENDBRANCH   8   9
ENDBRANCH   1   8
TORSDOF 8
ENDMDL
MODEL 7
REMARK VINA RESULT:    -3.279      3.180      4.905
REMARK INTER + INTRA:          -5.104
REMARK INTER:                  -4.570
REMARK INTRA:                  -0.534
REMARK UNBOUND:                -0.292
REMARK SMILES O=C([O-])CCCCCCCC(=O)[O-]
REMARK SMILES IDX 7 1 6 2 5 3 4 4 2 5 1 6 3 7 8 8 9 9 10 10 11 11 12 12 13 13
REMARK H PARENT
REMARK Flexibility Score: inf
ROOT
ATOM      1  C   UNL     1      34.168   4.414 -33.369  1.00  0.00     0.000 C 
ENDROOT
BRANCH   1   2
ATOM      2  C   UNL     1      33.548   3.732 -32.141  1.00  0.00     0.000 C 
BRANCH   2   3
ATOM      3  C   UNL     1      33.224   2.262 -32.433  1.00  0.00     0.006 C 
BRANCH   3   4
ATOM      4  C   UNL     1      33.642   1.879 -33.855  1.00  0.00     0.053 C 
BRANCH   4   5
ATOM      5  C   UNL     1      32.477   1.325 -34.613  1.00  0.00     0.041 C 
ATOM      6  O   UNL     1      32.415   0.093 -34.868  1.00  0.00    -0.550 OA
ATOM      7  O   UNL     1      31.482   2.175 -35.079  1.00  0.00    -0.550 OA
ENDBRANCH   4   5
ENDBRANCH   3   4
ENDBRANCH   2   3
ENDBRANCH   1   2
BRANCH   1   8
ATOM      8  C   UNL     1      35.425   5.235 -33.031  1.00  0.00     0.000 C 
BRANCH   8   9
ATOM      9  C   UNL     1      35.471   5.791 -31.596  1.00  0.00     0.006 C 
BRANCH   9  10
ATOM     10  C   UNL     1      35.307   7.316 -31.540  1.00  0.00     0.053 C 
BRANCH  10  11
ATOM     11  C   UNL     1      33.942   7.675 -31.046  1.00  0.00     0.041 C 
ATOM     12  O   UNL     1      33.253   6.831 -30.416  1.00  0.00    -0.550 OA
ATOM     13  O   UNL     1      33.448   8.959 -31.239  1.00  0.00    -0.550 OA
ENDBRANCH  10  11
ENDBRANCH   9  10
ENDBRANCH   8   9
ENDBRANCH   1   8
TORSDOF 8
ENDMDL
MODEL 8
REMARK VINA RESULT:    -3.241     15.391     16.797
REMARK INTER + INTRA:          -5.049
REMARK INTER:                  -4.267
REMARK INTRA:                  -0.782
REMARK UNBOUND:                -0.292
REMARK SMILES O=C([O-])CCCCCCCC(=O)[O-]
REMARK SMILES IDX 7 1 6 2 5 3 4 4 2 5 1 6 3 7 8 8 9 9 10 10 11 11 12 12 13 13
REMARK H PARENT
REMARK Flexibility Score: inf
ROOT
ATOM      1  C   UNL     1      27.466  -6.420 -29.166  1.00  0.00     0.000 C 
ENDROOT
BRANCH   1   2
ATOM      2  C   UNL     1      26.538  -5.377 -29.805  1.00  0.00     0.000 C 
BRANCH   2   3
ATOM      3  C   UNL     1      25.256  -6.031 -30.332  1.00  0.00     0.006 C 
BRANCH   3   4
ATOM      4  C   UNL     1      24.051  -5.103 -30.153  1.00  0.00     0.053 C 
BRANCH   4   5
ATOM      5  C   UNL     1      23.860  -4.251 -31.368  1.00  0.00     0.041 C 
ATOM      6  O   UNL     1      23.826  -4.778 -32.512  1.00  0.00    -0.550 OA
ATOM      7  O   UNL     1      23.769  -2.871 -31.243  1.00  0.00    -0.550 OA
ENDBRANCH   4   5
ENDBRANCH   3   4
ENDBRANCH   2   3
ENDBRANCH   1   2
BRANCH   1   8
ATOM      8  C   UNL     1      26.784  -7.785 -28.958  1.00  0.00     0.000 C 
BRANCH   8   9
ATOM      9  C   UNL     1      26.422  -8.116 -27.499  1.00  0.00     0.006 C 
BRANCH   9  10
ATOM     10  C   UNL     1      24.935  -7.903 -27.189  1.00  0.00     0.053 C 
BRANCH  10  11
ATOM     11  C   UNL     1      24.704  -6.521 -26.665  1.00  0.00     0.041 C 
ATOM     12  O   UNL     1      25.659  -5.858 -26.181  1.00  0.00    -0.550 OA
ATOM     13  O   UNL     1      23.444  -5.944 -26.755  1.00  0.00    -0.550 OA
ENDBRANCH  10  11
ENDBRANCH   9  10
ENDBRANCH   8   9
ENDBRANCH   1   8
TORSDOF 8
ENDMDL
