MODEL 1
REMARK VINA RESULT:    -3.901      0.000      0.000
REMARK INTER + INTRA:         -16.508
REMARK INTER:                 -10.287
REMARK INTRA:                  -6.222
REMARK UNBOUND:                -6.222
REMARK SMILES CCCCCCCCCCCCCCCCCCCCCCCCCCCCCC(=O)[O-]
REMARK SMILES IDX 16 1 17 2 18 3 19 4 20 5 21 6 22 7 23 8 24 9 25 10 26 11
REMARK SMILES IDX 27 12 28 13 29 14 30 15 31 16 32 17 15 18 14 19 13 20 12 21
REMARK SMILES IDX 11 22 10 23 9 24 8 25 7 26 6 27 5 28 4 29 3 30 2 31 1 32
REMARK H PARENT
REMARK Flexibility Score: inf
ROOT
ATOM      1  C   UNL     1      33.501  76.260  11.859  1.00  0.00     0.000 C 
ENDROOT
BRANCH   1   2
ATOM      2  C   UNL     1      34.546  77.324  11.475  1.00  0.00     0.000 C 
BRANCH   2   3
ATOM      3  C   UNL     1      34.034  78.285  10.391  1.00  0.00     0.000 C 
BRANCH   3   4
ATOM      4  C   UNL     1      32.505  78.234  10.233  1.00  0.00     0.000 C 
BRANCH   4   5
ATOM      5  C   UNL     1      32.064  77.886   8.800  1.00  0.00     0.000 C 
BRANCH   5   6
ATOM      6  C   UNL     1      31.613  76.426   8.589  1.00  0.00     0.000 C 
BRANCH   6   7
ATOM      7  C   UNL     1      30.318  76.022   9.317  1.00  0.00     0.000 C 
BRANCH   7   8
ATOM      8  C   UNL     1      29.205  77.076   9.193  1.00  0.00     0.000 C 
BRANCH   8   9
ATOM      9  C   UNL     1      28.664  77.522  10.561  1.00  0.00     0.000 C 
BRANCH   9  10
ATOM     10  C   UNL     1      29.371  76.826  11.738  1.00  0.00     0.000 C 
BRANCH  10  11
ATOM     11  C   UNL     1      29.955  77.824  12.752  1.00  0.00     0.000 C 
BRANCH  11  12
ATOM     12  C   UNL     1      30.570  77.126  13.977  1.00  0.00     0.000 C 
BRANCH  12  13
ATOM     13  C   UNL     1      31.764  77.895  14.571  1.00  0.00     0.006 C 
BRANCH  13  14
ATOM     14  C   UNL     1      31.957  79.304  13.982  1.00  0.00     0.053 C 
BRANCH  14  15
ATOM     15  C   UNL     1      31.555  80.388  14.935  1.00  0.00     0.041 C 
ATOM     16  O   UNL     1      31.194  81.515  14.500  1.00  0.00    -0.550 OA
ATOM     17  O   UNL     1      31.599  80.162  16.305  1.00  0.00    -0.550 OA
ENDBRANCH  14  15
ENDBRANCH  13  14
ENDBRANCH  12  13
ENDBRANCH  11  12
ENDBRANCH  10  11
ENDBRANCH   9  10
ENDBRANCH   8   9
ENDBRANCH   7   8
ENDBRANCH   6   7
ENDBRANCH   5   6
ENDBRANCH   4   5
ENDBRANCH   3   4
ENDBRANCH   2   3
ENDBRANCH   1   2
BRANCH   1  18
ATOM     18  C   UNL     1      33.991  74.827  11.603  1.00  0.00     0.000 C 
BRANCH  18  19
ATOM     19  C   UNL     1      32.853  73.871  11.216  1.00  0.00     0.000 C 
BRANCH  19  20
ATOM     20  C   UNL     1      31.688  73.970  12.214  1.00  0.00     0.000 C 
BRANCH  20  21
ATOM     21  C   UNL     1      30.457  73.170  11.763  1.00  0.00     0.000 C 
BRANCH  21  22
ATOM     22  C   UNL     1      30.671  72.473  10.407  1.00  0.00     0.000 C 
BRANCH  22  23
ATOM     23  C   UNL     1      30.319  70.977  10.450  1.00  0.00     0.000 C 
BRANCH  23  24
ATOM     24  C   UNL     1      31.353  70.106   9.719  1.00  0.00    -0.000 C 
BRANCH  24  25
ATOM     25  C   UNL     1      32.517  70.956   9.196  1.00  0.00    -0.000 C 
BRANCH  25  26
ATOM     26  C   UNL     1      32.559  70.948   7.661  1.00  0.00    -0.000 C 
BRANCH  26  27
ATOM     27  C   UNL     1      32.319  72.338   7.052  1.00  0.00    -0.000 C 
BRANCH  27  28
ATOM     28  C   UNL     1      33.312  73.391   7.572  1.00  0.00    -0.000 C 
BRANCH  28  29
ATOM     29  C   UNL     1      33.843  74.308   6.458  1.00  0.00    -0.000 C 
BRANCH  29  30
ATOM     30  C   UNL     1      35.217  74.938   6.778  1.00  0.00    -0.000 C 
BRANCH  30  31
ATOM     31  C   UNL     1      35.205  75.702   8.111  1.00  0.00    -0.003 C 
ATOM     32  C   UNL     1      36.497  75.473   8.889  1.00  0.00     0.004 C 
ENDBRANCH  30  31
ENDBRANCH  29  30
ENDBRANCH  28  29
ENDBRANCH  27  28
ENDBRANCH  26  27
ENDBRANCH  25  26
ENDBRANCH  24  25
ENDBRANCH  23  24
ENDBRANCH  22  23
ENDBRANCH  21  22
ENDBRANCH  20  21
ENDBRANCH  19  20
ENDBRANCH  18  19
ENDBRANCH   1  18
TORSDOF 28
ENDMDL
MODEL 2
REMARK VINA RESULT:    -3.899      1.420      3.760
REMARK INTER + INTRA:         -16.504
REMARK INTER:                 -11.541
REMARK INTRA:                  -4.963
REMARK UNBOUND:                -6.222
REMARK SMILES CCCCCCCCCCCCCCCCCCCCCCCCCCCCCC(=O)[O-]
REMARK SMILES IDX 16 1 17 2 18 3 19 4 20 5 21 6 22 7 23 8 24 9 25 10 26 11
REMARK SMILES IDX 27 12 28 13 29 14 30 15 31 16 32 17 15 18 14 19 13 20 12 21
REMARK SMILES IDX 11 22 10 23 9 24 8 25 7 26 6 27 5 28 4 29 3 30 2 31 1 32
REMARK H PARENT
REMARK Flexibility Score: inf
ROOT
ATOM      1  C   UNL     1      36.713  75.481   8.885  1.00  0.00     0.000 C 
ENDROOT
BRANCH   1   2
ATOM      2  C   UNL     1      35.524  75.669   9.844  1.00  0.00     0.000 C 
BRANCH   2   3
ATOM      3  C   UNL     1      35.798  76.734  10.917  1.00  0.00     0.000 C 
BRANCH   3   4
ATOM      4  C   UNL     1      34.666  77.772  11.018  1.00  0.00     0.000 C 
BRANCH   4   5
ATOM      5  C   UNL     1      33.817  77.855   9.737  1.00  0.00     0.000 C 
BRANCH   5   6
ATOM      6  C   UNL     1      32.353  78.295   9.947  1.00  0.00     0.000 C 
BRANCH   6   7
ATOM      7  C   UNL     1      31.963  78.618  11.401  1.00  0.00     0.000 C 
BRANCH   7   8
ATOM      8  C   UNL     1      30.666  77.920  11.845  1.00  0.00     0.000 C 
BRANCH   8   9
ATOM      9  C   UNL     1      30.903  76.911  12.981  1.00  0.00     0.000 C 
BRANCH   9  10
ATOM     10  C   UNL     1      32.227  77.153  13.727  1.00  0.00     0.000 C 
BRANCH  10  11
ATOM     11  C   UNL     1      32.037  77.950  15.029  1.00  0.00     0.000 C 
BRANCH  11  12
ATOM     12  C   UNL     1      32.666  79.353  14.956  1.00  0.00     0.000 C 
BRANCH  12  13
ATOM     13  C   UNL     1      31.636  80.458  14.659  1.00  0.00     0.006 C 
BRANCH  13  14
ATOM     14  C   UNL     1      31.040  81.114  15.918  1.00  0.00     0.053 C 
BRANCH  14  15
ATOM     15  C   UNL     1      32.090  81.667  16.833  1.00  0.00     0.041 C 
ATOM     16  O   UNL     1      32.806  82.636  16.466  1.00  0.00    -0.550 OA
ATOM     17  O   UNL     1      32.292  81.098  18.085  1.00  0.00    -0.550 OA
ENDBRANCH  14  15
ENDBRANCH  13  14
ENDBRANCH  12  13
ENDBRANCH  11  12
ENDBRANCH  10  11
ENDBRANCH   9  10
ENDBRANCH   8   9
ENDBRANCH   7   8
ENDBRANCH   6   7
ENDBRANCH   5   6
ENDBRANCH   4   5
ENDBRANCH   3   4
ENDBRANCH   2   3
ENDBRANCH   1   2
BRANCH   1  18
ATOM     18  C   UNL     1      36.275  75.083   7.467  1.00  0.00     0.000 C 
BRANCH  18  19
ATOM     19  C   UNL     1      34.812  75.447   7.174  1.00  0.00     0.000 C 
BRANCH  19  20
ATOM     20  C   UNL     1      34.179  74.440   6.201  1.00  0.00     0.000 C 
BRANCH  20  21
ATOM     21  C   UNL     1      34.549  72.986   6.534  1.00  0.00     0.000 C 
BRANCH  21  22
ATOM     22  C   UNL     1      33.352  72.185   7.080  1.00  0.00     0.000 C 
BRANCH  22  23
ATOM     23  C   UNL     1      33.515  70.670   6.877  1.00  0.00     0.000 C 
BRANCH  23  24
ATOM     24  C   UNL     1      32.770  69.848   7.940  1.00  0.00    -0.000 C 
BRANCH  24  25
ATOM     25  C   UNL     1      32.736  70.588   9.283  1.00  0.00    -0.000 C 
BRANCH  25  26
ATOM     26  C   UNL     1      31.292  70.794   9.763  1.00  0.00    -0.000 C 
BRANCH  26  27
ATOM     27  C   UNL     1      31.083  72.149  10.457  1.00  0.00    -0.000 C 
BRANCH  27  28
ATOM     28  C   UNL     1      32.349  73.022  10.441  1.00  0.00    -0.000 C 
BRANCH  28  29
ATOM     29  C   UNL     1      32.033  74.527  10.453  1.00  0.00    -0.000 C 
BRANCH  29  30
ATOM     30  C   UNL     1      30.827  74.913   9.569  1.00  0.00    -0.000 C 
BRANCH  30  31
ATOM     31  C   UNL     1      31.177  74.894   8.073  1.00  0.00    -0.003 C 
ATOM     32  C   UNL     1      30.769  76.198   7.395  1.00  0.00     0.004 C 
ENDBRANCH  30  31
ENDBRANCH  29  30
ENDBRANCH  28  29
ENDBRANCH  27  28
ENDBRANCH  26  27
ENDBRANCH  25  26
ENDBRANCH  24  25
ENDBRANCH  23  24
ENDBRANCH  22  23
ENDBRANCH  21  22
ENDBRANCH  20  21
ENDBRANCH  19  20
ENDBRANCH  18  19
ENDBRANCH   1  18
TORSDOF 28
ENDMDL
MODEL 3
REMARK VINA RESULT:    -3.896      1.413      4.493
REMARK INTER + INTRA:         -16.494
REMARK INTER:                 -10.846
REMARK INTRA:                  -5.648
REMARK UNBOUND:                -6.222
REMARK SMILES CCCCCCCCCCCCCCCCCCCCCCCCCCCCCC(=O)[O-]
REMARK SMILES IDX 16 1 17 2 18 3 19 4 20 5 21 6 22 7 23 8 24 9 25 10 26 11
REMARK SMILES IDX 27 12 28 13 29 14 30 15 31 16 32 17 15 18 14 19 13 20 12 21
REMARK SMILES IDX 11 22 10 23 9 24 8 25 7 26 6 27 5 28 4 29 3 30 2 31 1 32
REMARK H PARENT
REMARK Flexibility Score: inf
ROOT
ATOM      1  C   UNL     1      35.257  74.420   7.020  1.00  0.00     0.000 C 
ENDROOT
BRANCH   1   2
ATOM      2  C   UNL     1      34.257  73.292   6.706  1.00  0.00     0.000 C 
BRANCH   2   3
ATOM      3  C   UNL     1      32.945  73.434   7.492  1.00  0.00     0.000 C 
BRANCH   3   4
ATOM      4  C   UNL     1      31.705  73.368   6.583  1.00  0.00     0.000 C 
BRANCH   4   5
ATOM      5  C   UNL     1      31.074  74.749   6.334  1.00  0.00     0.000 C 
BRANCH   5   6
ATOM      6  C   UNL     1      30.937  75.644   7.583  1.00  0.00     0.000 C 
BRANCH   6   7
ATOM      7  C   UNL     1      30.376  77.054   7.329  1.00  0.00     0.000 C 
BRANCH   7   8
ATOM      8  C   UNL     1      30.386  77.942   8.585  1.00  0.00     0.000 C 
BRANCH   8   9
ATOM      9  C   UNL     1      31.480  77.531   9.584  1.00  0.00     0.000 C 
BRANCH   9  10
ATOM     10  C   UNL     1      31.756  78.612  10.645  1.00  0.00     0.000 C 
BRANCH  10  11
ATOM     11  C   UNL     1      33.235  78.669  11.061  1.00  0.00     0.000 C 
BRANCH  11  12
ATOM     12  C   UNL     1      33.462  78.169  12.497  1.00  0.00     0.000 C 
BRANCH  12  13
ATOM     13  C   UNL     1      32.181  78.193  13.351  1.00  0.00     0.006 C 
BRANCH  13  14
ATOM     14  C   UNL     1      32.427  77.981  14.856  1.00  0.00     0.053 C 
BRANCH  14  15
ATOM     15  C   UNL     1      32.225  79.232  15.657  1.00  0.00     0.041 C 
ATOM     16  O   UNL     1      32.348  79.210  16.910  1.00  0.00    -0.550 OA
ATOM     17  O   UNL     1      31.880  80.417  15.019  1.00  0.00    -0.550 OA
ENDBRANCH  14  15
ENDBRANCH  13  14
ENDBRANCH  12  13
ENDBRANCH  11  12
ENDBRANCH  10  11
ENDBRANCH   9  10
ENDBRANCH   8   9
ENDBRANCH   7   8
ENDBRANCH   6   7
ENDBRANCH   5   6
ENDBRANCH   4   5
ENDBRANCH   3   4
ENDBRANCH   2   3
ENDBRANCH   1   2
BRANCH   1  18
ATOM     18  C   UNL     1      34.604  75.810   7.012  1.00  0.00     0.000 C 
BRANCH  18  19
ATOM     19  C   UNL     1      34.715  76.526   8.367  1.00  0.00     0.000 C 
BRANCH  19  20
ATOM     20  C   UNL     1      35.779  75.861   9.255  1.00  0.00     0.000 C 
BRANCH  20  21
ATOM     21  C   UNL     1      35.275  75.600  10.683  1.00  0.00     0.000 C 
BRANCH  21  22
ATOM     22  C   UNL     1      33.910  74.887  10.705  1.00  0.00     0.000 C 
BRANCH  22  23
ATOM     23  C   UNL     1      33.597  74.253  12.069  1.00  0.00     0.000 C 
BRANCH  23  24
ATOM     24  C   UNL     1      32.088  74.116  12.325  1.00  0.00    -0.000 C 
BRANCH  24  25
ATOM     25  C   UNL     1      31.278  74.716  11.170  1.00  0.00    -0.000 C 
BRANCH  25  26
ATOM     26  C   UNL     1      30.004  73.900  10.907  1.00  0.00    -0.000 C 
BRANCH  26  27
ATOM     27  C   UNL     1      30.247  72.700   9.979  1.00  0.00    -0.000 C 
BRANCH  27  28
ATOM     28  C   UNL     1      30.070  71.352  10.697  1.00  0.00    -0.000 C 
BRANCH  28  29
ATOM     29  C   UNL     1      30.738  70.186   9.947  1.00  0.00    -0.000 C 
BRANCH  29  30
ATOM     30  C   UNL     1      32.189  70.483   9.509  1.00  0.00    -0.000 C 
BRANCH  30  31
ATOM     31  C   UNL     1      32.830  69.288   8.787  1.00  0.00    -0.003 C 
ATOM     32  C   UNL     1      33.494  69.724   7.484  1.00  0.00     0.004 C 
ENDBRANCH  30  31
ENDBRANCH  29  30
ENDBRANCH  28  29
ENDBRANCH  27  28
ENDBRANCH  26  27
ENDBRANCH  25  26
ENDBRANCH  24  25
ENDBRANCH  23  24
ENDBRANCH  22  23
ENDBRANCH  21  22
ENDBRANCH  20  21
ENDBRANCH  19  20
ENDBRANCH  18  19
ENDBRANCH   1  18
TORSDOF 28
ENDMDL
MODEL 4
REMARK VINA RESULT:    -3.848      1.456      4.392
REMARK INTER + INTRA:         -16.369
REMARK INTER:                 -11.402
REMARK INTRA:                  -4.968
REMARK UNBOUND:                -6.222
REMARK SMILES CCCCCCCCCCCCCCCCCCCCCCCCCCCCCC(=O)[O-]
REMARK SMILES IDX 16 1 17 2 18 3 19 4 20 5 21 6 22 7 23 8 24 9 25 10 26 11
REMARK SMILES IDX 27 12 28 13 29 14 30 15 31 16 32 17 15 18 14 19 13 20 12 21
REMARK SMILES IDX 11 22 10 23 9 24 8 25 7 26 6 27 5 28 4 29 3 30 2 31 1 32
REMARK H PARENT
REMARK Flexibility Score: inf
ROOT
ATOM      1  C   UNL     1      33.541  77.665   9.010  1.00  0.00     0.000 C 
ENDROOT
BRANCH   1   2
ATOM      2  C   UNL     1      32.080  78.134   9.144  1.00  0.00     0.000 C 
BRANCH   2   3
ATOM      3  C   UNL     1      31.076  77.068   8.679  1.00  0.00     0.000 C 
BRANCH   3   4
ATOM      4  C   UNL     1      31.747  75.713   8.392  1.00  0.00     0.000 C 
BRANCH   4   5
ATOM      5  C   UNL     1      31.002  74.530   9.034  1.00  0.00     0.000 C 
BRANCH   5   6
ATOM      6  C   UNL     1      30.852  74.604  10.568  1.00  0.00     0.000 C 
BRANCH   6   7
ATOM      7  C   UNL     1      32.169  74.716  11.356  1.00  0.00     0.000 C 
BRANCH   7   8
ATOM      8  C   UNL     1      32.066  75.654  12.571  1.00  0.00     0.000 C 
BRANCH   8   9
ATOM      9  C   UNL     1      30.939  76.689  12.418  1.00  0.00     0.000 C 
BRANCH   9  10
ATOM     10  C   UNL     1      31.405  78.126  12.712  1.00  0.00     0.000 C 
BRANCH  10  11
ATOM     11  C   UNL     1      32.714  78.171  13.518  1.00  0.00     0.000 C 
BRANCH  11  12
ATOM     12  C   UNL     1      32.636  79.136  14.714  1.00  0.00     0.000 C 
BRANCH  12  13
ATOM     13  C   UNL     1      31.319  79.932  14.759  1.00  0.00     0.006 C 
BRANCH  13  14
ATOM     14  C   UNL     1      31.511  81.451  14.923  1.00  0.00     0.053 C 
BRANCH  14  15
ATOM     15  C   UNL     1      32.259  81.807  16.171  1.00  0.00     0.041 C 
ATOM     16  O   UNL     1      32.138  81.101  17.208  1.00  0.00    -0.550 OA
ATOM     17  O   UNL     1      33.074  82.932  16.196  1.00  0.00    -0.550 OA
ENDBRANCH  14  15
ENDBRANCH  13  14
ENDBRANCH  12  13
ENDBRANCH  11  12
ENDBRANCH  10  11
ENDBRANCH   9  10
ENDBRANCH   8   9
ENDBRANCH   7   8
ENDBRANCH   6   7
ENDBRANCH   5   6
ENDBRANCH   4   5
ENDBRANCH   3   4
ENDBRANCH   2   3
ENDBRANCH   1   2
BRANCH   1  18
ATOM     18  C   UNL     1      34.357  77.891  10.292  1.00  0.00     0.000 C 
BRANCH  18  19
ATOM     19  C   UNL     1      35.173  76.655  10.702  1.00  0.00     0.000 C 
BRANCH  19  20
ATOM     20  C   UNL     1      35.214  75.622   9.565  1.00  0.00     0.000 C 
BRANCH  20  21
ATOM     21  C   UNL     1      36.615  75.479   8.949  1.00  0.00     0.000 C 
BRANCH  21  22
ATOM     22  C   UNL     1      36.566  75.092   7.459  1.00  0.00     0.000 C 
BRANCH  22  23
ATOM     23  C   UNL     1      35.130  74.929   6.939  1.00  0.00     0.000 C 
BRANCH  23  24
ATOM     24  C   UNL     1      34.761  73.461   6.673  1.00  0.00    -0.000 C 
BRANCH  24  25
ATOM     25  C   UNL     1      33.323  73.340   6.156  1.00  0.00    -0.000 C 
BRANCH  25  26
ATOM     26  C   UNL     1      32.684  72.019   6.610  1.00  0.00    -0.000 C 
BRANCH  26  27
ATOM     27  C   UNL     1      33.656  70.832   6.538  1.00  0.00    -0.000 C 
BRANCH  27  28
ATOM     28  C   UNL     1      33.123  69.585   7.263  1.00  0.00    -0.000 C 
BRANCH  28  29
ATOM     29  C   UNL     1      33.144  69.733   8.794  1.00  0.00    -0.000 C 
BRANCH  29  30
ATOM     30  C   UNL     1      31.758  69.552   9.451  1.00  0.00    -0.000 C 
BRANCH  30  31
ATOM     31  C   UNL     1      31.175  70.884   9.946  1.00  0.00    -0.003 C 
ATOM     32  C   UNL     1      29.653  70.892   9.841  1.00  0.00     0.004 C 
ENDBRANCH  30  31
ENDBRANCH  29  30
ENDBRANCH  28  29
ENDBRANCH  27  28
ENDBRANCH  26  27
ENDBRANCH  25  26
ENDBRANCH  24  25
ENDBRANCH  23  24
ENDBRANCH  22  23
ENDBRANCH  21  22
ENDBRANCH  20  21
ENDBRANCH  19  20
ENDBRANCH  18  19
ENDBRANCH   1  18
TORSDOF 28
ENDMDL
MODEL 5
REMARK VINA RESULT:    -3.826      2.769      6.264
REMARK INTER + INTRA:         -16.309
REMARK INTER:                 -10.813
REMARK INTRA:                  -5.496
REMARK UNBOUND:                -6.222
REMARK SMILES CCCCCCCCCCCCCCCCCCCCCCCCCCCCCC(=O)[O-]
REMARK SMILES IDX 16 1 17 2 18 3 19 4 20 5 21 6 22 7 23 8 24 9 25 10 26 11
REMARK SMILES IDX 27 12 28 13 29 14 30 15 31 16 32 17 15 18 14 19 13 20 12 21
REMARK SMILES IDX 11 22 10 23 9 24 8 25 7 26 6 27 5 28 4 29 3 30 2 31 1 32
REMARK H PARENT
REMARK Flexibility Score: inf
ROOT
ATOM      1  C   UNL     1      33.181  78.302  15.084  1.00  0.00     0.000 C 
ENDROOT
BRANCH   1   2
ATOM      2  C   UNL     1      32.003  77.400  15.497  1.00  0.00     0.000 C 
BRANCH   2   3
ATOM      3  C   UNL     1      31.494  77.710  16.913  1.00  0.00     0.000 C 
BRANCH   3   4
ATOM      4  C   UNL     1      29.981  77.987  16.947  1.00  0.00     0.000 C 
BRANCH   4   5
ATOM      5  C   UNL     1      29.305  77.774  15.581  1.00  0.00     0.000 C 
BRANCH   5   6
ATOM      6  C   UNL     1      28.858  79.063  14.861  1.00  0.00     0.000 C 
BRANCH   6   7
ATOM      7  C   UNL     1      29.023  80.362  15.670  1.00  0.00     0.000 C 
BRANCH   7   8
ATOM      8  C   UNL     1      29.706  81.485  14.871  1.00  0.00     0.000 C 
BRANCH   8   9
ATOM      9  C   UNL     1      31.217  81.251  14.704  1.00  0.00     0.000 C 
BRANCH   9  10
ATOM     10  C   UNL     1      32.063  82.105  15.665  1.00  0.00     0.000 C 
BRANCH  10  11
ATOM     11  C   UNL     1      32.373  81.380  16.985  1.00  0.00     0.000 C 
BRANCH  11  12
ATOM     12  C   UNL     1      31.503  81.882  18.150  1.00  0.00     0.000 C 
BRANCH  12  13
ATOM     13  C   UNL     1      30.816  80.742  18.923  1.00  0.00     0.006 C 
BRANCH  13  14
ATOM     14  C   UNL     1      30.539  81.066  20.403  1.00  0.00     0.053 C 
BRANCH  14  15
ATOM     15  C   UNL     1      31.781  81.432  21.156  1.00  0.00     0.041 C 
ATOM     16  O   UNL     1      31.780  82.415  21.945  1.00  0.00    -0.550 OA
ATOM     17  O   UNL     1      32.948  80.700  20.971  1.00  0.00    -0.550 OA
ENDBRANCH  14  15
ENDBRANCH  13  14
ENDBRANCH  12  13
ENDBRANCH  11  12
ENDBRANCH  10  11
ENDBRANCH   9  10
ENDBRANCH   8   9
ENDBRANCH   7   8
ENDBRANCH   6   7
ENDBRANCH   5   6
ENDBRANCH   4   5
ENDBRANCH   3   4
ENDBRANCH   2   3
ENDBRANCH   1   2
BRANCH   1  18
ATOM     18  C   UNL     1      33.276  78.495  13.564  1.00  0.00     0.000 C 
BRANCH  18  19
ATOM     19  C   UNL     1      31.950  78.205  12.844  1.00  0.00     0.000 C 
BRANCH  19  20
ATOM     20  C   UNL     1      32.046  78.556  11.351  1.00  0.00     0.000 C 
BRANCH  20  21
ATOM     21  C   UNL     1      31.163  77.654  10.475  1.00  0.00     0.000 C 
BRANCH  21  22
ATOM     22  C   UNL     1      31.499  77.777   8.977  1.00  0.00     0.000 C 
BRANCH  22  23
ATOM     23  C   UNL     1      32.620  76.819   8.544  1.00  0.00     0.000 C 
BRANCH  23  24
ATOM     24  C   UNL     1      34.007  77.483   8.571  1.00  0.00    -0.000 C 
BRANCH  24  25
ATOM     25  C   UNL     1      34.975  76.696   9.462  1.00  0.00    -0.000 C 
BRANCH  25  26
ATOM     26  C   UNL     1      34.313  75.420  10.003  1.00  0.00    -0.000 C 
BRANCH  26  27
ATOM     27  C   UNL     1      34.141  75.440  11.530  1.00  0.00    -0.000 C 
BRANCH  27  28
ATOM     28  C   UNL     1      33.479  74.160  12.068  1.00  0.00    -0.000 C 
BRANCH  28  29
ATOM     29  C   UNL     1      32.205  73.779  11.294  1.00  0.00    -0.000 C 
BRANCH  29  30
ATOM     30  C   UNL     1      30.959  73.627  12.194  1.00  0.00    -0.000 C 
BRANCH  30  31
ATOM     31  C   UNL     1      30.713  74.875  13.056  1.00  0.00    -0.003 C 
ATOM     32  C   UNL     1      29.883  74.536  14.291  1.00  0.00     0.004 C 
ENDBRANCH  30  31
ENDBRANCH  29  30
ENDBRANCH  28  29
ENDBRANCH  27  28
ENDBRANCH  26  27
ENDBRANCH  25  26
ENDBRANCH  24  25
ENDBRANCH  23  24
ENDBRANCH  22  23
ENDBRANCH  21  22
ENDBRANCH  20  21
ENDBRANCH  19  20
ENDBRANCH  18  19
ENDBRANCH   1  18
TORSDOF 28
ENDMDL
MODEL 6
REMARK VINA RESULT:    -3.821      1.392      4.558
REMARK INTER + INTRA:         -16.296
REMARK INTER:                  -9.844
REMARK INTRA:                  -6.452
REMARK UNBOUND:                -6.222
REMARK SMILES CCCCCCCCCCCCCCCCCCCCCCCCCCCCCC(=O)[O-]
REMARK SMILES IDX 16 1 17 2 18 3 19 4 20 5 21 6 22 7 23 8 24 9 25 10 26 11
REMARK SMILES IDX 27 12 28 13 29 14 30 15 31 16 32 17 15 18 14 19 13 20 12 21
REMARK SMILES IDX 11 22 10 23 9 24 8 25 7 26 6 27 5 28 4 29 3 30 2 31 1 32
REMARK H PARENT
REMARK Flexibility Score: inf
ROOT
ATOM      1  C   UNL     1      32.030  76.260  11.312  1.00  0.00     0.000 C 
ENDROOT
BRANCH   1   2
ATOM      2  C   UNL     1      32.940  75.447  12.250  1.00  0.00     0.000 C 
BRANCH   2   3
ATOM      3  C   UNL     1      33.157  74.008  11.758  1.00  0.00     0.000 C 
BRANCH   3   4
ATOM      4  C   UNL     1      32.544  73.764  10.368  1.00  0.00     0.000 C 
BRANCH   4   5
ATOM      5  C   UNL     1      31.722  72.464  10.298  1.00  0.00     0.000 C 
BRANCH   5   6
ATOM      6  C   UNL     1      30.400  72.481  11.094  1.00  0.00     0.000 C 
BRANCH   6   7
ATOM      7  C   UNL     1      29.519  73.726  10.886  1.00  0.00     0.000 C 
BRANCH   7   8
ATOM      8  C   UNL     1      28.969  74.300  12.203  1.00  0.00     0.000 C 
BRANCH   8   9
ATOM      9  C   UNL     1      29.726  73.774  13.433  1.00  0.00     0.000 C 
BRANCH   9  10
ATOM     10  C   UNL     1      29.930  74.851  14.514  1.00  0.00     0.000 C 
BRANCH  10  11
ATOM     11  C   UNL     1      29.644  76.270  13.997  1.00  0.00     0.000 C 
BRANCH  11  12
ATOM     12  C   UNL     1      30.661  77.301  14.515  1.00  0.00     0.000 C 
BRANCH  12  13
ATOM     13  C   UNL     1      30.324  78.743  14.094  1.00  0.00     0.006 C 
BRANCH  13  14
ATOM     14  C   UNL     1      31.527  79.704  14.133  1.00  0.00     0.053 C 
BRANCH  14  15
ATOM     15  C   UNL     1      31.561  80.537  15.378  1.00  0.00     0.041 C 
ATOM     16  O   UNL     1      30.520  81.121  15.780  1.00  0.00    -0.550 OA
ATOM     17  O   UNL     1      32.750  80.685  16.082  1.00  0.00    -0.550 OA
ENDBRANCH  14  15
ENDBRANCH  13  14
ENDBRANCH  12  13
ENDBRANCH  11  12
ENDBRANCH  10  11
ENDBRANCH   9  10
ENDBRANCH   8   9
ENDBRANCH   7   8
ENDBRANCH   6   7
ENDBRANCH   5   6
ENDBRANCH   4   5
ENDBRANCH   3   4
ENDBRANCH   2   3
ENDBRANCH   1   2
BRANCH   1  18
ATOM     18  C   UNL     1      32.525  77.700  11.106  1.00  0.00     0.000 C 
BRANCH  18  19
ATOM     19  C   UNL     1      33.873  77.969  11.791  1.00  0.00     0.000 C 
BRANCH  19  20
ATOM     20  C   UNL     1      35.018  77.983  10.766  1.00  0.00     0.000 C 
BRANCH  20  21
ATOM     21  C   UNL     1      36.142  76.999  11.124  1.00  0.00     0.000 C 
BRANCH  21  22
ATOM     22  C   UNL     1      36.352  75.927  10.039  1.00  0.00     0.000 C 
BRANCH  22  23
ATOM     23  C   UNL     1      35.199  75.879   9.025  1.00  0.00     0.000 C 
BRANCH  23  24
ATOM     24  C   UNL     1      35.620  75.264   7.680  1.00  0.00    -0.000 C 
BRANCH  24  25
ATOM     25  C   UNL     1      34.530  75.463   6.620  1.00  0.00    -0.000 C 
BRANCH  25  26
ATOM     26  C   UNL     1      33.387  74.454   6.810  1.00  0.00    -0.000 C 
BRANCH  26  27
ATOM     27  C   UNL     1      31.998  75.107   6.727  1.00  0.00    -0.000 C 
BRANCH  27  28
ATOM     28  C   UNL     1      31.816  76.242   7.748  1.00  0.00    -0.000 C 
BRANCH  28  29
ATOM     29  C   UNL     1      30.498  77.011   7.555  1.00  0.00    -0.000 C 
BRANCH  29  30
ATOM     30  C   UNL     1      29.474  76.776   8.687  1.00  0.00    -0.000 C 
BRANCH  30  31
ATOM     31  C   UNL     1      28.989  78.095   9.309  1.00  0.00    -0.003 C 
ATOM     32  C   UNL     1      28.731  77.935  10.805  1.00  0.00     0.004 C 
ENDBRANCH  30  31
ENDBRANCH  29  30
ENDBRANCH  28  29
ENDBRANCH  27  28
ENDBRANCH  26  27
ENDBRANCH  25  26
ENDBRANCH  24  25
ENDBRANCH  23  24
ENDBRANCH  22  23
ENDBRANCH  21  22
ENDBRANCH  20  21
ENDBRANCH  19  20
ENDBRANCH  18  19
ENDBRANCH   1  18
TORSDOF 28
ENDMDL
MODEL 7
REMARK VINA RESULT:    -3.790      3.118      7.458
REMARK INTER + INTRA:         -16.215
REMARK INTER:                 -10.880
REMARK INTRA:                  -5.335
REMARK UNBOUND:                -6.222
REMARK SMILES CCCCCCCCCCCCCCCCCCCCCCCCCCCCCC(=O)[O-]
REMARK SMILES IDX 16 1 17 2 18 3 19 4 20 5 21 6 22 7 23 8 24 9 25 10 26 11
REMARK SMILES IDX 27 12 28 13 29 14 30 15 31 16 32 17 15 18 14 19 13 20 12 21
REMARK SMILES IDX 11 22 10 23 9 24 8 25 7 26 6 27 5 28 4 29 3 30 2 31 1 32
REMARK H PARENT
REMARK Flexibility Score: inf
ROOT
ATOM      1  C   UNL     1      35.912  77.739  11.643  1.00  0.00     0.000 C 
ENDROOT
BRANCH   1   2
ATOM      2  C   UNL     1      36.795  76.831  10.768  1.00  0.00     0.000 C 
BRANCH   2   3
ATOM      3  C   UNL     1      35.997  75.698  10.105  1.00  0.00     0.000 C 
BRANCH   3   4
ATOM      4  C   UNL     1      36.429  75.449   8.650  1.00  0.00     0.000 C 
BRANCH   4   5
ATOM      5  C   UNL     1      35.236  75.361   7.681  1.00  0.00     0.000 C 
BRANCH   5   6
ATOM      6  C   UNL     1      34.240  76.536   7.758  1.00  0.00     0.000 C 
BRANCH   6   7
ATOM      7  C   UNL     1      32.793  76.154   8.118  1.00  0.00     0.000 C 
BRANCH   7   8
ATOM      8  C   UNL     1      32.690  74.797   8.836  1.00  0.00     0.000 C 
BRANCH   8   9
ATOM      9  C   UNL     1      31.882  74.883  10.140  1.00  0.00     0.000 C 
BRANCH   9  10
ATOM     10  C   UNL     1      32.651  74.336  11.356  1.00  0.00     0.000 C 
BRANCH  10  11
ATOM     11  C   UNL     1      31.754  74.154  12.592  1.00  0.00     0.000 C 
BRANCH  11  12
ATOM     12  C   UNL     1      30.269  73.997  12.221  1.00  0.00     0.000 C 
BRANCH  12  13
ATOM     13  C   UNL     1      29.436  73.345  13.340  1.00  0.00     0.006 C 
BRANCH  13  14
ATOM     14  C   UNL     1      30.073  73.451  14.738  1.00  0.00     0.053 C 
BRANCH  14  15
ATOM     15  C   UNL     1      29.628  72.357  15.660  1.00  0.00     0.041 C 
ATOM     16  O   UNL     1      30.478  71.625  16.234  1.00  0.00    -0.550 OA
ATOM     17  O   UNL     1      28.273  72.131  15.868  1.00  0.00    -0.550 OA
ENDBRANCH  14  15
ENDBRANCH  13  14
ENDBRANCH  12  13
ENDBRANCH  11  12
ENDBRANCH  10  11
ENDBRANCH   9  10
ENDBRANCH   8   9
ENDBRANCH   7   8
ENDBRANCH   6   7
ENDBRANCH   5   6
ENDBRANCH   4   5
ENDBRANCH   3   4
ENDBRANCH   2   3
ENDBRANCH   1   2
BRANCH   1  18
ATOM     18  C   UNL     1      34.415  77.425  11.504  1.00  0.00     0.000 C 
BRANCH  18  19
ATOM     19  C   UNL     1      33.646  78.521  10.750  1.00  0.00     0.000 C 
BRANCH  19  20
ATOM     20  C   UNL     1      32.397  78.953  11.534  1.00  0.00     0.000 C 
BRANCH  20  21
ATOM     21  C   UNL     1      31.959  77.906  12.570  1.00  0.00     0.000 C 
BRANCH  21  22
ATOM     22  C   UNL     1      30.428  77.749  12.637  1.00  0.00     0.000 C 
BRANCH  22  23
ATOM     23  C   UNL     1      29.929  77.432  14.055  1.00  0.00     0.000 C 
BRANCH  23  24
ATOM     24  C   UNL     1      31.064  77.002  14.998  1.00  0.00    -0.000 C 
BRANCH  24  25
ATOM     25  C   UNL     1      30.542  76.785  16.423  1.00  0.00    -0.000 C 
BRANCH  25  26
ATOM     26  C   UNL     1      31.566  77.263  17.464  1.00  0.00    -0.000 C 
BRANCH  26  27
ATOM     27  C   UNL     1      31.009  78.358  18.387  1.00  0.00    -0.000 C 
BRANCH  27  28
ATOM     28  C   UNL     1      30.113  79.360  17.641  1.00  0.00    -0.000 C 
BRANCH  28  29
ATOM     29  C   UNL     1      30.603  80.812  17.776  1.00  0.00    -0.000 C 
BRANCH  29  30
ATOM     30  C   UNL     1      31.900  81.102  16.990  1.00  0.00    -0.000 C 
BRANCH  30  31
ATOM     31  C   UNL     1      31.879  80.471  15.589  1.00  0.00    -0.003 C 
ATOM     32  C   UNL     1      31.257  81.418  14.567  1.00  0.00     0.004 C 
ENDBRANCH  30  31
ENDBRANCH  29  30
ENDBRANCH  28  29
ENDBRANCH  27  28
ENDBRANCH  26  27
ENDBRANCH  25  26
ENDBRANCH  24  25
ENDBRANCH  23  24
ENDBRANCH  22  23
ENDBRANCH  21  22
ENDBRANCH  20  21
ENDBRANCH  19  20
ENDBRANCH  18  19
ENDBRANCH   1  18
TORSDOF 28
ENDMDL
MODEL 8
REMARK VINA RESULT:    -3.729      1.636      4.675
REMARK INTER + INTRA:         -16.054
REMARK INTER:                 -10.774
REMARK INTRA:                  -5.280
REMARK UNBOUND:                -6.222
REMARK SMILES CCCCCCCCCCCCCCCCCCCCCCCCCCCCCC(=O)[O-]
REMARK SMILES IDX 16 1 17 2 18 3 19 4 20 5 21 6 22 7 23 8 24 9 25 10 26 11
REMARK SMILES IDX 27 12 28 13 29 14 30 15 31 16 32 17 15 18 14 19 13 20 12 21
REMARK SMILES IDX 11 22 10 23 9 24 8 25 7 26 6 27 5 28 4 29 3 30 2 31 1 32
REMARK H PARENT
REMARK Flexibility Score: inf
ROOT
ATOM      1  C   UNL     1      36.357  75.478   8.577  1.00  0.00     0.000 C 
ENDROOT
BRANCH   1   2
ATOM      2  C   UNL     1      35.282  76.155   9.447  1.00  0.00     0.000 C 
BRANCH   2   3
ATOM      3  C   UNL     1      35.753  76.384  10.891  1.00  0.00     0.000 C 
BRANCH   3   4
ATOM      4  C   UNL     1      35.247  77.717  11.470  1.00  0.00     0.000 C 
BRANCH   4   5
ATOM      5  C   UNL     1      33.904  78.159  10.863  1.00  0.00     0.000 C 
BRANCH   5   6
ATOM      6  C   UNL     1      32.859  78.664  11.879  1.00  0.00     0.000 C 
BRANCH   6   7
ATOM      7  C   UNL     1      33.126  78.281  13.346  1.00  0.00     0.000 C 
BRANCH   7   8
ATOM      8  C   UNL     1      31.836  78.044  14.150  1.00  0.00     0.000 C 
BRANCH   8   9
ATOM      9  C   UNL     1      30.698  78.987  13.726  1.00  0.00     0.000 C 
BRANCH   9  10
ATOM     10  C   UNL     1      30.349  80.025  14.808  1.00  0.00     0.000 C 
BRANCH  10  11
ATOM     11  C   UNL     1      31.370  81.173  14.879  1.00  0.00     0.000 C 
BRANCH  11  12
ATOM     12  C   UNL     1      32.326  81.036  16.077  1.00  0.00     0.000 C 
BRANCH  12  13
ATOM     13  C   UNL     1      31.616  81.197  17.434  1.00  0.00     0.006 C 
BRANCH  13  14
ATOM     14  C   UNL     1      31.902  80.058  18.429  1.00  0.00     0.053 C 
BRANCH  14  15
ATOM     15  C   UNL     1      31.195  78.787  18.071  1.00  0.00     0.041 C 
ATOM     16  O   UNL     1      31.850  77.784  17.679  1.00  0.00    -0.550 OA
ATOM     17  O   UNL     1      29.809  78.715  18.148  1.00  0.00    -0.550 OA
ENDBRANCH  14  15
ENDBRANCH  13  14
ENDBRANCH  12  13
ENDBRANCH  11  12
ENDBRANCH  10  11
ENDBRANCH   9  10
ENDBRANCH   8   9
ENDBRANCH   7   8
ENDBRANCH   6   7
ENDBRANCH   5   6
ENDBRANCH   4   5
ENDBRANCH   3   4
ENDBRANCH   2   3
ENDBRANCH   1   2
BRANCH   1  18
ATOM     18  C   UNL     1      35.812  75.004   7.222  1.00  0.00     0.000 C 
BRANCH  18  19
ATOM     19  C   UNL     1      34.436  75.603   6.892  1.00  0.00     0.000 C 
BRANCH  19  20
ATOM     20  C   UNL     1      33.528  74.560   6.225  1.00  0.00     0.000 C 
BRANCH  20  21
ATOM     21  C   UNL     1      33.272  73.340   7.124  1.00  0.00     0.000 C 
BRANCH  21  22
ATOM     22  C   UNL     1      32.268  73.640   8.252  1.00  0.00     0.000 C 
BRANCH  22  23
ATOM     23  C   UNL     1      32.075  72.448   9.203  1.00  0.00     0.000 C 
BRANCH  23  24
ATOM     24  C   UNL     1      31.913  72.882  10.669  1.00  0.00    -0.000 C 
BRANCH  24  25
ATOM     25  C   UNL     1      32.955  73.942  11.046  1.00  0.00    -0.000 C 
BRANCH  25  26
ATOM     26  C   UNL     1      32.360  74.981  12.009  1.00  0.00    -0.000 C 
BRANCH  26  27
ATOM     27  C   UNL     1      30.980  74.572  12.546  1.00  0.00    -0.000 C 
BRANCH  27  28
ATOM     28  C   UNL     1      29.894  75.619  12.245  1.00  0.00    -0.000 C 
BRANCH  28  29
ATOM     29  C   UNL     1      29.780  75.944  10.746  1.00  0.00    -0.000 C 
BRANCH  29  30
ATOM     30  C   UNL     1      29.906  77.451  10.429  1.00  0.00    -0.000 C 
BRANCH  30  31
ATOM     31  C   UNL     1      30.090  77.711   8.926  1.00  0.00    -0.003 C 
ATOM     32  C   UNL     1      31.453  77.222   8.445  1.00  0.00     0.004 C 
ENDBRANCH  30  31
ENDBRANCH  29  30
ENDBRANCH  28  29
ENDBRANCH  27  28
ENDBRANCH  26  27
ENDBRANCH  25  26
ENDBRANCH  24  25
ENDBRANCH  23  24
ENDBRANCH  22  23
ENDBRANCH  21  22
ENDBRANCH  20  21
ENDBRANCH  19  20
ENDBRANCH  18  19
ENDBRANCH   1  18
TORSDOF 28
ENDMDL
MODEL 9
REMARK VINA RESULT:    -3.703      1.483      4.206
REMARK INTER + INTRA:         -15.986
REMARK INTER:                 -10.647
REMARK INTRA:                  -5.339
REMARK UNBOUND:                -6.222
REMARK SMILES CCCCCCCCCCCCCCCCCCCCCCCCCCCCCC(=O)[O-]
REMARK SMILES IDX 16 1 17 2 18 3 19 4 20 5 21 6 22 7 23 8 24 9 25 10 26 11
REMARK SMILES IDX 27 12 28 13 29 14 30 15 31 16 32 17 15 18 14 19 13 20 12 21
REMARK SMILES IDX 11 22 10 23 9 24 8 25 7 26 6 27 5 28 4 29 3 30 2 31 1 32
REMARK H PARENT
REMARK Flexibility Score: inf
ROOT
ATOM      1  C   UNL     1      34.877  76.633  11.150  1.00  0.00     0.000 C 
ENDROOT
BRANCH   1   2
ATOM      2  C   UNL     1      33.988  77.758  11.712  1.00  0.00     0.000 C 
BRANCH   2   3
ATOM      3  C   UNL     1      33.122  78.419  10.628  1.00  0.00     0.000 C 
BRANCH   3   4
ATOM      4  C   UNL     1      33.286  77.747   9.254  1.00  0.00     0.000 C 
BRANCH   4   5
ATOM      5  C   UNL     1      31.961  77.650   8.476  1.00  0.00     0.000 C 
BRANCH   5   6
ATOM      6  C   UNL     1      30.784  77.035   9.260  1.00  0.00     0.000 C 
BRANCH   6   7
ATOM      7  C   UNL     1      29.431  77.749   9.088  1.00  0.00     0.000 C 
BRANCH   7   8
ATOM      8  C   UNL     1      28.766  78.110  10.427  1.00  0.00     0.000 C 
BRANCH   8   9
ATOM      9  C   UNL     1      29.616  77.685  11.636  1.00  0.00     0.000 C 
BRANCH   9  10
ATOM     10  C   UNL     1      28.810  77.646  12.947  1.00  0.00     0.000 C 
BRANCH  10  11
ATOM     11  C   UNL     1      29.568  78.277  14.127  1.00  0.00     0.000 C 
BRANCH  11  12
ATOM     12  C   UNL     1      31.088  78.320  13.894  1.00  0.00     0.000 C 
BRANCH  12  13
ATOM     13  C   UNL     1      31.644  79.753  13.817  1.00  0.00     0.006 C 
BRANCH  13  14
ATOM     14  C   UNL     1      31.242  80.645  15.006  1.00  0.00     0.053 C 
BRANCH  14  15
ATOM     15  C   UNL     1      32.289  80.687  16.077  1.00  0.00     0.041 C 
ATOM     16  O   UNL     1      32.708  79.618  16.597  1.00  0.00    -0.550 OA
ATOM     17  O   UNL     1      32.785  81.907  16.518  1.00  0.00    -0.550 OA
ENDBRANCH  14  15
ENDBRANCH  13  14
ENDBRANCH  12  13
ENDBRANCH  11  12
ENDBRANCH  10  11
ENDBRANCH   9  10
ENDBRANCH   8   9
ENDBRANCH   7   8
ENDBRANCH   6   7
ENDBRANCH   5   6
ENDBRANCH   4   5
ENDBRANCH   3   4
ENDBRANCH   2   3
ENDBRANCH   1   2
BRANCH   1  18
ATOM     18  C   UNL     1      36.360  77.025  11.083  1.00  0.00     0.000 C 
BRANCH  18  19
ATOM     19  C   UNL     1      37.137  76.234  10.019  1.00  0.00     0.000 C 
BRANCH  19  20
ATOM     20  C   UNL     1      36.176  75.484   9.083  1.00  0.00     0.000 C 
BRANCH  20  21
ATOM     21  C   UNL     1      36.847  75.060   7.767  1.00  0.00     0.000 C 
BRANCH  21  22
ATOM     22  C   UNL     1      35.828  74.604   6.707  1.00  0.00     0.000 C 
BRANCH  22  23
ATOM     23  C   UNL     1      34.594  75.519   6.642  1.00  0.00     0.000 C 
BRANCH  23  24
ATOM     24  C   UNL     1      33.280  74.730   6.528  1.00  0.00    -0.000 C 
BRANCH  24  25
ATOM     25  C   UNL     1      33.412  73.346   7.173  1.00  0.00    -0.000 C 
BRANCH  25  26
ATOM     26  C   UNL     1      32.398  73.170   8.314  1.00  0.00    -0.000 C 
BRANCH  26  27
ATOM     27  C   UNL     1      32.752  74.002   9.556  1.00  0.00    -0.000 C 
BRANCH  27  28
ATOM     28  C   UNL     1      31.913  73.615  10.786  1.00  0.00    -0.000 C 
BRANCH  28  29
ATOM     29  C   UNL     1      32.292  74.418  12.042  1.00  0.00    -0.000 C 
BRANCH  29  30
ATOM     30  C   UNL     1      31.106  74.660  13.002  1.00  0.00    -0.000 C 
BRANCH  30  31
ATOM     31  C   UNL     1      29.822  73.967  12.520  1.00  0.00    -0.003 C 
ATOM     32  C   UNL     1      29.354  72.916  13.522  1.00  0.00     0.004 C 
ENDBRANCH  30  31
ENDBRANCH  29  30
ENDBRANCH  28  29
ENDBRANCH  27  28
ENDBRANCH  26  27
ENDBRANCH  25  26
ENDBRANCH  24  25
ENDBRANCH  23  24
ENDBRANCH  22  23
ENDBRANCH  21  22
ENDBRANCH  20  21
ENDBRANCH  19  20
ENDBRANCH  18  19
ENDBRANCH   1  18
TORSDOF 28
ENDMDL
