MODEL 1
REMARK VINA RESULT:    -5.127      0.000      0.000
REMARK INTER + INTRA:         -11.473
REMARK INTER:                  -9.323
REMARK INTRA:                  -2.150
REMARK UNBOUND:                -2.150
REMARK SMILES CCCCCCCCCCCCCC[C@@H](C)C(=O)[O-]
REMARK SMILES IDX 9 1 10 2 11 3 12 4 13 5 14 6 15 7 16 8 17 9 18 10 19 11 8 12
REMARK SMILES IDX 7 13 6 14 5 15 4 16 3 17 2 18 1 19
REMARK H PARENT
REMARK Flexibility Score: inf
ROOT
ATOM      1  C   UNL     1     158.875 157.834 148.249  1.00  0.00     0.000 C 
ENDROOT
BRANCH   1   2
ATOM      2  C   UNL     1     159.247 156.984 149.474  1.00  0.00     0.000 C 
BRANCH   2   3
ATOM      3  C   UNL     1     160.560 157.437 150.133  1.00  0.00     0.000 C 
BRANCH   3   4
ATOM      4  C   UNL     1     160.355 157.969 151.559  1.00  0.00     0.000 C 
BRANCH   4   5
ATOM      5  C   UNL     1     160.536 159.493 151.607  1.00  0.00     0.001 C 
BRANCH   5   6
ATOM      6  C   UNL     1     159.215 160.265 151.426  1.00  0.00     0.009 C 
BRANCH   6   7
ATOM      7  C   UNL     1     159.030 161.477 152.368  1.00  0.00     0.032 C 
ATOM      8  C   UNL     1     158.477 162.710 151.641  1.00  0.00     0.014 C 
BRANCH   7   9
ATOM      9  C   UNL     1     158.115 161.102 153.503  1.00  0.00     0.044 C 
ATOM     10  O   UNL     1     158.032 159.906 153.891  1.00  0.00    -0.550 OA
ATOM     11  O   UNL     1     157.352 162.080 154.131  1.00  0.00    -0.550 OA
ENDBRANCH   7   9
ENDBRANCH   6   7
ENDBRANCH   5   6
ENDBRANCH   4   5
ENDBRANCH   3   4
ENDBRANCH   2   3
ENDBRANCH   1   2
BRANCH   1  12
ATOM     12  C   UNL     1     159.968 158.867 147.946  1.00  0.00     0.000 C 
BRANCH  12  13
ATOM     13  C   UNL     1     159.377 160.279 147.844  1.00  0.00    -0.000 C 
BRANCH  13  14
ATOM     14  C   UNL     1     160.489 161.332 147.731  1.00  0.00    -0.000 C 
BRANCH  14  15
ATOM     15  C   UNL     1     160.236 162.569 148.613  1.00  0.00    -0.000 C 
BRANCH  15  16
ATOM     16  C   UNL     1     161.449 163.037 149.439  1.00  0.00    -0.000 C 
BRANCH  16  17
ATOM     17  C   UNL     1     162.464 161.933 149.793  1.00  0.00    -0.000 C 
BRANCH  17  18
ATOM     18  C   UNL     1     163.726 162.456 150.508  1.00  0.00    -0.003 C 
ATOM     19  C   UNL     1     164.306 163.705 149.846  1.00  0.00     0.004 C 
ENDBRANCH  17  18
ENDBRANCH  16  17
ENDBRANCH  15  16
ENDBRANCH  14  15
ENDBRANCH  13  14
ENDBRANCH  12  13
ENDBRANCH   1  12
TORSDOF 14
ENDMDL
MODEL 2
REMARK VINA RESULT:    -5.099      2.749      6.316
REMARK INTER + INTRA:         -11.422
REMARK INTER:                  -9.570
REMARK INTRA:                  -1.852
REMARK UNBOUND:                -2.150
REMARK SMILES CCCCCCCCCCCCCC[C@@H](C)C(=O)[O-]
REMARK SMILES IDX 9 1 10 2 11 3 12 4 13 5 14 6 15 7 16 8 17 9 18 10 19 11 8 12
REMARK SMILES IDX 7 13 6 14 5 15 4 16 3 17 2 18 1 19
REMARK H PARENT
REMARK Flexibility Score: inf
ROOT
ATOM      1  C   UNL     1     159.363 160.261 147.612  1.00  0.00     0.000 C 
ENDROOT
BRANCH   1   2
ATOM      2  C   UNL     1     160.251 161.472 147.938  1.00  0.00     0.000 C 
BRANCH   2   3
ATOM      3  C   UNL     1     160.262 161.813 149.437  1.00  0.00     0.000 C 
BRANCH   3   4
ATOM      4  C   UNL     1     158.956 161.419 150.144  1.00  0.00     0.000 C 
BRANCH   4   5
ATOM      5  C   UNL     1     159.242 160.587 151.401  1.00  0.00     0.001 C 
BRANCH   5   6
ATOM      6  C   UNL     1     160.434 159.625 151.232  1.00  0.00     0.009 C 
BRANCH   6   7
ATOM      7  C   UNL     1     160.409 158.384 152.153  1.00  0.00     0.032 C 
ATOM      8  C   UNL     1     160.665 157.077 151.389  1.00  0.00     0.014 C 
BRANCH   7   9
ATOM      9  C   UNL     1     161.432 158.542 153.246  1.00  0.00     0.044 C 
ATOM     10  O   UNL     1     161.746 159.687 153.669  1.00  0.00    -0.550 OA
ATOM     11  O   UNL     1     162.040 157.419 153.796  1.00  0.00    -0.550 OA
ENDBRANCH   7   9
ENDBRANCH   6   7
ENDBRANCH   5   6
ENDBRANCH   4   5
ENDBRANCH   3   4
ENDBRANCH   2   3
ENDBRANCH   1   2
BRANCH   1  12
ATOM     12  C   UNL     1     160.158 158.954 147.719  1.00  0.00     0.000 C 
BRANCH  12  13
ATOM     13  C   UNL     1     159.219 157.749 147.855  1.00  0.00    -0.000 C 
BRANCH  13  14
ATOM     14  C   UNL     1     158.110 158.029 148.880  1.00  0.00    -0.000 C 
BRANCH  14  15
ATOM     15  C   UNL     1     157.602 156.754 149.579  1.00  0.00    -0.000 C 
BRANCH  15  16
ATOM     16  C   UNL     1     156.167 156.842 150.128  1.00  0.00    -0.000 C 
BRANCH  16  17
ATOM     17  C   UNL     1     155.498 155.488 150.429  1.00  0.00    -0.000 C 
BRANCH  17  18
ATOM     18  C   UNL     1     154.054 155.376 149.899  1.00  0.00    -0.003 C 
ATOM     19  C   UNL     1     153.915 154.348 148.777  1.00  0.00     0.004 C 
ENDBRANCH  17  18
ENDBRANCH  16  17
ENDBRANCH  15  16
ENDBRANCH  14  15
ENDBRANCH  13  14
ENDBRANCH  12  13
ENDBRANCH   1  12
TORSDOF 14
ENDMDL
MODEL 3
REMARK VINA RESULT:    -5.090      2.511      4.234
REMARK INTER + INTRA:         -11.406
REMARK INTER:                  -9.564
REMARK INTRA:                  -1.842
REMARK UNBOUND:                -2.150
REMARK SMILES CCCCCCCCCCCCCC[C@@H](C)C(=O)[O-]
REMARK SMILES IDX 9 1 10 2 11 3 12 4 13 5 14 6 15 7 16 8 17 9 18 10 19 11 8 12
REMARK SMILES IDX 7 13 6 14 5 15 4 16 3 17 2 18 1 19
REMARK H PARENT
REMARK Flexibility Score: inf
ROOT
ATOM      1  C   UNL     1     158.852 161.719 152.626  1.00  0.00     0.000 C 
ENDROOT
BRANCH   1   2
ATOM      2  C   UNL     1     158.886 160.194 152.437  1.00  0.00     0.000 C 
BRANCH   2   3
ATOM      3  C   UNL     1     160.032 159.525 153.213  1.00  0.00     0.000 C 
BRANCH   3   4
ATOM      4  C   UNL     1     160.697 158.388 152.425  1.00  0.00     0.000 C 
BRANCH   4   5
ATOM      5  C   UNL     1     159.745 157.828 151.359  1.00  0.00     0.001 C 
BRANCH   5   6
ATOM      6  C   UNL     1     160.453 157.493 150.032  1.00  0.00     0.009 C 
BRANCH   6   7
ATOM      7  C   UNL     1     159.573 157.630 148.768  1.00  0.00     0.032 C 
ATOM      8  C   UNL     1     158.115 157.978 149.100  1.00  0.00     0.014 C 
BRANCH   7   9
ATOM      9  C   UNL     1     160.152 158.678 147.857  1.00  0.00     0.044 C 
ATOM     10  O   UNL     1     161.292 159.165 148.084  1.00  0.00    -0.550 OA
ATOM     11  O   UNL     1     159.427 159.117 146.755  1.00  0.00    -0.550 OA
ENDBRANCH   7   9
ENDBRANCH   6   7
ENDBRANCH   5   6
ENDBRANCH   4   5
ENDBRANCH   3   4
ENDBRANCH   2   3
ENDBRANCH   1   2
BRANCH   1  12
ATOM     12  C   UNL     1     158.867 162.439 151.272  1.00  0.00     0.000 C 
BRANCH  12  13
ATOM     13  C   UNL     1     159.384 161.515 150.162  1.00  0.00    -0.000 C 
BRANCH  13  14
ATOM     14  C   UNL     1     159.964 162.328 148.996  1.00  0.00    -0.000 C 
BRANCH  14  15
ATOM     15  C   UNL     1     161.355 162.913 149.305  1.00  0.00    -0.000 C 
BRANCH  15  16
ATOM     16  C   UNL     1     162.355 161.919 149.924  1.00  0.00    -0.000 C 
BRANCH  16  17
ATOM     17  C   UNL     1     163.699 162.531 150.361  1.00  0.00    -0.000 C 
BRANCH  17  18
ATOM     18  C   UNL     1     163.864 164.014 149.971  1.00  0.00    -0.003 C 
ATOM     19  C   UNL     1     165.012 164.696 150.715  1.00  0.00     0.004 C 
ENDBRANCH  17  18
ENDBRANCH  16  17
ENDBRANCH  15  16
ENDBRANCH  14  15
ENDBRANCH  13  14
ENDBRANCH  12  13
ENDBRANCH   1  12
TORSDOF 14
ENDMDL
MODEL 4
REMARK VINA RESULT:    -5.066      3.544      5.324
REMARK INTER + INTRA:         -11.363
REMARK INTER:                  -9.419
REMARK INTRA:                  -1.943
REMARK UNBOUND:                -2.150
REMARK SMILES CCCCCCCCCCCCCC[C@@H](C)C(=O)[O-]
REMARK SMILES IDX 9 1 10 2 11 3 12 4 13 5 14 6 15 7 16 8 17 9 18 10 19 11 8 12
REMARK SMILES IDX 7 13 6 14 5 15 4 16 3 17 2 18 1 19
REMARK H PARENT
REMARK Flexibility Score: inf
ROOT
ATOM      1  C   UNL     1     160.370 158.867 147.939  1.00  0.00     0.000 C 
ENDROOT
BRANCH   1   2
ATOM      2  C   UNL     1     159.052 158.085 148.047  1.00  0.00     0.000 C 
BRANCH   2   3
ATOM      3  C   UNL     1     159.210 156.758 148.807  1.00  0.00     0.000 C 
BRANCH   3   4
ATOM      4  C   UNL     1     157.864 156.164 149.249  1.00  0.00     0.000 C 
BRANCH   4   5
ATOM      5  C   UNL     1     157.004 157.221 149.957  1.00  0.00     0.001 C 
BRANCH   5   6
ATOM      6  C   UNL     1     155.832 156.614 150.752  1.00  0.00     0.009 C 
BRANCH   6   7
ATOM      7  C   UNL     1     155.371 155.218 150.274  1.00  0.00     0.032 C 
ATOM      8  C   UNL     1     155.068 154.267 151.440  1.00  0.00     0.014 C 
BRANCH   7   9
ATOM      9  C   UNL     1     154.153 155.357 149.401  1.00  0.00     0.044 C 
ATOM     10  O   UNL     1     153.567 156.468 149.291  1.00  0.00    -0.550 OA
ATOM     11  O   UNL     1     153.665 154.255 148.709  1.00  0.00    -0.550 OA
ENDBRANCH   7   9
ENDBRANCH   6   7
ENDBRANCH   5   6
ENDBRANCH   4   5
ENDBRANCH   3   4
ENDBRANCH   2   3
ENDBRANCH   1   2
BRANCH   1  12
ATOM     12  C   UNL     1     160.217 160.073 147.004  1.00  0.00     0.000 C 
BRANCH  12  13
ATOM     13  C   UNL     1     160.291 161.390 147.787  1.00  0.00    -0.000 C 
BRANCH  13  14
ATOM     14  C   UNL     1     161.205 161.249 149.012  1.00  0.00    -0.000 C 
BRANCH  14  15
ATOM     15  C   UNL     1     160.749 162.111 150.204  1.00  0.00    -0.000 C 
BRANCH  15  16
ATOM     16  C   UNL     1     159.286 161.900 150.635  1.00  0.00    -0.000 C 
BRANCH  16  17
ATOM     17  C   UNL     1     158.887 160.437 150.904  1.00  0.00    -0.000 C 
BRANCH  17  18
ATOM     18  C   UNL     1     159.585 159.818 152.132  1.00  0.00    -0.003 C 
ATOM     19  C   UNL     1     160.434 158.597 151.776  1.00  0.00     0.004 C 
ENDBRANCH  17  18
ENDBRANCH  16  17
ENDBRANCH  15  16
ENDBRANCH  14  15
ENDBRANCH  13  14
ENDBRANCH  12  13
ENDBRANCH   1  12
TORSDOF 14
ENDMDL
MODEL 5
REMARK VINA RESULT:    -5.063      0.886      1.501
REMARK INTER + INTRA:         -11.356
REMARK INTER:                  -9.506
REMARK INTRA:                  -1.850
REMARK UNBOUND:                -2.150
REMARK SMILES CCCCCCCCCCCCCC[C@@H](C)C(=O)[O-]
REMARK SMILES IDX 9 1 10 2 11 3 12 4 13 5 14 6 15 7 16 8 17 9 18 10 19 11 8 12
REMARK SMILES IDX 7 13 6 14 5 15 4 16 3 17 2 18 1 19
REMARK H PARENT
REMARK Flexibility Score: inf
ROOT
ATOM      1  C   UNL     1     159.412 158.623 147.477  1.00  0.00     0.000 C 
ENDROOT
BRANCH   1   2
ATOM      2  C   UNL     1     159.016 157.498 148.446  1.00  0.00     0.000 C 
BRANCH   2   3
ATOM      3  C   UNL     1     158.829 157.997 149.888  1.00  0.00     0.000 C 
BRANCH   3   4
ATOM      4  C   UNL     1     160.125 157.936 150.710  1.00  0.00     0.000 C 
BRANCH   4   5
ATOM      5  C   UNL     1     160.170 159.066 151.748  1.00  0.00     0.001 C 
BRANCH   5   6
ATOM      6  C   UNL     1     158.875 159.900 151.792  1.00  0.00     0.009 C 
BRANCH   6   7
ATOM      7  C   UNL     1     159.048 161.352 152.294  1.00  0.00     0.032 C 
ATOM      8  C   UNL     1     158.797 162.390 151.192  1.00  0.00     0.014 C 
BRANCH   7   9
ATOM      9  C   UNL     1     158.119 161.603 153.451  1.00  0.00     0.044 C 
ATOM     10  O   UNL     1     157.307 162.566 153.423  1.00  0.00    -0.550 OA
ATOM     11  O   UNL     1     158.152 160.768 154.562  1.00  0.00    -0.550 OA
ENDBRANCH   7   9
ENDBRANCH   6   7
ENDBRANCH   5   6
ENDBRANCH   4   5
ENDBRANCH   3   4
ENDBRANCH   2   3
ENDBRANCH   1   2
BRANCH   1  12
ATOM     12  C   UNL     1     158.955 159.988 148.006  1.00  0.00     0.000 C 
BRANCH  12  13
ATOM     13  C   UNL     1     160.029 161.058 147.768  1.00  0.00    -0.000 C 
BRANCH  13  14
ATOM     14  C   UNL     1     161.148 160.955 148.814  1.00  0.00    -0.000 C 
BRANCH  14  15
ATOM     15  C   UNL     1     161.709 162.327 149.230  1.00  0.00    -0.000 C 
BRANCH  15  16
ATOM     16  C   UNL     1     163.022 162.276 150.033  1.00  0.00    -0.000 C 
BRANCH  16  17
ATOM     17  C   UNL     1     163.764 163.620 150.159  1.00  0.00    -0.000 C 
BRANCH  17  18
ATOM     18  C   UNL     1     165.206 163.588 149.612  1.00  0.00    -0.003 C 
ATOM     19  C   UNL     1     165.621 164.910 148.967  1.00  0.00     0.004 C 
ENDBRANCH  17  18
ENDBRANCH  16  17
ENDBRANCH  15  16
ENDBRANCH  14  15
ENDBRANCH  13  14
ENDBRANCH  12  13
ENDBRANCH   1  12
TORSDOF 14
ENDMDL
MODEL 6
REMARK VINA RESULT:    -5.048      2.213      5.616
REMARK INTER + INTRA:         -11.329
REMARK INTER:                  -9.678
REMARK INTRA:                  -1.650
REMARK UNBOUND:                -2.150
REMARK SMILES CCCCCCCCCCCCCC[C@@H](C)C(=O)[O-]
REMARK SMILES IDX 9 1 10 2 11 3 12 4 13 5 14 6 15 7 16 8 17 9 18 10 19 11 8 12
REMARK SMILES IDX 7 13 6 14 5 15 4 16 3 17 2 18 1 19
REMARK H PARENT
REMARK Flexibility Score: inf
ROOT
ATOM      1  C   UNL     1     159.715 160.356 147.011  1.00  0.00     0.000 C 
ENDROOT
BRANCH   1   2
ATOM      2  C   UNL     1     160.043 161.371 148.117  1.00  0.00     0.000 C 
BRANCH   2   3
ATOM      3  C   UNL     1     161.314 161.005 148.900  1.00  0.00     0.000 C 
BRANCH   3   4
ATOM      4  C   UNL     1     161.152 161.191 150.416  1.00  0.00     0.000 C 
BRANCH   4   5
ATOM      5  C   UNL     1     160.696 159.886 151.083  1.00  0.00     0.001 C 
BRANCH   5   6
ATOM      6  C   UNL     1     159.195 159.877 151.432  1.00  0.00     0.009 C 
BRANCH   6   7
ATOM      7  C   UNL     1     158.874 159.784 152.941  1.00  0.00     0.032 C 
ATOM      8  C   UNL     1     160.107 159.435 153.786  1.00  0.00     0.014 C 
BRANCH   7   9
ATOM      9  C   UNL     1     158.285 161.085 153.415  1.00  0.00     0.044 C 
ATOM     10  O   UNL     1     158.543 162.162 152.814  1.00  0.00    -0.550 OA
ATOM     11  O   UNL     1     157.450 161.105 154.526  1.00  0.00    -0.550 OA
ENDBRANCH   7   9
ENDBRANCH   6   7
ENDBRANCH   5   6
ENDBRANCH   4   5
ENDBRANCH   3   4
ENDBRANCH   2   3
ENDBRANCH   1   2
BRANCH   1  12
ATOM     12  C   UNL     1     160.048 158.929 147.461  1.00  0.00     0.000 C 
BRANCH  12  13
ATOM     13  C   UNL     1     158.869 158.300 148.215  1.00  0.00    -0.000 C 
BRANCH  13  14
ATOM     14  C   UNL     1     159.123 156.811 148.489  1.00  0.00    -0.000 C 
BRANCH  14  15
ATOM     15  C   UNL     1     158.033 156.166 149.365  1.00  0.00    -0.000 C 
BRANCH  15  16
ATOM     16  C   UNL     1     157.061 157.159 150.028  1.00  0.00    -0.000 C 
BRANCH  16  17
ATOM     17  C   UNL     1     155.594 156.695 150.091  1.00  0.00    -0.000 C 
BRANCH  17  18
ATOM     18  C   UNL     1     155.429 155.169 150.234  1.00  0.00    -0.003 C 
ATOM     19  C   UNL     1     153.965 154.729 150.226  1.00  0.00     0.004 C 
ENDBRANCH  17  18
ENDBRANCH  16  17
ENDBRANCH  15  16
ENDBRANCH  14  15
ENDBRANCH  13  14
ENDBRANCH  12  13
ENDBRANCH   1  12
TORSDOF 14
ENDMDL
MODEL 7
REMARK VINA RESULT:    -5.024      3.039      6.089
REMARK INTER + INTRA:         -11.286
REMARK INTER:                  -9.195
REMARK INTRA:                  -2.090
REMARK UNBOUND:                -2.150
REMARK SMILES CCCCCCCCCCCCCC[C@@H](C)C(=O)[O-]
REMARK SMILES IDX 9 1 10 2 11 3 12 4 13 5 14 6 15 7 16 8 17 9 18 10 19 11 8 12
REMARK SMILES IDX 7 13 6 14 5 15 4 16 3 17 2 18 1 19
REMARK H PARENT
REMARK Flexibility Score: inf
ROOT
ATOM      1  C   UNL     1     158.838 162.732 151.155  1.00  0.00     0.000 C 
ENDROOT
BRANCH   1   2
ATOM      2  C   UNL     1     159.061 162.016 149.813  1.00  0.00     0.000 C 
BRANCH   2   3
ATOM      3  C   UNL     1     160.351 162.465 149.108  1.00  0.00     0.000 C 
BRANCH   3   4
ATOM      4  C   UNL     1     161.486 161.439 149.239  1.00  0.00     0.000 C 
BRANCH   4   5
ATOM      5  C   UNL     1     162.633 161.995 150.094  1.00  0.00     0.001 C 
BRANCH   5   6
ATOM      6  C   UNL     1     163.037 163.430 149.704  1.00  0.00     0.009 C 
BRANCH   6   7
ATOM      7  C   UNL     1     164.322 163.956 150.385  1.00  0.00     0.032 C 
ATOM      8  C   UNL     1     165.574 163.745 149.524  1.00  0.00     0.014 C 
BRANCH   7   9
ATOM      9  C   UNL     1     164.164 165.419 150.703  1.00  0.00     0.044 C 
ATOM     10  O   UNL     1     163.564 166.187 149.905  1.00  0.00    -0.550 OA
ATOM     11  O   UNL     1     164.684 165.932 151.886  1.00  0.00    -0.550 OA
ENDBRANCH   7   9
ENDBRANCH   6   7
ENDBRANCH   5   6
ENDBRANCH   4   5
ENDBRANCH   3   4
ENDBRANCH   2   3
ENDBRANCH   1   2
BRANCH   1  12
ATOM     12  C   UNL     1     158.843 161.732 152.317  1.00  0.00     0.000 C 
BRANCH  12  13
ATOM     13  C   UNL     1     158.861 160.287 151.800  1.00  0.00    -0.000 C 
BRANCH  13  14
ATOM     14  C   UNL     1     160.050 159.511 152.382  1.00  0.00    -0.000 C 
BRANCH  14  15
ATOM     15  C   UNL     1     160.623 158.467 151.404  1.00  0.00    -0.000 C 
BRANCH  15  16
ATOM     16  C   UNL     1     159.572 157.722 150.561  1.00  0.00    -0.000 C 
BRANCH  16  17
ATOM     17  C   UNL     1     159.844 157.703 149.045  1.00  0.00    -0.000 C 
BRANCH  17  18
ATOM     18  C   UNL     1     158.977 158.697 148.245  1.00  0.00    -0.003 C 
ATOM     19  C   UNL     1     159.677 159.212 146.987  1.00  0.00     0.004 C 
ENDBRANCH  17  18
ENDBRANCH  16  17
ENDBRANCH  15  16
ENDBRANCH  14  15
ENDBRANCH  13  14
ENDBRANCH  12  13
ENDBRANCH   1  12
TORSDOF 14
ENDMDL
MODEL 8
REMARK VINA RESULT:    -5.023      2.326      5.661
REMARK INTER + INTRA:         -11.284
REMARK INTER:                  -9.418
REMARK INTRA:                  -1.866
REMARK UNBOUND:                -2.150
REMARK SMILES CCCCCCCCCCCCCC[C@@H](C)C(=O)[O-]
REMARK SMILES IDX 9 1 10 2 11 3 12 4 13 5 14 6 15 7 16 8 17 9 18 10 19 11 8 12
REMARK SMILES IDX 7 13 6 14 5 15 4 16 3 17 2 18 1 19
REMARK H PARENT
REMARK Flexibility Score: inf
ROOT
ATOM      1  C   UNL     1     160.696 161.961 148.188  1.00  0.00     0.000 C 
ENDROOT
BRANCH   1   2
ATOM      2  C   UNL     1     160.189 162.681 149.448  1.00  0.00     0.000 C 
BRANCH   2   3
ATOM      3  C   UNL     1     159.012 161.950 150.115  1.00  0.00     0.000 C 
BRANCH   3   4
ATOM      4  C   UNL     1     159.222 161.742 151.622  1.00  0.00     0.000 C 
BRANCH   4   5
ATOM      5  C   UNL     1     159.168 160.251 151.983  1.00  0.00     0.001 C 
BRANCH   5   6
ATOM      6  C   UNL     1     160.528 159.542 151.831  1.00  0.00     0.009 C 
BRANCH   6   7
ATOM      7  C   UNL     1     160.704 158.272 152.695  1.00  0.00     0.032 C 
ATOM      8  C   UNL     1     161.030 157.029 151.856  1.00  0.00     0.014 C 
BRANCH   7   9
ATOM      9  C   UNL     1     161.789 158.497 153.713  1.00  0.00     0.044 C 
ATOM     10  O   UNL     1     162.162 159.665 154.004  1.00  0.00    -0.550 OA
ATOM     11  O   UNL     1     162.387 157.411 154.341  1.00  0.00    -0.550 OA
ENDBRANCH   7   9
ENDBRANCH   6   7
ENDBRANCH   5   6
ENDBRANCH   4   5
ENDBRANCH   3   4
ENDBRANCH   2   3
ENDBRANCH   1   2
BRANCH   1  12
ATOM     12  C   UNL     1     160.502 160.445 148.308  1.00  0.00     0.000 C 
BRANCH  12  13
ATOM     13  C   UNL     1     159.974 159.851 146.996  1.00  0.00    -0.000 C 
BRANCH  13  14
ATOM     14  C   UNL     1     159.282 158.503 147.242  1.00  0.00    -0.000 C 
BRANCH  14  15
ATOM     15  C   UNL     1     159.354 158.051 148.712  1.00  0.00    -0.000 C 
BRANCH  15  16
ATOM     16  C   UNL     1     158.000 158.004 149.444  1.00  0.00    -0.000 C 
BRANCH  16  17
ATOM     17  C   UNL     1     157.386 156.599 149.593  1.00  0.00    -0.000 C 
BRANCH  17  18
ATOM     18  C   UNL     1     155.930 156.608 150.101  1.00  0.00    -0.003 C 
ATOM     19  C   UNL     1     155.247 155.247 149.961  1.00  0.00     0.004 C 
ENDBRANCH  17  18
ENDBRANCH  16  17
ENDBRANCH  15  16
ENDBRANCH  14  15
ENDBRANCH  13  14
ENDBRANCH  12  13
ENDBRANCH   1  12
TORSDOF 14
ENDMDL
MODEL 9
REMARK VINA RESULT:    -4.938      2.805      5.943
REMARK INTER + INTRA:         -11.128
REMARK INTER:                  -8.851
REMARK INTRA:                  -2.278
REMARK UNBOUND:                -2.150
REMARK SMILES CCCCCCCCCCCCCC[C@@H](C)C(=O)[O-]
REMARK SMILES IDX 9 1 10 2 11 3 12 4 13 5 14 6 15 7 16 8 17 9 18 10 19 11 8 12
REMARK SMILES IDX 7 13 6 14 5 15 4 16 3 17 2 18 1 19
REMARK H PARENT
REMARK Flexibility Score: inf
ROOT
ATOM      1  C   UNL     1     160.711 157.850 152.470  1.00  0.00     0.000 C 
ENDROOT
BRANCH   1   2
ATOM      2  C   UNL     1     160.846 159.338 152.110  1.00  0.00     0.000 C 
BRANCH   2   3
ATOM      3  C   UNL     1     159.819 160.220 152.839  1.00  0.00     0.000 C 
BRANCH   3   4
ATOM      4  C   UNL     1     158.695 160.709 151.913  1.00  0.00     0.000 C 
BRANCH   4   5
ATOM      5  C   UNL     1     158.996 162.116 151.380  1.00  0.00     0.001 C 
BRANCH   5   6
ATOM      6  C   UNL     1     159.119 162.168 149.845  1.00  0.00     0.009 C 
BRANCH   6   7
ATOM      7  C   UNL     1     160.360 161.453 149.263  1.00  0.00     0.032 C 
ATOM      8  C   UNL     1     160.212 161.140 147.768  1.00  0.00     0.014 C 
BRANCH   7   9
ATOM      9  C   UNL     1     161.584 162.299 149.487  1.00  0.00     0.044 C 
ATOM     10  O   UNL     1     162.643 161.787 149.940  1.00  0.00    -0.550 OA
ATOM     11  O   UNL     1     161.553 163.658 149.193  1.00  0.00    -0.550 OA
ENDBRANCH   7   9
ENDBRANCH   6   7
ENDBRANCH   5   6
ENDBRANCH   4   5
ENDBRANCH   3   4
ENDBRANCH   2   3
ENDBRANCH   1   2
BRANCH   1  12
ATOM     12  C   UNL     1     160.703 156.979 151.207  1.00  0.00     0.000 C 
BRANCH  12  13
ATOM     13  C   UNL     1     160.706 157.845 149.941  1.00  0.00    -0.000 C 
BRANCH  13  14
ATOM     14  C   UNL     1     159.565 157.442 148.996  1.00  0.00    -0.000 C 
BRANCH  14  15
ATOM     15  C   UNL     1     158.287 158.274 149.209  1.00  0.00    -0.000 C 
BRANCH  15  16
ATOM     16  C   UNL     1     157.190 157.579 150.037  1.00  0.00    -0.000 C 
BRANCH  16  17
ATOM     17  C   UNL     1     156.961 156.093 149.702  1.00  0.00    -0.000 C 
BRANCH  17  18
ATOM     18  C   UNL     1     155.646 155.522 150.273  1.00  0.00    -0.003 C 
ATOM     19  C   UNL     1     154.408 156.234 149.728  1.00  0.00     0.004 C 
ENDBRANCH  17  18
ENDBRANCH  16  17
ENDBRANCH  15  16
ENDBRANCH  14  15
ENDBRANCH  13  14
ENDBRANCH  12  13
ENDBRANCH   1  12
TORSDOF 14
ENDMDL
