MODEL 1
REMARK VINA RESULT:    -5.861      0.000      0.000
REMARK INTER + INTRA:          -6.852
REMARK INTER:                  -6.718
REMARK INTRA:                  -0.135
REMARK UNBOUND:                -0.135
REMARK SMILES O=C([O-])C=Cc1ccc(O)cc1
REMARK SMILES IDX 6 1 7 2 12 3 8 4 11 5 9 6 5 7 4 8 2 9 1 10 3 11 10 12
REMARK H PARENT 10 13
REMARK Flexibility Score: inf
ROOT
ATOM      1  C   UNL     1     -30.233  17.492  56.552  1.00  0.00    -0.025 A 
ATOM      2  C   UNL     1     -29.247  16.949  57.393  1.00  0.00     0.012 A 
ATOM      3  C   UNL     1     -29.829  18.254  55.436  1.00  0.00     0.012 A 
ATOM      4  C   UNL     1     -27.891  17.181  57.143  1.00  0.00     0.047 A 
ATOM      5  C   UNL     1     -28.471  18.483  55.189  1.00  0.00     0.047 A 
ATOM      6  C   UNL     1     -27.500  17.949  56.044  1.00  0.00     0.115 A 
ENDROOT
BRANCH   1   7
ATOM      7  C   UNL     1     -31.658  17.210  56.853  1.00  0.00     0.010 C 
ATOM      8  C   UNL     1     -32.294  16.094  56.470  1.00  0.00     0.025 C 
BRANCH   8   9
ATOM      9  C   UNL     1     -33.714  15.854  56.777  1.00  0.00     0.064 C 
ATOM     10  O   UNL     1     -34.073  15.412  57.901  1.00  0.00    -0.545 OA
ATOM     11  O   UNL     1     -34.675  16.117  55.809  1.00  0.00    -0.545 OA
ENDBRANCH   8   9
ENDBRANCH   1   7
BRANCH   6  12
ATOM     12  O   UNL     1     -26.145  18.172  55.808  1.00  0.00    -0.508 OA
ATOM     13  H   UNL     1     -25.463  17.427  55.889  1.00  0.00     0.293 HD
ENDBRANCH   6  12
TORSDOF 3
ENDMDL
MODEL 2
REMARK VINA RESULT:    -5.805      2.580      6.571
REMARK INTER + INTRA:          -6.788
REMARK INTER:                  -6.638
REMARK INTRA:                  -0.150
REMARK UNBOUND:                -0.135
REMARK SMILES O=C([O-])C=Cc1ccc(O)cc1
REMARK SMILES IDX 6 1 7 2 12 3 8 4 11 5 9 6 5 7 4 8 2 9 1 10 3 11 10 12
REMARK H PARENT 10 13
REMARK Flexibility Score: inf
ROOT
ATOM      1  C   UNL     1     -33.532  15.360  57.202  1.00  0.00    -0.025 A 
ATOM      2  C   UNL     1     -33.976  15.670  55.906  1.00  0.00     0.012 A 
ATOM      3  C   UNL     1     -34.296  14.472  57.987  1.00  0.00     0.012 A 
ATOM      4  C   UNL     1     -35.166  15.127  55.412  1.00  0.00     0.047 A 
ATOM      5  C   UNL     1     -35.486  13.931  57.489  1.00  0.00     0.047 A 
ATOM      6  C   UNL     1     -35.925  14.260  56.201  1.00  0.00     0.115 A 
ENDROOT
BRANCH   1   7
ATOM      7  C   UNL     1     -32.257  15.953  57.678  1.00  0.00     0.010 C 
ATOM      8  C   UNL     1     -31.631  16.966  57.063  1.00  0.00     0.025 C 
BRANCH   8   9
ATOM      9  C   UNL     1     -30.360  17.520  57.558  1.00  0.00     0.064 C 
ATOM     10  O   UNL     1     -29.281  16.880  57.445  1.00  0.00    -0.545 OA
ATOM     11  O   UNL     1     -30.351  18.770  58.163  1.00  0.00    -0.545 OA
ENDBRANCH   8   9
ENDBRANCH   1   7
BRANCH   6  12
ATOM     12  O   UNL     1     -37.109  13.728  55.696  1.00  0.00    -0.508 OA
ATOM     13  H   UNL     1     -37.930  14.304  55.552  1.00  0.00     0.293 HD
ENDBRANCH   6  12
TORSDOF 3
ENDMDL
MODEL 3
REMARK VINA RESULT:    -5.763      2.539      6.424
REMARK INTER + INTRA:          -6.740
REMARK INTER:                  -6.601
REMARK INTRA:                  -0.139
REMARK UNBOUND:                -0.135
REMARK SMILES O=C([O-])C=Cc1ccc(O)cc1
REMARK SMILES IDX 6 1 7 2 12 3 8 4 11 5 9 6 5 7 4 8 2 9 1 10 3 11 10 12
REMARK H PARENT 10 13
REMARK Flexibility Score: inf
ROOT
ATOM      1  C   UNL     1     -33.514  15.431  57.099  1.00  0.00    -0.025 A 
ATOM      2  C   UNL     1     -34.265  14.591  57.938  1.00  0.00     0.012 A 
ATOM      3  C   UNL     1     -33.999  15.706  55.803  1.00  0.00     0.012 A 
ATOM      4  C   UNL     1     -35.458  14.017  57.488  1.00  0.00     0.047 A 
ATOM      5  C   UNL     1     -35.193  15.129  55.357  1.00  0.00     0.047 A 
ATOM      6  C   UNL     1     -35.923  14.281  56.198  1.00  0.00     0.115 A 
ENDROOT
BRANCH   1   7
ATOM      7  C   UNL     1     -32.260  16.025  57.625  1.00  0.00     0.010 C 
ATOM      8  C   UNL     1     -31.537  16.943  56.969  1.00  0.00     0.025 C 
BRANCH   8   9
ATOM      9  C   UNL     1     -30.290  17.501  57.518  1.00  0.00     0.064 C 
ATOM     10  O   UNL     1     -29.204  16.866  57.446  1.00  0.00    -0.545 OA
ATOM     11  O   UNL     1     -30.312  18.748  58.129  1.00  0.00    -0.545 OA
ENDBRANCH   8   9
ENDBRANCH   1   7
BRANCH   6  12
ATOM     12  O   UNL     1     -37.113  13.702  55.763  1.00  0.00    -0.508 OA
ATOM     13  H   UNL     1     -37.118  12.840  55.229  1.00  0.00     0.293 HD
ENDBRANCH   6  12
TORSDOF 3
ENDMDL
MODEL 4
REMARK VINA RESULT:    -5.733      3.095      6.805
REMARK INTER + INTRA:          -6.706
REMARK INTER:                  -6.555
REMARK INTRA:                  -0.151
REMARK UNBOUND:                -0.135
REMARK SMILES O=C([O-])C=Cc1ccc(O)cc1
REMARK SMILES IDX 6 1 7 2 12 3 8 4 11 5 9 6 5 7 4 8 2 9 1 10 3 11 10 12
REMARK H PARENT 10 13
REMARK Flexibility Score: inf
ROOT
ATOM      1  C   UNL     1     -32.988  14.148  57.703  1.00  0.00    -0.025 A 
ATOM      2  C   UNL     1     -33.853  14.781  58.612  1.00  0.00     0.012 A 
ATOM      3  C   UNL     1     -33.231  12.802  57.360  1.00  0.00     0.012 A 
ATOM      4  C   UNL     1     -34.920  14.082  59.185  1.00  0.00     0.047 A 
ATOM      5  C   UNL     1     -34.299  12.106  57.936  1.00  0.00     0.047 A 
ATOM      6  C   UNL     1     -35.144  12.745  58.852  1.00  0.00     0.115 A 
ENDROOT
BRANCH   1   7
ATOM      7  C   UNL     1     -31.876  14.935  57.114  1.00  0.00     0.010 C 
ATOM      8  C   UNL     1     -31.575  16.189  57.479  1.00  0.00     0.025 C 
BRANCH   8   9
ATOM      9  C   UNL     1     -30.471  16.943  56.862  1.00  0.00     0.064 C 
ATOM     10  O   UNL     1     -30.659  17.658  55.841  1.00  0.00    -0.545 OA
ATOM     11  O   UNL     1     -29.199  16.864  57.414  1.00  0.00    -0.545 OA
ENDBRANCH   8   9
ENDBRANCH   1   7
BRANCH   6  12
ATOM     12  O   UNL     1     -36.210  12.061  59.432  1.00  0.00    -0.508 OA
ATOM     13  H   UNL     1     -36.224  11.841  60.421  1.00  0.00     0.293 HD
ENDBRANCH   6  12
TORSDOF 3
ENDMDL
MODEL 5
REMARK VINA RESULT:    -5.717      1.940      2.466
REMARK INTER + INTRA:          -6.688
REMARK INTER:                  -6.537
REMARK INTRA:                  -0.150
REMARK UNBOUND:                -0.135
REMARK SMILES O=C([O-])C=Cc1ccc(O)cc1
REMARK SMILES IDX 6 1 7 2 12 3 8 4 11 5 9 6 5 7 4 8 2 9 1 10 3 11 10 12
REMARK H PARENT 10 13
REMARK Flexibility Score: inf
ROOT
ATOM      1  C   UNL     1     -29.297  17.854  57.488  1.00  0.00    -0.025 A 
ATOM      2  C   UNL     1     -29.540  19.125  56.941  1.00  0.00     0.012 A 
ATOM      3  C   UNL     1     -28.085  17.631  58.174  1.00  0.00     0.012 A 
ATOM      4  C   UNL     1     -28.588  20.143  57.053  1.00  0.00     0.047 A 
ATOM      5  C   UNL     1     -27.135  18.652  58.284  1.00  0.00     0.047 A 
ATOM      6  C   UNL     1     -27.384  19.909  57.720  1.00  0.00     0.115 A 
ENDROOT
BRANCH   1   7
ATOM      7  C   UNL     1     -30.343  16.810  57.353  1.00  0.00     0.010 C 
ATOM      8  C   UNL     1     -31.382  16.900  56.511  1.00  0.00     0.025 C 
BRANCH   8   9
ATOM      9  C   UNL     1     -32.407  15.848  56.413  1.00  0.00     0.064 C 
ATOM     10  O   UNL     1     -32.159  14.745  55.856  1.00  0.00    -0.545 OA
ATOM     11  O   UNL     1     -33.671  16.076  56.942  1.00  0.00    -0.545 OA
ENDBRANCH   8   9
ENDBRANCH   1   7
BRANCH   6  12
ATOM     12  O   UNL     1     -26.444  20.932  57.823  1.00  0.00    -0.508 OA
ATOM     13  H   UNL     1     -25.674  21.012  57.168  1.00  0.00     0.293 HD
ENDBRANCH   6  12
TORSDOF 3
ENDMDL
MODEL 6
REMARK VINA RESULT:    -5.700      1.645      2.205
REMARK INTER + INTRA:          -6.668
REMARK INTER:                  -6.530
REMARK INTRA:                  -0.138
REMARK UNBOUND:                -0.135
REMARK SMILES O=C([O-])C=Cc1ccc(O)cc1
REMARK SMILES IDX 6 1 7 2 12 3 8 4 11 5 9 6 5 7 4 8 2 9 1 10 3 11 10 12
REMARK H PARENT 10 13
REMARK Flexibility Score: inf
ROOT
ATOM      1  C   UNL     1     -29.694  18.240  56.218  1.00  0.00    -0.025 A 
ATOM      2  C   UNL     1     -29.281  18.656  54.941  1.00  0.00     0.012 A 
ATOM      3  C   UNL     1     -29.108  18.843  57.350  1.00  0.00     0.012 A 
ATOM      4  C   UNL     1     -28.289  19.630  54.795  1.00  0.00     0.047 A 
ATOM      5  C   UNL     1     -28.115  19.816  57.200  1.00  0.00     0.047 A 
ATOM      6  C   UNL     1     -27.702  20.210  55.922  1.00  0.00     0.115 A 
ENDROOT
BRANCH   1   7
ATOM      7  C   UNL     1     -30.759  17.211  56.321  1.00  0.00     0.010 C 
ATOM      8  C   UNL     1     -31.425  16.939  57.452  1.00  0.00     0.025 C 
BRANCH   8   9
ATOM      9  C   UNL     1     -32.468  15.901  57.519  1.00  0.00     0.064 C 
ATOM     10  O   UNL     1     -32.234  14.774  58.032  1.00  0.00    -0.545 OA
ATOM     11  O   UNL     1     -33.730  16.169  57.007  1.00  0.00    -0.545 OA
ENDBRANCH   8   9
ENDBRANCH   1   7
BRANCH   6  12
ATOM     12  O   UNL     1     -26.714  21.178  55.761  1.00  0.00    -0.508 OA
ATOM     13  H   UNL     1     -26.910  22.068  55.317  1.00  0.00     0.293 HD
ENDBRANCH   6  12
TORSDOF 3
ENDMDL
MODEL 7
REMARK VINA RESULT:    -5.679      3.175      3.634
REMARK INTER + INTRA:          -6.644
REMARK INTER:                  -6.509
REMARK INTRA:                  -0.134
REMARK UNBOUND:                -0.135
REMARK SMILES O=C([O-])C=Cc1ccc(O)cc1
REMARK SMILES IDX 6 1 7 2 12 3 8 4 11 5 9 6 5 7 4 8 2 9 1 10 3 11 10 12
REMARK H PARENT 10 13
REMARK Flexibility Score: inf
ROOT
ATOM      1  C   UNL     1     -30.508  18.739  57.750  1.00  0.00    -0.025 A 
ATOM      2  C   UNL     1     -30.466  19.615  56.653  1.00  0.00     0.012 A 
ATOM      3  C   UNL     1     -30.405  19.274  59.051  1.00  0.00     0.012 A 
ATOM      4  C   UNL     1     -30.300  20.990  56.846  1.00  0.00     0.047 A 
ATOM      5  C   UNL     1     -30.238  20.650  59.240  1.00  0.00     0.047 A 
ATOM      6  C   UNL     1     -30.183  21.511  58.137  1.00  0.00     0.115 A 
ENDROOT
BRANCH   1   7
ATOM      7  C   UNL     1     -30.697  17.289  57.495  1.00  0.00     0.010 C 
ATOM      8  C   UNL     1     -31.897  16.702  57.387  1.00  0.00     0.025 C 
BRANCH   8   9
ATOM      9  C   UNL     1     -32.045  15.256  57.145  1.00  0.00     0.064 C 
ATOM     10  O   UNL     1     -32.256  14.455  58.094  1.00  0.00    -0.545 OA
ATOM     11  O   UNL     1     -31.948  14.768  55.849  1.00  0.00    -0.545 OA
ENDBRANCH   8   9
ENDBRANCH   1   7
BRANCH   6  12
ATOM     12  O   UNL     1     -30.016  22.882  58.314  1.00  0.00    -0.508 OA
ATOM     13  H   UNL     1     -30.092  23.529  57.538  1.00  0.00     0.293 HD
ENDBRANCH   6  12
TORSDOF 3
ENDMDL
MODEL 8
REMARK VINA RESULT:    -5.651      3.166      6.615
REMARK INTER + INTRA:          -6.612
REMARK INTER:                  -6.472
REMARK INTRA:                  -0.140
REMARK UNBOUND:                -0.135
REMARK SMILES O=C([O-])C=Cc1ccc(O)cc1
REMARK SMILES IDX 6 1 7 2 12 3 8 4 11 5 9 6 5 7 4 8 2 9 1 10 3 11 10 12
REMARK H PARENT 10 13
REMARK Flexibility Score: inf
ROOT
ATOM      1  C   UNL     1     -33.292  14.276  55.892  1.00  0.00    -0.025 A 
ATOM      2  C   UNL     1     -33.146  12.879  55.898  1.00  0.00     0.012 A 
ATOM      3  C   UNL     1     -34.530  14.828  55.501  1.00  0.00     0.012 A 
ATOM      4  C   UNL     1     -34.200  12.051  55.499  1.00  0.00     0.047 A 
ATOM      5  C   UNL     1     -35.581  13.996  55.102  1.00  0.00     0.047 A 
ATOM      6  C   UNL     1     -35.417  12.606  55.098  1.00  0.00     0.115 A 
ENDROOT
BRANCH   1   7
ATOM      7  C   UNL     1     -32.149  15.112  56.335  1.00  0.00     0.010 C 
ATOM      8  C   UNL     1     -32.267  16.388  56.729  1.00  0.00     0.025 C 
BRANCH   8   9
ATOM      9  C   UNL     1     -31.106  17.191  57.150  1.00  0.00     0.064 C 
ATOM     10  O   UNL     1     -31.211  18.429  57.358  1.00  0.00    -0.545 OA
ATOM     11  O   UNL     1     -29.874  16.573  57.318  1.00  0.00    -0.545 OA
ENDBRANCH   8   9
ENDBRANCH   1   7
BRANCH   6  12
ATOM     12  O   UNL     1     -36.458  11.769  54.701  1.00  0.00    -0.508 OA
ATOM     13  H   UNL     1     -36.291  10.806  54.433  1.00  0.00     0.293 HD
ENDBRANCH   6  12
TORSDOF 3
ENDMDL
MODEL 9
REMARK VINA RESULT:    -5.433      2.104      2.419
REMARK INTER + INTRA:          -6.361
REMARK INTER:                  -6.221
REMARK INTRA:                  -0.140
REMARK UNBOUND:                -0.135
REMARK SMILES O=C([O-])C=Cc1ccc(O)cc1
REMARK SMILES IDX 6 1 7 2 12 3 8 4 11 5 9 6 5 7 4 8 2 9 1 10 3 11 10 12
REMARK H PARENT 10 13
REMARK Flexibility Score: inf
ROOT
ATOM      1  C   UNL     1     -30.637  17.882  57.027  1.00  0.00    -0.025 A 
ATOM      2  C   UNL     1     -30.633  18.991  57.889  1.00  0.00     0.012 A 
ATOM      3  C   UNL     1     -29.908  17.955  55.822  1.00  0.00     0.012 A 
ATOM      4  C   UNL     1     -29.940  20.157  57.546  1.00  0.00     0.047 A 
ATOM      5  C   UNL     1     -29.217  19.122  55.483  1.00  0.00     0.047 A 
ATOM      6  C   UNL     1     -29.234  20.227  56.343  1.00  0.00     0.115 A 
ENDROOT
BRANCH   1   7
ATOM      7  C   UNL     1     -31.378  16.664  57.440  1.00  0.00     0.010 C 
ATOM      8  C   UNL     1     -31.526  15.582  56.663  1.00  0.00     0.025 C 
BRANCH   8   9
ATOM      9  C   UNL     1     -32.279  14.395  57.102  1.00  0.00     0.064 C 
ATOM     10  O   UNL     1     -33.216  14.491  57.939  1.00  0.00    -0.545 OA
ATOM     11  O   UNL     1     -31.950  13.149  56.587  1.00  0.00    -0.545 OA
ENDBRANCH   8   9
ENDBRANCH   1   7
BRANCH   6  12
ATOM     12  O   UNL     1     -28.550  21.395  56.014  1.00  0.00    -0.508 OA
ATOM     13  H   UNL     1     -27.939  21.856  56.678  1.00  0.00     0.293 HD
ENDBRANCH   6  12
TORSDOF 3
ENDMDL
