MODEL 1
REMARK VINA RESULT:    -4.055      0.000      0.000
REMARK INTER + INTRA:         -12.867
REMARK INTER:                  -9.271
REMARK INTRA:                  -3.595
REMARK UNBOUND:                -3.595
REMARK SMILES CCCCCCCCCCCCCCCCCCCCCCCC(=O)[O-]
REMARK SMILES IDX 13 1 14 2 15 3 16 4 17 5 18 6 19 7 20 8 21 9 22 10 23 11
REMARK SMILES IDX 24 12 25 13 26 14 12 15 11 16 10 17 9 18 8 19 7 20 6 21 5 22
REMARK SMILES IDX 4 23 3 24 2 25 1 26
REMARK H PARENT
REMARK Flexibility Score: inf
ROOT
ATOM      1  C   UNL     1      31.925   6.791  43.370  1.00  0.00     0.000 C 
ENDROOT
BRANCH   1   2
ATOM      2  C   UNL     1      33.316   6.581  43.993  1.00  0.00     0.000 C 
BRANCH   2   3
ATOM      3  C   UNL     1      33.975   7.898  44.439  1.00  0.00     0.000 C 
BRANCH   3   4
ATOM      4  C   UNL     1      34.104   8.002  45.967  1.00  0.00     0.000 C 
BRANCH   4   5
ATOM      5  C   UNL     1      33.363   9.220  46.539  1.00  0.00     0.000 C 
BRANCH   5   6
ATOM      6  C   UNL     1      32.333   9.755  45.538  1.00  0.00     0.000 C 
BRANCH   6   7
ATOM      7  C   UNL     1      30.927   9.776  46.156  1.00  0.00     0.000 C 
BRANCH   7   8
ATOM      8  C   UNL     1      30.158   8.460  45.940  1.00  0.00     0.000 C 
BRANCH   8   9
ATOM      9  C   UNL     1      29.993   7.586  47.197  1.00  0.00     0.000 C 
BRANCH   9  10
ATOM     10  C   UNL     1      30.598   6.179  47.033  1.00  0.00     0.006 C 
BRANCH  10  11
ATOM     11  C   UNL     1      31.740   5.922  48.024  1.00  0.00     0.053 C 
BRANCH  11  12
ATOM     12  C   UNL     1      31.418   4.804  48.969  1.00  0.00     0.041 C 
ATOM     13  O   UNL     1      30.444   4.904  49.761  1.00  0.00    -0.550 OA
ATOM     14  O   UNL     1      32.208   3.662  48.991  1.00  0.00    -0.550 OA
ENDBRANCH  11  12
ENDBRANCH  10  11
ENDBRANCH   9  10
ENDBRANCH   8   9
ENDBRANCH   7   8
ENDBRANCH   6   7
ENDBRANCH   5   6
ENDBRANCH   4   5
ENDBRANCH   3   4
ENDBRANCH   2   3
ENDBRANCH   1   2
BRANCH   1  15
ATOM     15  C   UNL     1      30.948   5.610  43.545  1.00  0.00     0.000 C 
BRANCH  15  16
ATOM     16  C   UNL     1      29.514   5.864  43.044  1.00  0.00     0.000 C 
BRANCH  16  17
ATOM     17  C   UNL     1      28.883   4.702  42.256  1.00  0.00     0.000 C 
BRANCH  17  18
ATOM     18  C   UNL     1      28.902   4.900  40.723  1.00  0.00    -0.000 C 
BRANCH  18  19
ATOM     19  C   UNL     1      29.871   5.990  40.222  1.00  0.00    -0.000 C 
BRANCH  19  20
ATOM     20  C   UNL     1      31.049   5.493  39.354  1.00  0.00    -0.000 C 
BRANCH  20  21
ATOM     21  C   UNL     1      32.336   5.144  40.123  1.00  0.00    -0.000 C 
BRANCH  21  22
ATOM     22  C   UNL     1      33.364   6.286  40.110  1.00  0.00    -0.000 C 
BRANCH  22  23
ATOM     23  C   UNL     1      34.747   5.851  40.629  1.00  0.00    -0.000 C 
BRANCH  23  24
ATOM     24  C   UNL     1      35.051   4.344  40.511  1.00  0.00    -0.000 C 
BRANCH  24  25
ATOM     25  C   UNL     1      36.088   3.972  39.435  1.00  0.00    -0.003 C 
ATOM     26  C   UNL     1      36.519   5.166  38.586  1.00  0.00     0.004 C 
ENDBRANCH  24  25
ENDBRANCH  23  24
ENDBRANCH  22  23
ENDBRANCH  21  22
ENDBRANCH  20  21
ENDBRANCH  19  20
ENDBRANCH  18  19
ENDBRANCH  17  18
ENDBRANCH  16  17
ENDBRANCH  15  16
ENDBRANCH   1  15
TORSDOF 22
ENDMDL
MODEL 2
REMARK VINA RESULT:    -3.964      2.805      7.673
REMARK INTER + INTRA:         -12.657
REMARK INTER:                  -8.918
REMARK INTRA:                  -3.739
REMARK UNBOUND:                -3.595
REMARK SMILES CCCCCCCCCCCCCCCCCCCCCCCC(=O)[O-]
REMARK SMILES IDX 13 1 14 2 15 3 16 4 17 5 18 6 19 7 20 8 21 9 22 10 23 11
REMARK SMILES IDX 24 12 25 13 26 14 12 15 11 16 10 17 9 18 8 19 7 20 6 21 5 22
REMARK SMILES IDX 4 23 3 24 2 25 1 26
REMARK H PARENT
REMARK Flexibility Score: inf
ROOT
ATOM      1  C   UNL     1      32.695   6.052  44.196  1.00  0.00     0.000 C 
ENDROOT
BRANCH   1   2
ATOM      2  C   UNL     1      31.532   6.178  43.198  1.00  0.00     0.000 C 
BRANCH   2   3
ATOM      3  C   UNL     1      30.549   4.996  43.275  1.00  0.00     0.000 C 
BRANCH   3   4
ATOM      4  C   UNL     1      29.083   5.443  43.154  1.00  0.00     0.000 C 
BRANCH   4   5
ATOM      5  C   UNL     1      28.710   5.858  41.723  1.00  0.00     0.000 C 
BRANCH   5   6
ATOM      6  C   UNL     1      29.126   4.780  40.714  1.00  0.00     0.000 C 
BRANCH   6   7
ATOM      7  C   UNL     1      29.990   5.380  39.595  1.00  0.00     0.000 C 
BRANCH   7   8
ATOM      8  C   UNL     1      30.207   6.896  39.752  1.00  0.00     0.000 C 
BRANCH   8   9
ATOM      9  C   UNL     1      31.659   7.322  40.039  1.00  0.00     0.000 C 
BRANCH   9  10
ATOM     10  C   UNL     1      32.696   6.412  39.358  1.00  0.00     0.006 C 
BRANCH  10  11
ATOM     11  C   UNL     1      33.260   5.357  40.319  1.00  0.00     0.053 C 
BRANCH  11  12
ATOM     12  C   UNL     1      34.676   5.658  40.709  1.00  0.00     0.041 C 
ATOM     13  O   UNL     1      35.563   4.769  40.613  1.00  0.00    -0.550 OA
ATOM     14  O   UNL     1      35.010   6.913  41.202  1.00  0.00    -0.550 OA
ENDBRANCH  11  12
ENDBRANCH  10  11
ENDBRANCH   9  10
ENDBRANCH   8   9
ENDBRANCH   7   8
ENDBRANCH   6   7
ENDBRANCH   5   6
ENDBRANCH   4   5
ENDBRANCH   3   4
ENDBRANCH   2   3
ENDBRANCH   1   2
BRANCH   1  15
ATOM     15  C   UNL     1      33.535   7.332  44.383  1.00  0.00     0.000 C 
BRANCH  15  16
ATOM     16  C   UNL     1      34.002   7.607  45.825  1.00  0.00     0.000 C 
BRANCH  16  17
ATOM     17  C   UNL     1      33.338   8.818  46.506  1.00  0.00     0.000 C 
BRANCH  17  18
ATOM     18  C   UNL     1      32.288   9.534  45.625  1.00  0.00    -0.000 C 
BRANCH  18  19
ATOM     19  C   UNL     1      30.847   9.495  46.172  1.00  0.00    -0.000 C 
BRANCH  19  20
ATOM     20  C   UNL     1      30.090   8.163  45.976  1.00  0.00    -0.000 C 
BRANCH  20  21
ATOM     21  C   UNL     1      29.983   7.271  47.226  1.00  0.00    -0.000 C 
BRANCH  21  22
ATOM     22  C   UNL     1      30.208   5.783  46.915  1.00  0.00    -0.000 C 
BRANCH  22  23
ATOM     23  C   UNL     1      31.531   5.246  47.490  1.00  0.00    -0.000 C 
BRANCH  23  24
ATOM     24  C   UNL     1      31.847   5.683  48.935  1.00  0.00    -0.000 C 
BRANCH  24  25
ATOM     25  C   UNL     1      32.269   4.544  49.881  1.00  0.00    -0.003 C 
ATOM     26  C   UNL     1      31.203   3.459  50.019  1.00  0.00     0.004 C 
ENDBRANCH  24  25
ENDBRANCH  23  24
ENDBRANCH  22  23
ENDBRANCH  21  22
ENDBRANCH  20  21
ENDBRANCH  19  20
ENDBRANCH  18  19
ENDBRANCH  17  18
ENDBRANCH  16  17
ENDBRANCH  15  16
ENDBRANCH   1  15
TORSDOF 22
ENDMDL
MODEL 3
REMARK VINA RESULT:    -3.927      3.195      6.381
REMARK INTER + INTRA:         -12.572
REMARK INTER:                  -8.866
REMARK INTRA:                  -3.706
REMARK UNBOUND:                -3.595
REMARK SMILES CCCCCCCCCCCCCCCCCCCCCCCC(=O)[O-]
REMARK SMILES IDX 13 1 14 2 15 3 16 4 17 5 18 6 19 7 20 8 21 9 22 10 23 11
REMARK SMILES IDX 24 12 25 13 26 14 12 15 11 16 10 17 9 18 8 19 7 20 6 21 5 22
REMARK SMILES IDX 4 23 3 24 2 25 1 26
REMARK H PARENT
REMARK Flexibility Score: inf
ROOT
ATOM      1  C   UNL     1      28.031   7.744  45.223  1.00  0.00     0.000 C 
ENDROOT
BRANCH   1   2
ATOM      2  C   UNL     1      29.276   7.840  44.325  1.00  0.00     0.000 C 
BRANCH   2   3
ATOM      3  C   UNL     1      28.975   7.513  42.851  1.00  0.00     0.000 C 
BRANCH   3   4
ATOM      4  C   UNL     1      29.979   6.511  42.257  1.00  0.00     0.000 C 
BRANCH   4   5
ATOM      5  C   UNL     1      31.242   6.362  43.118  1.00  0.00     0.000 C 
BRANCH   5   6
ATOM      6  C   UNL     1      31.378   4.929  43.648  1.00  0.00     0.000 C 
BRANCH   6   7
ATOM      7  C   UNL     1      31.427   4.914  45.182  1.00  0.00     0.000 C 
BRANCH   7   8
ATOM      8  C   UNL     1      32.282   6.052  45.767  1.00  0.00     0.000 C 
BRANCH   8   9
ATOM      9  C   UNL     1      31.755   6.656  47.082  1.00  0.00     0.000 C 
BRANCH   9  10
ATOM     10  C   UNL     1      31.053   5.620  47.978  1.00  0.00     0.006 C 
BRANCH  10  11
ATOM     11  C   UNL     1      31.877   5.283  49.228  1.00  0.00     0.053 C 
BRANCH  11  12
ATOM     12  C   UNL     1      31.828   3.821  49.551  1.00  0.00     0.041 C 
ATOM     13  O   UNL     1      30.885   3.355  50.242  1.00  0.00    -0.550 OA
ATOM     14  O   UNL     1      32.839   2.977  49.109  1.00  0.00    -0.550 OA
ENDBRANCH  11  12
ENDBRANCH  10  11
ENDBRANCH   9  10
ENDBRANCH   8   9
ENDBRANCH   7   8
ENDBRANCH   6   7
ENDBRANCH   5   6
ENDBRANCH   4   5
ENDBRANCH   3   4
ENDBRANCH   2   3
ENDBRANCH   1   2
BRANCH   1  15
ATOM     15  C   UNL     1      27.997   6.521  46.162  1.00  0.00     0.000 C 
BRANCH  15  16
ATOM     16  C   UNL     1      27.967   5.152  45.456  1.00  0.00     0.000 C 
BRANCH  16  17
ATOM     17  C   UNL     1      26.854   4.984  44.406  1.00  0.00     0.000 C 
BRANCH  17  18
ATOM     18  C   UNL     1      27.090   3.814  43.423  1.00  0.00    -0.000 C 
BRANCH  18  19
ATOM     19  C   UNL     1      27.108   4.212  41.933  1.00  0.00    -0.000 C 
BRANCH  19  20
ATOM     20  C   UNL     1      26.190   5.392  41.542  1.00  0.00    -0.000 C 
BRANCH  20  21
ATOM     21  C   UNL     1      24.898   5.007  40.800  1.00  0.00    -0.000 C 
BRANCH  21  22
ATOM     22  C   UNL     1      23.737   4.688  41.755  1.00  0.00    -0.000 C 
BRANCH  22  23
ATOM     23  C   UNL     1      23.077   3.328  41.461  1.00  0.00    -0.000 C 
BRANCH  23  24
ATOM     24  C   UNL     1      24.054   2.169  41.179  1.00  0.00    -0.000 C 
BRANCH  24  25
ATOM     25  C   UNL     1      23.928   1.537  39.781  1.00  0.00    -0.003 C 
ATOM     26  C   UNL     1      22.852   2.200  38.923  1.00  0.00     0.004 C 
ENDBRANCH  24  25
ENDBRANCH  23  24
ENDBRANCH  22  23
ENDBRANCH  21  22
ENDBRANCH  20  21
ENDBRANCH  19  20
ENDBRANCH  18  19
ENDBRANCH  17  18
ENDBRANCH  16  17
ENDBRANCH  15  16
ENDBRANCH   1  15
TORSDOF 22
ENDMDL
MODEL 4
REMARK VINA RESULT:    -3.805      4.108      7.902
REMARK INTER + INTRA:         -12.293
REMARK INTER:                  -9.974
REMARK INTRA:                  -2.319
REMARK UNBOUND:                -3.595
REMARK SMILES CCCCCCCCCCCCCCCCCCCCCCCC(=O)[O-]
REMARK SMILES IDX 13 1 14 2 15 3 16 4 17 5 18 6 19 7 20 8 21 9 22 10 23 11
REMARK SMILES IDX 24 12 25 13 26 14 12 15 11 16 10 17 9 18 8 19 7 20 6 21 5 22
REMARK SMILES IDX 4 23 3 24 2 25 1 26
REMARK H PARENT
REMARK Flexibility Score: inf
ROOT
ATOM      1  C   UNL     1      34.467   4.956  41.213  1.00  0.00     0.000 C 
ENDROOT
BRANCH   1   2
ATOM      2  C   UNL     1      33.340   4.995  40.166  1.00  0.00     0.000 C 
BRANCH   2   3
ATOM      3  C   UNL     1      32.653   6.370  40.080  1.00  0.00     0.000 C 
BRANCH   3   4
ATOM      4  C   UNL     1      31.255   6.288  39.446  1.00  0.00     0.000 C 
BRANCH   4   5
ATOM      5  C   UNL     1      30.731   4.847  39.361  1.00  0.00     0.000 C 
BRANCH   5   6
ATOM      6  C   UNL     1      29.226   4.792  39.653  1.00  0.00     0.000 C 
BRANCH   6   7
ATOM      7  C   UNL     1      28.921   5.318  41.063  1.00  0.00     0.000 C 
BRANCH   7   8
ATOM      8  C   UNL     1      27.515   4.932  41.556  1.00  0.00     0.000 C 
BRANCH   8   9
ATOM      9  C   UNL     1      26.849   3.774  40.789  1.00  0.00     0.000 C 
BRANCH   9  10
ATOM     10  C   UNL     1      25.370   4.047  40.460  1.00  0.00     0.006 C 
BRANCH  10  11
ATOM     11  C   UNL     1      24.852   3.142  39.334  1.00  0.00     0.053 C 
BRANCH  11  12
ATOM     12  C   UNL     1      23.739   2.254  39.800  1.00  0.00     0.041 C 
ATOM     13  O   UNL     1      23.719   1.830  40.986  1.00  0.00    -0.550 OA
ATOM     14  O   UNL     1      22.736   1.874  38.917  1.00  0.00    -0.550 OA
ENDBRANCH  11  12
ENDBRANCH  10  11
ENDBRANCH   9  10
ENDBRANCH   8   9
ENDBRANCH   7   8
ENDBRANCH   6   7
ENDBRANCH   5   6
ENDBRANCH   4   5
ENDBRANCH   3   4
ENDBRANCH   2   3
ENDBRANCH   1   2
BRANCH   1  15
ATOM     15  C   UNL     1      35.638   4.011  40.874  1.00  0.00     0.000 C 
BRANCH  15  16
ATOM     16  C   UNL     1      36.027   3.955  39.385  1.00  0.00     0.000 C 
BRANCH  16  17
ATOM     17  C   UNL     1      36.864   5.146  38.885  1.00  0.00     0.000 C 
BRANCH  17  18
ATOM     18  C   UNL     1      36.043   6.215  38.126  1.00  0.00    -0.000 C 
BRANCH  18  19
ATOM     19  C   UNL     1      36.270   7.664  38.601  1.00  0.00    -0.000 C 
BRANCH  19  20
ATOM     20  C   UNL     1      36.562   7.840  40.108  1.00  0.00    -0.000 C 
BRANCH  20  21
ATOM     21  C   UNL     1      35.501   8.622  40.901  1.00  0.00    -0.000 C 
BRANCH  21  22
ATOM     22  C   UNL     1      35.853   8.757  42.391  1.00  0.00    -0.000 C 
BRANCH  22  23
ATOM     23  C   UNL     1      34.679   9.283  43.238  1.00  0.00    -0.000 C 
BRANCH  23  24
ATOM     24  C   UNL     1      33.909   8.209  44.034  1.00  0.00    -0.000 C 
BRANCH  24  25
ATOM     25  C   UNL     1      34.409   7.983  45.472  1.00  0.00    -0.003 C 
ATOM     26  C   UNL     1      33.301   8.116  46.515  1.00  0.00     0.004 C 
ENDBRANCH  24  25
ENDBRANCH  23  24
ENDBRANCH  22  23
ENDBRANCH  21  22
ENDBRANCH  20  21
ENDBRANCH  19  20
ENDBRANCH  18  19
ENDBRANCH  17  18
ENDBRANCH  16  17
ENDBRANCH  15  16
ENDBRANCH   1  15
TORSDOF 22
ENDMDL
MODEL 5
REMARK VINA RESULT:    -3.776      1.393      5.483
REMARK INTER + INTRA:         -12.227
REMARK INTER:                  -8.666
REMARK INTRA:                  -3.561
REMARK UNBOUND:                -3.595
REMARK SMILES CCCCCCCCCCCCCCCCCCCCCCCC(=O)[O-]
REMARK SMILES IDX 13 1 14 2 15 3 16 4 17 5 18 6 19 7 20 8 21 9 22 10 23 11
REMARK SMILES IDX 24 12 25 13 26 14 12 15 11 16 10 17 9 18 8 19 7 20 6 21 5 22
REMARK SMILES IDX 4 23 3 24 2 25 1 26
REMARK H PARENT
REMARK Flexibility Score: inf
ROOT
ATOM      1  C   UNL     1      34.384   4.936  41.202  1.00  0.00     0.000 C 
ENDROOT
BRANCH   1   2
ATOM      2  C   UNL     1      33.255   4.969  40.158  1.00  0.00     0.000 C 
BRANCH   2   3
ATOM      3  C   UNL     1      32.496   6.308  40.143  1.00  0.00     0.000 C 
BRANCH   3   4
ATOM      4  C   UNL     1      30.972   6.119  40.212  1.00  0.00     0.000 C 
BRANCH   4   5
ATOM      5  C   UNL     1      30.534   5.316  41.447  1.00  0.00     0.000 C 
BRANCH   5   6
ATOM      6  C   UNL     1      30.986   6.006  42.739  1.00  0.00     0.000 C 
BRANCH   6   7
ATOM      7  C   UNL     1      31.280   4.975  43.838  1.00  0.00     0.000 C 
BRANCH   7   8
ATOM      8  C   UNL     1      30.566   5.292  45.165  1.00  0.00     0.000 C 
BRANCH   8   9
ATOM      9  C   UNL     1      30.530   6.783  45.547  1.00  0.00     0.000 C 
BRANCH   9  10
ATOM     10  C   UNL     1      30.612   7.015  47.067  1.00  0.00     0.006 C 
BRANCH  10  11
ATOM     11  C   UNL     1      31.825   6.316  47.693  1.00  0.00     0.053 C 
BRANCH  11  12
ATOM     12  C   UNL     1      31.419   5.159  48.556  1.00  0.00     0.041 C 
ATOM     13  O   UNL     1      31.997   4.046  48.437  1.00  0.00    -0.550 OA
ATOM     14  O   UNL     1      30.386   5.304  49.472  1.00  0.00    -0.550 OA
ENDBRANCH  11  12
ENDBRANCH  10  11
ENDBRANCH   9  10
ENDBRANCH   8   9
ENDBRANCH   7   8
ENDBRANCH   6   7
ENDBRANCH   5   6
ENDBRANCH   4   5
ENDBRANCH   3   4
ENDBRANCH   2   3
ENDBRANCH   1   2
BRANCH   1  15
ATOM     15  C   UNL     1      35.586   4.042  40.833  1.00  0.00     0.000 C 
BRANCH  15  16
ATOM     16  C   UNL     1      36.066   4.157  39.373  1.00  0.00     0.000 C 
BRANCH  16  17
ATOM     17  C   UNL     1      36.905   5.409  39.060  1.00  0.00     0.000 C 
BRANCH  17  18
ATOM     18  C   UNL     1      36.234   6.378  38.059  1.00  0.00    -0.000 C 
BRANCH  18  19
ATOM     19  C   UNL     1      35.792   7.728  38.661  1.00  0.00    -0.000 C 
BRANCH  19  20
ATOM     20  C   UNL     1      36.149   7.950  40.147  1.00  0.00    -0.000 C 
BRANCH  20  21
ATOM     21  C   UNL     1      35.122   8.756  40.962  1.00  0.00    -0.000 C 
BRANCH  21  22
ATOM     22  C   UNL     1      35.215   8.483  42.471  1.00  0.00    -0.000 C 
BRANCH  22  23
ATOM     23  C   UNL     1      33.870   8.053  43.085  1.00  0.00    -0.000 C 
BRANCH  23  24
ATOM     24  C   UNL     1      33.698   8.373  44.584  1.00  0.00    -0.000 C 
BRANCH  24  25
ATOM     25  C   UNL     1      33.363   9.841  44.901  1.00  0.00    -0.003 C 
ATOM     26  C   UNL     1      32.590  10.006  46.209  1.00  0.00     0.004 C 
ENDBRANCH  24  25
ENDBRANCH  23  24
ENDBRANCH  22  23
ENDBRANCH  21  22
ENDBRANCH  20  21
ENDBRANCH  19  20
ENDBRANCH  18  19
ENDBRANCH  17  18
ENDBRANCH  16  17
ENDBRANCH  15  16
ENDBRANCH   1  15
TORSDOF 22
ENDMDL
MODEL 6
REMARK VINA RESULT:    -3.773      4.266      7.440
REMARK INTER + INTRA:         -12.221
REMARK INTER:                  -9.223
REMARK INTRA:                  -2.998
REMARK UNBOUND:                -3.595
REMARK SMILES CCCCCCCCCCCCCCCCCCCCCCCC(=O)[O-]
REMARK SMILES IDX 13 1 14 2 15 3 16 4 17 5 18 6 19 7 20 8 21 9 22 10 23 11
REMARK SMILES IDX 24 12 25 13 26 14 12 15 11 16 10 17 9 18 8 19 7 20 6 21 5 22
REMARK SMILES IDX 4 23 3 24 2 25 1 26
REMARK H PARENT
REMARK Flexibility Score: inf
ROOT
ATOM      1  C   UNL     1      26.783   6.745  41.832  1.00  0.00     0.000 C 
ENDROOT
BRANCH   1   2
ATOM      2  C   UNL     1      27.230   6.801  43.303  1.00  0.00     0.000 C 
BRANCH   2   3
ATOM      3  C   UNL     1      28.473   5.938  43.582  1.00  0.00     0.000 C 
BRANCH   3   4
ATOM      4  C   UNL     1      29.027   5.279  42.308  1.00  0.00     0.000 C 
BRANCH   4   5
ATOM      5  C   UNL     1      30.544   5.048  42.378  1.00  0.00     0.000 C 
BRANCH   5   6
ATOM      6  C   UNL     1      31.265   6.292  42.910  1.00  0.00     0.000 C 
BRANCH   6   7
ATOM      7  C   UNL     1      32.640   5.925  43.487  1.00  0.00     0.000 C 
BRANCH   7   8
ATOM      8  C   UNL     1      32.687   6.005  45.024  1.00  0.00     0.000 C 
BRANCH   8   9
ATOM      9  C   UNL     1      31.744   7.049  45.652  1.00  0.00     0.000 C 
BRANCH   9  10
ATOM     10  C   UNL     1      30.960   6.500  46.858  1.00  0.00     0.006 C 
BRANCH  10  11
ATOM     11  C   UNL     1      31.245   5.013  47.103  1.00  0.00     0.053 C 
BRANCH  11  12
ATOM     12  C   UNL     1      31.742   4.762  48.495  1.00  0.00     0.041 C 
ATOM     13  O   UNL     1      31.743   5.692  49.345  1.00  0.00    -0.550 OA
ATOM     14  O   UNL     1      32.228   3.509  48.845  1.00  0.00    -0.550 OA
ENDBRANCH  11  12
ENDBRANCH  10  11
ENDBRANCH   9  10
ENDBRANCH   8   9
ENDBRANCH   7   8
ENDBRANCH   6   7
ENDBRANCH   5   6
ENDBRANCH   4   5
ENDBRANCH   3   4
ENDBRANCH   2   3
ENDBRANCH   1   2
BRANCH   1  15
ATOM     15  C   UNL     1      25.329   6.278  41.610  1.00  0.00     0.000 C 
BRANCH  15  16
ATOM     16  C   UNL     1      25.174   4.970  40.812  1.00  0.00     0.000 C 
BRANCH  16  17
ATOM     17  C   UNL     1      25.721   3.712  41.511  1.00  0.00     0.000 C 
BRANCH  17  18
ATOM     18  C   UNL     1      25.150   3.484  42.929  1.00  0.00    -0.000 C 
BRANCH  18  19
ATOM     19  C   UNL     1      23.722   2.904  42.968  1.00  0.00    -0.000 C 
BRANCH  19  20
ATOM     20  C   UNL     1      22.574   3.937  42.917  1.00  0.00    -0.000 C 
BRANCH  20  21
ATOM     21  C   UNL     1      21.712   3.907  41.643  1.00  0.00    -0.000 C 
BRANCH  21  22
ATOM     22  C   UNL     1      21.773   2.554  40.916  1.00  0.00    -0.000 C 
BRANCH  22  23
ATOM     23  C   UNL     1      22.528   2.629  39.576  1.00  0.00    -0.000 C 
BRANCH  23  24
ATOM     24  C   UNL     1      23.081   1.287  39.055  1.00  0.00    -0.000 C 
BRANCH  24  25
ATOM     25  C   UNL     1      23.760   0.406  40.121  1.00  0.00    -0.003 C 
ATOM     26  C   UNL     1      23.920  -1.047  39.678  1.00  0.00     0.004 C 
ENDBRANCH  24  25
ENDBRANCH  23  24
ENDBRANCH  22  23
ENDBRANCH  21  22
ENDBRANCH  20  21
ENDBRANCH  19  20
ENDBRANCH  18  19
ENDBRANCH  17  18
ENDBRANCH  16  17
ENDBRANCH  15  16
ENDBRANCH   1  15
TORSDOF 22
ENDMDL
MODEL 7
REMARK VINA RESULT:    -3.751      4.273      8.097
REMARK INTER + INTRA:         -12.171
REMARK INTER:                  -9.376
REMARK INTRA:                  -2.795
REMARK UNBOUND:                -3.595
REMARK SMILES CCCCCCCCCCCCCCCCCCCCCCCC(=O)[O-]
REMARK SMILES IDX 13 1 14 2 15 3 16 4 17 5 18 6 19 7 20 8 21 9 22 10 23 11
REMARK SMILES IDX 24 12 25 13 26 14 12 15 11 16 10 17 9 18 8 19 7 20 6 21 5 22
REMARK SMILES IDX 4 23 3 24 2 25 1 26
REMARK H PARENT
REMARK Flexibility Score: inf
ROOT
ATOM      1  C   UNL     1      28.840   8.031  41.879  1.00  0.00     0.000 C 
ENDROOT
BRANCH   1   2
ATOM      2  C   UNL     1      27.967   6.827  42.273  1.00  0.00     0.000 C 
BRANCH   2   3
ATOM      3  C   UNL     1      28.523   6.056  43.482  1.00  0.00     0.000 C 
BRANCH   3   4
ATOM      4  C   UNL     1      28.196   4.555  43.422  1.00  0.00     0.000 C 
BRANCH   4   5
ATOM      5  C   UNL     1      26.927   4.197  44.210  1.00  0.00     0.000 C 
BRANCH   5   6
ATOM      6  C   UNL     1      25.853   3.613  43.285  1.00  0.00     0.000 C 
BRANCH   6   7
ATOM      7  C   UNL     1      24.953   4.722  42.721  1.00  0.00     0.000 C 
BRANCH   7   8
ATOM      8  C   UNL     1      25.177   4.970  41.218  1.00  0.00     0.000 C 
BRANCH   8   9
ATOM      9  C   UNL     1      25.886   3.828  40.466  1.00  0.00     0.000 C 
BRANCH   9  10
ATOM     10  C   UNL     1      25.028   3.232  39.335  1.00  0.00     0.006 C 
BRANCH  10  11
ATOM     11  C   UNL     1      24.469   1.851  39.700  1.00  0.00     0.053 C 
BRANCH  11  12
ATOM     12  C   UNL     1      23.296   1.951  40.628  1.00  0.00     0.041 C 
ATOM     13  O   UNL     1      23.370   1.488  41.797  1.00  0.00    -0.550 OA
ATOM     14  O   UNL     1      22.113   2.534  40.192  1.00  0.00    -0.550 OA
ENDBRANCH  11  12
ENDBRANCH  10  11
ENDBRANCH   9  10
ENDBRANCH   8   9
ENDBRANCH   7   8
ENDBRANCH   6   7
ENDBRANCH   5   6
ENDBRANCH   4   5
ENDBRANCH   3   4
ENDBRANCH   2   3
ENDBRANCH   1   2
BRANCH   1  15
ATOM     15  C   UNL     1      30.039   7.695  40.968  1.00  0.00     0.000 C 
BRANCH  15  16
ATOM     16  C   UNL     1      29.811   6.532  39.985  1.00  0.00     0.000 C 
BRANCH  16  17
ATOM     17  C   UNL     1      30.477   5.202  40.383  1.00  0.00     0.000 C 
BRANCH  17  18
ATOM     18  C   UNL     1      31.903   5.362  40.958  1.00  0.00    -0.000 C 
BRANCH  18  19
ATOM     19  C   UNL     1      32.017   5.146  42.481  1.00  0.00    -0.000 C 
BRANCH  19  20
ATOM     20  C   UNL     1      32.544   6.350  43.292  1.00  0.00    -0.000 C 
BRANCH  20  21
ATOM     21  C   UNL     1      32.905   6.054  44.759  1.00  0.00    -0.000 C 
BRANCH  21  22
ATOM     22  C   UNL     1      31.774   5.340  45.516  1.00  0.00    -0.000 C 
BRANCH  22  23
ATOM     23  C   UNL     1      31.661   5.790  46.984  1.00  0.00    -0.000 C 
BRANCH  23  24
ATOM     24  C   UNL     1      31.578   4.649  48.018  1.00  0.00    -0.000 C 
BRANCH  24  25
ATOM     25  C   UNL     1      31.694   5.093  49.488  1.00  0.00    -0.003 C 
ATOM     26  C   UNL     1      32.306   4.021  50.388  1.00  0.00     0.004 C 
ENDBRANCH  24  25
ENDBRANCH  23  24
ENDBRANCH  22  23
ENDBRANCH  21  22
ENDBRANCH  20  21
ENDBRANCH  19  20
ENDBRANCH  18  19
ENDBRANCH  17  18
ENDBRANCH  16  17
ENDBRANCH  15  16
ENDBRANCH   1  15
TORSDOF 22
ENDMDL
MODEL 8
REMARK VINA RESULT:    -3.746     12.369     15.317
REMARK INTER + INTRA:         -12.160
REMARK INTER:                  -9.026
REMARK INTRA:                  -3.134
REMARK UNBOUND:                -3.595
REMARK SMILES CCCCCCCCCCCCCCCCCCCCCCCC(=O)[O-]
REMARK SMILES IDX 13 1 14 2 15 3 16 4 17 5 18 6 19 7 20 8 21 9 22 10 23 11
REMARK SMILES IDX 24 12 25 13 26 14 12 15 11 16 10 17 9 18 8 19 7 20 6 21 5 22
REMARK SMILES IDX 4 23 3 24 2 25 1 26
REMARK H PARENT
REMARK Flexibility Score: inf
ROOT
ATOM      1  C   UNL     1      24.073  -5.691  47.241  1.00  0.00     0.000 C 
ENDROOT
BRANCH   1   2
ATOM      2  C   UNL     1      23.779  -5.516  48.741  1.00  0.00     0.000 C 
BRANCH   2   3
ATOM      3  C   UNL     1      22.291  -5.250  49.030  1.00  0.00     0.000 C 
BRANCH   3   4
ATOM      4  C   UNL     1      22.078  -4.471  50.338  1.00  0.00     0.000 C 
BRANCH   4   5
ATOM      5  C   UNL     1      22.980  -3.231  50.438  1.00  0.00     0.000 C 
BRANCH   5   6
ATOM      6  C   UNL     1      23.350  -2.939  51.897  1.00  0.00     0.000 C 
BRANCH   6   7
ATOM      7  C   UNL     1      23.667  -4.237  52.654  1.00  0.00     0.000 C 
BRANCH   7   8
ATOM      8  C   UNL     1      23.515  -4.094  54.179  1.00  0.00     0.000 C 
BRANCH   8   9
ATOM      9  C   UNL     1      23.654  -2.658  54.718  1.00  0.00     0.000 C 
BRANCH   9  10
ATOM     10  C   UNL     1      24.326  -2.600  56.102  1.00  0.00     0.006 C 
BRANCH  10  11
ATOM     11  C   UNL     1      23.327  -2.844  57.240  1.00  0.00     0.053 C 
BRANCH  11  12
ATOM     12  C   UNL     1      22.100  -1.995  57.098  1.00  0.00     0.041 C 
ATOM     13  O   UNL     1      20.976  -2.531  56.911  1.00  0.00    -0.550 OA
ATOM     14  O   UNL     1      22.203  -0.610  57.146  1.00  0.00    -0.550 OA
ENDBRANCH  11  12
ENDBRANCH  10  11
ENDBRANCH   9  10
ENDBRANCH   8   9
ENDBRANCH   7   8
ENDBRANCH   6   7
ENDBRANCH   5   6
ENDBRANCH   4   5
ENDBRANCH   3   4
ENDBRANCH   2   3
ENDBRANCH   1   2
BRANCH   1  15
ATOM     15  C   UNL     1      23.791  -7.100  46.681  1.00  0.00     0.000 C 
BRANCH  15  16
ATOM     16  C   UNL     1      22.853  -7.146  45.460  1.00  0.00     0.000 C 
BRANCH  16  17
ATOM     17  C   UNL     1      21.359  -7.317  45.792  1.00  0.00     0.000 C 
BRANCH  17  18
ATOM     18  C   UNL     1      20.580  -5.984  45.877  1.00  0.00    -0.000 C 
BRANCH  18  19
ATOM     19  C   UNL     1      21.217  -4.810  45.107  1.00  0.00    -0.000 C 
BRANCH  19  20
ATOM     20  C   UNL     1      20.629  -3.413  45.407  1.00  0.00    -0.000 C 
BRANCH  20  21
ATOM     21  C   UNL     1      21.191  -2.712  46.656  1.00  0.00    -0.000 C 
BRANCH  21  22
ATOM     22  C   UNL     1      22.706  -2.464  46.567  1.00  0.00    -0.000 C 
BRANCH  22  23
ATOM     23  C   UNL     1      23.152  -1.208  47.338  1.00  0.00    -0.000 C 
BRANCH  23  24
ATOM     24  C   UNL     1      24.677  -1.050  47.513  1.00  0.00    -0.000 C 
BRANCH  24  25
ATOM     25  C   UNL     1      25.472  -2.368  47.509  1.00  0.00    -0.003 C 
ATOM     26  C   UNL     1      26.966  -2.161  47.267  1.00  0.00     0.004 C 
ENDBRANCH  24  25
ENDBRANCH  23  24
ENDBRANCH  22  23
ENDBRANCH  21  22
ENDBRANCH  20  21
ENDBRANCH  19  20
ENDBRANCH  18  19
ENDBRANCH  17  18
ENDBRANCH  16  17
ENDBRANCH  15  16
ENDBRANCH   1  15
TORSDOF 22
ENDMDL
MODEL 9
REMARK VINA RESULT:    -3.706      2.149      4.735
REMARK INTER + INTRA:         -12.068
REMARK INTER:                  -8.872
REMARK INTRA:                  -3.196
REMARK UNBOUND:                -3.595
REMARK SMILES CCCCCCCCCCCCCCCCCCCCCCCC(=O)[O-]
REMARK SMILES IDX 13 1 14 2 15 3 16 4 17 5 18 6 19 7 20 8 21 9 22 10 23 11
REMARK SMILES IDX 24 12 25 13 26 14 12 15 11 16 10 17 9 18 8 19 7 20 6 21 5 22
REMARK SMILES IDX 4 23 3 24 2 25 1 26
REMARK H PARENT
REMARK Flexibility Score: inf
ROOT
ATOM      1  C   UNL     1      25.785   4.894  41.421  1.00  0.00     0.000 C 
ENDROOT
BRANCH   1   2
ATOM      2  C   UNL     1      26.371   6.145  42.098  1.00  0.00     0.000 C 
BRANCH   2   3
ATOM      3  C   UNL     1      26.095   6.190  43.611  1.00  0.00     0.000 C 
BRANCH   3   4
ATOM      4  C   UNL     1      27.382   6.335  44.438  1.00  0.00     0.000 C 
BRANCH   4   5
ATOM      5  C   UNL     1      28.079   4.989  44.684  1.00  0.00     0.000 C 
BRANCH   5   6
ATOM      6  C   UNL     1      29.519   5.012  44.157  1.00  0.00     0.000 C 
BRANCH   6   7
ATOM      7  C   UNL     1      30.365   6.042  44.918  1.00  0.00     0.000 C 
BRANCH   7   8
ATOM      8  C   UNL     1      30.839   5.533  46.292  1.00  0.00     0.000 C 
BRANCH   8   9
ATOM      9  C   UNL     1      30.222   6.255  47.504  1.00  0.00     0.000 C 
BRANCH   9  10
ATOM     10  C   UNL     1      30.420   5.487  48.824  1.00  0.00     0.006 C 
BRANCH  10  11
ATOM     11  C   UNL     1      31.899   5.385  49.217  1.00  0.00     0.053 C 
BRANCH  11  12
ATOM     12  C   UNL     1      32.228   4.047  49.807  1.00  0.00     0.041 C 
ATOM     13  O   UNL     1      32.277   3.025  49.072  1.00  0.00    -0.550 OA
ATOM     14  O   UNL     1      32.457   3.925  51.171  1.00  0.00    -0.550 OA
ENDBRANCH  11  12
ENDBRANCH  10  11
ENDBRANCH   9  10
ENDBRANCH   8   9
ENDBRANCH   7   8
ENDBRANCH   6   7
ENDBRANCH   5   6
ENDBRANCH   4   5
ENDBRANCH   3   4
ENDBRANCH   2   3
ENDBRANCH   1   2
BRANCH   1  15
ATOM     15  C   UNL     1      26.823   3.969  40.752  1.00  0.00     0.000 C 
BRANCH  15  16
ATOM     16  C   UNL     1      28.292   4.401  40.919  1.00  0.00     0.000 C 
BRANCH  16  17
ATOM     17  C   UNL     1      29.160   4.258  39.656  1.00  0.00     0.000 C 
BRANCH  17  18
ATOM     18  C   UNL     1      30.392   5.192  39.633  1.00  0.00    -0.000 C 
BRANCH  18  19
ATOM     19  C   UNL     1      30.177   6.564  40.304  1.00  0.00    -0.000 C 
BRANCH  19  20
ATOM     20  C   UNL     1      31.203   6.947  41.393  1.00  0.00    -0.000 C 
BRANCH  20  21
ATOM     21  C   UNL     1      32.285   5.893  41.684  1.00  0.00    -0.000 C 
BRANCH  21  22
ATOM     22  C   UNL     1      33.233   6.311  42.819  1.00  0.00    -0.000 C 
BRANCH  22  23
ATOM     23  C   UNL     1      33.771   7.744  42.651  1.00  0.00    -0.000 C 
BRANCH  23  24
ATOM     24  C   UNL     1      34.159   8.461  43.961  1.00  0.00    -0.000 C 
BRANCH  24  25
ATOM     25  C   UNL     1      33.093   8.407  45.071  1.00  0.00    -0.003 C 
ATOM     26  C   UNL     1      33.696   8.277  46.468  1.00  0.00     0.004 C 
ENDBRANCH  24  25
ENDBRANCH  23  24
ENDBRANCH  22  23
ENDBRANCH  21  22
ENDBRANCH  20  21
ENDBRANCH  19  20
ENDBRANCH  18  19
ENDBRANCH  17  18
ENDBRANCH  16  17
ENDBRANCH  15  16
ENDBRANCH   1  15
TORSDOF 22
ENDMDL
