MODEL 1
REMARK VINA RESULT:    -5.214      0.000      0.000
REMARK INTER + INTRA:          -5.906
REMARK INTER:                  -5.519
REMARK INTRA:                  -0.388
REMARK UNBOUND:                -0.388
REMARK SMILES CC1=CC[C@]23[C@H]([C@@H](C(C)C)CC[C@@H]2C)[C@@H]13
REMARK SMILES IDX 14 1 13 2 12 3 11 4 7 5 6 6 5 7 15 8 2 9 3 10 4 11 1 12 8 13
REMARK SMILES IDX 9 14 10 15
REMARK H PARENT
REMARK Flexibility Score: inf
ROOT
ATOM      1  C   UNL     1     134.867 140.878 136.270  1.00  0.00     0.008 C 
ATOM      2  C   UNL     1     135.960 139.931 135.744  1.00  0.00    -0.007 C 
ATOM      3  C   UNL     1     136.898 140.734 134.823  1.00  0.00     0.004 C 
ATOM      4  C   UNL     1     138.102 139.910 134.375  1.00  0.00     0.004 C 
ATOM      5  C   UNL     1     139.005 139.589 135.585  1.00  0.00    -0.004 C 
ATOM      6  C   UNL     1     138.255 138.956 136.780  1.00  0.00     0.007 C 
ATOM      7  C   UNL     1     136.736 139.206 136.895  1.00  0.00    -0.013 C 
ATOM      8  C   UNL     1     137.278 137.827 136.481  1.00  0.00     0.025 C 
ATOM      9  C   UNL     1     136.966 136.931 137.629  1.00  0.00    -0.073 C 
ATOM     10  C   UNL     1     136.335 137.559 138.609  1.00  0.00    -0.027 C 
ATOM     11  C   UNL     1     136.107 138.997 138.294  1.00  0.00     0.035 C 
ATOM     12  C   UNL     1     137.341 135.483 137.678  1.00  0.00     0.039 C 
ENDROOT
BRANCH   5  13
ATOM     13  C   UNL     1     140.293 138.784 135.228  1.00  0.00    -0.014 C 
ATOM     14  C   UNL     1     140.849 137.943 136.389  1.00  0.00     0.007 C 
ATOM     15  C   UNL     1     140.089 137.897 133.989  1.00  0.00     0.007 C 
ENDBRANCH   5  13
TORSDOF 1
ENDMDL
MODEL 2
REMARK VINA RESULT:    -5.206      3.182      4.938
REMARK INTER + INTRA:          -5.898
REMARK INTER:                  -5.512
REMARK INTRA:                  -0.386
REMARK UNBOUND:                -0.388
REMARK SMILES CC1=CC[C@]23[C@H]([C@@H](C(C)C)CC[C@@H]2C)[C@@H]13
REMARK SMILES IDX 14 1 13 2 12 3 11 4 7 5 6 6 5 7 15 8 2 9 3 10 4 11 1 12 8 13
REMARK SMILES IDX 9 14 10 15
REMARK H PARENT
REMARK Flexibility Score: inf
ROOT
ATOM      1  C   UNL     1     140.890 137.819 136.256  1.00  0.00     0.008 C 
ATOM      2  C   UNL     1     139.946 136.729 135.721  1.00  0.00    -0.007 C 
ATOM      3  C   UNL     1     140.748 135.806 134.783  1.00  0.00     0.004 C 
ATOM      4  C   UNL     1     139.927 134.605 134.324  1.00  0.00     0.004 C 
ATOM      5  C   UNL     1     139.616 133.684 135.523  1.00  0.00    -0.004 C 
ATOM      6  C   UNL     1     138.986 134.416 136.731  1.00  0.00     0.007 C 
ATOM      7  C   UNL     1     139.230 135.935 136.865  1.00  0.00    -0.013 C 
ATOM      8  C   UNL     1     137.851 135.393 136.450  1.00  0.00     0.025 C 
ATOM      9  C   UNL     1     136.959 135.685 137.607  1.00  0.00    -0.073 C 
ATOM     10  C   UNL     1     137.590 136.307 138.592  1.00  0.00    -0.027 C 
ATOM     11  C   UNL     1     139.025 136.545 138.273  1.00  0.00     0.035 C 
ATOM     12  C   UNL     1     135.513 135.304 137.659  1.00  0.00     0.039 C 
ENDROOT
BRANCH   5  13
ATOM     13  C   UNL     1     138.814 132.398 135.154  1.00  0.00    -0.014 C 
ATOM     14  C   UNL     1     137.966 131.835 136.306  1.00  0.00     0.007 C 
ATOM     15  C   UNL     1     137.936 132.607 133.910  1.00  0.00     0.007 C 
ENDBRANCH   5  13
TORSDOF 1
ENDMDL
MODEL 3
REMARK VINA RESULT:    -5.181      4.008      7.002
REMARK INTER + INTRA:          -5.872
REMARK INTER:                  -5.486
REMARK INTRA:                  -0.386
REMARK UNBOUND:                -0.388
REMARK SMILES CC1=CC[C@]23[C@H]([C@@H](C(C)C)CC[C@@H]2C)[C@@H]13
REMARK SMILES IDX 14 1 13 2 12 3 11 4 7 5 6 6 5 7 15 8 2 9 3 10 4 11 1 12 8 13
REMARK SMILES IDX 9 14 10 15
REMARK H PARENT
REMARK Flexibility Score: inf
ROOT
ATOM      1  C   UNL     1     137.875 131.791 136.245  1.00  0.00     0.008 C 
ATOM      2  C   UNL     1     136.775 132.712 135.690  1.00  0.00    -0.007 C 
ATOM      3  C   UNL     1     135.847 131.875 134.788  1.00  0.00     0.004 C 
ATOM      4  C   UNL     1     134.637 132.674 134.314  1.00  0.00     0.004 C 
ATOM      5  C   UNL     1     133.727 133.019 135.512  1.00  0.00    -0.004 C 
ATOM      6  C   UNL     1     134.467 133.692 136.691  1.00  0.00     0.007 C 
ATOM      7  C   UNL     1     135.988 133.460 136.818  1.00  0.00    -0.013 C 
ATOM      8  C   UNL     1     135.434 134.823 136.364  1.00  0.00     0.025 C 
ATOM      9  C   UNL     1     135.733 135.753 137.488  1.00  0.00    -0.073 C 
ATOM     10  C   UNL     1     136.367 135.158 138.487  1.00  0.00    -0.027 C 
ATOM     11  C   UNL     1     136.610 133.715 138.212  1.00  0.00     0.035 C 
ATOM     12  C   UNL     1     135.344 137.198 137.497  1.00  0.00     0.039 C 
ENDROOT
BRANCH   5  13
ATOM     13  C   UNL     1     132.433 133.802 135.129  1.00  0.00    -0.014 C 
ATOM     14  C   UNL     1     131.874 134.682 136.259  1.00  0.00     0.007 C 
ATOM     15  C   UNL     1     132.626 134.641 133.857  1.00  0.00     0.007 C 
ENDBRANCH   5  13
TORSDOF 1
ENDMDL
MODEL 4
REMARK VINA RESULT:    -5.155      1.593      3.710
REMARK INTER + INTRA:          -5.844
REMARK INTER:                  -5.559
REMARK INTRA:                  -0.285
REMARK UNBOUND:                -0.388
REMARK SMILES CC1=CC[C@]23[C@H]([C@@H](C(C)C)CC[C@@H]2C)[C@@H]13
REMARK SMILES IDX 14 1 13 2 12 3 11 4 7 5 6 6 5 7 15 8 2 9 3 10 4 11 1 12 8 13
REMARK SMILES IDX 9 14 10 15
REMARK H PARENT
REMARK Flexibility Score: inf
ROOT
ATOM      1  C   UNL     1     138.353 138.974 139.131  1.00  0.00     0.008 C 
ATOM      2  C   UNL     1     139.020 138.948 137.745  1.00  0.00    -0.007 C 
ATOM      3  C   UNL     1     140.047 137.799 137.720  1.00  0.00     0.004 C 
ATOM      4  C   UNL     1     140.650 137.602 136.332  1.00  0.00     0.004 C 
ATOM      5  C   UNL     1     139.567 137.112 135.347  1.00  0.00    -0.004 C 
ATOM      6  C   UNL     1     138.292 137.987 135.329  1.00  0.00     0.007 C 
ATOM      7  C   UNL     1     137.983 138.842 136.577  1.00  0.00    -0.013 C 
ATOM      8  C   UNL     1     138.474 139.499 135.274  1.00  0.00     0.025 C 
ATOM      9  C   UNL     1     137.303 140.265 134.765  1.00  0.00    -0.073 C 
ATOM     10  C   UNL     1     136.246 140.167 135.556  1.00  0.00    -0.027 C 
ATOM     11  C   UNL     1     136.518 139.312 136.745  1.00  0.00     0.035 C 
ATOM     12  C   UNL     1     137.313 141.048 133.490  1.00  0.00     0.039 C 
ENDROOT
BRANCH   5  13
ATOM     13  C   UNL     1     140.091 136.837 133.904  1.00  0.00    -0.014 C 
ATOM     14  C   UNL     1     140.942 135.563 133.777  1.00  0.00     0.007 C 
ATOM     15  C   UNL     1     138.950 136.810 132.875  1.00  0.00     0.007 C 
ENDBRANCH   5  13
TORSDOF 1
ENDMDL
MODEL 5
REMARK VINA RESULT:    -5.145      3.232      5.014
REMARK INTER + INTRA:          -5.833
REMARK INTER:                  -5.442
REMARK INTRA:                  -0.392
REMARK UNBOUND:                -0.388
REMARK SMILES CC1=CC[C@]23[C@H]([C@@H](C(C)C)CC[C@@H]2C)[C@@H]13
REMARK SMILES IDX 14 1 13 2 12 3 11 4 7 5 6 6 5 7 15 8 2 9 3 10 4 11 1 12 8 13
REMARK SMILES IDX 9 14 10 15
REMARK H PARENT
REMARK Flexibility Score: inf
ROOT
ATOM      1  C   UNL     1     131.822 134.732 136.254  1.00  0.00     0.008 C 
ATOM      2  C   UNL     1     132.734 135.844 135.711  1.00  0.00    -0.007 C 
ATOM      3  C   UNL     1     131.892 136.772 134.813  1.00  0.00     0.004 C 
ATOM      4  C   UNL     1     132.682 137.992 134.351  1.00  0.00     0.004 C 
ATOM      5  C   UNL     1     133.015 138.897 135.557  1.00  0.00    -0.004 C 
ATOM      6  C   UNL     1     133.691 138.153 136.733  1.00  0.00     0.007 C 
ATOM      7  C   UNL     1     133.472 136.629 136.847  1.00  0.00    -0.013 C 
ATOM      8  C   UNL     1     134.831 137.199 136.402  1.00  0.00     0.025 C 
ATOM      9  C   UNL     1     135.761 136.899 137.526  1.00  0.00    -0.073 C 
ATOM     10  C   UNL     1     135.168 136.252 138.518  1.00  0.00    -0.027 C 
ATOM     11  C   UNL     1     133.728 135.998 138.237  1.00  0.00     0.035 C 
ATOM     12  C   UNL     1     137.202 137.301 137.543  1.00  0.00     0.039 C 
ENDROOT
BRANCH   5  13
ATOM     13  C   UNL     1     133.787 140.200 135.187  1.00  0.00    -0.014 C 
ATOM     14  C   UNL     1     134.619 140.786 136.340  1.00  0.00     0.007 C 
ATOM     15  C   UNL     1     134.673 140.009 133.946  1.00  0.00     0.007 C 
ENDBRANCH   5  13
TORSDOF 1
ENDMDL
MODEL 6
REMARK VINA RESULT:    -5.104      5.613      7.020
REMARK INTER + INTRA:          -5.790
REMARK INTER:                  -5.541
REMARK INTRA:                  -0.249
REMARK UNBOUND:                -0.388
REMARK SMILES CC1=CC[C@]23[C@H]([C@@H](C(C)C)CC[C@@H]2C)[C@@H]13
REMARK SMILES IDX 14 1 13 2 12 3 11 4 7 5 6 6 5 7 15 8 2 9 3 10 4 11 1 12 8 13
REMARK SMILES IDX 9 14 10 15
REMARK H PARENT
REMARK Flexibility Score: inf
ROOT
ATOM      1  C   UNL     1     134.507 133.821 139.176  1.00  0.00     0.008 C 
ATOM      2  C   UNL     1     133.755 133.772 137.835  1.00  0.00    -0.007 C 
ATOM      3  C   UNL     1     132.694 134.890 137.830  1.00  0.00     0.004 C 
ATOM      4  C   UNL     1     132.001 135.014 136.476  1.00  0.00     0.004 C 
ATOM      5  C   UNL     1     133.006 135.494 135.408  1.00  0.00    -0.004 C 
ATOM      6  C   UNL     1     134.304 134.656 135.343  1.00  0.00     0.007 C 
ATOM      7  C   UNL     1     134.715 133.860 136.601  1.00  0.00    -0.013 C 
ATOM      8  C   UNL     1     134.165 133.139 135.358  1.00  0.00     0.025 C 
ATOM      9  C   UNL     1     135.326 132.386 134.806  1.00  0.00    -0.073 C 
ATOM     10  C   UNL     1     136.426 132.546 135.526  1.00  0.00    -0.027 C 
ATOM     11  C   UNL     1     136.201 133.440 136.696  1.00  0.00     0.035 C 
ATOM     12  C   UNL     1     135.262 131.553 133.565  1.00  0.00     0.039 C 
ENDROOT
BRANCH   5  13
ATOM     13  C   UNL     1     132.387 135.696 133.990  1.00  0.00    -0.014 C 
ATOM     14  C   UNL     1     131.697 137.056 133.795  1.00  0.00     0.007 C 
ATOM     15  C   UNL     1     133.419 135.467 132.875  1.00  0.00     0.007 C 
ENDBRANCH   5  13
TORSDOF 1
ENDMDL
MODEL 7
REMARK VINA RESULT:    -5.072      3.078      4.622
REMARK INTER + INTRA:          -5.756
REMARK INTER:                  -5.494
REMARK INTRA:                  -0.262
REMARK UNBOUND:                -0.388
REMARK SMILES CC1=CC[C@]23[C@H]([C@@H](C(C)C)CC[C@@H]2C)[C@@H]13
REMARK SMILES IDX 14 1 13 2 12 3 11 4 7 5 6 6 5 7 15 8 2 9 3 10 4 11 1 12 8 13
REMARK SMILES IDX 9 14 10 15
REMARK H PARENT
REMARK Flexibility Score: inf
ROOT
ATOM      1  C   UNL     1     133.777 137.992 139.192  1.00  0.00     0.008 C 
ATOM      2  C   UNL     1     133.744 138.772 137.867  1.00  0.00    -0.007 C 
ATOM      3  C   UNL     1     134.880 139.814 137.886  1.00  0.00     0.004 C 
ATOM      4  C   UNL     1     135.018 140.533 136.547  1.00  0.00     0.004 C 
ATOM      5  C   UNL     1     135.484 139.542 135.458  1.00  0.00    -0.004 C 
ATOM      6  C   UNL     1     134.624 138.260 135.365  1.00  0.00     0.007 C 
ATOM      7  C   UNL     1     133.819 137.836 136.613  1.00  0.00    -0.013 C 
ATOM      8  C   UNL     1     133.110 138.424 135.380  1.00  0.00     0.025 C 
ATOM      9  C   UNL     1     132.339 137.288 134.803  1.00  0.00    -0.073 C 
ATOM     10  C   UNL     1     132.479 136.170 135.500  1.00  0.00    -0.027 C 
ATOM     11  C   UNL     1     133.374 136.355 136.676  1.00  0.00     0.035 C 
ATOM     12  C   UNL     1     131.510 137.391 133.561  1.00  0.00     0.039 C 
ENDROOT
BRANCH   5  13
ATOM     13  C   UNL     1     135.700 140.187 134.055  1.00  0.00    -0.014 C 
ATOM     14  C   UNL     1     137.044 140.918 133.900  1.00  0.00     0.007 C 
ATOM     15  C   UNL     1     135.524 139.165 132.921  1.00  0.00     0.007 C 
ENDBRANCH   5  13
TORSDOF 1
ENDMDL
MODEL 8
REMARK VINA RESULT:    -5.048      2.850      5.416
REMARK INTER + INTRA:          -5.731
REMARK INTER:                  -5.513
REMARK INTRA:                  -0.218
REMARK UNBOUND:                -0.388
REMARK SMILES CC1=CC[C@]23[C@H]([C@@H](C(C)C)CC[C@@H]2C)[C@@H]13
REMARK SMILES IDX 14 1 13 2 12 3 11 4 7 5 6 6 5 7 15 8 2 9 3 10 4 11 1 12 8 13
REMARK SMILES IDX 9 14 10 15
REMARK H PARENT
REMARK Flexibility Score: inf
ROOT
ATOM      1  C   UNL     1     137.654 131.847 136.089  1.00  0.00     0.008 C 
ATOM      2  C   UNL     1     138.659 132.916 136.551  1.00  0.00    -0.007 C 
ATOM      3  C   UNL     1     138.897 133.897 135.386  1.00  0.00     0.004 C 
ATOM      4  C   UNL     1     139.766 135.080 135.804  1.00  0.00     0.004 C 
ATOM      5  C   UNL     1     139.017 135.951 136.835  1.00  0.00    -0.004 C 
ATOM      6  C   UNL     1     138.461 135.160 138.041  1.00  0.00     0.007 C 
ATOM      7  C   UNL     1     138.205 133.648 137.859  1.00  0.00    -0.013 C 
ATOM      8  C   UNL     1     139.385 134.150 138.709  1.00  0.00     0.025 C 
ATOM      9  C   UNL     1     139.031 133.789 140.110  1.00  0.00    -0.073 C 
ATOM     10  C   UNL     1     137.868 133.161 140.196  1.00  0.00    -0.027 C 
ATOM     11  C   UNL     1     137.228 132.988 138.862  1.00  0.00     0.035 C 
ATOM     12  C   UNL     1     139.887 134.113 141.294  1.00  0.00     0.039 C 
ENDROOT
BRANCH   5  13
ATOM     13  C   UNL     1     139.803 137.217 137.297  1.00  0.00    -0.014 C 
ATOM     14  C   UNL     1     140.793 137.757 136.251  1.00  0.00     0.007 C 
ATOM     15  C   UNL     1     138.862 138.341 137.757  1.00  0.00     0.007 C 
ENDBRANCH   5  13
TORSDOF 1
ENDMDL
MODEL 9
REMARK VINA RESULT:    -5.028      5.409      6.244
REMARK INTER + INTRA:          -5.710
REMARK INTER:                  -5.489
REMARK INTRA:                  -0.221
REMARK UNBOUND:                -0.388
REMARK SMILES CC1=CC[C@]23[C@H]([C@@H](C(C)C)CC[C@@H]2C)[C@@H]13
REMARK SMILES IDX 14 1 13 2 12 3 11 4 7 5 6 6 5 7 15 8 2 9 3 10 4 11 1 12 8 13
REMARK SMILES IDX 9 14 10 15
REMARK H PARENT
REMARK Flexibility Score: inf
ROOT
ATOM      1  C   UNL     1     131.868 134.933 135.902  1.00  0.00     0.008 C 
ATOM      2  C   UNL     1     132.929 133.941 136.407  1.00  0.00    -0.007 C 
ATOM      3  C   UNL     1     133.905 133.641 135.253  1.00  0.00     0.004 C 
ATOM      4  C   UNL     1     135.081 132.782 135.707  1.00  0.00     0.004 C 
ATOM      5  C   UNL     1     135.962 133.570 136.701  1.00  0.00    -0.004 C 
ATOM      6  C   UNL     1     135.178 134.189 137.882  1.00  0.00     0.007 C 
ATOM      7  C   UNL     1     133.668 134.449 137.691  1.00  0.00    -0.013 C 
ATOM      8  C   UNL     1     134.162 133.305 138.594  1.00  0.00     0.025 C 
ATOM      9  C   UNL     1     133.807 133.726 139.978  1.00  0.00    -0.073 C 
ATOM     10  C   UNL     1     133.190 134.898 140.011  1.00  0.00    -0.027 C 
ATOM     11  C   UNL     1     133.019 135.477 138.650  1.00  0.00     0.035 C 
ATOM     12  C   UNL     1     134.127 132.924 141.199  1.00  0.00     0.039 C 
ENDROOT
BRANCH   5  13
ATOM     13  C   UNL     1     137.221 132.795 137.196  1.00  0.00    -0.014 C 
ATOM     14  C   UNL     1     137.791 131.802 136.169  1.00  0.00     0.007 C 
ATOM     15  C   UNL     1     138.328 133.746 137.676  1.00  0.00     0.007 C 
ENDBRANCH   5  13
TORSDOF 1
ENDMDL
