MODEL 1
REMARK VINA RESULT:    26.793      0.000      0.000
REMARK INTER + INTRA:          65.012
REMARK INTER:                  56.553
REMARK INTRA:                   8.459
REMARK UNBOUND:                 8.459
REMARK SMILES CCC(=O)CCCCC[C@@H]1NC(=O)[C@@H]2CCCCN2C(=O)[C@@H]([C@H](C)CC)NC(=O)[C@@H](Cc2cn(OC)c3ccccc23)NC1=O
REMARK SMILES IDX 9 1 10 2 44 3 43 4 45 6 30 7 28 8 27 9 29 11 22 12 23 14
REMARK SMILES IDX 24 15 25 16 26 17 31 18 32 19 33 20 42 21 34 22 37 23 41 24
REMARK SMILES IDX 38 25 40 26 39 27 35 28 36 29 11 30 12 31 13 33 14 34 19 35
REMARK SMILES IDX 15 36 18 37 16 38 17 39 20 40 21 41 8 43 7 44 6 45 5 46 3 47
REMARK SMILES IDX 4 48 2 49 1 50
REMARK H PARENT 43 5 27 10 11 32
REMARK Flexibility Score: 80.00
ROOT
ATOM      1  C   UNL     1     -22.643  -0.720   7.680  1.00  0.00     0.035 C 
ENDROOT
BRANCH   1   2
ATOM      2  C   UNL     1     -21.426   0.111   8.143  1.00  0.00     0.171 C 
BRANCH   2   3
ATOM      3  C   UNL     1     -21.789   1.334   8.949  1.00  0.00     0.243 C 
ATOM      4  N   UNL     1     -20.961   1.705  10.059  1.00  0.00    -0.342 N 
ATOM      5  H   UNL     1     -19.991   1.317  10.095  1.00  0.00     0.164 HD
ATOM      6  O   UNL     1     -22.863   1.956   8.723  1.00  0.00    -0.273 OA
BRANCH   4   7
ATOM      7  C   UNL     1     -21.542   2.201  11.309  1.00  0.00     0.175 C 
BRANCH   7   8
ATOM      8  C   UNL     1     -21.617   1.072  12.307  1.00  0.00     0.243 C 
ATOM      9  N   UNL     1     -22.452  -0.068  12.048  1.00  0.00    -0.342 N 
ATOM     10  H   UNL     1     -23.240   0.060  11.375  1.00  0.00     0.164 HD
ATOM     11  O   UNL     1     -20.993   1.169  13.397  1.00  0.00    -0.273 OA
BRANCH   9  12
ATOM     12  C   UNL     1     -22.124  -1.456  12.416  1.00  0.00     0.174 CG0
ATOM     13  G   UNL     1     -20.866  -1.882  11.672  1.00  0.00     0.000 G0
BRANCH  12  14
ATOM     14  C   UNL     1     -22.213  -1.743  13.959  1.00  0.00     0.018 C 
ATOM     15  C   UNL     1     -23.084  -0.684  14.675  1.00  0.00     0.010 C 
BRANCH  14  16
ATOM     16  C   UNL     1     -20.813  -1.726  14.643  1.00  0.00     0.002 C 
ATOM     17  C   UNL     1     -20.252  -0.335  14.933  1.00  0.00     0.004 C 
ENDBRANCH  14  16
ENDBRANCH  12  14
ENDBRANCH   9  12
ENDBRANCH   7   8
BRANCH   7  18
ATOM     18  C   UNL     1     -20.688   3.362  11.842  1.00  0.00     0.073 C 
BRANCH  18  19
ATOM     19  C   UNL     1     -20.594   4.492  10.856  1.00  0.00    -0.016 A 
ATOM     20  C   UNL     1     -19.627   5.487  10.851  1.00  0.00     0.134 A 
ATOM     21  C   UNL     1     -21.455   4.797   9.819  1.00  0.00     0.006 A 
ATOM     22  N   UNL     1     -19.864   6.375   9.861  1.00  0.00    -0.191 N 
ATOM     23  C   UNL     1     -20.986   5.949   9.219  1.00  0.00     0.087 A 
ATOM     24  C   UNL     1     -22.602   4.143   9.368  1.00  0.00     0.011 A 
ATOM     25  C   UNL     1     -21.657   6.499   8.115  1.00  0.00     0.030 A 
ATOM     26  C   UNL     1     -23.281   4.682   8.264  1.00  0.00     0.001 A 
ATOM     27  C   UNL     1     -22.812   5.853   7.643  1.00  0.00     0.002 A 
BRANCH  22  28
ATOM     28  O   UNL     1     -19.051   7.476   9.649  1.00  0.00    -0.417 OA
ATOM     29  C   UNL     1     -17.636   7.436   9.553  1.00  0.00     0.313 C 
ENDBRANCH  22  28
ENDBRANCH  18  19
ENDBRANCH   7  18
ENDBRANCH   4   7
ENDBRANCH   2   3
BRANCH   2  30
ATOM     30  N   UNL     1     -20.488  -0.717   8.911  1.00  0.00    -0.343 N 
ATOM     31  C   UNL     1     -20.128  -2.058   8.537  1.00  0.00     0.243 C 
ATOM     32  H   UNL     1     -20.241  -0.396   9.875  1.00  0.00     0.164 HD
ATOM     33  O   UNL     1     -20.036  -2.371   7.318  1.00  0.00    -0.273 OA
BRANCH  31  34
ATOM     34  C   UNL     1     -19.851  -3.083   9.607  1.00  0.00     0.174 C 
ATOM     35  N   UNL     1     -20.871  -3.035  10.674  1.00  0.00    -0.329 N 
ATOM     36  C   UNL     1     -19.722  -4.497   9.013  1.00  0.00     0.035 C 
ATOM     37  C   UNL     1     -22.155  -3.735  10.488  1.00  0.00     0.120 C 
ATOM     38  C   UNL     1     -21.086  -5.105   8.674  1.00  0.00     0.004 C 
ATOM     39  C   UNL     1     -21.962  -5.145   9.924  1.00  0.00     0.022 C 
BRANCH  35  40
ATOM     40  C   UNL     1     -20.868  -1.952  11.629  1.00  0.00     0.246 CG0
ATOM     41  O   UNL     1     -19.792  -1.314  11.809  1.00  0.00    -0.272 OA
ATOM     42  G   UNL     1     -22.095  -1.469  12.388  1.00  0.00     0.000 G0
ENDBRANCH  35  40
ENDBRANCH  31  34
ENDBRANCH   2  30
ENDBRANCH   1   2
BRANCH   1  43
ATOM     43  C   UNL     1     -22.880  -0.706   6.155  1.00  0.00     0.003 C 
BRANCH  43  44
ATOM     44  C   UNL     1     -21.721  -0.117   5.324  1.00  0.00     0.001 C 
BRANCH  44  45
ATOM     45  C   UNL     1     -21.410   1.360   5.651  1.00  0.00     0.008 C 
BRANCH  45  46
ATOM     46  C   UNL     1     -20.025   1.542   6.290  1.00  0.00     0.075 C 
BRANCH  46  47
ATOM     47  C   UNL     1     -19.022   0.556   5.746  1.00  0.00     0.132 C 
ATOM     48  O   UNL     1     -19.414  -0.420   5.125  1.00  0.00    -0.300 OA
BRANCH  47  49
ATOM     49  C   UNL     1     -17.544   0.748   5.966  1.00  0.00     0.072 C 
ATOM     50  C   UNL     1     -16.912   1.545   4.826  1.00  0.00     0.012 C 
ENDBRANCH  47  49
ENDBRANCH  46  47
ENDBRANCH  45  46
ENDBRANCH  44  45
ENDBRANCH  43  44
ENDBRANCH   1  43
TORSDOF 12
ENDMDL
MODEL 2
REMARK VINA RESULT:    27.157      3.125      8.656
REMARK INTER + INTRA:          65.780
REMARK INTER:                  61.978
REMARK INTRA:                   3.802
REMARK UNBOUND:                 8.459
REMARK SMILES CCC(=O)CCCCC[C@@H]1NC(=O)[C@@H]2CCCCN2C(=O)[C@@H]([C@H](C)CC)NC(=O)[C@@H](Cc2cn(OC)c3ccccc23)NC1=O
REMARK SMILES IDX 9 1 10 2 44 3 43 4 45 6 30 7 28 8 27 9 29 11 22 12 23 14
REMARK SMILES IDX 24 15 25 16 26 17 31 18 32 19 33 20 42 21 34 22 37 23 41 24
REMARK SMILES IDX 38 25 40 26 39 27 35 28 36 29 11 30 12 31 13 33 14 34 19 35
REMARK SMILES IDX 15 36 18 37 16 38 17 39 20 40 21 41 8 43 7 44 6 45 5 46 3 47
REMARK SMILES IDX 4 48 2 49 1 50
REMARK H PARENT 43 5 27 10 11 32
REMARK Flexibility Score: 80.00
ROOT
ATOM      1  C   UNL     1     -23.279   2.207  11.711  1.00  0.00     0.035 C 
ENDROOT
BRANCH   1   2
ATOM      2  C   UNL     1     -21.831   1.675  11.775  1.00  0.00     0.171 C 
BRANCH   2   3
ATOM      3  C   UNL     1     -21.725   0.171  11.700  1.00  0.00     0.243 C 
ATOM      4  N   UNL     1     -20.678  -0.413  10.913  1.00  0.00    -0.342 N 
ATOM      5  H   UNL     1     -19.857   0.189  10.671  1.00  0.00     0.164 HD
ATOM      6  O   UNL     1     -22.607  -0.561  12.225  1.00  0.00    -0.273 OA
BRANCH   4   7
ATOM      7  C   UNL     1     -20.917  -1.601  10.090  1.00  0.00     0.175 C 
BRANCH   7   8
ATOM      8  C   UNL     1     -21.391  -1.175   8.723  1.00  0.00     0.243 C 
ATOM      9  N   UNL     1     -22.105   0.061   8.558  1.00  0.00    -0.342 N 
ATOM     10  H   UNL     1     -22.583   0.453   9.399  1.00  0.00     0.164 HD
ATOM     11  O   UNL     1     -21.214  -1.944   7.741  1.00  0.00    -0.273 OA
BRANCH   9  12
ATOM     12  C   UNL     1     -21.979   0.960   7.397  1.00  0.00     0.174 CG0
ATOM     13  G   UNL     1     -21.063   2.118   7.765  1.00  0.00     0.000 G0
BRANCH  12  14
ATOM     14  C   UNL     1     -21.729   0.212   6.038  1.00  0.00     0.018 C 
ATOM     15  C   UNL     1     -22.953  -0.645   5.637  1.00  0.00     0.010 C 
BRANCH  14  16
ATOM     16  C   UNL     1     -20.501  -0.745   6.109  1.00  0.00     0.002 C 
ATOM     17  C   UNL     1     -19.179  -0.133   5.649  1.00  0.00     0.004 C 
ENDBRANCH  14  16
ENDBRANCH  12  14
ENDBRANCH   9  12
ENDBRANCH   7   8
BRANCH   7  18
ATOM     18  C   UNL     1     -19.624  -2.427  10.002  1.00  0.00     0.073 C 
BRANCH  18  19
ATOM     19  C   UNL     1     -19.783  -3.632   9.120  1.00  0.00    -0.016 A 
ATOM     20  C   UNL     1     -18.967  -3.968   8.049  1.00  0.00     0.134 A 
ATOM     21  C   UNL     1     -20.775  -4.594   9.154  1.00  0.00     0.006 A 
ATOM     22  N   UNL     1     -19.419  -5.085   7.439  1.00  0.00    -0.191 N 
ATOM     23  C   UNL     1     -20.529  -5.476   8.122  1.00  0.00     0.087 A 
ATOM     24  C   UNL     1     -21.859  -4.749  10.019  1.00  0.00     0.011 A 
ATOM     25  C   UNL     1     -21.374  -6.579   7.913  1.00  0.00     0.030 A 
ATOM     26  C   UNL     1     -22.710  -5.847   9.822  1.00  0.00     0.001 A 
ATOM     27  C   UNL     1     -22.470  -6.755   8.775  1.00  0.00     0.002 A 
BRANCH  22  28
ATOM     28  O   UNL     1     -18.790  -5.624   6.329  1.00  0.00    -0.417 OA
ATOM     29  C   UNL     1     -17.928  -4.911   5.457  1.00  0.00     0.313 C 
ENDBRANCH  22  28
ENDBRANCH  18  19
ENDBRANCH   7  18
ENDBRANCH   4   7
ENDBRANCH   2   3
BRANCH   2  30
ATOM     30  N   UNL     1     -21.005   2.274  10.720  1.00  0.00    -0.343 N 
ATOM     31  C   UNL     1     -20.872   3.693  10.532  1.00  0.00     0.243 C 
ATOM     32  H   UNL     1     -20.675   1.647   9.952  1.00  0.00     0.164 HD
ATOM     33  O   UNL     1     -20.875   4.468  11.528  1.00  0.00    -0.273 OA
BRANCH  31  34
ATOM     34  C   UNL     1     -20.717   4.250   9.139  1.00  0.00     0.174 C 
ATOM     35  N   UNL     1     -21.509   3.477   8.160  1.00  0.00    -0.329 N 
ATOM     36  C   UNL     1     -21.067   5.749   9.089  1.00  0.00     0.035 C 
ATOM     37  C   UNL     1     -22.947   3.760   7.998  1.00  0.00     0.120 C 
ATOM     38  C   UNL     1     -22.580   5.987   9.101  1.00  0.00     0.004 C 
ATOM     39  C   UNL     1     -23.229   5.263   7.924  1.00  0.00     0.022 C 
BRANCH  35  40
ATOM     40  C   UNL     1     -21.066   2.166   7.748  1.00  0.00     0.246 CG0
ATOM     41  O   UNL     1     -19.824   1.936   7.709  1.00  0.00    -0.272 OA
ATOM     42  G   UNL     1     -21.996   1.005   7.425  1.00  0.00     0.000 G0
ENDBRANCH  35  40
ENDBRANCH  31  34
ENDBRANCH   2  30
ENDBRANCH   1   2
BRANCH   1  43
ATOM     43  C   UNL     1     -24.085   1.713  10.490  1.00  0.00     0.003 C 
BRANCH  43  44
ATOM     44  C   UNL     1     -25.616   1.832  10.633  1.00  0.00     0.001 C 
BRANCH  44  45
ATOM     45  C   UNL     1     -26.293   0.546  11.155  1.00  0.00     0.008 C 
BRANCH  45  46
ATOM     46  C   UNL     1     -27.381   0.025  10.204  1.00  0.00     0.075 C 
BRANCH  46  47
ATOM     47  C   UNL     1     -28.536  -0.587  10.955  1.00  0.00     0.132 C 
ATOM     48  O   UNL     1     -28.961  -0.037  11.958  1.00  0.00    -0.300 OA
BRANCH  47  49
ATOM     49  C   UNL     1     -29.168  -1.875  10.494  1.00  0.00     0.072 C 
ATOM     50  C   UNL     1     -28.880  -3.015  11.468  1.00  0.00     0.012 C 
ENDBRANCH  47  49
ENDBRANCH  46  47
ENDBRANCH  45  46
ENDBRANCH  44  45
ENDBRANCH  43  44
ENDBRANCH   1  43
TORSDOF 12
ENDMDL
MODEL 3
REMARK VINA RESULT:    27.231      3.247      8.939
REMARK INTER + INTRA:          65.936
REMARK INTER:                  63.657
REMARK INTRA:                   2.278
REMARK UNBOUND:                 8.459
REMARK SMILES CCC(=O)CCCCC[C@@H]1NC(=O)[C@@H]2CCCCN2C(=O)[C@@H]([C@H](C)CC)NC(=O)[C@@H](Cc2cn(OC)c3ccccc23)NC1=O
REMARK SMILES IDX 9 1 10 2 44 3 43 4 45 6 30 7 28 8 27 9 29 11 22 12 23 14
REMARK SMILES IDX 24 15 25 16 26 17 31 18 32 19 33 20 42 21 34 22 37 23 41 24
REMARK SMILES IDX 38 25 40 26 39 27 35 28 36 29 11 30 12 31 13 33 14 34 19 35
REMARK SMILES IDX 15 36 18 37 16 38 17 39 20 40 21 41 8 43 7 44 6 45 5 46 3 47
REMARK SMILES IDX 4 48 2 49 1 50
REMARK H PARENT 43 5 27 10 11 32
REMARK Flexibility Score: 80.00
ROOT
ATOM      1  C   UNL     1     -23.846   1.365  12.661  1.00  0.00     0.035 C 
ENDROOT
BRANCH   1   2
ATOM      2  C   UNL     1     -22.311   1.448  12.515  1.00  0.00     0.171 C 
BRANCH   2   3
ATOM      3  C   UNL     1     -21.679   0.197  11.955  1.00  0.00     0.243 C 
ATOM      4  N   UNL     1     -21.266   0.182  10.582  1.00  0.00    -0.342 N 
ATOM      5  H   UNL     1     -21.133   1.102  10.104  1.00  0.00     0.164 HD
ATOM      6  O   UNL     1     -21.617  -0.856  12.648  1.00  0.00    -0.273 OA
BRANCH   4   7
ATOM      7  C   UNL     1     -21.466  -1.001   9.741  1.00  0.00     0.175 C 
BRANCH   7   8
ATOM      8  C   UNL     1     -21.393  -0.598   8.288  1.00  0.00     0.243 C 
ATOM      9  N   UNL     1     -22.433   0.208   7.709  1.00  0.00    -0.342 N 
ATOM     10  H   UNL     1     -23.363   0.199   8.182  1.00  0.00     0.164 HD
ATOM     11  O   UNL     1     -20.450  -1.030   7.575  1.00  0.00    -0.273 OA
BRANCH   9  12
ATOM     12  C   UNL     1     -22.222   1.255   6.695  1.00  0.00     0.174 CG0
ATOM     13  G   UNL     1     -21.139   2.207   7.182  1.00  0.00     0.000 G0
BRANCH  12  14
ATOM     14  C   UNL     1     -22.129   0.706   5.225  1.00  0.00     0.018 C 
ATOM     15  C   UNL     1     -22.571   1.775   4.199  1.00  0.00     0.010 C 
BRANCH  14  16
ATOM     16  C   UNL     1     -23.031  -0.545   5.004  1.00  0.00     0.002 C 
ATOM     17  C   UNL     1     -24.525  -0.250   4.878  1.00  0.00     0.004 C 
ENDBRANCH  14  16
ENDBRANCH  12  14
ENDBRANCH   9  12
ENDBRANCH   7   8
BRANCH   7  18
ATOM     18  C   UNL     1     -20.400  -2.054  10.083  1.00  0.00     0.073 C 
BRANCH  18  19
ATOM     19  C   UNL     1     -20.799  -3.429   9.627  1.00  0.00    -0.016 A 
ATOM     20  C   UNL     1     -21.855  -4.176  10.128  1.00  0.00     0.134 A 
ATOM     21  C   UNL     1     -20.182  -4.232   8.686  1.00  0.00     0.006 A 
ATOM     22  N   UNL     1     -21.905  -5.387   9.533  1.00  0.00    -0.191 N 
ATOM     23  C   UNL     1     -20.879  -5.422   8.640  1.00  0.00     0.087 A 
ATOM     24  C   UNL     1     -19.071  -3.992   7.875  1.00  0.00     0.011 A 
ATOM     25  C   UNL     1     -20.487  -6.441   7.755  1.00  0.00     0.030 A 
ATOM     26  C   UNL     1     -18.671  -5.001   6.987  1.00  0.00     0.001 A 
ATOM     27  C   UNL     1     -19.374  -6.218   6.928  1.00  0.00     0.002 A 
BRANCH  22  28
ATOM     28  O   UNL     1     -22.861  -6.333   9.866  1.00  0.00    -0.417 OA
ATOM     29  C   UNL     1     -23.649  -7.054   8.933  1.00  0.00     0.313 C 
ENDBRANCH  22  28
ENDBRANCH  18  19
ENDBRANCH   7  18
ENDBRANCH   4   7
ENDBRANCH   2   3
BRANCH   2  30
ATOM     30  N   UNL     1     -21.924   2.599  11.690  1.00  0.00    -0.343 N 
ATOM     31  C   UNL     1     -22.017   2.608  10.255  1.00  0.00     0.243 C 
ATOM     32  H   UNL     1     -21.365   3.353  12.148  1.00  0.00     0.164 HD
ATOM     33  O   UNL     1     -22.957   1.997   9.677  1.00  0.00    -0.273 OA
BRANCH  31  34
ATOM     34  C   UNL     1     -20.991   3.361   9.446  1.00  0.00     0.174 C 
ATOM     35  N   UNL     1     -21.335   3.362   8.009  1.00  0.00    -0.329 N 
ATOM     36  C   UNL     1     -20.792   4.792   9.979  1.00  0.00     0.035 C 
ATOM     37  C   UNL     1     -22.306   4.343   7.492  1.00  0.00     0.120 C 
ATOM     38  C   UNL     1     -21.928   5.727   9.554  1.00  0.00     0.004 C 
ATOM     39  C   UNL     1     -22.040   5.751   8.032  1.00  0.00     0.022 C 
BRANCH  35  40
ATOM     40  C   UNL     1     -21.160   2.163   7.224  1.00  0.00     0.246 CG0
ATOM     41  O   UNL     1     -19.983   1.781   6.966  1.00  0.00    -0.272 OA
ATOM     42  G   UNL     1     -22.298   1.274   6.742  1.00  0.00     0.000 G0
ENDBRANCH  35  40
ENDBRANCH  31  34
ENDBRANCH   2  30
ENDBRANCH   1   2
BRANCH   1  43
ATOM     43  C   UNL     1     -24.593   1.031  11.352  1.00  0.00     0.003 C 
BRANCH  43  44
ATOM     44  C   UNL     1     -26.067   1.482  11.314  1.00  0.00     0.001 C 
BRANCH  44  45
ATOM     45  C   UNL     1     -26.905   0.775  10.226  1.00  0.00     0.008 C 
BRANCH  45  46
ATOM     46  C   UNL     1     -27.296  -0.657  10.622  1.00  0.00     0.075 C 
BRANCH  46  47
ATOM     47  C   UNL     1     -28.691  -0.719  11.193  1.00  0.00     0.132 C 
ATOM     48  O   UNL     1     -29.121   0.226  11.836  1.00  0.00    -0.300 OA
BRANCH  47  49
ATOM     49  C   UNL     1     -29.559  -1.935  10.995  1.00  0.00     0.072 C 
ATOM     50  C   UNL     1     -28.817  -3.215  11.374  1.00  0.00     0.012 C 
ENDBRANCH  47  49
ENDBRANCH  46  47
ENDBRANCH  45  46
ENDBRANCH  44  45
ENDBRANCH  43  44
ENDBRANCH   1  43
TORSDOF 12
ENDMDL
MODEL 4
REMARK VINA RESULT:    27.286      2.938      5.670
REMARK INTER + INTRA:          66.054
REMARK INTER:                  63.042
REMARK INTRA:                   3.012
REMARK UNBOUND:                 8.459
REMARK SMILES CCC(=O)CCCCC[C@@H]1NC(=O)[C@@H]2CCCCN2C(=O)[C@@H]([C@H](C)CC)NC(=O)[C@@H](Cc2cn(OC)c3ccccc23)NC1=O
REMARK SMILES IDX 9 1 10 2 44 3 43 4 45 6 30 7 28 8 27 9 29 11 22 12 23 14
REMARK SMILES IDX 24 15 25 16 26 17 31 18 32 19 33 20 42 21 34 22 37 23 41 24
REMARK SMILES IDX 38 25 40 26 39 27 35 28 36 29 11 30 12 31 13 33 14 34 19 35
REMARK SMILES IDX 15 36 18 37 16 38 17 39 20 40 21 41 8 43 7 44 6 45 5 46 3 47
REMARK SMILES IDX 4 48 2 49 1 50
REMARK H PARENT 43 5 27 10 11 32
REMARK Flexibility Score: 80.00
ROOT
ATOM      1  C   UNL     1     -19.124  -1.703  12.664  1.00  0.00     0.035 C 
ENDROOT
BRANCH   1   2
ATOM      2  C   UNL     1     -20.642  -1.830  12.409  1.00  0.00     0.171 C 
BRANCH   2   3
ATOM      3  C   UNL     1     -21.299  -0.545  11.967  1.00  0.00     0.243 C 
ATOM      4  N   UNL     1     -21.602  -0.362  10.577  1.00  0.00    -0.342 N 
ATOM      5  H   UNL     1     -21.643  -1.214   9.971  1.00  0.00     0.164 HD
ATOM      6  O   UNL     1     -21.477   0.399  12.784  1.00  0.00    -0.273 OA
BRANCH   4   7
ATOM      7  C   UNL     1     -21.405   0.932   9.919  1.00  0.00     0.175 C 
BRANCH   7   8
ATOM      8  C   UNL     1     -21.134   0.710   8.452  1.00  0.00     0.243 C 
ATOM      9  N   UNL     1     -19.965  -0.014   8.034  1.00  0.00    -0.342 N 
ATOM     10  H   UNL     1     -19.166  -0.060   8.705  1.00  0.00     0.164 HD
ATOM     11  O   UNL     1     -21.904   1.222   7.598  1.00  0.00    -0.273 OA
BRANCH   9  12
ATOM     12  C   UNL     1     -19.906  -0.930   6.882  1.00  0.00     0.174 CG0
ATOM     13  G   UNL     1     -21.063  -1.915   6.973  1.00  0.00     0.000 G0
BRANCH  12  14
ATOM     14  C   UNL     1     -19.644  -0.209   5.510  1.00  0.00     0.018 C 
ATOM     15  C   UNL     1     -19.108  -1.199   4.451  1.00  0.00     0.010 C 
BRANCH  14  16
ATOM     16  C   UNL     1     -18.599   0.940   5.638  1.00  0.00     0.002 C 
ATOM     17  C   UNL     1     -17.255   0.668   4.964  1.00  0.00     0.004 C 
ENDBRANCH  14  16
ENDBRANCH  12  14
ENDBRANCH   9  12
ENDBRANCH   7   8
BRANCH   7  18
ATOM     18  C   UNL     1     -22.652   1.805  10.132  1.00  0.00     0.073 C 
BRANCH  18  19
ATOM     19  C   UNL     1     -22.519   3.148   9.473  1.00  0.00    -0.016 A 
ATOM     20  C   UNL     1     -23.282   3.610   8.410  1.00  0.00     0.134 A 
ATOM     21  C   UNL     1     -21.602   4.147   9.742  1.00  0.00     0.006 A 
ATOM     22  N   UNL     1     -22.871   4.838   8.028  1.00  0.00    -0.191 N 
ATOM     23  C   UNL     1     -21.840   5.174   8.851  1.00  0.00     0.087 A 
ATOM     24  C   UNL     1     -20.593   4.219  10.702  1.00  0.00     0.011 A 
ATOM     25  C   UNL     1     -21.062   6.344   8.891  1.00  0.00     0.030 A 
ATOM     26  C   UNL     1     -19.810   5.382  10.754  1.00  0.00     0.001 A 
ATOM     27  C   UNL     1     -20.043   6.437   9.853  1.00  0.00     0.002 A 
BRANCH  22  28
ATOM     28  O   UNL     1     -23.460   5.519   6.975  1.00  0.00    -0.417 OA
ATOM     29  C   UNL     1     -23.858   4.928   5.748  1.00  0.00     0.313 C 
ENDBRANCH  22  28
ENDBRANCH  18  19
ENDBRANCH   7  18
ENDBRANCH   4   7
ENDBRANCH   2   3
BRANCH   2  30
ATOM     30  N   UNL     1     -20.922  -2.882  11.426  1.00  0.00    -0.343 N 
ATOM     31  C   UNL     1     -20.607  -2.762  10.027  1.00  0.00     0.243 C 
ATOM     32  H   UNL     1     -21.564  -3.655  11.716  1.00  0.00     0.164 HD
ATOM     33  O   UNL     1     -19.574  -2.135   9.663  1.00  0.00    -0.273 OA
BRANCH  31  34
ATOM     34  C   UNL     1     -21.512  -3.396   9.001  1.00  0.00     0.174 C 
ATOM     35  N   UNL     1     -20.975  -3.227   7.635  1.00  0.00    -0.329 N 
ATOM     36  C   UNL     1     -21.778  -4.878   9.323  1.00  0.00     0.035 C 
ATOM     37  C   UNL     1     -19.941  -4.153   7.138  1.00  0.00     0.120 C 
ATOM     38  C   UNL     1     -20.593  -5.771   8.946  1.00  0.00     0.004 C 
ATOM     39  C   UNL     1     -20.276  -5.612   7.461  1.00  0.00     0.022 C 
BRANCH  35  40
ATOM     40  C   UNL     1     -21.044  -1.940   6.985  1.00  0.00     0.246 CG0
ATOM     41  O   UNL     1     -22.149  -1.575   6.491  1.00  0.00    -0.272 OA
ATOM     42  G   UNL     1     -19.893  -0.946   6.917  1.00  0.00     0.000 G0
ENDBRANCH  35  40
ENDBRANCH  31  34
ENDBRANCH   2  30
ENDBRANCH   1   2
BRANCH   1  43
ATOM     43  C   UNL     1     -18.293  -1.369  11.407  1.00  0.00     0.003 C 
BRANCH  43  44
ATOM     44  C   UNL     1     -16.859  -1.936  11.409  1.00  0.00     0.001 C 
BRANCH  44  45
ATOM     45  C   UNL     1     -15.764  -0.860  11.238  1.00  0.00     0.008 C 
BRANCH  45  46
ATOM     46  C   UNL     1     -14.970  -0.618  12.530  1.00  0.00     0.075 C 
BRANCH  46  47
ATOM     47  C   UNL     1     -14.094   0.606  12.430  1.00  0.00     0.132 C 
ATOM     48  O   UNL     1     -12.954   0.568  12.864  1.00  0.00    -0.300 OA
BRANCH  47  49
ATOM     49  C   UNL     1     -14.608   1.881  11.812  1.00  0.00     0.072 C 
ATOM     50  C   UNL     1     -14.185   3.102  12.625  1.00  0.00     0.012 C 
ENDBRANCH  47  49
ENDBRANCH  46  47
ENDBRANCH  45  46
ENDBRANCH  44  45
ENDBRANCH  43  44
ENDBRANCH   1  43
TORSDOF 12
ENDMDL
MODEL 5
REMARK VINA RESULT:    27.641      2.797      5.287
REMARK INTER + INTRA:          66.802
REMARK INTER:                  64.841
REMARK INTRA:                   1.961
REMARK UNBOUND:                 8.459
REMARK SMILES CCC(=O)CCCCC[C@@H]1NC(=O)[C@@H]2CCCCN2C(=O)[C@@H]([C@H](C)CC)NC(=O)[C@@H](Cc2cn(OC)c3ccccc23)NC1=O
REMARK SMILES IDX 9 1 10 2 44 3 43 4 45 6 30 7 28 8 27 9 29 11 22 12 23 14
REMARK SMILES IDX 24 15 25 16 26 17 31 18 32 19 33 20 42 21 34 22 37 23 41 24
REMARK SMILES IDX 38 25 40 26 39 27 35 28 36 29 11 30 12 31 13 33 14 34 19 35
REMARK SMILES IDX 15 36 18 37 16 38 17 39 20 40 21 41 8 43 7 44 6 45 5 46 3 47
REMARK SMILES IDX 4 48 2 49 1 50
REMARK H PARENT 43 5 27 10 11 32
REMARK Flexibility Score: 80.00
ROOT
ATOM      1  C   UNL     1     -19.708  -1.871  12.961  1.00  0.00     0.035 C 
ENDROOT
BRANCH   1   2
ATOM      2  C   UNL     1     -21.163  -1.905  12.443  1.00  0.00     0.171 C 
BRANCH   2   3
ATOM      3  C   UNL     1     -21.644  -0.591  11.879  1.00  0.00     0.243 C 
ATOM      4  N   UNL     1     -21.691  -0.421  10.456  1.00  0.00    -0.342 N 
ATOM      5  H   UNL     1     -21.687  -1.282   9.862  1.00  0.00     0.164 HD
ATOM      6  O   UNL     1     -21.895   0.382  12.642  1.00  0.00    -0.273 OA
BRANCH   4   7
ATOM      7  C   UNL     1     -21.297   0.841   9.826  1.00  0.00     0.175 C 
BRANCH   7   8
ATOM      8  C   UNL     1     -20.988   0.598   8.370  1.00  0.00     0.243 C 
ATOM      9  N   UNL     1     -19.875  -0.230   7.995  1.00  0.00    -0.342 N 
ATOM     10  H   UNL     1     -19.112  -0.350   8.697  1.00  0.00     0.164 HD
ATOM     11  O   UNL     1     -21.673   1.181   7.488  1.00  0.00    -0.273 OA
BRANCH   9  12
ATOM     12  C   UNL     1     -19.855  -1.145   6.841  1.00  0.00     0.174 CG0
ATOM     13  G   UNL     1     -21.061  -2.070   6.920  1.00  0.00     0.000 G0
BRANCH  12  14
ATOM     14  C   UNL     1     -19.546  -0.435   5.473  1.00  0.00     0.018 C 
ATOM     15  C   UNL     1     -18.724  -1.353   4.539  1.00  0.00     0.010 C 
BRANCH  14  16
ATOM     16  C   UNL     1     -18.731   0.879   5.661  1.00  0.00     0.002 C 
ATOM     17  C   UNL     1     -17.270   0.802   5.220  1.00  0.00     0.004 C 
ENDBRANCH  14  16
ENDBRANCH  12  14
ENDBRANCH   9  12
ENDBRANCH   7   8
BRANCH   7  18
ATOM     18  C   UNL     1     -22.427   1.869   9.995  1.00  0.00     0.073 C 
BRANCH  18  19
ATOM     19  C   UNL     1     -21.943   3.277   9.802  1.00  0.00    -0.016 A 
ATOM     20  C   UNL     1     -20.966   3.911  10.558  1.00  0.00     0.134 A 
ATOM     21  C   UNL     1     -22.394   4.223   8.900  1.00  0.00     0.006 A 
ATOM     22  N   UNL     1     -20.807   5.189  10.153  1.00  0.00    -0.191 N 
ATOM     23  C   UNL     1     -21.681   5.382   9.128  1.00  0.00     0.087 A 
ATOM     24  C   UNL     1     -23.368   4.136   7.905  1.00  0.00     0.011 A 
ATOM     25  C   UNL     1     -21.916   6.526   8.346  1.00  0.00     0.030 A 
ATOM     26  C   UNL     1     -23.611   5.270   7.116  1.00  0.00     0.001 A 
ATOM     27  C   UNL     1     -22.890   6.458   7.336  1.00  0.00     0.002 A 
BRANCH  22  28
ATOM     28  O   UNL     1     -19.902   6.046  10.757  1.00  0.00    -0.417 OA
ATOM     29  C   UNL     1     -18.717   6.535  10.149  1.00  0.00     0.313 C 
ENDBRANCH  22  28
ENDBRANCH  18  19
ENDBRANCH   7  18
ENDBRANCH   4   7
ENDBRANCH   2   3
BRANCH   2  30
ATOM     30  N   UNL     1     -21.336  -2.959  11.436  1.00  0.00    -0.343 N 
ATOM     31  C   UNL     1     -20.911  -2.823  10.069  1.00  0.00     0.243 C 
ATOM     32  H   UNL     1     -21.981  -3.748  11.670  1.00  0.00     0.164 HD
ATOM     33  O   UNL     1     -19.866  -2.171   9.793  1.00  0.00    -0.273 OA
BRANCH  31  34
ATOM     34  C   UNL     1     -21.713  -3.473   8.970  1.00  0.00     0.174 C 
ATOM     35  N   UNL     1     -21.039  -3.337   7.661  1.00  0.00    -0.329 N 
ATOM     36  C   UNL     1     -22.024  -4.946   9.293  1.00  0.00     0.035 C 
ATOM     37  C   UNL     1     -19.969  -4.280   7.291  1.00  0.00     0.120 C 
ATOM     38  C   UNL     1     -20.814  -5.854   9.056  1.00  0.00     0.004 C 
ATOM     39  C   UNL     1     -20.347  -5.729   7.607  1.00  0.00     0.022 C 
BRANCH  35  40
ATOM     40  C   UNL     1     -21.031  -2.063   6.982  1.00  0.00     0.246 CG0
ATOM     41  O   UNL     1     -22.124  -1.616   6.531  1.00  0.00    -0.272 OA
ATOM     42  G   UNL     1     -19.805  -1.173   6.834  1.00  0.00     0.000 G0
ENDBRANCH  35  40
ENDBRANCH  31  34
ENDBRANCH   2  30
ENDBRANCH   1   2
BRANCH   1  43
ATOM     43  C   UNL     1     -18.690  -1.285  11.959  1.00  0.00     0.003 C 
BRANCH  43  44
ATOM     44  C   UNL     1     -17.288  -1.927  12.010  1.00  0.00     0.001 C 
BRANCH  44  45
ATOM     45  C   UNL     1     -16.202  -1.105  11.283  1.00  0.00     0.008 C 
BRANCH  45  46
ATOM     46  C   UNL     1     -15.130  -0.566  12.243  1.00  0.00     0.075 C 
BRANCH  46  47
ATOM     47  C   UNL     1     -14.457   0.668  11.696  1.00  0.00     0.132 C 
ATOM     48  O   UNL     1     -14.644   0.991  10.534  1.00  0.00    -0.300 OA
BRANCH  47  49
ATOM     49  C   UNL     1     -13.547   1.504  12.559  1.00  0.00     0.072 C 
ATOM     50  C   UNL     1     -14.032   2.950  12.638  1.00  0.00     0.012 C 
ENDBRANCH  47  49
ENDBRANCH  46  47
ENDBRANCH  45  46
ENDBRANCH  44  45
ENDBRANCH  43  44
ENDBRANCH   1  43
TORSDOF 12
ENDMDL
MODEL 6
REMARK VINA RESULT:    28.101      2.515      7.178
REMARK INTER + INTRA:          67.773
REMARK INTER:                  55.937
REMARK INTRA:                  11.836
REMARK UNBOUND:                 8.459
REMARK SMILES CCC(=O)CCCCC[C@@H]1NC(=O)[C@@H]2CCCCN2C(=O)[C@@H]([C@H](C)CC)NC(=O)[C@@H](Cc2cn(OC)c3ccccc23)NC1=O
REMARK SMILES IDX 9 1 10 2 44 3 43 4 45 6 30 7 28 8 27 9 29 11 22 12 23 14
REMARK SMILES IDX 24 15 25 16 26 17 31 18 32 19 33 20 42 21 34 22 37 23 41 24
REMARK SMILES IDX 38 25 40 26 39 27 35 28 36 29 11 30 12 31 13 33 14 34 19 35
REMARK SMILES IDX 15 36 18 37 16 38 17 39 20 40 21 41 8 43 7 44 6 45 5 46 3 47
REMARK SMILES IDX 4 48 2 49 1 50
REMARK H PARENT 43 5 27 10 11 32
REMARK Flexibility Score: 80.00
ROOT
ATOM      1  C   UNL     1     -20.000  -4.116   9.536  1.00  0.00     0.035 C 
ENDROOT
BRANCH   1   2
ATOM      2  C   UNL     1     -19.892  -2.576   9.483  1.00  0.00     0.171 C 
BRANCH   2   3
ATOM      3  C   UNL     1     -20.595  -1.952   8.302  1.00  0.00     0.243 C 
ATOM      4  N   UNL     1     -20.696  -0.523   8.230  1.00  0.00    -0.342 N 
ATOM      5  H   UNL     1     -20.037   0.042   8.813  1.00  0.00     0.164 HD
ATOM      6  O   UNL     1     -21.184  -2.673   7.451  1.00  0.00    -0.273 OA
BRANCH   4   7
ATOM      7  C   UNL     1     -21.920   0.130   7.759  1.00  0.00     0.175 C 
BRANCH   7   8
ATOM      8  C   UNL     1     -21.922   1.570   8.209  1.00  0.00     0.243 C 
ATOM      9  N   UNL     1     -22.890   2.026   9.168  1.00  0.00    -0.342 N 
ATOM     10  H   UNL     1     -23.768   1.470   9.262  1.00  0.00     0.164 HD
ATOM     11  O   UNL     1     -21.112   2.381   7.687  1.00  0.00    -0.273 OA
BRANCH   9  12
ATOM     12  C   UNL     1     -22.630   3.024  10.220  1.00  0.00     0.174 CG0
ATOM     13  G   UNL     1     -21.534   2.502  11.138  1.00  0.00     0.000 G0
BRANCH  12  14
ATOM     14  C   UNL     1     -22.518   4.498   9.684  1.00  0.00     0.018 C 
ATOM     15  C   UNL     1     -22.823   4.568   8.170  1.00  0.00     0.010 C 
BRANCH  14  16
ATOM     16  C   UNL     1     -21.094   5.094   9.894  1.00  0.00     0.002 C 
ATOM     17  C   UNL     1     -20.631   6.060   8.805  1.00  0.00     0.004 C 
ENDBRANCH  14  16
ENDBRANCH  12  14
ENDBRANCH   9  12
ENDBRANCH   7   8
BRANCH   7  18
ATOM     18  C   UNL     1     -21.996   0.023   6.228  1.00  0.00     0.073 C 
BRANCH  18  19
ATOM     19  C   UNL     1     -20.691  -0.415   5.626  1.00  0.00    -0.016 A 
ATOM     20  C   UNL     1     -20.453  -1.630   4.999  1.00  0.00     0.134 A 
ATOM     21  C   UNL     1     -19.481   0.254   5.625  1.00  0.00     0.006 A 
ATOM     22  N   UNL     1     -19.161  -1.723   4.618  1.00  0.00    -0.191 N 
ATOM     23  C   UNL     1     -18.562  -0.561   4.996  1.00  0.00     0.087 A 
ATOM     24  C   UNL     1     -19.138   1.511   6.124  1.00  0.00     0.011 A 
ATOM     25  C   UNL     1     -17.232  -0.137   4.833  1.00  0.00     0.030 A 
ATOM     26  C   UNL     1     -17.814   1.946   5.965  1.00  0.00     0.001 A 
ATOM     27  C   UNL     1     -16.867   1.127   5.325  1.00  0.00     0.002 A 
BRANCH  22  28
ATOM     28  O   UNL     1     -18.660  -2.846   3.981  1.00  0.00    -0.417 OA
ATOM     29  C   UNL     1     -18.121  -3.981   4.640  1.00  0.00     0.313 C 
ENDBRANCH  22  28
ENDBRANCH  18  19
ENDBRANCH   7  18
ENDBRANCH   4   7
ENDBRANCH   2   3
BRANCH   2  30
ATOM     30  N   UNL     1     -20.394  -1.972  10.722  1.00  0.00    -0.343 N 
ATOM     31  C   UNL     1     -20.963  -0.653  10.785  1.00  0.00     0.243 C 
ATOM     32  H   UNL     1     -20.135  -2.434  11.623  1.00  0.00     0.164 HD
ATOM     33  O   UNL     1     -21.642  -0.210   9.817  1.00  0.00    -0.273 OA
BRANCH  31  34
ATOM     34  C   UNL     1     -20.753   0.193  12.014  1.00  0.00     0.174 C 
ATOM     35  N   UNL     1     -21.720   1.309  12.071  1.00  0.00    -0.329 N 
ATOM     36  C   UNL     1     -20.796  -0.656  13.298  1.00  0.00     0.035 C 
ATOM     37  C   UNL     1     -23.077   1.072  12.598  1.00  0.00     0.120 C 
ATOM     38  C   UNL     1     -22.229  -1.022  13.698  1.00  0.00     0.004 C 
ATOM     39  C   UNL     1     -23.054   0.249  13.889  1.00  0.00     0.022 C 
BRANCH  35  40
ATOM     40  C   UNL     1     -21.566   2.444  11.193  1.00  0.00     0.246 CG0
ATOM     41  O   UNL     1     -20.444   3.026  11.154  1.00  0.00    -0.272 OA
ATOM     42  G   UNL     1     -22.643   2.952  10.244  1.00  0.00     0.000 G0
ENDBRANCH  35  40
ENDBRANCH  31  34
ENDBRANCH   2  30
ENDBRANCH   1   2
BRANCH   1  43
ATOM     43  C   UNL     1     -20.282  -4.781   8.172  1.00  0.00     0.003 C 
BRANCH  43  44
ATOM     44  C   UNL     1     -20.677  -6.270   8.246  1.00  0.00     0.001 C 
BRANCH  44  45
ATOM     45  C   UNL     1     -22.016  -6.522   8.973  1.00  0.00     0.008 C 
BRANCH  45  46
ATOM     46  C   UNL     1     -23.215  -6.537   8.013  1.00  0.00     0.075 C 
BRANCH  46  47
ATOM     47  C   UNL     1     -23.999  -7.821   8.116  1.00  0.00     0.132 C 
ATOM     48  O   UNL     1     -23.411  -8.871   8.320  1.00  0.00    -0.300 OA
BRANCH  47  49
ATOM     49  C   UNL     1     -25.498  -7.831   7.959  1.00  0.00     0.072 C 
ATOM     50  C   UNL     1     -26.014  -9.236   7.652  1.00  0.00     0.012 C 
ENDBRANCH  47  49
ENDBRANCH  46  47
ENDBRANCH  45  46
ENDBRANCH  44  45
ENDBRANCH  43  44
ENDBRANCH   1  43
TORSDOF 12
ENDMDL
MODEL 7
REMARK VINA RESULT:    29.375      1.995      7.449
REMARK INTER + INTRA:          70.462
REMARK INTER:                  60.162
REMARK INTRA:                  10.300
REMARK UNBOUND:                 8.459
REMARK SMILES CCC(=O)CCCCC[C@@H]1NC(=O)[C@@H]2CCCCN2C(=O)[C@@H]([C@H](C)CC)NC(=O)[C@@H](Cc2cn(OC)c3ccccc23)NC1=O
REMARK SMILES IDX 9 1 10 2 44 3 43 4 45 6 30 7 28 8 27 9 29 11 22 12 23 14
REMARK SMILES IDX 24 15 25 16 26 17 31 18 32 19 33 20 42 21 34 22 37 23 41 24
REMARK SMILES IDX 38 25 40 26 39 27 35 28 36 29 11 30 12 31 13 33 14 34 19 35
REMARK SMILES IDX 15 36 18 37 16 38 17 39 20 40 21 41 8 43 7 44 6 45 5 46 3 47
REMARK SMILES IDX 4 48 2 49 1 50
REMARK H PARENT 43 5 27 10 11 32
REMARK Flexibility Score: 80.00
ROOT
ATOM      1  C   UNL     1     -19.700   1.130   7.522  1.00  0.00     0.035 C 
ENDROOT
BRANCH   1   2
ATOM      2  C   UNL     1     -20.716   0.117   8.095  1.00  0.00     0.171 C 
BRANCH   2   3
ATOM      3  C   UNL     1     -20.096  -0.950   8.964  1.00  0.00     0.243 C 
ATOM      4  N   UNL     1     -20.897  -2.069   9.367  1.00  0.00    -0.342 N 
ATOM      5  H   UNL     1     -21.763  -2.271   8.817  1.00  0.00     0.164 HD
ATOM      6  O   UNL     1     -18.930  -0.806   9.423  1.00  0.00    -0.273 OA
BRANCH   4   7
ATOM      7  C   UNL     1     -20.804  -2.623  10.720  1.00  0.00     0.175 C 
BRANCH   7   8
ATOM      8  C   UNL     1     -20.654  -1.496  11.712  1.00  0.00     0.243 C 
ATOM      9  N   UNL     1     -21.098  -0.172  11.374  1.00  0.00    -0.342 N 
ATOM     10  H   UNL     1     -21.180   0.060  10.359  1.00  0.00     0.164 HD
ATOM     11  O   UNL     1     -20.078  -1.713  12.810  1.00  0.00    -0.273 OA
BRANCH   9  12
ATOM     12  C   UNL     1     -21.717   0.777  12.315  1.00  0.00     0.174 CG0
ATOM     13  G   UNL     1     -22.718   1.641  11.560  1.00  0.00     0.000 G0
BRANCH  12  14
ATOM     14  C   UNL     1     -22.168   0.124  13.671  1.00  0.00     0.018 C 
ATOM     15  C   UNL     1     -20.966  -0.072  14.625  1.00  0.00     0.010 C 
BRANCH  14  16
ATOM     16  C   UNL     1     -22.822  -1.275  13.463  1.00  0.00     0.002 C 
ATOM     17  C   UNL     1     -22.447  -2.326  14.507  1.00  0.00     0.004 C 
ENDBRANCH  14  16
ENDBRANCH  12  14
ENDBRANCH   9  12
ENDBRANCH   7   8
BRANCH   7  18
ATOM     18  C   UNL     1     -22.058  -3.462  11.012  1.00  0.00     0.073 C 
BRANCH  18  19
ATOM     19  C   UNL     1     -22.179  -4.637  10.084  1.00  0.00    -0.016 A 
ATOM     20  C   UNL     1     -23.231  -5.543  10.054  1.00  0.00     0.134 A 
ATOM     21  C   UNL     1     -21.273  -5.080   9.139  1.00  0.00     0.006 A 
ATOM     22  N   UNL     1     -23.001  -6.506   9.136  1.00  0.00    -0.191 N 
ATOM     23  C   UNL     1     -21.799  -6.220   8.567  1.00  0.00     0.087 A 
ATOM     24  C   UNL     1     -20.039  -4.557   8.749  1.00  0.00     0.011 A 
ATOM     25  C   UNL     1     -21.098  -6.894   7.553  1.00  0.00     0.030 A 
ATOM     26  C   UNL     1     -19.330  -5.220   7.736  1.00  0.00     0.001 A 
ATOM     27  C   UNL     1     -19.856  -6.382   7.143  1.00  0.00     0.002 A 
BRANCH  22  28
ATOM     28  O   UNL     1     -23.893  -7.543   8.918  1.00  0.00    -0.417 OA
ATOM     29  C   UNL     1     -25.226  -7.385   8.458  1.00  0.00     0.313 C 
ENDBRANCH  22  28
ENDBRANCH  18  19
ENDBRANCH   7  18
ENDBRANCH   4   7
ENDBRANCH   2   3
BRANCH   2  30
ATOM     30  N   UNL     1     -21.773   0.804   8.847  1.00  0.00    -0.343 N 
ATOM     31  C   UNL     1     -22.368   2.042   8.422  1.00  0.00     0.243 C 
ATOM     32  H   UNL     1     -21.946   0.491   9.829  1.00  0.00     0.164 HD
ATOM     33  O   UNL     1     -22.531   2.277   7.193  1.00  0.00    -0.273 OA
BRANCH  31  34
ATOM     34  C   UNL     1     -22.805   3.052   9.452  1.00  0.00     0.174 C 
ATOM     35  N   UNL     1     -22.182   2.785  10.765  1.00  0.00    -0.329 N 
ATOM     36  C   UNL     1     -22.532   4.492   8.981  1.00  0.00     0.035 C 
ATOM     37  C   UNL     1     -20.813   3.263  11.034  1.00  0.00     0.120 C 
ATOM     38  C   UNL     1     -21.055   4.872   9.120  1.00  0.00     0.004 C 
ATOM     39  C   UNL     1     -20.611   4.709  10.572  1.00  0.00     0.022 C 
BRANCH  35  40
ATOM     40  C   UNL     1     -22.641   1.679  11.571  1.00  0.00     0.246 CG0
ATOM     41  O   UNL     1     -23.878   1.416  11.581  1.00  0.00    -0.272 OA
ATOM     42  G   UNL     1     -21.729   0.749  12.358  1.00  0.00     0.000 G0
ENDBRANCH  35  40
ENDBRANCH  31  34
ENDBRANCH   2  30
ENDBRANCH   1   2
BRANCH   1  43
ATOM     43  C   UNL     1     -19.154   0.763   6.126  1.00  0.00     0.003 C 
BRANCH  43  44
ATOM     44  C   UNL     1     -19.948  -0.333   5.386  1.00  0.00     0.001 C 
BRANCH  44  45
ATOM     45  C   UNL     1     -20.865  -1.165   6.309  1.00  0.00     0.008 C 
BRANCH  45  46
ATOM     46  C   UNL     1     -22.291  -1.302   5.753  1.00  0.00     0.075 C 
BRANCH  46  47
ATOM     47  C   UNL     1     -22.808   0.004   5.206  1.00  0.00     0.132 C 
ATOM     48  O   UNL     1     -22.093   0.993   5.233  1.00  0.00    -0.300 OA
BRANCH  47  49
ATOM     49  C   UNL     1     -24.198   0.112   4.634  1.00  0.00     0.072 C 
ATOM     50  C   UNL     1     -24.997  -1.168   4.871  1.00  0.00     0.012 C 
ENDBRANCH  47  49
ENDBRANCH  46  47
ENDBRANCH  45  46
ENDBRANCH  44  45
ENDBRANCH  43  44
ENDBRANCH   1  43
TORSDOF 12
ENDMDL
