MODEL 1
REMARK VINA RESULT:    -5.070      0.000      0.000
REMARK INTER + INTRA:          -5.465
REMARK INTER:                  -5.366
REMARK INTRA:                  -0.099
REMARK UNBOUND:                -0.099
REMARK SMILES C=C(C)[C@H]1CC=C(C)C(=O)C1
REMARK SMILES IDX 8 1 7 2 6 3 5 4 4 5 11 6 9 7 10 8 2 9 1 10 3 11
REMARK H PARENT
REMARK Flexibility Score: inf
ROOT
ATOM      1  C   UNL     1      17.593 -17.125 -18.665  1.00  0.00     0.048 C 
ATOM      2  C   UNL     1      16.171 -17.509 -18.967  1.00  0.00    -0.012 C 
ATOM      3  C   UNL     1      15.329 -17.807 -17.961  1.00  0.00    -0.019 C 
ATOM      4  C   UNL     1      13.901 -18.215 -18.209  1.00  0.00     0.036 C 
ATOM      5  C   UNL     1      13.334 -17.514 -19.458  1.00  0.00     0.025 C 
ATOM      6  C   UNL     1      14.235 -17.782 -20.677  1.00  0.00     0.089 C 
ATOM      7  C   UNL     1      15.666 -17.439 -20.361  1.00  0.00     0.158 C 
ATOM      8  O   UNL     1      16.444 -17.126 -21.302  1.00  0.00    -0.295 OA
ENDROOT
BRANCH   5   9
ATOM      9  C   UNL     1      11.896 -17.936 -19.727  1.00  0.00    -0.077 C 
ATOM     10  C   UNL     1      11.598 -18.649 -20.826  1.00  0.00     0.008 C 
ATOM     11  C   UNL     1      10.778 -17.573 -18.781  1.00  0.00     0.039 C 
ENDBRANCH   5   9
TORSDOF 1
ENDMDL
MODEL 2
REMARK VINA RESULT:    -4.907      1.515      2.464
REMARK INTER + INTRA:          -5.293
REMARK INTER:                  -5.194
REMARK INTRA:                  -0.099
REMARK UNBOUND:                -0.099
REMARK SMILES C=C(C)[C@H]1CC=C(C)C(=O)C1
REMARK SMILES IDX 8 1 7 2 6 3 5 4 4 5 11 6 9 7 10 8 2 9 1 10 3 11
REMARK H PARENT
REMARK Flexibility Score: inf
ROOT
ATOM      1  C   UNL     1      16.744 -17.745 -20.767  1.00  0.00     0.048 C 
ATOM      2  C   UNL     1      15.266 -17.617 -20.522  1.00  0.00    -0.012 C 
ATOM      3  C   UNL     1      14.409 -17.661 -21.558  1.00  0.00    -0.019 C 
ATOM      4  C   UNL     1      12.922 -17.520 -21.371  1.00  0.00     0.036 C 
ATOM      5  C   UNL     1      12.474 -18.114 -20.023  1.00  0.00     0.025 C 
ATOM      6  C   UNL     1      13.269 -17.478 -18.868  1.00  0.00     0.089 C 
ATOM      7  C   UNL     1      14.747 -17.566 -19.133  1.00  0.00     0.158 C 
ATOM      8  O   UNL     1      15.547 -17.560 -18.158  1.00  0.00    -0.295 OA
ENDROOT
BRANCH   5   9
ATOM      9  C   UNL     1      10.974 -17.958 -19.816  1.00  0.00    -0.077 C 
ATOM     10  C   UNL     1      10.496 -17.549 -18.630  1.00  0.00     0.008 C 
ATOM     11  C   UNL     1       9.992 -18.254 -20.923  1.00  0.00     0.039 C 
ENDBRANCH   5   9
TORSDOF 1
ENDMDL
MODEL 3
REMARK VINA RESULT:    -4.882      7.567      8.151
REMARK INTER + INTRA:          -5.267
REMARK INTER:                  -5.169
REMARK INTRA:                  -0.098
REMARK UNBOUND:                -0.099
REMARK SMILES C=C(C)[C@H]1CC=C(C)C(=O)C1
REMARK SMILES IDX 8 1 7 2 6 3 5 4 4 5 11 6 9 7 10 8 2 9 1 10 3 11
REMARK H PARENT
REMARK Flexibility Score: inf
ROOT
ATOM      1  C   UNL     1      19.979 -26.035 -23.810  1.00  0.00     0.048 C 
ATOM      2  C   UNL     1      18.739 -25.186 -23.757  1.00  0.00    -0.012 C 
ATOM      3  C   UNL     1      17.798 -25.433 -22.828  1.00  0.00    -0.019 C 
ATOM      4  C   UNL     1      16.530 -24.626 -22.742  1.00  0.00     0.036 C 
ATOM      5  C   UNL     1      16.772 -23.167 -23.174  1.00  0.00     0.025 C 
ATOM      6  C   UNL     1      17.396 -23.122 -24.580  1.00  0.00     0.089 C 
ATOM      7  C   UNL     1      18.612 -24.005 -24.646  1.00  0.00     0.158 C 
ATOM      8  O   UNL     1      19.509 -23.751 -25.495  1.00  0.00    -0.295 OA
ENDROOT
BRANCH   5   9
ATOM      9  C   UNL     1      15.490 -22.348 -23.109  1.00  0.00    -0.077 C 
ATOM     10  C   UNL     1      14.731 -22.197 -24.206  1.00  0.00     0.008 C 
ATOM     11  C   UNL     1      15.039 -21.691 -21.827  1.00  0.00     0.039 C 
ENDBRANCH   5   9
TORSDOF 1
ENDMDL
MODEL 4
REMARK VINA RESULT:    -4.837      2.188      4.571
REMARK INTER + INTRA:          -5.218
REMARK INTER:                  -5.124
REMARK INTRA:                  -0.095
REMARK UNBOUND:                -0.099
REMARK SMILES C=C(C)[C@H]1CC=C(C)C(=O)C1
REMARK SMILES IDX 8 1 7 2 6 3 5 4 4 5 11 6 9 7 10 8 2 9 1 10 3 11
REMARK H PARENT
REMARK Flexibility Score: inf
ROOT
ATOM      1  C   UNL     1      11.086 -17.544 -22.740  1.00  0.00     0.048 C 
ATOM      2  C   UNL     1      12.097 -17.807 -21.658  1.00  0.00    -0.012 C 
ATOM      3  C   UNL     1      13.405 -17.610 -21.903  1.00  0.00    -0.019 C 
ATOM      4  C   UNL     1      14.460 -17.875 -20.862  1.00  0.00     0.036 C 
ATOM      5  C   UNL     1      13.926 -17.589 -19.446  1.00  0.00     0.025 C 
ATOM      6  C   UNL     1      12.638 -18.393 -19.187  1.00  0.00     0.089 C 
ATOM      7  C   UNL     1      11.643 -18.164 -20.292  1.00  0.00     0.158 C 
ATOM      8  O   UNL     1      10.415 -18.315 -20.051  1.00  0.00    -0.295 OA
ENDROOT
BRANCH   5   9
ATOM      9  C   UNL     1      14.981 -17.873 -18.385  1.00  0.00    -0.077 C 
ATOM     10  C   UNL     1      16.233 -17.412 -18.539  1.00  0.00     0.008 C 
ATOM     11  C   UNL     1      14.656 -18.670 -17.146  1.00  0.00     0.039 C 
ENDBRANCH   5   9
TORSDOF 1
ENDMDL
MODEL 5
REMARK VINA RESULT:    -4.769      2.959      5.657
REMARK INTER + INTRA:          -5.146
REMARK INTER:                  -5.049
REMARK INTRA:                  -0.097
REMARK UNBOUND:                -0.099
REMARK SMILES C=C(C)[C@H]1CC=C(C)C(=O)C1
REMARK SMILES IDX 8 1 7 2 6 3 5 4 4 5 11 6 9 7 10 8 2 9 1 10 3 11
REMARK H PARENT
REMARK Flexibility Score: inf
ROOT
ATOM      1  C   UNL     1       7.692 -18.754 -22.250  1.00  0.00     0.048 C 
ATOM      2  C   UNL     1       9.060 -18.335 -21.787  1.00  0.00    -0.012 C 
ATOM      3  C   UNL     1       9.418 -18.520 -20.504  1.00  0.00    -0.019 C 
ATOM      4  C   UNL     1      10.768 -18.101 -19.984  1.00  0.00     0.036 C 
ATOM      5  C   UNL     1      11.847 -18.234 -21.074  1.00  0.00     0.025 C 
ATOM      6  C   UNL     1      11.438 -17.445 -22.331  1.00  0.00     0.089 C 
ATOM      7  C   UNL     1      10.052 -17.833 -22.770  1.00  0.00     0.158 C 
ATOM      8  O   UNL     1       9.730 -17.691 -23.980  1.00  0.00    -0.295 OA
ENDROOT
BRANCH   5   9
ATOM      9  C   UNL     1      13.212 -17.795 -20.562  1.00  0.00    -0.077 C 
ATOM     10  C   UNL     1      14.200 -17.518 -21.429  1.00  0.00     0.008 C 
ATOM     11  C   UNL     1      13.493 -17.658 -19.086  1.00  0.00     0.039 C 
ENDBRANCH   5   9
TORSDOF 1
ENDMDL
MODEL 6
REMARK VINA RESULT:    -4.714      1.963      4.697
REMARK INTER + INTRA:          -5.088
REMARK INTER:                  -4.991
REMARK INTRA:                  -0.097
REMARK UNBOUND:                -0.099
REMARK SMILES C=C(C)[C@H]1CC=C(C)C(=O)C1
REMARK SMILES IDX 8 1 7 2 6 3 5 4 4 5 11 6 9 7 10 8 2 9 1 10 3 11
REMARK H PARENT
REMARK Flexibility Score: inf
ROOT
ATOM      1  C   UNL     1       9.314 -18.305 -21.529  1.00  0.00     0.048 C 
ATOM      2  C   UNL     1      10.683 -17.986 -20.995  1.00  0.00    -0.012 C 
ATOM      3  C   UNL     1      10.896 -17.966 -19.667  1.00  0.00    -0.019 C 
ATOM      4  C   UNL     1      12.242 -17.636 -19.079  1.00  0.00     0.036 C 
ATOM      5  C   UNL     1      13.381 -18.115 -19.999  1.00  0.00     0.025 C 
ATOM      6  C   UNL     1      13.206 -17.535 -21.414  1.00  0.00     0.089 C 
ATOM      7  C   UNL     1      11.822 -17.816 -21.932  1.00  0.00     0.158 C 
ATOM      8  O   UNL     1      11.631 -17.869 -23.177  1.00  0.00    -0.295 OA
ENDROOT
BRANCH   5   9
ATOM      9  C   UNL     1      14.747 -17.767 -19.421  1.00  0.00    -0.077 C 
ATOM     10  C   UNL     1      14.906 -17.651 -18.093  1.00  0.00     0.008 C 
ATOM     11  C   UNL     1      15.945 -17.547 -20.311  1.00  0.00     0.039 C 
ENDBRANCH   5   9
TORSDOF 1
ENDMDL
MODEL 7
REMARK VINA RESULT:    -4.695      1.687      4.336
REMARK INTER + INTRA:          -5.068
REMARK INTER:                  -4.970
REMARK INTRA:                  -0.098
REMARK UNBOUND:                -0.099
REMARK SMILES C=C(C)[C@H]1CC=C(C)C(=O)C1
REMARK SMILES IDX 8 1 7 2 6 3 5 4 4 5 11 6 9 7 10 8 2 9 1 10 3 11
REMARK H PARENT
REMARK Flexibility Score: inf
ROOT
ATOM      1  C   UNL     1      10.773 -18.332 -20.102  1.00  0.00     0.048 C 
ATOM      2  C   UNL     1      12.228 -17.952 -20.135  1.00  0.00    -0.012 C 
ATOM      3  C   UNL     1      12.934 -17.905 -18.991  1.00  0.00    -0.019 C 
ATOM      4  C   UNL     1      14.387 -17.513 -18.965  1.00  0.00     0.036 C 
ATOM      5  C   UNL     1      15.105 -17.960 -20.253  1.00  0.00     0.025 C 
ATOM      6  C   UNL     1      14.375 -17.407 -21.491  1.00  0.00     0.089 C 
ATOM      7  C   UNL     1      12.911 -17.750 -21.437  1.00  0.00     0.158 C 
ATOM      8  O   UNL     1      12.259 -17.827 -22.513  1.00  0.00    -0.295 OA
ENDROOT
BRANCH   5   9
ATOM      9  C   UNL     1      16.571 -17.551 -20.244  1.00  0.00    -0.077 C 
ATOM     10  C   UNL     1      17.264 -17.502 -21.393  1.00  0.00     0.008 C 
ATOM     11  C   UNL     1      17.280 -17.192 -18.961  1.00  0.00     0.039 C 
ENDBRANCH   5   9
TORSDOF 1
ENDMDL
MODEL 8
REMARK VINA RESULT:    -4.624     12.188     12.528
REMARK INTER + INTRA:          -4.992
REMARK INTER:                  -4.894
REMARK INTRA:                  -0.099
REMARK UNBOUND:                -0.099
REMARK SMILES C=C(C)[C@H]1CC=C(C)C(=O)C1
REMARK SMILES IDX 8 1 7 2 6 3 5 4 4 5 11 6 9 7 10 8 2 9 1 10 3 11
REMARK H PARENT
REMARK Flexibility Score: inf
ROOT
ATOM      1  C   UNL     1       8.979  -7.795 -24.996  1.00  0.00     0.048 C 
ATOM      2  C   UNL     1       7.994  -8.840 -25.445  1.00  0.00    -0.012 C 
ATOM      3  C   UNL     1       8.367  -9.768 -26.344  1.00  0.00    -0.019 C 
ATOM      4  C   UNL     1       7.416 -10.825 -26.842  1.00  0.00     0.036 C 
ATOM      5  C   UNL     1       6.411 -11.225 -25.746  1.00  0.00     0.025 C 
ATOM      6  C   UNL     1       5.673  -9.982 -25.216  1.00  0.00     0.089 C 
ATOM      7  C   UNL     1       6.657  -8.919 -24.807  1.00  0.00     0.158 C 
ATOM      8  O   UNL     1       6.318  -8.071 -23.938  1.00  0.00    -0.295 OA
ENDROOT
BRANCH   5   9
ATOM      9  C   UNL     1       5.432 -12.279 -26.246  1.00  0.00    -0.077 C 
ATOM     10  C   UNL     1       5.428 -12.633 -27.542  1.00  0.00     0.008 C 
ATOM     11  C   UNL     1       4.453 -12.950 -25.315  1.00  0.00     0.039 C 
ENDBRANCH   5   9
TORSDOF 1
ENDMDL
MODEL 9
REMARK VINA RESULT:    -4.622      2.050      3.396
REMARK INTER + INTRA:          -4.991
REMARK INTER:                  -4.893
REMARK INTRA:                  -0.098
REMARK UNBOUND:                -0.099
REMARK SMILES C=C(C)[C@H]1CC=C(C)C(=O)C1
REMARK SMILES IDX 8 1 7 2 6 3 5 4 4 5 11 6 9 7 10 8 2 9 1 10 3 11
REMARK H PARENT
REMARK Flexibility Score: inf
ROOT
ATOM      1  C   UNL     1      14.068 -17.519 -18.743  1.00  0.00     0.048 C 
ATOM      2  C   UNL     1      13.006 -17.792 -19.772  1.00  0.00    -0.012 C 
ATOM      3  C   UNL     1      11.726 -17.948 -19.387  1.00  0.00    -0.019 C 
ATOM      4  C   UNL     1      10.626 -18.241 -20.373  1.00  0.00     0.036 C 
ATOM      5  C   UNL     1      10.910 -17.575 -21.733  1.00  0.00     0.025 C 
ATOM      6  C   UNL     1      12.292 -18.001 -22.260  1.00  0.00     0.089 C 
ATOM      7  C   UNL     1      13.349 -17.768 -21.215  1.00  0.00     0.158 C 
ATOM      8  O   UNL     1      14.543 -17.588 -21.579  1.00  0.00    -0.295 OA
ENDROOT
BRANCH   5   9
ATOM      9  C   UNL     1       9.812 -17.883 -22.743  1.00  0.00    -0.077 C 
ATOM     10  C   UNL     1      10.043 -17.726 -24.057  1.00  0.00     0.008 C 
ATOM     11  C   UNL     1       8.452 -18.366 -22.304  1.00  0.00     0.039 C 
ENDBRANCH   5   9
TORSDOF 1
ENDMDL
