MODEL 1
REMARK VINA RESULT:    -2.185      0.000      0.000
REMARK INTER + INTRA:          -4.787
REMARK INTER:                  -4.230
REMARK INTRA:                  -0.557
REMARK UNBOUND:                -0.557
REMARK SMILES CCCCCCCCCCCCCCCCCC(=O)[O-]
REMARK SMILES IDX 10 1 11 2 12 3 13 4 14 5 15 6 16 7 17 8 18 9 19 10 20 11
REMARK SMILES IDX 9 12 8 13 7 14 6 15 5 16 4 17 3 18 2 19 1 20
REMARK H PARENT
REMARK Flexibility Score: inf
ROOT
ATOM      1  C   UNL     1       4.576 -21.892  16.745  1.00  0.00     0.000 C 
ENDROOT
BRANCH   1   2
ATOM      2  C   UNL     1       3.589 -22.866  16.076  1.00  0.00     0.000 C 
BRANCH   2   3
ATOM      3  C   UNL     1       2.287 -22.178  15.627  1.00  0.00     0.000 C 
BRANCH   3   4
ATOM      4  C   UNL     1       1.011 -23.024  15.810  1.00  0.00     0.000 C 
BRANCH   4   5
ATOM      5  C   UNL     1      -0.218 -22.253  16.331  1.00  0.00     0.000 C 
BRANCH   5   6
ATOM      6  C   UNL     1      -1.489 -23.102  16.507  1.00  0.00     0.000 C 
BRANCH   6   7
ATOM      7  C   UNL     1      -2.746 -22.416  15.952  1.00  0.00     0.006 C 
BRANCH   7   8
ATOM      8  C   UNL     1      -4.014 -23.125  16.435  1.00  0.00     0.053 C 
BRANCH   8   9
ATOM      9  C   UNL     1      -5.171 -22.176  16.454  1.00  0.00     0.041 C 
ATOM     10  O   UNL     1      -5.315 -21.333  15.529  1.00  0.00    -0.550 OA
ATOM     11  O   UNL     1      -6.066 -22.191  17.516  1.00  0.00    -0.550 OA
ENDBRANCH   8   9
ENDBRANCH   7   8
ENDBRANCH   6   7
ENDBRANCH   5   6
ENDBRANCH   4   5
ENDBRANCH   3   4
ENDBRANCH   2   3
ENDBRANCH   1   2
BRANCH   1  12
ATOM     12  C   UNL     1       5.835 -22.596  17.276  1.00  0.00     0.000 C 
BRANCH  12  13
ATOM     13  C   UNL     1       7.020 -21.629  17.449  1.00  0.00    -0.000 C 
BRANCH  13  14
ATOM     14  C   UNL     1       8.153 -21.899  16.445  1.00  0.00    -0.000 C 
BRANCH  14  15
ATOM     15  C   UNL     1       7.700 -21.744  14.985  1.00  0.00    -0.000 C 
BRANCH  15  16
ATOM     16  C   UNL     1       8.901 -21.779  14.031  1.00  0.00    -0.000 C 
BRANCH  16  17
ATOM     17  C   UNL     1       8.478 -21.420  12.599  1.00  0.00    -0.000 C 
BRANCH  17  18
ATOM     18  C   UNL     1       8.262 -19.911  12.405  1.00  0.00    -0.000 C 
BRANCH  18  19
ATOM     19  C   UNL     1       7.695 -19.567  11.020  1.00  0.00    -0.003 C 
ATOM     20  C   UNL     1       7.750 -20.774  10.088  1.00  0.00     0.004 C 
ENDBRANCH  18  19
ENDBRANCH  17  18
ENDBRANCH  16  17
ENDBRANCH  15  16
ENDBRANCH  14  15
ENDBRANCH  13  14
ENDBRANCH  12  13
ENDBRANCH   1  12
TORSDOF 16
ENDMDL
MODEL 2
REMARK VINA RESULT:    -2.171      4.683     11.580
REMARK INTER + INTRA:          -4.760
REMARK INTER:                  -4.313
REMARK INTRA:                  -0.446
REMARK UNBOUND:                -0.557
REMARK SMILES CCCCCCCCCCCCCCCCCC(=O)[O-]
REMARK SMILES IDX 10 1 11 2 12 3 13 4 14 5 15 6 16 7 17 8 18 9 19 10 20 11
REMARK SMILES IDX 9 12 8 13 7 14 6 15 5 16 4 17 3 18 2 19 1 20
REMARK H PARENT
REMARK Flexibility Score: inf
ROOT
ATOM      1  C   UNL     1       1.873 -22.263  15.615  1.00  0.00     0.000 C 
ENDROOT
BRANCH   1   2
ATOM      2  C   UNL     1       3.162 -23.103  15.674  1.00  0.00     0.000 C 
BRANCH   2   3
ATOM      3  C   UNL     1       4.135 -22.623  16.765  1.00  0.00     0.000 C 
BRANCH   3   4
ATOM      4  C   UNL     1       5.536 -22.231  16.257  1.00  0.00     0.000 C 
BRANCH   4   5
ATOM      5  C   UNL     1       6.558 -21.876  17.356  1.00  0.00     0.000 C 
BRANCH   5   6
ATOM      6  C   UNL     1       8.027 -21.876  16.900  1.00  0.00     0.000 C 
BRANCH   6   7
ATOM      7  C   UNL     1       8.178 -22.016  15.377  1.00  0.00     0.006 C 
BRANCH   7   8
ATOM      8  C   UNL     1       8.800 -20.754  14.772  1.00  0.00     0.053 C 
BRANCH   8   9
ATOM      9  C   UNL     1       8.642 -20.754  13.284  1.00  0.00     0.041 C 
ATOM     10  O   UNL     1       9.121 -19.813  12.597  1.00  0.00    -0.550 OA
ATOM     11  O   UNL     1       7.928 -21.767  12.659  1.00  0.00    -0.550 OA
ENDBRANCH   8   9
ENDBRANCH   7   8
ENDBRANCH   6   7
ENDBRANCH   5   6
ENDBRANCH   4   5
ENDBRANCH   3   4
ENDBRANCH   2   3
ENDBRANCH   1   2
BRANCH   1  12
ATOM     12  C   UNL     1       0.601 -23.125  15.654  1.00  0.00     0.000 C 
BRANCH  12  13
ATOM     13  C   UNL     1      -0.580 -22.402  16.326  1.00  0.00    -0.000 C 
BRANCH  13  14
ATOM     14  C   UNL     1      -1.923 -23.105  16.072  1.00  0.00    -0.000 C 
BRANCH  14  15
ATOM     15  C   UNL     1      -3.123 -22.300  16.597  1.00  0.00    -0.000 C 
BRANCH  15  16
ATOM     16  C   UNL     1      -4.426 -23.092  16.438  1.00  0.00    -0.000 C 
BRANCH  16  17
ATOM     17  C   UNL     1      -5.649 -22.197  16.692  1.00  0.00    -0.000 C 
BRANCH  17  18
ATOM     18  C   UNL     1      -6.943 -22.780  16.103  1.00  0.00    -0.000 C 
BRANCH  18  19
ATOM     19  C   UNL     1      -8.021 -21.711  15.867  1.00  0.00    -0.003 C 
ATOM     20  C   UNL     1      -9.008 -21.661  17.029  1.00  0.00     0.004 C 
ENDBRANCH  18  19
ENDBRANCH  17  18
ENDBRANCH  16  17
ENDBRANCH  15  16
ENDBRANCH  14  15
ENDBRANCH  13  14
ENDBRANCH  12  13
ENDBRANCH   1  12
TORSDOF 16
ENDMDL
MODEL 3
REMARK VINA RESULT:    -2.147      1.757      3.828
REMARK INTER + INTRA:          -4.713
REMARK INTER:                  -4.280
REMARK INTRA:                  -0.433
REMARK UNBOUND:                -0.557
REMARK SMILES CCCCCCCCCCCCCCCCCC(=O)[O-]
REMARK SMILES IDX 10 1 11 2 12 3 13 4 14 5 15 6 16 7 17 8 18 9 19 10 20 11
REMARK SMILES IDX 9 12 8 13 7 14 6 15 5 16 4 17 3 18 2 19 1 20
REMARK H PARENT
REMARK Flexibility Score: inf
ROOT
ATOM      1  C   UNL     1       0.985 -22.421  15.633  1.00  0.00     0.000 C 
ENDROOT
BRANCH   1   2
ATOM      2  C   UNL     1      -0.281 -22.385  16.509  1.00  0.00     0.000 C 
BRANCH   2   3
ATOM      3  C   UNL     1      -1.578 -22.397  15.682  1.00  0.00     0.000 C 
BRANCH   3   4
ATOM      4  C   UNL     1      -2.765 -23.121  16.347  1.00  0.00     0.000 C 
BRANCH   4   5
ATOM      5  C   UNL     1      -4.148 -22.494  16.084  1.00  0.00     0.000 C 
BRANCH   5   6
ATOM      6  C   UNL     1      -5.246 -22.903  17.082  1.00  0.00     0.000 C 
BRANCH   6   7
ATOM      7  C   UNL     1      -6.577 -22.176  16.836  1.00  0.00     0.006 C 
BRANCH   7   8
ATOM      8  C   UNL     1      -7.728 -22.888  17.550  1.00  0.00     0.053 C 
BRANCH   8   9
ATOM      9  C   UNL     1      -8.877 -21.952  17.756  1.00  0.00     0.041 C 
ATOM     10  O   UNL     1      -9.334 -21.755  18.914  1.00  0.00    -0.550 OA
ATOM     11  O   UNL     1      -9.472 -21.329  16.667  1.00  0.00    -0.550 OA
ENDBRANCH   8   9
ENDBRANCH   7   8
ENDBRANCH   6   7
ENDBRANCH   5   6
ENDBRANCH   4   5
ENDBRANCH   3   4
ENDBRANCH   2   3
ENDBRANCH   1   2
BRANCH   1  12
ATOM     12  C   UNL     1       2.216 -21.836  16.343  1.00  0.00     0.000 C 
BRANCH  12  13
ATOM     13  C   UNL     1       3.497 -22.639  16.057  1.00  0.00    -0.000 C 
BRANCH  13  14
ATOM     14  C   UNL     1       4.631 -22.308  17.041  1.00  0.00    -0.000 C 
BRANCH  14  15
ATOM     15  C   UNL     1       6.018 -22.338  16.380  1.00  0.00    -0.000 C 
BRANCH  15  16
ATOM     16  C   UNL     1       7.092 -21.800  17.333  1.00  0.00    -0.000 C 
BRANCH  16  17
ATOM     17  C   UNL     1       8.491 -21.921  16.711  1.00  0.00    -0.000 C 
BRANCH  17  18
ATOM     18  C   UNL     1       8.469 -21.818  15.178  1.00  0.00    -0.000 C 
BRANCH  18  19
ATOM     19  C   UNL     1       8.759 -20.395  14.676  1.00  0.00    -0.003 C 
ATOM     20  C   UNL     1       8.873 -20.363  13.155  1.00  0.00     0.004 C 
ENDBRANCH  18  19
ENDBRANCH  17  18
ENDBRANCH  16  17
ENDBRANCH  15  16
ENDBRANCH  14  15
ENDBRANCH  13  14
ENDBRANCH  12  13
ENDBRANCH   1  12
TORSDOF 16
ENDMDL
MODEL 4
REMARK VINA RESULT:    -2.109      5.416     13.897
REMARK INTER + INTRA:          -4.639
REMARK INTER:                  -3.535
REMARK INTRA:                  -1.104
REMARK UNBOUND:                -0.557
REMARK SMILES CCCCCCCCCCCCCCCCCC(=O)[O-]
REMARK SMILES IDX 10 1 11 2 12 3 13 4 14 5 15 6 16 7 17 8 18 9 19 10 20 11
REMARK SMILES IDX 9 12 8 13 7 14 6 15 5 16 4 17 3 18 2 19 1 20
REMARK H PARENT
REMARK Flexibility Score: inf
ROOT
ATOM      1  C   UNL     1      -8.057 -22.241  16.253  1.00  0.00     0.000 C 
ENDROOT
BRANCH   1   2
ATOM      2  C   UNL     1      -7.014 -22.188  17.384  1.00  0.00     0.000 C 
BRANCH   2   3
ATOM      3  C   UNL     1      -5.782 -23.065  17.098  1.00  0.00     0.000 C 
BRANCH   3   4
ATOM      4  C   UNL     1      -4.729 -22.423  16.173  1.00  0.00     0.000 C 
BRANCH   4   5
ATOM      5  C   UNL     1      -3.353 -23.118  16.162  1.00  0.00     0.000 C 
BRANCH   5   6
ATOM      6  C   UNL     1      -2.146 -22.165  16.133  1.00  0.00     0.000 C 
BRANCH   6   7
ATOM      7  C   UNL     1      -0.802 -22.907  16.057  1.00  0.00     0.006 C 
BRANCH   7   8
ATOM      8  C   UNL     1       0.356 -21.980  16.434  1.00  0.00     0.053 C 
BRANCH   8   9
ATOM      9  C   UNL     1       1.620 -22.421  15.766  1.00  0.00     0.041 C 
ATOM     10  O   UNL     1       1.573 -23.125  14.723  1.00  0.00    -0.550 OA
ATOM     11  O   UNL     1       2.851 -22.093  16.318  1.00  0.00    -0.550 OA
ENDBRANCH   8   9
ENDBRANCH   7   8
ENDBRANCH   6   7
ENDBRANCH   5   6
ENDBRANCH   4   5
ENDBRANCH   3   4
ENDBRANCH   2   3
ENDBRANCH   1   2
BRANCH   1  12
ATOM     12  C   UNL     1      -8.944 -20.986  16.204  1.00  0.00     0.000 C 
BRANCH  12  13
ATOM     13  C   UNL     1     -10.390 -21.270  16.645  1.00  0.00    -0.000 C 
BRANCH  13  14
ATOM     14  C   UNL     1     -10.529 -22.609  17.386  1.00  0.00    -0.000 C 
BRANCH  14  15
ATOM     15  C   UNL     1     -11.007 -22.438  18.837  1.00  0.00    -0.000 C 
BRANCH  15  16
ATOM     16  C   UNL     1      -9.984 -23.014  19.824  1.00  0.00    -0.000 C 
BRANCH  16  17
ATOM     17  C   UNL     1      -9.122 -21.901  20.436  1.00  0.00    -0.000 C 
BRANCH  17  18
ATOM     18  C   UNL     1      -9.953 -20.860  21.202  1.00  0.00    -0.000 C 
BRANCH  18  19
ATOM     19  C   UNL     1      -9.365 -20.529  22.582  1.00  0.00    -0.003 C 
ATOM     20  C   UNL     1      -8.430 -21.636  23.059  1.00  0.00     0.004 C 
ENDBRANCH  18  19
ENDBRANCH  17  18
ENDBRANCH  16  17
ENDBRANCH  15  16
ENDBRANCH  14  15
ENDBRANCH  13  14
ENDBRANCH  12  13
ENDBRANCH   1  12
TORSDOF 16
ENDMDL
MODEL 5
REMARK VINA RESULT:    -1.674      4.171      9.330
REMARK INTER + INTRA:          -3.798
REMARK INTER:                  -2.735
REMARK INTRA:                  -1.063
REMARK UNBOUND:                -0.557
REMARK SMILES CCCCCCCCCCCCCCCCCC(=O)[O-]
REMARK SMILES IDX 10 1 11 2 12 3 13 4 14 5 15 6 16 7 17 8 18 9 19 10 20 11
REMARK SMILES IDX 9 12 8 13 7 14 6 15 5 16 4 17 3 18 2 19 1 20
REMARK H PARENT
REMARK Flexibility Score: inf
ROOT
ATOM      1  C   UNL     1      -6.842 -22.494  17.590  1.00  0.00     0.000 C 
ENDROOT
BRANCH   1   2
ATOM      2  C   UNL     1      -7.730 -22.598  16.336  1.00  0.00     0.000 C 
BRANCH   2   3
ATOM      3  C   UNL     1      -7.578 -21.387  15.398  1.00  0.00     0.000 C 
BRANCH   3   4
ATOM      4  C   UNL     1      -8.899 -20.855  14.808  1.00  0.00     0.000 C 
BRANCH   4   5
ATOM      5  C   UNL     1      -9.848 -20.185  15.821  1.00  0.00     0.000 C 
BRANCH   5   6
ATOM      6  C   UNL     1     -10.898 -21.123  16.443  1.00  0.00     0.000 C 
BRANCH   6   7
ATOM      7  C   UNL     1     -11.125 -20.856  17.939  1.00  0.00     0.006 C 
BRANCH   7   8
ATOM      8  C   UNL     1     -10.219 -21.745  18.795  1.00  0.00     0.053 C 
BRANCH   8   9
ATOM      9  C   UNL     1      -9.534 -20.934  19.850  1.00  0.00     0.041 C 
ATOM     10  O   UNL     1      -8.936 -21.506  20.799  1.00  0.00    -0.550 OA
ATOM     11  O   UNL     1      -9.592 -19.548  19.810  1.00  0.00    -0.550 OA
ENDBRANCH   8   9
ENDBRANCH   7   8
ENDBRANCH   6   7
ENDBRANCH   5   6
ENDBRANCH   4   5
ENDBRANCH   3   4
ENDBRANCH   2   3
ENDBRANCH   1   2
BRANCH   1  12
ATOM     12  C   UNL     1      -5.455 -23.125  17.389  1.00  0.00     0.000 C 
BRANCH  12  13
ATOM     13  C   UNL     1      -4.364 -22.074  17.122  1.00  0.00    -0.000 C 
BRANCH  13  14
ATOM     14  C   UNL     1      -3.649 -22.294  15.778  1.00  0.00    -0.000 C 
BRANCH  14  15
ATOM     15  C   UNL     1      -2.361 -23.120  15.920  1.00  0.00    -0.000 C 
BRANCH  15  16
ATOM     16  C   UNL     1      -1.176 -22.225  16.304  1.00  0.00    -0.000 C 
BRANCH  16  17
ATOM     17  C   UNL     1       0.155 -22.977  16.148  1.00  0.00    -0.000 C 
BRANCH  17  18
ATOM     18  C   UNL     1       1.336 -22.037  15.861  1.00  0.00    -0.000 C 
BRANCH  18  19
ATOM     19  C   UNL     1       2.539 -22.768  15.244  1.00  0.00    -0.003 C 
ATOM     20  C   UNL     1       3.731 -22.764  16.196  1.00  0.00     0.004 C 
ENDBRANCH  18  19
ENDBRANCH  17  18
ENDBRANCH  16  17
ENDBRANCH  15  16
ENDBRANCH  14  15
ENDBRANCH  13  14
ENDBRANCH  12  13
ENDBRANCH   1  12
TORSDOF 16
ENDMDL
MODEL 6
REMARK VINA RESULT:    -1.535      2.948      5.925
REMARK INTER + INTRA:          -3.528
REMARK INTER:                  -2.828
REMARK INTRA:                  -0.699
REMARK UNBOUND:                -0.557
REMARK SMILES CCCCCCCCCCCCCCCCCC(=O)[O-]
REMARK SMILES IDX 10 1 11 2 12 3 13 4 14 5 15 6 16 7 17 8 18 9 19 10 20 11
REMARK SMILES IDX 9 12 8 13 7 14 6 15 5 16 4 17 3 18 2 19 1 20
REMARK H PARENT
REMARK Flexibility Score: inf
ROOT
ATOM      1  C   UNL     1      -1.592 -22.090  16.537  1.00  0.00     0.000 C 
ENDROOT
BRANCH   1   2
ATOM      2  C   UNL     1      -2.843 -22.040  15.641  1.00  0.00     0.000 C 
BRANCH   2   3
ATOM      3  C   UNL     1      -3.890 -23.102  16.021  1.00  0.00     0.000 C 
BRANCH   3   4
ATOM      4  C   UNL     1      -4.748 -22.756  17.253  1.00  0.00     0.000 C 
BRANCH   4   5
ATOM      5  C   UNL     1      -6.272 -22.867  17.044  1.00  0.00     0.000 C 
BRANCH   5   6
ATOM      6  C   UNL     1      -6.839 -21.981  15.921  1.00  0.00     0.000 C 
BRANCH   6   7
ATOM      7  C   UNL     1      -8.322 -21.637  16.124  1.00  0.00     0.006 C 
BRANCH   7   8
ATOM      8  C   UNL     1      -8.751 -21.903  17.570  1.00  0.00     0.053 C 
BRANCH   8   9
ATOM      9  C   UNL     1     -10.107 -21.327  17.829  1.00  0.00     0.041 C 
ATOM     10  O   UNL     1     -10.584 -20.456  17.054  1.00  0.00    -0.550 OA
ATOM     11  O   UNL     1     -10.828 -21.720  18.949  1.00  0.00    -0.550 OA
ENDBRANCH   8   9
ENDBRANCH   7   8
ENDBRANCH   6   7
ENDBRANCH   5   6
ENDBRANCH   4   5
ENDBRANCH   3   4
ENDBRANCH   2   3
ENDBRANCH   1   2
BRANCH   1  12
ATOM     12  C   UNL     1      -0.561 -23.125  16.059  1.00  0.00     0.000 C 
BRANCH  12  13
ATOM     13  C   UNL     1       0.855 -22.534  15.940  1.00  0.00    -0.000 C 
BRANCH  13  14
ATOM     14  C   UNL     1       1.561 -22.952  14.640  1.00  0.00    -0.000 C 
BRANCH  14  15
ATOM     15  C   UNL     1       3.077 -23.124  14.817  1.00  0.00    -0.000 C 
BRANCH  15  16
ATOM     16  C   UNL     1       3.524 -22.662  16.209  1.00  0.00    -0.000 C 
BRANCH  16  17
ATOM     17  C   UNL     1       5.056 -22.637  16.317  1.00  0.00    -0.000 C 
BRANCH  17  18
ATOM     18  C   UNL     1       5.548 -21.971  17.611  1.00  0.00    -0.000 C 
BRANCH  18  19
ATOM     19  C   UNL     1       6.998 -21.473  17.507  1.00  0.00    -0.003 C 
ATOM     20  C   UNL     1       7.637 -21.916  16.195  1.00  0.00     0.004 C 
ENDBRANCH  18  19
ENDBRANCH  17  18
ENDBRANCH  16  17
ENDBRANCH  15  16
ENDBRANCH  14  15
ENDBRANCH  13  14
ENDBRANCH  12  13
ENDBRANCH   1  12
TORSDOF 16
ENDMDL
MODEL 7
REMARK VINA RESULT:    -1.440      5.403      8.041
REMARK INTER + INTRA:          -3.344
REMARK INTER:                  -2.313
REMARK INTRA:                  -1.032
REMARK UNBOUND:                -0.557
REMARK SMILES CCCCCCCCCCCCCCCCCC(=O)[O-]
REMARK SMILES IDX 10 1 11 2 12 3 13 4 14 5 15 6 16 7 17 8 18 9 19 10 20 11
REMARK SMILES IDX 9 12 8 13 7 14 6 15 5 16 4 17 3 18 2 19 1 20
REMARK H PARENT
REMARK Flexibility Score: inf
ROOT
ATOM      1  C   UNL     1       8.558 -19.077  11.352  1.00  0.00     0.000 C 
ENDROOT
BRANCH   1   2
ATOM      2  C   UNL     1       9.124 -20.240  12.187  1.00  0.00     0.000 C 
BRANCH   2   3
ATOM      3  C   UNL     1       8.621 -20.228  13.642  1.00  0.00     0.000 C 
BRANCH   3   4
ATOM      4  C   UNL     1       9.123 -21.397  14.511  1.00  0.00     0.000 C 
BRANCH   4   5
ATOM      5  C   UNL     1       9.068 -21.154  16.033  1.00  0.00     0.000 C 
BRANCH   5   6
ATOM      6  C   UNL     1       9.072 -22.430  16.893  1.00  0.00     0.000 C 
BRANCH   6   7
ATOM      7  C   UNL     1       7.659 -22.900  17.269  1.00  0.00     0.006 C 
BRANCH   7   8
ATOM      8  C   UNL     1       6.596 -22.072  16.542  1.00  0.00     0.053 C 
BRANCH   8   9
ATOM      9  C   UNL     1       5.246 -22.306  17.142  1.00  0.00     0.041 C 
ATOM     10  O   UNL     1       5.083 -22.216  18.388  1.00  0.00    -0.550 OA
ATOM     11  O   UNL     1       4.177 -22.667  16.334  1.00  0.00    -0.550 OA
ENDBRANCH   8   9
ENDBRANCH   7   8
ENDBRANCH   6   7
ENDBRANCH   5   6
ENDBRANCH   4   5
ENDBRANCH   3   4
ENDBRANCH   2   3
ENDBRANCH   1   2
BRANCH   1  12
ATOM     12  C   UNL     1       7.158 -19.375  10.792  1.00  0.00     0.000 C 
BRANCH  12  13
ATOM     13  C   UNL     1       7.207 -20.017   9.395  1.00  0.00    -0.000 C 
BRANCH  13  14
ATOM     14  C   UNL     1       8.618 -20.491   9.013  1.00  0.00    -0.000 C 
BRANCH  14  15
ATOM     15  C   UNL     1       8.602 -21.655   8.010  1.00  0.00    -0.000 C 
BRANCH  15  16
ATOM     16  C   UNL     1       8.145 -22.955   8.684  1.00  0.00    -0.000 C 
BRANCH  16  17
ATOM     17  C   UNL     1       8.184 -22.825  10.214  1.00  0.00    -0.000 C 
BRANCH  17  18
ATOM     18  C   UNL     1       6.825 -23.120  10.868  1.00  0.00    -0.000 C 
BRANCH  18  19
ATOM     19  C   UNL     1       6.888 -23.091  12.403  1.00  0.00    -0.003 C 
ATOM     20  C   UNL     1       5.555 -22.647  12.998  1.00  0.00     0.004 C 
ENDBRANCH  18  19
ENDBRANCH  17  18
ENDBRANCH  16  17
ENDBRANCH  15  16
ENDBRANCH  14  15
ENDBRANCH  13  14
ENDBRANCH  12  13
ENDBRANCH   1  12
TORSDOF 16
ENDMDL
MODEL 8
REMARK VINA RESULT:    -0.984      4.748     10.354
REMARK INTER + INTRA:          -2.461
REMARK INTER:                  -1.883
REMARK INTRA:                  -0.578
REMARK UNBOUND:                -0.557
REMARK SMILES CCCCCCCCCCCCCCCCCC(=O)[O-]
REMARK SMILES IDX 10 1 11 2 12 3 13 4 14 5 15 6 16 7 17 8 18 9 19 10 20 11
REMARK SMILES IDX 9 12 8 13 7 14 6 15 5 16 4 17 3 18 2 19 1 20
REMARK H PARENT
REMARK Flexibility Score: inf
ROOT
ATOM      1  C   UNL     1      -7.396 -22.837  18.378  1.00  0.00     0.000 C 
ENDROOT
BRANCH   1   2
ATOM      2  C   UNL     1      -8.268 -21.962  17.460  1.00  0.00     0.000 C 
BRANCH   2   3
ATOM      3  C   UNL     1      -9.743 -21.927  17.897  1.00  0.00     0.000 C 
BRANCH   3   4
ATOM      4  C   UNL     1     -10.193 -23.125  18.756  1.00  0.00     0.000 C 
BRANCH   4   5
ATOM      5  C   UNL     1     -11.044 -22.765  19.991  1.00  0.00     0.000 C 
BRANCH   5   6
ATOM      6  C   UNL     1     -10.256 -22.643  21.307  1.00  0.00     0.000 C 
BRANCH   6   7
ATOM      7  C   UNL     1     -11.111 -22.107  22.466  1.00  0.00     0.006 C 
BRANCH   7   8
ATOM      8  C   UNL     1     -10.965 -20.588  22.595  1.00  0.00     0.053 C 
BRANCH   8   9
ATOM      9  C   UNL     1      -9.587 -20.158  22.202  1.00  0.00     0.041 C 
ATOM     10  O   UNL     1      -8.666 -20.125  23.060  1.00  0.00    -0.550 OA
ATOM     11  O   UNL     1      -9.329 -19.752  20.900  1.00  0.00    -0.550 OA
ENDBRANCH   8   9
ENDBRANCH   7   8
ENDBRANCH   6   7
ENDBRANCH   5   6
ENDBRANCH   4   5
ENDBRANCH   3   4
ENDBRANCH   2   3
ENDBRANCH   1   2
BRANCH   1  12
ATOM     12  C   UNL     1      -6.009 -23.125  17.782  1.00  0.00     0.000 C 
BRANCH  12  13
ATOM     13  C   UNL     1      -5.403 -21.896  17.080  1.00  0.00    -0.000 C 
BRANCH  13  14
ATOM     14  C   UNL     1      -4.349 -22.278  16.029  1.00  0.00    -0.000 C 
BRANCH  14  15
ATOM     15  C   UNL     1      -2.912 -22.017  16.507  1.00  0.00    -0.000 C 
BRANCH  15  16
ATOM     16  C   UNL     1      -1.896 -22.740  15.614  1.00  0.00    -0.000 C 
BRANCH  16  17
ATOM     17  C   UNL     1      -0.538 -22.870  16.319  1.00  0.00    -0.000 C 
BRANCH  17  18
ATOM     18  C   UNL     1       0.645 -22.830  15.339  1.00  0.00    -0.000 C 
BRANCH  18  19
ATOM     19  C   UNL     1       1.953 -22.380  16.006  1.00  0.00    -0.003 C 
ATOM     20  C   UNL     1       3.158 -23.069  15.373  1.00  0.00     0.004 C 
ENDBRANCH  18  19
ENDBRANCH  17  18
ENDBRANCH  16  17
ENDBRANCH  15  16
ENDBRANCH  14  15
ENDBRANCH  13  14
ENDBRANCH  12  13
ENDBRANCH   1  12
TORSDOF 16
ENDMDL
