MODEL 1
REMARK VINA RESULT:    -6.677      0.000      0.000
REMARK INTER + INTRA:         -12.428
REMARK INTER:                 -10.971
REMARK INTRA:                  -1.457
REMARK UNBOUND:                -1.457
REMARK SMILES COc1ccc([C@@H]2CC(=O)c3c(O)cc(O[C@@H]4O[C@@H](CO[C@H]5O[C@H](C)[C@H](O)[C@H](O)[C@H]5O)[C@H](O)[C@@H](O)[C@H]4O)cc3O2)cc1O
REMARK SMILES IDX 19 1 32 2 34 3 36 4 17 5 18 6 20 7 21 8 22 9 25 10 24 11
REMARK SMILES IDX 26 12 23 13 28 14 30 15 27 16 29 18 31 20 33 22 35 24 16 26
REMARK SMILES IDX 15 27 14 28 38 29 12 30 39 31 11 32 40 33 9 34 7 35 10 36
REMARK SMILES IDX 8 37 13 38 6 40 41 41 5 42 42 43 4 44 3 45 43 46 2 48 1 49
REMARK SMILES IDX 37 50
REMARK H PARENT 27 17 29 19 31 21 33 23 35 25 13 39 43 47 37 51
REMARK Flexibility Score: inf
ROOT
ATOM      1  C   UNL     1      -8.695  86.512  -8.155  1.00  0.00     0.180 C 
ATOM      2  C   UNL     1      -7.279  86.128  -7.531  1.00  0.00     0.177 C 
ATOM      3  C   UNL     1      -6.669  84.970  -8.311  1.00  0.00     0.180 C 
ATOM      4  C   UNL     1      -7.009  84.936  -9.868  1.00  0.00     0.214 C 
ATOM      5  C   UNL     1      -7.413  86.395 -10.352  1.00  0.00     0.339 C 
ATOM      6  O   UNL     1      -8.469  86.972  -9.531  1.00  0.00    -0.332 OA
ENDROOT
BRANCH   1   7
ATOM      7  C   UNL     1      -9.648  85.193  -8.140  1.00  0.00     0.198 C 
BRANCH   7   8
ATOM      8  O   UNL     1     -11.089  85.344  -8.164  1.00  0.00    -0.347 OA
BRANCH   8   9
ATOM      9  C   UNL     1     -11.718  84.137  -8.674  1.00  0.00     0.281 C 
ATOM     10  C   UNL     1     -12.367  80.988  -7.364  1.00  0.00     0.041 C 
ATOM     11  C   UNL     1     -13.090  82.320  -7.834  1.00  0.00     0.150 C 
ATOM     12  C   UNL     1     -13.697  82.325  -9.293  1.00  0.00     0.174 C 
ATOM     13  O   UNL     1     -12.395  83.532  -7.527  1.00  0.00    -0.344 OA
ATOM     14  C   UNL     1     -13.996  83.687  -9.849  1.00  0.00     0.179 C 
ATOM     15  C   UNL     1     -12.635  84.501  -9.919  1.00  0.00     0.202 C 
BRANCH  12  16
ATOM     16  O   UNL     1     -12.841  81.596 -10.140  1.00  0.00    -0.388 OA
ATOM     17  H   UNL     1     -12.703  82.148 -11.030  1.00  0.00     0.211 HD
ENDBRANCH  12  16
BRANCH  14  18
ATOM     18  O   UNL     1     -14.594  83.631 -11.154  1.00  0.00    -0.387 OA
ATOM     19  H   UNL     1     -15.507  83.235 -11.094  1.00  0.00     0.211 HD
ENDBRANCH  14  18
BRANCH  15  20
ATOM     20  O   UNL     1     -12.946  85.890  -9.920  1.00  0.00    -0.385 OA
ATOM     21  H   UNL     1     -13.451  86.045  -9.097  1.00  0.00     0.211 HD
ENDBRANCH  15  20
ENDBRANCH   8   9
ENDBRANCH   7   8
ENDBRANCH   1   7
BRANCH   2  22
ATOM     22  O   UNL     1      -6.329  87.219  -7.435  1.00  0.00    -0.387 OA
ATOM     23  H   UNL     1      -6.808  88.047  -7.376  1.00  0.00     0.211 HD
ENDBRANCH   2  22
BRANCH   3  24
ATOM     24  O   UNL     1      -6.920  83.706  -7.713  1.00  0.00    -0.387 OA
ATOM     25  H   UNL     1      -6.112  83.120  -7.912  1.00  0.00     0.211 HD
ENDBRANCH   3  24
BRANCH   5  26
ATOM     26  O   UNL     1      -6.248  87.266 -10.398  1.00  0.00    -0.462 OA
BRANCH  26  27
ATOM     27  C   UNL     1      -6.258  88.611 -10.847  1.00  0.00     0.130 A 
ATOM     28  C   UNL     1      -5.848  89.661  -9.998  1.00  0.00     0.093 A 
ATOM     29  C   UNL     1      -6.462  88.886 -12.207  1.00  0.00     0.094 A 
ATOM     30  C   UNL     1      -5.381  90.871 -10.551  1.00  0.00     0.133 A 
ATOM     31  C   UNL     1      -6.114  90.147 -12.771  1.00  0.00     0.138 A 
ATOM     32  C   UNL     1      -5.505  91.082 -11.913  1.00  0.00     0.102 A 
ATOM     33  O   UNL     1      -6.216  90.526 -14.169  1.00  0.00    -0.484 OA
ATOM     34  C   UNL     1      -5.141  92.390 -12.483  1.00  0.00     0.174 C 
ATOM     35  C   UNL     1      -6.213  91.895 -14.649  1.00  0.00     0.211 C 
ATOM     36  O   UNL     1      -4.094  92.883 -12.329  1.00  0.00    -0.294 OA
ATOM     37  C   UNL     1      -6.118  92.917 -13.467  1.00  0.00     0.131 C 
BRANCH  30  38
ATOM     38  O   UNL     1      -4.744  91.848  -9.786  1.00  0.00    -0.507 OA
ATOM     39  H   UNL     1      -5.145  92.812  -9.836  1.00  0.00     0.293 HD
ENDBRANCH  30  38
BRANCH  35  40
ATOM     40  C   UNL     1      -5.174  92.236 -15.697  1.00  0.00    -0.003 A 
ATOM     41  C   UNL     1      -4.464  91.143 -16.394  1.00  0.00     0.057 A 
ATOM     42  C   UNL     1      -4.979  93.521 -16.212  1.00  0.00     0.011 A 
ATOM     43  C   UNL     1      -3.459  91.405 -17.402  1.00  0.00     0.158 A 
ATOM     44  C   UNL     1      -3.933  93.785 -17.093  1.00  0.00     0.051 A 
ATOM     45  C   UNL     1      -3.121  92.754 -17.631  1.00  0.00     0.160 A 
BRANCH  43  46
ATOM     46  O   UNL     1      -2.827  90.410 -18.065  1.00  0.00    -0.504 OA
ATOM     47  H   UNL     1      -1.888  90.199 -17.941  1.00  0.00     0.293 HD
ENDBRANCH  43  46
BRANCH  45  48
ATOM     48  O   UNL     1      -1.931  93.119 -18.286  1.00  0.00    -0.493 OA
ATOM     49  C   UNL     1      -1.882  93.408 -19.671  1.00  0.00     0.278 C 
ENDBRANCH  45  48
ENDBRANCH  35  40
ENDBRANCH  26  27
ENDBRANCH   5  26
BRANCH   4  50
ATOM     50  O   UNL     1      -8.045  84.006 -10.155  1.00  0.00    -0.384 OA
ATOM     51  H   UNL     1      -8.511  84.433 -10.968  1.00  0.00     0.211 HD
ENDBRANCH   4  50
TORSDOF 15
ENDMDL
MODEL 2
REMARK VINA RESULT:    -6.655      5.298      8.667
REMARK INTER + INTRA:         -12.391
REMARK INTER:                 -10.257
REMARK INTRA:                  -2.134
REMARK UNBOUND:                -1.457
REMARK SMILES COc1ccc([C@@H]2CC(=O)c3c(O)cc(O[C@@H]4O[C@@H](CO[C@H]5O[C@H](C)[C@H](O)[C@H](O)[C@H]5O)[C@H](O)[C@@H](O)[C@H]4O)cc3O2)cc1O
REMARK SMILES IDX 19 1 32 2 34 3 36 4 17 5 18 6 20 7 21 8 22 9 25 10 24 11
REMARK SMILES IDX 26 12 23 13 28 14 30 15 27 16 29 18 31 20 33 22 35 24 16 26
REMARK SMILES IDX 15 27 14 28 38 29 12 30 39 31 11 32 40 33 9 34 7 35 10 36
REMARK SMILES IDX 8 37 13 38 6 40 41 41 5 42 42 43 4 44 3 45 43 46 2 48 1 49
REMARK SMILES IDX 37 50
REMARK H PARENT 27 17 29 19 31 21 33 23 35 25 13 39 43 47 37 51
REMARK Flexibility Score: inf
ROOT
ATOM      1  C   UNL     1      -5.848  92.747 -12.722  1.00  0.00     0.180 C 
ATOM      2  C   UNL     1      -5.282  91.292 -13.041  1.00  0.00     0.177 C 
ATOM      3  C   UNL     1      -5.818  90.813 -14.385  1.00  0.00     0.180 C 
ATOM      4  C   UNL     1      -6.052  91.951 -15.476  1.00  0.00     0.214 C 
ATOM      5  C   UNL     1      -5.149  93.210 -15.126  1.00  0.00     0.339 C 
ATOM      6  O   UNL     1      -5.344  93.661 -13.755  1.00  0.00    -0.332 OA
ENDROOT
BRANCH   1   7
ATOM      7  C   UNL     1      -7.475  92.692 -12.748  1.00  0.00     0.198 C 
BRANCH   7   8
ATOM      8  O   UNL     1      -8.173  91.642 -12.035  1.00  0.00    -0.347 OA
BRANCH   8   9
ATOM      9  C   UNL     1      -9.598  91.698 -12.314  1.00  0.00     0.281 C 
ATOM     10  C   UNL     1     -11.750  94.142 -13.517  1.00  0.00     0.041 C 
ATOM     11  C   UNL     1     -11.087  92.755 -13.912  1.00  0.00     0.150 C 
ATOM     12  C   UNL     1     -11.966  91.459 -13.699  1.00  0.00     0.174 C 
ATOM     13  O   UNL     1      -9.737  92.578 -13.474  1.00  0.00    -0.344 OA
ATOM     14  C   UNL     1     -11.198  90.169 -13.684  1.00  0.00     0.179 C 
ATOM     15  C   UNL     1     -10.166  90.224 -12.479  1.00  0.00     0.202 C 
BRANCH  12  16
ATOM     16  O   UNL     1     -12.731  91.620 -12.528  1.00  0.00    -0.388 OA
ATOM     17  H   UNL     1     -13.490  92.329 -12.720  1.00  0.00     0.211 HD
ENDBRANCH  12  16
BRANCH  14  18
ATOM     18  O   UNL     1     -12.049  89.021 -13.541  1.00  0.00    -0.387 OA
ATOM     19  H   UNL     1     -12.624  88.919 -14.349  1.00  0.00     0.211 HD
ENDBRANCH  14  18
BRANCH  15  20
ATOM     20  O   UNL     1      -9.110  89.310 -12.755  1.00  0.00    -0.385 OA
ATOM     21  H   UNL     1      -9.378  88.839 -13.569  1.00  0.00     0.211 HD
ENDBRANCH  15  20
ENDBRANCH   8   9
ENDBRANCH   7   8
ENDBRANCH   1   7
BRANCH   2  22
ATOM     22  O   UNL     1      -3.837  91.170 -13.010  1.00  0.00    -0.387 OA
ATOM     23  H   UNL     1      -3.594  90.498 -12.372  1.00  0.00     0.211 HD
ENDBRANCH   2  22
BRANCH   3  24
ATOM     24  O   UNL     1      -6.971  89.991 -14.260  1.00  0.00    -0.387 OA
ATOM     25  H   UNL     1      -7.579  90.437 -13.577  1.00  0.00     0.211 HD
ENDBRANCH   3  24
BRANCH   5  26
ATOM     26  O   UNL     1      -3.746  92.933 -15.392  1.00  0.00    -0.462 OA
BRANCH  26  27
ATOM     27  C   UNL     1      -3.179  92.782 -16.683  1.00  0.00     0.130 A 
ATOM     28  C   UNL     1      -2.618  91.552 -17.089  1.00  0.00     0.093 A 
ATOM     29  C   UNL     1      -3.371  93.784 -17.646  1.00  0.00     0.094 A 
ATOM     30  C   UNL     1      -2.524  91.241 -18.460  1.00  0.00     0.133 A 
ATOM     31  C   UNL     1      -3.163  93.533 -19.032  1.00  0.00     0.138 A 
ATOM     32  C   UNL     1      -2.811  92.219 -19.395  1.00  0.00     0.102 A 
ATOM     33  O   UNL     1      -3.391  94.464 -20.123  1.00  0.00    -0.484 OA
ATOM     34  C   UNL     1      -2.593  91.947 -20.826  1.00  0.00     0.174 C 
ATOM     35  C   UNL     1      -2.833  94.320 -21.453  1.00  0.00     0.211 C 
ATOM     36  O   UNL     1      -3.069  91.036 -21.381  1.00  0.00    -0.294 OA
ATOM     37  C   UNL     1      -1.925  93.049 -21.560  1.00  0.00     0.131 C 
BRANCH  30  38
ATOM     38  O   UNL     1      -2.205  89.963 -18.918  1.00  0.00    -0.507 OA
ATOM     39  H   UNL     1      -1.214  89.808 -19.213  1.00  0.00     0.293 HD
ENDBRANCH  30  38
BRANCH  35  40
ATOM     40  C   UNL     1      -3.821  94.334 -22.601  1.00  0.00    -0.003 A 
ATOM     41  C   UNL     1      -3.558  93.499 -23.792  1.00  0.00     0.057 A 
ATOM     42  C   UNL     1      -5.086  94.926 -22.533  1.00  0.00     0.011 A 
ATOM     43  C   UNL     1      -4.461  93.472 -24.922  1.00  0.00     0.158 A 
ATOM     44  C   UNL     1      -5.900  94.997 -23.661  1.00  0.00     0.051 A 
ATOM     45  C   UNL     1      -5.565  94.347 -24.876  1.00  0.00     0.160 A 
BRANCH  43  46
ATOM     46  O   UNL     1      -4.242  92.689 -26.002  1.00  0.00    -0.504 OA
ATOM     47  H   UNL     1      -4.610  91.795 -26.096  1.00  0.00     0.293 HD
ENDBRANCH  43  46
BRANCH  45  48
ATOM     48  O   UNL     1      -6.288  94.689 -26.033  1.00  0.00    -0.493 OA
ATOM     49  C   UNL     1      -7.651  95.072 -25.995  1.00  0.00     0.278 C 
ENDBRANCH  45  48
ENDBRANCH  35  40
ENDBRANCH  26  27
ENDBRANCH   5  26
BRANCH   4  50
ATOM     50  O   UNL     1      -7.422  92.320 -15.558  1.00  0.00    -0.384 OA
ATOM     51  H   UNL     1      -7.410  93.300 -15.241  1.00  0.00     0.211 HD
ENDBRANCH   4  50
TORSDOF 15
ENDMDL
MODEL 3
REMARK VINA RESULT:    -6.588      2.449     11.919
REMARK INTER + INTRA:         -12.281
REMARK INTER:                 -10.760
REMARK INTRA:                  -1.521
REMARK UNBOUND:                -1.457
REMARK SMILES COc1ccc([C@@H]2CC(=O)c3c(O)cc(O[C@@H]4O[C@@H](CO[C@H]5O[C@H](C)[C@H](O)[C@H](O)[C@H]5O)[C@H](O)[C@@H](O)[C@H]4O)cc3O2)cc1O
REMARK SMILES IDX 19 1 32 2 34 3 36 4 17 5 18 6 20 7 21 8 22 9 25 10 24 11
REMARK SMILES IDX 26 12 23 13 28 14 30 15 27 16 29 18 31 20 33 22 35 24 16 26
REMARK SMILES IDX 15 27 14 28 38 29 12 30 39 31 11 32 40 33 9 34 7 35 10 36
REMARK SMILES IDX 8 37 13 38 6 40 41 41 5 42 42 43 4 44 3 45 43 46 2 48 1 49
REMARK SMILES IDX 37 50
REMARK H PARENT 27 17 29 19 31 21 33 23 35 25 13 39 43 47 37 51
REMARK Flexibility Score: inf
ROOT
ATOM      1  C   UNL     1      -6.386  91.566 -14.517  1.00  0.00     0.180 C 
ATOM      2  C   UNL     1      -5.245  90.623 -13.926  1.00  0.00     0.177 C 
ATOM      3  C   UNL     1      -4.565  91.313 -12.750  1.00  0.00     0.180 C 
ATOM      4  C   UNL     1      -5.502  92.257 -11.872  1.00  0.00     0.214 C 
ATOM      5  C   UNL     1      -7.018  91.822 -12.064  1.00  0.00     0.339 C 
ATOM      6  O   UNL     1      -7.397  91.760 -13.469  1.00  0.00    -0.332 OA
ENDROOT
BRANCH   1   7
ATOM      7  C   UNL     1      -5.720  92.989 -14.943  1.00  0.00     0.198 C 
BRANCH   7   8
ATOM      8  O   UNL     1      -4.379  93.023 -15.488  1.00  0.00    -0.347 OA
BRANCH   8   9
ATOM      9  C   UNL     1      -4.399  92.712 -16.907  1.00  0.00     0.281 C 
ATOM     10  C   UNL     1      -4.939  94.556 -19.798  1.00  0.00     0.041 C 
ATOM     11  C   UNL     1      -3.804  93.784 -19.002  1.00  0.00     0.150 C 
ATOM     12  C   UNL     1      -3.480  92.310 -19.473  1.00  0.00     0.174 C 
ATOM     13  O   UNL     1      -3.871  93.900 -17.578  1.00  0.00    -0.344 OA
ATOM     14  C   UNL     1      -2.726  91.479 -18.475  1.00  0.00     0.179 C 
ATOM     15  C   UNL     1      -3.614  91.355 -17.165  1.00  0.00     0.202 C 
BRANCH  12  16
ATOM     16  O   UNL     1      -4.681  91.688 -19.864  1.00  0.00    -0.388 OA
ATOM     17  H   UNL     1      -5.017  91.080 -19.067  1.00  0.00     0.211 HD
ENDBRANCH  12  16
BRANCH  14  18
ATOM     18  O   UNL     1      -2.413  90.169 -18.974  1.00  0.00    -0.387 OA
ATOM     19  H   UNL     1      -3.092  89.511 -18.656  1.00  0.00     0.211 HD
ENDBRANCH  14  18
BRANCH  15  20
ATOM     20  O   UNL     1      -2.754  91.060 -16.070  1.00  0.00    -0.385 OA
ATOM     21  H   UNL     1      -1.916  90.755 -16.471  1.00  0.00     0.211 HD
ENDBRANCH  15  20
ENDBRANCH   8   9
ENDBRANCH   7   8
ENDBRANCH   1   7
BRANCH   2  22
ATOM     22  O   UNL     1      -5.679  89.294 -13.540  1.00  0.00    -0.387 OA
ATOM     23  H   UNL     1      -6.467  89.368 -12.999  1.00  0.00     0.211 HD
ENDBRANCH   2  22
BRANCH   3  24
ATOM     24  O   UNL     1      -3.372  91.990 -13.120  1.00  0.00    -0.387 OA
ATOM     25  H   UNL     1      -3.590  92.543 -13.946  1.00  0.00     0.211 HD
ENDBRANCH   3  24
BRANCH   5  26
ATOM     26  O   UNL     1      -7.284  90.559 -11.392  1.00  0.00    -0.462 OA
BRANCH  26  27
ATOM     27  C   UNL     1      -8.547  90.159 -10.888  1.00  0.00     0.130 A 
ATOM     28  C   UNL     1      -9.727  90.832 -11.272  1.00  0.00     0.093 A 
ATOM     29  C   UNL     1      -8.661  88.952 -10.181  1.00  0.00     0.094 A 
ATOM     30  C   UNL     1     -10.969  90.170 -11.201  1.00  0.00     0.133 A 
ATOM     31  C   UNL     1      -9.922  88.322  -9.986  1.00  0.00     0.138 A 
ATOM     32  C   UNL     1     -11.040  88.935 -10.583  1.00  0.00     0.102 A 
ATOM     33  O   UNL     1     -10.159  87.047  -9.332  1.00  0.00    -0.484 OA
ATOM     34  C   UNL     1     -12.351  88.292 -10.387  1.00  0.00     0.174 C 
ATOM     35  C   UNL     1     -11.446  86.613  -8.824  1.00  0.00     0.211 C 
ATOM     36  O   UNL     1     -13.097  88.088 -11.262  1.00  0.00    -0.294 OA
ATOM     37  C   UNL     1     -12.545  87.706  -9.039  1.00  0.00     0.131 C 
BRANCH  30  38
ATOM     38  O   UNL     1     -12.127  90.686 -11.782  1.00  0.00    -0.507 OA
ATOM     39  H   UNL     1     -12.006  91.198 -12.686  1.00  0.00     0.293 HD
ENDBRANCH  30  38
BRANCH  35  40
ATOM     40  C   UNL     1     -11.953  85.278  -9.331  1.00  0.00    -0.003 A 
ATOM     41  C   UNL     1     -11.108  84.076  -9.174  1.00  0.00     0.057 A 
ATOM     42  C   UNL     1     -13.265  85.055  -9.759  1.00  0.00     0.011 A 
ATOM     43  C   UNL     1     -11.534  82.774  -9.641  1.00  0.00     0.158 A 
ATOM     44  C   UNL     1     -13.634  83.833 -10.316  1.00  0.00     0.051 A 
ATOM     45  C   UNL     1     -12.759  82.717 -10.335  1.00  0.00     0.160 A 
BRANCH  43  46
ATOM     46  O   UNL     1     -10.779  81.666  -9.473  1.00  0.00    -0.504 OA
ATOM     47  H   UNL     1     -10.372  81.421  -8.626  1.00  0.00     0.293 HD
ENDBRANCH  43  46
BRANCH  45  48
ATOM     48  O   UNL     1     -13.098  81.621 -11.149  1.00  0.00    -0.493 OA
ATOM     49  C   UNL     1     -13.074  81.684 -12.563  1.00  0.00     0.278 C 
ENDBRANCH  45  48
ENDBRANCH  35  40
ENDBRANCH  26  27
ENDBRANCH   5  26
BRANCH   4  50
ATOM     50  O   UNL     1      -5.324  93.627 -12.210  1.00  0.00    -0.384 OA
ATOM     51  H   UNL     1      -5.909  93.728 -13.052  1.00  0.00     0.211 HD
ENDBRANCH   4  50
TORSDOF 15
ENDMDL
MODEL 4
REMARK VINA RESULT:    -6.568      2.034     12.019
REMARK INTER + INTRA:         -12.247
REMARK INTER:                 -10.659
REMARK INTRA:                  -1.588
REMARK UNBOUND:                -1.457
REMARK SMILES COc1ccc([C@@H]2CC(=O)c3c(O)cc(O[C@@H]4O[C@@H](CO[C@H]5O[C@H](C)[C@H](O)[C@H](O)[C@H]5O)[C@H](O)[C@@H](O)[C@H]4O)cc3O2)cc1O
REMARK SMILES IDX 19 1 32 2 34 3 36 4 17 5 18 6 20 7 21 8 22 9 25 10 24 11
REMARK SMILES IDX 26 12 23 13 28 14 30 15 27 16 29 18 31 20 33 22 35 24 16 26
REMARK SMILES IDX 15 27 14 28 38 29 12 30 39 31 11 32 40 33 9 34 7 35 10 36
REMARK SMILES IDX 8 37 13 38 6 40 41 41 5 42 42 43 4 44 3 45 43 46 2 48 1 49
REMARK SMILES IDX 37 50
REMARK H PARENT 27 17 29 19 31 21 33 23 35 25 13 39 43 47 37 51
REMARK Flexibility Score: inf
ROOT
ATOM      1  C   UNL     1      -5.948  92.148 -14.975  1.00  0.00     0.180 C 
ATOM      2  C   UNL     1      -5.235  90.738 -15.192  1.00  0.00     0.177 C 
ATOM      3  C   UNL     1      -4.134  90.554 -14.155  1.00  0.00     0.180 C 
ATOM      4  C   UNL     1      -4.411  91.217 -12.733  1.00  0.00     0.214 C 
ATOM      5  C   UNL     1      -5.975  91.413 -12.538  1.00  0.00     0.339 C 
ATOM      6  O   UNL     1      -6.581  92.132 -13.651  1.00  0.00    -0.332 OA
ENDROOT
BRANCH   1   7
ATOM      7  C   UNL     1      -4.823  93.321 -15.060  1.00  0.00     0.198 C 
BRANCH   7   8
ATOM      8  O   UNL     1      -3.817  93.282 -16.103  1.00  0.00    -0.347 OA
BRANCH   8   9
ATOM      9  C   UNL     1      -4.432  93.008 -17.391  1.00  0.00     0.281 C 
ATOM     10  C   UNL     1      -6.608  94.737 -19.470  1.00  0.00     0.041 C 
ATOM     11  C   UNL     1      -5.105  94.238 -19.372  1.00  0.00     0.150 C 
ATOM     12  C   UNL     1      -4.750  92.894 -20.124  1.00  0.00     0.174 C 
ATOM     13  O   UNL     1      -4.525  94.302 -18.066  1.00  0.00    -0.344 OA
ATOM     14  C   UNL     1      -3.470  92.243 -19.686  1.00  0.00     0.179 C 
ATOM     15  C   UNL     1      -3.603  91.882 -18.146  1.00  0.00     0.202 C 
BRANCH  12  16
ATOM     16  O   UNL     1      -5.843  92.014 -20.016  1.00  0.00    -0.388 OA
ATOM     17  H   UNL     1      -5.766  91.290 -20.781  1.00  0.00     0.211 HD
ENDBRANCH  12  16
BRANCH  14  18
ATOM     18  O   UNL     1      -3.170  91.056 -20.437  1.00  0.00    -0.387 OA
ATOM     19  H   UNL     1      -2.540  90.478 -19.924  1.00  0.00     0.211 HD
ENDBRANCH  14  18
BRANCH  15  20
ATOM     20  O   UNL     1      -2.294  91.774 -17.599  1.00  0.00    -0.385 OA
ATOM     21  H   UNL     1      -2.016  92.691 -17.404  1.00  0.00     0.211 HD
ENDBRANCH  15  20
ENDBRANCH   8   9
ENDBRANCH   7   8
ENDBRANCH   1   7
BRANCH   2  22
ATOM     22  O   UNL     1      -6.121  89.590 -15.187  1.00  0.00    -0.387 OA
ATOM     23  H   UNL     1      -5.598  88.793 -15.093  1.00  0.00     0.211 HD
ENDBRANCH   2  22
BRANCH   3  24
ATOM     24  O   UNL     1      -2.849  90.920 -14.641  1.00  0.00    -0.387 OA
ATOM     25  H   UNL     1      -2.958  91.811 -15.119  1.00  0.00     0.211 HD
ENDBRANCH   3  24
BRANCH   5  26
ATOM     26  O   UNL     1      -6.635  90.135 -12.318  1.00  0.00    -0.462 OA
BRANCH  26  27
ATOM     27  C   UNL     1      -6.429  89.298 -11.192  1.00  0.00     0.130 A 
ATOM     28  C   UNL     1      -6.244  89.849  -9.906  1.00  0.00     0.093 A 
ATOM     29  C   UNL     1      -6.631  87.915 -11.310  1.00  0.00     0.094 A 
ATOM     30  C   UNL     1      -6.540  89.079  -8.763  1.00  0.00     0.133 A 
ATOM     31  C   UNL     1      -6.809  87.090 -10.163  1.00  0.00     0.138 A 
ATOM     32  C   UNL     1      -6.830  87.734  -8.912  1.00  0.00     0.102 A 
ATOM     33  O   UNL     1      -7.089  85.665 -10.159  1.00  0.00    -0.484 OA
ATOM     34  C   UNL     1      -7.013  86.891  -7.718  1.00  0.00     0.174 C 
ATOM     35  C   UNL     1      -6.900  84.796  -9.014  1.00  0.00     0.211 C 
ATOM     36  O   UNL     1      -7.783  87.139  -6.875  1.00  0.00    -0.294 OA
ATOM     37  C   UNL     1      -6.324  85.580  -7.788  1.00  0.00     0.131 C 
BRANCH  30  38
ATOM     38  O   UNL     1      -6.607  89.631  -7.484  1.00  0.00    -0.507 OA
ATOM     39  H   UNL     1      -5.704  89.960  -7.071  1.00  0.00     0.293 HD
ENDBRANCH  30  38
BRANCH  35  40
ATOM     40  C   UNL     1      -8.104  83.989  -8.577  1.00  0.00    -0.003 A 
ATOM     41  C   UNL     1      -8.906  83.278  -9.595  1.00  0.00     0.057 A 
ATOM     42  C   UNL     1      -8.402  83.691  -7.244  1.00  0.00     0.011 A 
ATOM     43  C   UNL     1     -10.070  82.493  -9.241  1.00  0.00     0.158 A 
ATOM     44  C   UNL     1      -9.584  83.038  -6.906  1.00  0.00     0.051 A 
ATOM     45  C   UNL     1     -10.461  82.508  -7.887  1.00  0.00     0.160 A 
BRANCH  43  46
ATOM     46  O   UNL     1     -10.790  81.816 -10.163  1.00  0.00    -0.504 OA
ATOM     47  H   UNL     1     -11.524  81.222  -9.937  1.00  0.00     0.293 HD
ENDBRANCH  43  46
BRANCH  45  48
ATOM     48  O   UNL     1     -11.749  82.113  -7.483  1.00  0.00    -0.493 OA
ATOM     49  C   UNL     1     -12.059  80.779  -7.125  1.00  0.00     0.278 C 
ENDBRANCH  45  48
ENDBRANCH  35  40
ENDBRANCH  26  27
ENDBRANCH   5  26
BRANCH   4  50
ATOM     50  O   UNL     1      -3.727  92.455 -12.594  1.00  0.00    -0.384 OA
ATOM     51  H   UNL     1      -3.988  92.751 -11.643  1.00  0.00     0.211 HD
ENDBRANCH   4  50
TORSDOF 15
ENDMDL
MODEL 5
REMARK VINA RESULT:    -6.466      3.333      4.936
REMARK INTER + INTRA:         -12.081
REMARK INTER:                 -10.617
REMARK INTRA:                  -1.464
REMARK UNBOUND:                -1.457
REMARK SMILES COc1ccc([C@@H]2CC(=O)c3c(O)cc(O[C@@H]4O[C@@H](CO[C@H]5O[C@H](C)[C@H](O)[C@H](O)[C@H]5O)[C@H](O)[C@@H](O)[C@H]4O)cc3O2)cc1O
REMARK SMILES IDX 19 1 32 2 34 3 36 4 17 5 18 6 20 7 21 8 22 9 25 10 24 11
REMARK SMILES IDX 26 12 23 13 28 14 30 15 27 16 29 18 31 20 33 22 35 24 16 26
REMARK SMILES IDX 15 27 14 28 38 29 12 30 39 31 11 32 40 33 9 34 7 35 10 36
REMARK SMILES IDX 8 37 13 38 6 40 41 41 5 42 42 43 4 44 3 45 43 46 2 48 1 49
REMARK SMILES IDX 37 50
REMARK H PARENT 27 17 29 19 31 21 33 23 35 25 13 39 43 47 37 51
REMARK Flexibility Score: inf
ROOT
ATOM      1  C   UNL     1     -12.279  89.054 -11.576  1.00  0.00     0.180 C 
ATOM      2  C   UNL     1     -12.808  89.261 -13.065  1.00  0.00     0.177 C 
ATOM      3  C   UNL     1     -13.209  90.716 -13.272  1.00  0.00     0.180 C 
ATOM      4  C   UNL     1     -12.351  91.787 -12.461  1.00  0.00     0.214 C 
ATOM      5  C   UNL     1     -10.940  91.158 -12.087  1.00  0.00     0.339 C 
ATOM      6  O   UNL     1     -11.074  89.875 -11.409  1.00  0.00    -0.332 OA
ENDROOT
BRANCH   1   7
ATOM      7  C   UNL     1     -13.442  89.523 -10.538  1.00  0.00     0.198 C 
BRANCH   7   8
ATOM      8  O   UNL     1     -14.133  88.534  -9.735  1.00  0.00    -0.347 OA
BRANCH   8   9
ATOM      9  C   UNL     1     -13.446  87.255  -9.802  1.00  0.00     0.281 C 
ATOM     10  C   UNL     1     -10.290  86.134  -8.889  1.00  0.00     0.041 C 
ATOM     11  C   UNL     1     -11.824  86.004  -8.501  1.00  0.00     0.150 C 
ATOM     12  C   UNL     1     -12.596  84.743  -9.060  1.00  0.00     0.174 C 
ATOM     13  O   UNL     1     -12.587  87.208  -8.620  1.00  0.00    -0.344 OA
ATOM     14  C   UNL     1     -14.093  84.854  -9.031  1.00  0.00     0.179 C 
ATOM     15  C   UNL     1     -14.513  86.086  -9.940  1.00  0.00     0.202 C 
BRANCH  12  16
ATOM     16  O   UNL     1     -12.122  84.461 -10.355  1.00  0.00    -0.388 OA
ATOM     17  H   UNL     1     -11.601  83.542 -10.327  1.00  0.00     0.211 HD
ENDBRANCH  12  16
BRANCH  14  18
ATOM     18  O   UNL     1     -14.744  83.663  -9.500  1.00  0.00    -0.387 OA
ATOM     19  H   UNL     1     -15.193  83.840 -10.372  1.00  0.00     0.211 HD
ENDBRANCH  14  18
BRANCH  15  20
ATOM     20  O   UNL     1     -15.798  86.531  -9.521  1.00  0.00    -0.385 OA
ATOM     21  H   UNL     1     -16.232  86.873 -10.328  1.00  0.00     0.211 HD
ENDBRANCH  15  20
ENDBRANCH   8   9
ENDBRANCH   7   8
ENDBRANCH   1   7
BRANCH   2  22
ATOM     22  O   UNL     1     -11.893  88.843 -14.111  1.00  0.00    -0.387 OA
ATOM     23  H   UNL     1     -10.999  88.860 -13.768  1.00  0.00     0.211 HD
ENDBRANCH   2  22
BRANCH   3  24
ATOM     24  O   UNL     1     -14.600  90.940 -13.085  1.00  0.00    -0.387 OA
ATOM     25  H   UNL     1     -15.067  90.052 -13.257  1.00  0.00     0.211 HD
ENDBRANCH   3  24
BRANCH   5  26
ATOM     26  O   UNL     1     -10.095  91.044 -13.266  1.00  0.00    -0.462 OA
BRANCH  26  27
ATOM     27  C   UNL     1      -8.706  91.325 -13.298  1.00  0.00     0.130 A 
ATOM     28  C   UNL     1      -7.793  90.558 -12.542  1.00  0.00     0.093 A 
ATOM     29  C   UNL     1      -8.202  92.221 -14.253  1.00  0.00     0.094 A 
ATOM     30  C   UNL     1      -6.442  90.485 -12.935  1.00  0.00     0.133 A 
ATOM     31  C   UNL     1      -6.817  92.256 -14.581  1.00  0.00     0.138 A 
ATOM     32  C   UNL     1      -5.987  91.313 -13.946  1.00  0.00     0.102 A 
ATOM     33  O   UNL     1      -6.189  93.088 -15.593  1.00  0.00    -0.484 OA
ATOM     34  C   UNL     1      -4.552  91.339 -14.277  1.00  0.00     0.174 C 
ATOM     35  C   UNL     1      -4.769  93.375 -15.652  1.00  0.00     0.211 C 
ATOM     36  O   UNL     1      -3.945  90.381 -14.555  1.00  0.00    -0.294 OA
ATOM     37  C   UNL     1      -3.998  92.701 -14.468  1.00  0.00     0.131 C 
BRANCH  30  38
ATOM     38  O   UNL     1      -5.549  89.568 -12.380  1.00  0.00    -0.507 OA
ATOM     39  H   UNL     1      -5.948  88.888 -11.692  1.00  0.00     0.293 HD
ENDBRANCH  30  38
BRANCH  35  40
ATOM     40  C   UNL     1      -4.073  93.053 -16.958  1.00  0.00    -0.003 A 
ATOM     41  C   UNL     1      -4.871  92.954 -18.198  1.00  0.00     0.057 A 
ATOM     42  C   UNL     1      -2.685  93.044 -17.120  1.00  0.00     0.011 A 
ATOM     43  C   UNL     1      -4.265  92.645 -19.476  1.00  0.00     0.158 A 
ATOM     44  C   UNL     1      -2.109  92.632 -18.319  1.00  0.00     0.051 A 
ATOM     45  C   UNL     1      -2.886  92.355 -19.473  1.00  0.00     0.160 A 
BRANCH  43  46
ATOM     46  O   UNL     1      -4.985  92.583 -20.618  1.00  0.00    -0.504 OA
ATOM     47  H   UNL     1      -5.262  93.368 -21.118  1.00  0.00     0.293 HD
ENDBRANCH  43  46
BRANCH  45  48
ATOM     48  O   UNL     1      -2.267  91.689 -20.546  1.00  0.00    -0.493 OA
ATOM     49  C   UNL     1      -2.190  90.277 -20.624  1.00  0.00     0.278 C 
ENDBRANCH  45  48
ENDBRANCH  35  40
ENDBRANCH  26  27
ENDBRANCH   5  26
BRANCH   4  50
ATOM     50  O   UNL     1     -13.033  92.224 -11.293  1.00  0.00    -0.384 OA
ATOM     51  H   UNL     1     -13.589  93.017 -11.641  1.00  0.00     0.211 HD
ENDBRANCH   4  50
TORSDOF 15
ENDMDL
MODEL 6
REMARK VINA RESULT:    -6.417      5.588      7.163
REMARK INTER + INTRA:         -12.001
REMARK INTER:                  -9.633
REMARK INTRA:                  -2.367
REMARK UNBOUND:                -1.457
REMARK SMILES COc1ccc([C@@H]2CC(=O)c3c(O)cc(O[C@@H]4O[C@@H](CO[C@H]5O[C@H](C)[C@H](O)[C@H](O)[C@H]5O)[C@H](O)[C@@H](O)[C@H]4O)cc3O2)cc1O
REMARK SMILES IDX 19 1 32 2 34 3 36 4 17 5 18 6 20 7 21 8 22 9 25 10 24 11
REMARK SMILES IDX 26 12 23 13 28 14 30 15 27 16 29 18 31 20 33 22 35 24 16 26
REMARK SMILES IDX 15 27 14 28 38 29 12 30 39 31 11 32 40 33 9 34 7 35 10 36
REMARK SMILES IDX 8 37 13 38 6 40 41 41 5 42 42 43 4 44 3 45 43 46 2 48 1 49
REMARK SMILES IDX 37 50
REMARK H PARENT 27 17 29 19 31 21 33 23 35 25 13 39 43 47 37 51
REMARK Flexibility Score: inf
ROOT
ATOM      1  C   UNL     1     -12.702  90.871 -10.851  1.00  0.00     0.180 C 
ATOM      2  C   UNL     1     -12.907  89.637 -11.838  1.00  0.00     0.177 C 
ATOM      3  C   UNL     1     -13.233  90.144 -13.237  1.00  0.00     0.180 C 
ATOM      4  C   UNL     1     -12.544  91.523 -13.645  1.00  0.00     0.214 C 
ATOM      5  C   UNL     1     -11.253  91.753 -12.749  1.00  0.00     0.339 C 
ATOM      6  O   UNL     1     -11.545  91.639 -11.326  1.00  0.00    -0.332 OA
ENDROOT
BRANCH   1   7
ATOM      7  C   UNL     1     -14.048  91.787 -10.873  1.00  0.00     0.198 C 
BRANCH   7   8
ATOM      8  O   UNL     1     -15.323  91.203 -10.511  1.00  0.00    -0.347 OA
BRANCH   8   9
ATOM      9  C   UNL     1     -16.411  91.920 -11.156  1.00  0.00     0.281 C 
ATOM     10  C   UNL     1     -16.761  95.083 -12.542  1.00  0.00     0.041 C 
ATOM     11  C   UNL     1     -16.702  93.546 -12.933  1.00  0.00     0.150 C 
ATOM     12  C   UNL     1     -18.085  92.813 -13.152  1.00  0.00     0.174 C 
ATOM     13  O   UNL     1     -15.780  92.759 -12.174  1.00  0.00    -0.344 OA
ATOM     14  C   UNL     1     -18.019  91.314 -13.111  1.00  0.00     0.179 C 
ATOM     15  C   UNL     1     -17.496  90.883 -11.675  1.00  0.00     0.202 C 
BRANCH  12  16
ATOM     16  O   UNL     1     -19.014  93.317 -12.223  1.00  0.00    -0.388 OA
ATOM     17  H   UNL     1     -19.545  94.110 -12.677  1.00  0.00     0.211 HD
ENDBRANCH  12  16
BRANCH  14  18
ATOM     18  O   UNL     1     -19.291  90.699 -13.367  1.00  0.00    -0.387 OA
ATOM     19  H   UNL     1     -19.734  91.141 -14.143  1.00  0.00     0.211 HD
ENDBRANCH  14  18
BRANCH  15  20
ATOM     20  O   UNL     1     -16.932  89.580 -11.779  1.00  0.00    -0.385 OA
ATOM     21  H   UNL     1     -15.979  89.721 -11.946  1.00  0.00     0.211 HD
ENDBRANCH  15  20
ENDBRANCH   8   9
ENDBRANCH   7   8
ENDBRANCH   1   7
BRANCH   2  22
ATOM     22  O   UNL     1     -11.802  88.698 -11.894  1.00  0.00    -0.387 OA
ATOM     23  H   UNL     1     -11.330  88.821 -12.718  1.00  0.00     0.211 HD
ENDBRANCH   2  22
BRANCH   3  24
ATOM     24  O   UNL     1     -14.628  90.180 -13.503  1.00  0.00    -0.387 OA
ATOM     25  H   UNL     1     -14.801  89.528 -14.264  1.00  0.00     0.211 HD
ENDBRANCH   3  24
BRANCH   5  26
ATOM     26  O   UNL     1     -10.183  90.847 -13.139  1.00  0.00    -0.462 OA
BRANCH  26  27
ATOM     27  C   UNL     1      -8.805  91.181 -13.164  1.00  0.00     0.130 A 
ATOM     28  C   UNL     1      -7.875  90.478 -12.368  1.00  0.00     0.093 A 
ATOM     29  C   UNL     1      -8.323  92.061 -14.144  1.00  0.00     0.094 A 
ATOM     30  C   UNL     1      -6.516  90.443 -12.740  1.00  0.00     0.133 A 
ATOM     31  C   UNL     1      -6.935  92.138 -14.455  1.00  0.00     0.138 A 
ATOM     32  C   UNL     1      -6.080  91.251 -13.775  1.00  0.00     0.102 A 
ATOM     33  O   UNL     1      -6.325  92.957 -15.487  1.00  0.00    -0.484 OA
ATOM     34  C   UNL     1      -4.642  91.322 -14.087  1.00  0.00     0.174 C 
ATOM     35  C   UNL     1      -4.917  93.297 -15.538  1.00  0.00     0.211 C 
ATOM     36  O   UNL     1      -3.994  90.379 -14.322  1.00  0.00    -0.294 OA
ATOM     37  C   UNL     1      -4.138  92.697 -14.321  1.00  0.00     0.131 C 
BRANCH  30  38
ATOM     38  O   UNL     1      -5.597  89.582 -12.141  1.00  0.00    -0.507 OA
ATOM     39  H   UNL     1      -4.944  89.079 -12.785  1.00  0.00     0.293 HD
ENDBRANCH  30  38
BRANCH  35  40
ATOM     40  C   UNL     1      -4.190  92.956 -16.822  1.00  0.00    -0.003 A 
ATOM     41  C   UNL     1      -4.962  92.811 -18.074  1.00  0.00     0.057 A 
ATOM     42  C   UNL     1      -2.798  92.968 -16.957  1.00  0.00     0.011 A 
ATOM     43  C   UNL     1      -4.326  92.483 -19.332  1.00  0.00     0.158 A 
ATOM     44  C   UNL     1      -2.193  92.538 -18.135  1.00  0.00     0.051 A 
ATOM     45  C   UNL     1      -2.942  92.218 -19.296  1.00  0.00     0.160 A 
BRANCH  43  46
ATOM     46  O   UNL     1      -5.022  92.379 -20.486  1.00  0.00    -0.504 OA
ATOM     47  H   UNL     1      -4.704  92.727 -21.335  1.00  0.00     0.293 HD
ENDBRANCH  43  46
BRANCH  45  48
ATOM     48  O   UNL     1      -2.291  91.537 -20.341  1.00  0.00    -0.493 OA
ATOM     49  C   UNL     1      -1.879  90.187 -20.230  1.00  0.00     0.278 C 
ENDBRANCH  45  48
ENDBRANCH  35  40
ENDBRANCH  26  27
ENDBRANCH   5  26
BRANCH   4  50
ATOM     50  O   UNL     1     -13.447  92.614 -13.516  1.00  0.00    -0.384 OA
ATOM     51  H   UNL     1     -13.319  92.897 -12.535  1.00  0.00     0.211 HD
ENDBRANCH   4  50
TORSDOF 15
ENDMDL
MODEL 7
REMARK VINA RESULT:    -6.387      2.013     12.141
REMARK INTER + INTRA:         -11.950
REMARK INTER:                 -10.355
REMARK INTRA:                  -1.596
REMARK UNBOUND:                -1.457
REMARK SMILES COc1ccc([C@@H]2CC(=O)c3c(O)cc(O[C@@H]4O[C@@H](CO[C@H]5O[C@H](C)[C@H](O)[C@H](O)[C@H]5O)[C@H](O)[C@@H](O)[C@H]4O)cc3O2)cc1O
REMARK SMILES IDX 19 1 32 2 34 3 36 4 17 5 18 6 20 7 21 8 22 9 25 10 24 11
REMARK SMILES IDX 26 12 23 13 28 14 30 15 27 16 29 18 31 20 33 22 35 24 16 26
REMARK SMILES IDX 15 27 14 28 38 29 12 30 39 31 11 32 40 33 9 34 7 35 10 36
REMARK SMILES IDX 8 37 13 38 6 40 41 41 5 42 42 43 4 44 3 45 43 46 2 48 1 49
REMARK SMILES IDX 37 50
REMARK H PARENT 27 17 29 19 31 21 33 23 35 25 13 39 43 47 37 51
REMARK Flexibility Score: inf
ROOT
ATOM      1  C   UNL     1      -4.006  90.877 -15.016  1.00  0.00     0.180 C 
ATOM      2  C   UNL     1      -3.776  92.281 -14.298  1.00  0.00     0.177 C 
ATOM      3  C   UNL     1      -5.009  93.158 -14.475  1.00  0.00     0.180 C 
ATOM      4  C   UNL     1      -6.402  92.384 -14.520  1.00  0.00     0.214 C 
ATOM      5  C   UNL     1      -6.244  90.973 -13.807  1.00  0.00     0.339 C 
ATOM      6  O   UNL     1      -5.127  90.208 -14.345  1.00  0.00    -0.332 OA
ENDROOT
BRANCH   1   7
ATOM      7  C   UNL     1      -4.350  91.142 -16.585  1.00  0.00     0.198 C 
BRANCH   7   8
ATOM      8  O   UNL     1      -3.456  91.946 -17.393  1.00  0.00    -0.347 OA
BRANCH   8   9
ATOM      9  C   UNL     1      -4.195  92.625 -18.445  1.00  0.00     0.281 C 
ATOM     10  C   UNL     1      -5.573  95.791 -18.802  1.00  0.00     0.041 C 
ATOM     11  C   UNL     1      -4.405  94.867 -19.350  1.00  0.00     0.150 C 
ATOM     12  C   UNL     1      -4.673  94.113 -20.713  1.00  0.00     0.174 C 
ATOM     13  O   UNL     1      -3.783  94.026 -18.374  1.00  0.00    -0.344 OA
ATOM     14  C   UNL     1      -3.754  92.958 -20.989  1.00  0.00     0.179 C 
ATOM     15  C   UNL     1      -3.943  91.889 -19.830  1.00  0.00     0.202 C 
BRANCH  12  16
ATOM     16  O   UNL     1      -6.024  93.719 -20.752  1.00  0.00    -0.388 OA
ATOM     17  H   UNL     1      -6.560  94.292 -20.043  1.00  0.00     0.211 HD
ENDBRANCH  12  16
BRANCH  14  18
ATOM     18  O   UNL     1      -4.007  92.343 -22.262  1.00  0.00    -0.387 OA
ATOM     19  H   UNL     1      -3.396  91.565 -22.392  1.00  0.00     0.211 HD
ENDBRANCH  14  18
BRANCH  15  20
ATOM     20  O   UNL     1      -2.767  91.090 -19.765  1.00  0.00    -0.385 OA
ATOM     21  H   UNL     1      -2.056  91.641 -20.148  1.00  0.00     0.211 HD
ENDBRANCH  15  20
ENDBRANCH   8   9
ENDBRANCH   7   8
ENDBRANCH   1   7
BRANCH   2  22
ATOM     22  O   UNL     1      -3.415  92.207 -12.895  1.00  0.00    -0.387 OA
ATOM     23  H   UNL     1      -4.140  92.545 -12.368  1.00  0.00     0.211 HD
ENDBRANCH   2  22
BRANCH   3  24
ATOM     24  O   UNL     1      -4.897  94.058 -15.569  1.00  0.00    -0.387 OA
ATOM     25  H   UNL     1      -5.766  94.587 -15.607  1.00  0.00     0.211 HD
ENDBRANCH   3  24
BRANCH   5  26
ATOM     26  O   UNL     1      -6.126  91.131 -12.365  1.00  0.00    -0.462 OA
BRANCH  26  27
ATOM     27  C   UNL     1      -5.986  90.065 -11.441  1.00  0.00     0.130 A 
ATOM     28  C   UNL     1      -5.451  90.288 -10.154  1.00  0.00     0.093 A 
ATOM     29  C   UNL     1      -6.585  88.827 -11.715  1.00  0.00     0.094 A 
ATOM     30  C   UNL     1      -5.765  89.407  -9.100  1.00  0.00     0.133 A 
ATOM     31  C   UNL     1      -6.803  87.863 -10.689  1.00  0.00     0.138 A 
ATOM     32  C   UNL     1      -6.442  88.234  -9.380  1.00  0.00     0.102 A 
ATOM     33  O   UNL     1      -7.468  86.580 -10.836  1.00  0.00    -0.484 OA
ATOM     34  C   UNL     1      -6.661  87.245  -8.310  1.00  0.00     0.174 C 
ATOM     35  C   UNL     1      -7.350  85.484  -9.894  1.00  0.00     0.211 C 
ATOM     36  O   UNL     1      -7.185  87.506  -7.300  1.00  0.00    -0.294 OA
ATOM     37  C   UNL     1      -6.389  85.844  -8.712  1.00  0.00     0.131 C 
BRANCH  30  38
ATOM     38  O   UNL     1      -5.469  89.697  -7.768  1.00  0.00    -0.507 OA
ATOM     39  H   UNL     1      -4.457  89.692  -7.505  1.00  0.00     0.293 HD
ENDBRANCH  30  38
BRANCH  35  40
ATOM     40  C   UNL     1      -8.648  84.932  -9.340  1.00  0.00    -0.003 A 
ATOM     41  C   UNL     1      -8.813  83.470  -9.206  1.00  0.00     0.057 A 
ATOM     42  C   UNL     1      -9.638  85.719  -8.746  1.00  0.00     0.011 A 
ATOM     43  C   UNL     1     -10.029  82.881  -8.688  1.00  0.00     0.158 A 
ATOM     44  C   UNL     1     -10.854  85.161  -8.357  1.00  0.00     0.051 A 
ATOM     45  C   UNL     1     -11.090  83.763  -8.397  1.00  0.00     0.160 A 
BRANCH  43  46
ATOM     46  O   UNL     1     -10.175  81.546  -8.535  1.00  0.00    -0.504 OA
ATOM     47  H   UNL     1     -10.237  81.112  -7.668  1.00  0.00     0.293 HD
ENDBRANCH  43  46
BRANCH  45  48
ATOM     48  O   UNL     1     -12.413  83.308  -8.254  1.00  0.00    -0.493 OA
ATOM     49  C   UNL     1     -13.235  82.994  -9.363  1.00  0.00     0.278 C 
ENDBRANCH  45  48
ENDBRANCH  35  40
ENDBRANCH  26  27
ENDBRANCH   5  26
BRANCH   4  50
ATOM     50  O   UNL     1      -6.865  92.225 -15.854  1.00  0.00    -0.384 OA
ATOM     51  H   UNL     1      -7.130  93.185 -16.116  1.00  0.00     0.211 HD
ENDBRANCH   4  50
TORSDOF 15
ENDMDL
MODEL 8
REMARK VINA RESULT:    -6.343      4.841      9.881
REMARK INTER + INTRA:         -11.879
REMARK INTER:                  -9.635
REMARK INTRA:                  -2.244
REMARK UNBOUND:                -1.457
REMARK SMILES COc1ccc([C@@H]2CC(=O)c3c(O)cc(O[C@@H]4O[C@@H](CO[C@H]5O[C@H](C)[C@H](O)[C@H](O)[C@H]5O)[C@H](O)[C@@H](O)[C@H]4O)cc3O2)cc1O
REMARK SMILES IDX 19 1 32 2 34 3 36 4 17 5 18 6 20 7 21 8 22 9 25 10 24 11
REMARK SMILES IDX 26 12 23 13 28 14 30 15 27 16 29 18 31 20 33 22 35 24 16 26
REMARK SMILES IDX 15 27 14 28 38 29 12 30 39 31 11 32 40 33 9 34 7 35 10 36
REMARK SMILES IDX 8 37 13 38 6 40 41 41 5 42 42 43 4 44 3 45 43 46 2 48 1 49
REMARK SMILES IDX 37 50
REMARK H PARENT 27 17 29 19 31 21 33 23 35 25 13 39 43 47 37 51
REMARK Flexibility Score: inf
ROOT
ATOM      1  C   UNL     1      -4.037  92.569 -14.313  1.00  0.00     0.180 C 
ATOM      2  C   UNL     1      -3.742  91.018 -14.526  1.00  0.00     0.177 C 
ATOM      3  C   UNL     1      -4.878  90.380 -15.315  1.00  0.00     0.180 C 
ATOM      4  C   UNL     1      -5.579  91.323 -16.393  1.00  0.00     0.214 C 
ATOM      5  C   UNL     1      -4.583  92.492 -16.798  1.00  0.00     0.339 C 
ATOM      6  O   UNL     1      -4.073  93.206 -15.635  1.00  0.00    -0.332 OA
ENDROOT
BRANCH   1   7
ATOM      7  C   UNL     1      -5.472  92.729 -13.560  1.00  0.00     0.198 C 
BRANCH   7   8
ATOM      8  O   UNL     1      -5.668  92.143 -12.250  1.00  0.00    -0.347 OA
BRANCH   8   9
ATOM      9  C   UNL     1      -7.073  91.843 -12.033  1.00  0.00     0.281 C 
ATOM     10  C   UNL     1     -10.046  92.934 -13.454  1.00  0.00     0.041 C 
ATOM     11  C   UNL     1      -9.107  91.660 -13.345  1.00  0.00     0.150 C 
ATOM     12  C   UNL     1      -9.504  90.571 -12.270  1.00  0.00     0.174 C 
ATOM     13  O   UNL     1      -7.703  91.935 -13.349  1.00  0.00    -0.344 OA
ATOM     14  C   UNL     1      -8.408  89.612 -11.906  1.00  0.00     0.179 C 
ATOM     15  C   UNL     1      -7.208  90.446 -11.287  1.00  0.00     0.202 C 
BRANCH  12  16
ATOM     16  O   UNL     1     -10.019  91.224 -11.135  1.00  0.00    -0.388 OA
ATOM     17  H   UNL     1      -9.879  90.597 -10.296  1.00  0.00     0.211 HD
ENDBRANCH  12  16
BRANCH  14  18
ATOM     18  O   UNL     1      -8.838  88.613 -10.968  1.00  0.00    -0.387 OA
ATOM     19  H   UNL     1      -9.127  87.791 -11.452  1.00  0.00     0.211 HD
ENDBRANCH  14  18
BRANCH  15  20
ATOM     20  O   UNL     1      -6.014  89.685 -11.433  1.00  0.00    -0.385 OA
ATOM     21  H   UNL     1      -5.286  90.337 -11.417  1.00  0.00     0.211 HD
ENDBRANCH  15  20
ENDBRANCH   8   9
ENDBRANCH   7   8
ENDBRANCH   1   7
BRANCH   2  22
ATOM     22  O   UNL     1      -2.468  90.711 -15.150  1.00  0.00    -0.387 OA
ATOM     23  H   UNL     1      -2.437  91.122 -16.015  1.00  0.00     0.211 HD
ENDBRANCH   2  22
BRANCH   3  24
ATOM     24  O   UNL     1      -5.848  89.756 -14.485  1.00  0.00    -0.387 OA
ATOM     25  H   UNL     1      -6.365  90.501 -14.023  1.00  0.00     0.211 HD
ENDBRANCH   3  24
BRANCH   5  26
ATOM     26  O   UNL     1      -3.496  91.985 -17.622  1.00  0.00    -0.462 OA
BRANCH  26  27
ATOM     27  C   UNL     1      -3.229  92.391 -18.954  1.00  0.00     0.130 A 
ATOM     28  C   UNL     1      -2.489  91.566 -19.828  1.00  0.00     0.093 A 
ATOM     29  C   UNL     1      -3.888  93.511 -19.482  1.00  0.00     0.094 A 
ATOM     30  C   UNL     1      -2.645  91.700 -21.222  1.00  0.00     0.133 A 
ATOM     31  C   UNL     1      -3.956  93.739 -20.886  1.00  0.00     0.138 A 
ATOM     32  C   UNL     1      -3.381  92.761 -21.719  1.00  0.00     0.102 A 
ATOM     33  O   UNL     1      -4.660  94.820 -21.553  1.00  0.00    -0.484 OA
ATOM     34  C   UNL     1      -3.443  92.986 -23.174  1.00  0.00     0.174 C 
ATOM     35  C   UNL     1      -4.412  95.240 -22.919  1.00  0.00     0.211 C 
ATOM     36  O   UNL     1      -3.791  92.168 -23.930  1.00  0.00    -0.294 OA
ATOM     37  C   UNL     1      -3.266  94.402 -23.577  1.00  0.00     0.131 C 
BRANCH  30  38
ATOM     38  O   UNL     1      -2.132  90.770 -22.126  1.00  0.00    -0.507 OA
ATOM     39  H   UNL     1      -2.635  90.684 -23.039  1.00  0.00     0.293 HD
ENDBRANCH  30  38
BRANCH  35  40
ATOM     40  C   UNL     1      -5.614  95.267 -23.841  1.00  0.00    -0.003 A 
ATOM     41  C   UNL     1      -6.857  95.926 -23.391  1.00  0.00     0.057 A 
ATOM     42  C   UNL     1      -5.572  94.889 -25.186  1.00  0.00     0.011 A 
ATOM     43  C   UNL     1      -8.039  95.982 -24.224  1.00  0.00     0.158 A 
ATOM     44  C   UNL     1      -6.737  94.834 -25.948  1.00  0.00     0.051 A 
ATOM     45  C   UNL     1      -7.983  95.299 -25.456  1.00  0.00     0.160 A 
BRANCH  43  46
ATOM     46  O   UNL     1      -9.169  96.609 -23.830  1.00  0.00    -0.504 OA
ATOM     47  H   UNL     1      -9.469  96.641 -22.907  1.00  0.00     0.293 HD
ENDBRANCH  43  46
BRANCH  45  48
ATOM     48  O   UNL     1      -9.147  94.961 -26.169  1.00  0.00    -0.493 OA
ATOM     49  C   UNL     1      -9.733  95.825 -27.125  1.00  0.00     0.278 C 
ENDBRANCH  45  48
ENDBRANCH  35  40
ENDBRANCH  26  27
ENDBRANCH   5  26
BRANCH   4  50
ATOM     50  O   UNL     1      -6.804  91.852 -15.903  1.00  0.00    -0.384 OA
ATOM     51  H   UNL     1      -7.382  91.905 -16.753  1.00  0.00     0.211 HD
ENDBRANCH   4  50
TORSDOF 15
ENDMDL
MODEL 9
REMARK VINA RESULT:    -6.287      3.862      8.447
REMARK INTER + INTRA:         -11.787
REMARK INTER:                 -10.046
REMARK INTRA:                  -1.741
REMARK UNBOUND:                -1.457
REMARK SMILES COc1ccc([C@@H]2CC(=O)c3c(O)cc(O[C@@H]4O[C@@H](CO[C@H]5O[C@H](C)[C@H](O)[C@H](O)[C@H]5O)[C@H](O)[C@@H](O)[C@H]4O)cc3O2)cc1O
REMARK SMILES IDX 19 1 32 2 34 3 36 4 17 5 18 6 20 7 21 8 22 9 25 10 24 11
REMARK SMILES IDX 26 12 23 13 28 14 30 15 27 16 29 18 31 20 33 22 35 24 16 26
REMARK SMILES IDX 15 27 14 28 38 29 12 30 39 31 11 32 40 33 9 34 7 35 10 36
REMARK SMILES IDX 8 37 13 38 6 40 41 41 5 42 42 43 4 44 3 45 43 46 2 48 1 49
REMARK SMILES IDX 37 50
REMARK H PARENT 27 17 29 19 31 21 33 23 35 25 13 39 43 47 37 51
REMARK Flexibility Score: inf
ROOT
ATOM      1  C   UNL     1      -6.256  90.740 -13.906  1.00  0.00     0.180 C 
ATOM      2  C   UNL     1      -6.664  92.256 -13.629  1.00  0.00     0.177 C 
ATOM      3  C   UNL     1      -5.607  92.923 -12.758  1.00  0.00     0.180 C 
ATOM      4  C   UNL     1      -4.113  92.417 -12.982  1.00  0.00     0.214 C 
ATOM      5  C   UNL     1      -3.986  91.769 -14.427  1.00  0.00     0.339 C 
ATOM      6  O   UNL     1      -4.996  90.745 -14.660  1.00  0.00    -0.332 OA
ENDROOT
BRANCH   1   7
ATOM      7  C   UNL     1      -6.068  89.980 -12.479  1.00  0.00     0.198 C 
BRANCH   7   8
ATOM      8  O   UNL     1      -6.923  90.324 -11.361  1.00  0.00    -0.347 OA
BRANCH   8   9
ATOM      9  C   UNL     1      -6.840  89.306 -10.327  1.00  0.00     0.281 C 
ATOM     10  C   UNL     1      -7.387  85.879 -10.230  1.00  0.00     0.041 C 
ATOM     11  C   UNL     1      -6.232  86.964 -10.139  1.00  0.00     0.150 C 
ATOM     12  C   UNL     1      -5.754  87.376  -8.689  1.00  0.00     0.174 C 
ATOM     13  O   UNL     1      -6.385  88.092 -11.004  1.00  0.00    -0.344 OA
ATOM     14  C   UNL     1      -4.984  88.662  -8.619  1.00  0.00     0.179 C 
ATOM     15  C   UNL     1      -5.925  89.830  -9.138  1.00  0.00     0.202 C 
BRANCH  12  16
ATOM     16  O   UNL     1      -6.872  87.394  -7.834  1.00  0.00    -0.388 OA
ATOM     17  H   UNL     1      -7.171  88.398  -7.696  1.00  0.00     0.211 HD
ENDBRANCH  12  16
BRANCH  14  18
ATOM     18  O   UNL     1      -4.529  88.962  -7.290  1.00  0.00    -0.387 OA
ATOM     19  H   UNL     1      -5.249  88.760  -6.630  1.00  0.00     0.211 HD
ENDBRANCH  14  18
BRANCH  15  20
ATOM     20  O   UNL     1      -5.102  90.904  -9.579  1.00  0.00    -0.385 OA
ATOM     21  H   UNL     1      -5.705  91.666  -9.693  1.00  0.00     0.211 HD
ENDBRANCH  15  20
ENDBRANCH   8   9
ENDBRANCH   7   8
ENDBRANCH   1   7
BRANCH   2  22
ATOM     22  O   UNL     1      -6.911  93.056 -14.813  1.00  0.00    -0.387 OA
ATOM     23  H   UNL     1      -6.257  92.840 -15.478  1.00  0.00     0.211 HD
ENDBRANCH   2  22
BRANCH   3  24
ATOM     24  O   UNL     1      -5.940  92.914 -11.377  1.00  0.00    -0.387 OA
ATOM     25  H   UNL     1      -5.350  92.213 -10.935  1.00  0.00     0.211 HD
ENDBRANCH   3  24
BRANCH   5  26
ATOM     26  O   UNL     1      -4.030  92.793 -15.460  1.00  0.00    -0.462 OA
BRANCH  26  27
ATOM     27  C   UNL     1      -3.399  92.697 -16.726  1.00  0.00     0.130 A 
ATOM     28  C   UNL     1      -2.773  91.499 -17.134  1.00  0.00     0.093 A 
ATOM     29  C   UNL     1      -3.586  93.715 -17.673  1.00  0.00     0.094 A 
ATOM     30  C   UNL     1      -2.605  91.226 -18.506  1.00  0.00     0.133 A 
ATOM     31  C   UNL     1      -3.305  93.507 -19.053  1.00  0.00     0.138 A 
ATOM     32  C   UNL     1      -2.886  92.217 -19.430  1.00  0.00     0.102 A 
ATOM     33  O   UNL     1      -3.517  94.456 -20.131  1.00  0.00    -0.484 OA
ATOM     34  C   UNL     1      -2.592  91.989 -20.856  1.00  0.00     0.174 C 
ATOM     35  C   UNL     1      -2.894  94.366 -21.437  1.00  0.00     0.211 C 
ATOM     36  O   UNL     1      -3.006  91.075 -21.453  1.00  0.00    -0.294 OA
ATOM     37  C   UNL     1      -1.934  93.133 -21.531  1.00  0.00     0.131 C 
BRANCH  30  38
ATOM     38  O   UNL     1      -2.216  89.973 -18.979  1.00  0.00    -0.507 OA
ATOM     39  H   UNL     1      -2.971  89.254 -19.065  1.00  0.00     0.293 HD
ENDBRANCH  30  38
BRANCH  35  40
ATOM     40  C   UNL     1      -3.828  94.372 -22.629  1.00  0.00    -0.003 A 
ATOM     41  C   UNL     1      -3.533  93.498 -23.784  1.00  0.00     0.057 A 
ATOM     42  C   UNL     1      -5.078  94.997 -22.637  1.00  0.00     0.011 A 
ATOM     43  C   UNL     1      -4.384  93.461 -24.954  1.00  0.00     0.158 A 
ATOM     44  C   UNL     1      -5.838  95.057 -23.803  1.00  0.00     0.051 A 
ATOM     45  C   UNL     1      -5.466  94.364 -24.983  1.00  0.00     0.160 A 
BRANCH  43  46
ATOM     46  O   UNL     1      -4.136  92.642 -26.000  1.00  0.00    -0.504 OA
ATOM     47  H   UNL     1      -4.709  92.585 -26.781  1.00  0.00     0.293 HD
ENDBRANCH  43  46
BRANCH  45  48
ATOM     48  O   UNL     1      -6.126  94.691 -26.181  1.00  0.00    -0.493 OA
ATOM     49  C   UNL     1      -7.443  95.209 -26.208  1.00  0.00     0.278 C 
ENDBRANCH  45  48
ENDBRANCH  35  40
ENDBRANCH  26  27
ENDBRANCH   5  26
BRANCH   4  50
ATOM     50  O   UNL     1      -3.721  91.489 -11.979  1.00  0.00    -0.384 OA
ATOM     51  H   UNL     1      -4.397  90.722 -12.106  1.00  0.00     0.211 HD
ENDBRANCH   4  50
TORSDOF 15
ENDMDL
