MODEL 1
REMARK VINA RESULT:    -7.180      0.000      0.000
REMARK INTER + INTRA:          -9.618
REMARK INTER:                  -9.068
REMARK INTRA:                  -0.550
REMARK UNBOUND:                -0.550
REMARK SMILES Oc1ccc(CCc2cc(O)cc(O)c2)cc1
REMARK SMILES IDX 6 1 5 2 4 3 3 4 2 5 16 6 17 7 1 8 7 10 8 11 15 12 9 13 13 14
REMARK SMILES IDX 10 15 12 16 14 17 11 19
REMARK H PARENT 1 9 14 18 11 20
REMARK Flexibility Score: inf
ROOT
ATOM      1  C   UNL     1     -10.614  61.854  39.008  1.00  0.00     0.040 C 
ENDROOT
BRANCH   1   2
ATOM      2  C   UNL     1     -10.058  63.011  39.795  1.00  0.00    -0.047 A 
ATOM      3  C   UNL     1      -9.515  64.123  39.131  1.00  0.00     0.007 A 
ATOM      4  C   UNL     1      -9.029  65.211  39.862  1.00  0.00     0.046 A 
ATOM      5  C   UNL     1      -9.089  65.203  41.262  1.00  0.00     0.115 A 
ATOM      6  C   UNL     1     -10.128  63.013  41.198  1.00  0.00     0.007 A 
ATOM      7  C   UNL     1      -9.642  64.103  41.926  1.00  0.00     0.046 A 
BRANCH   5   8
ATOM      8  O   UNL     1      -8.608  66.281  42.001  1.00  0.00    -0.508 OA
ATOM      9  H   UNL     1      -9.081  66.603  42.838  1.00  0.00     0.293 HD
ENDBRANCH   5   8
ENDBRANCH   1   2
BRANCH   1  10
ATOM     10  C   UNL     1     -11.719  61.148  39.798  1.00  0.00     0.040 C 
BRANCH  10  11
ATOM     11  C   UNL     1     -13.068  61.441  39.198  1.00  0.00    -0.040 A 
ATOM     12  C   UNL     1     -13.967  60.394  38.933  1.00  0.00     0.050 A 
ATOM     13  C   UNL     1     -13.460  62.767  38.951  1.00  0.00     0.050 A 
ATOM     14  C   UNL     1     -15.233  60.667  38.404  1.00  0.00     0.119 A 
ATOM     15  C   UNL     1     -14.726  63.042  38.423  1.00  0.00     0.119 A 
ATOM     16  C   UNL     1     -15.611  61.991  38.147  1.00  0.00     0.092 A 
BRANCH  14  17
ATOM     17  O   UNL     1     -16.108  59.615  38.140  1.00  0.00    -0.508 OA
ATOM     18  H   UNL     1     -16.125  59.154  37.238  1.00  0.00     0.293 HD
ENDBRANCH  14  17
BRANCH  15  19
ATOM     19  O   UNL     1     -15.095  64.364  38.178  1.00  0.00    -0.508 OA
ATOM     20  H   UNL     1     -14.531  64.972  37.597  1.00  0.00     0.293 HD
ENDBRANCH  15  19
ENDBRANCH  10  11
ENDBRANCH   1  10
TORSDOF 6
ENDMDL
MODEL 2
REMARK VINA RESULT:    -7.143      0.301      2.062
REMARK INTER + INTRA:          -9.572
REMARK INTER:                  -9.013
REMARK INTRA:                  -0.559
REMARK UNBOUND:                -0.550
REMARK SMILES Oc1ccc(CCc2cc(O)cc(O)c2)cc1
REMARK SMILES IDX 6 1 5 2 4 3 3 4 2 5 16 6 17 7 1 8 7 10 8 11 15 12 9 13 13 14
REMARK SMILES IDX 10 15 12 16 14 17 11 19
REMARK H PARENT 1 9 14 18 11 20
REMARK Flexibility Score: inf
ROOT
ATOM      1  C   UNL     1     -10.717  61.895  38.829  1.00  0.00     0.040 C 
ENDROOT
BRANCH   1   2
ATOM      2  C   UNL     1     -10.066  63.067  39.515  1.00  0.00    -0.047 A 
ATOM      3  C   UNL     1      -9.539  64.127  38.758  1.00  0.00     0.007 A 
ATOM      4  C   UNL     1      -8.965  65.229  39.396  1.00  0.00     0.046 A 
ATOM      5  C   UNL     1      -8.919  65.289  40.796  1.00  0.00     0.115 A 
ATOM      6  C   UNL     1     -10.030  63.137  40.917  1.00  0.00     0.007 A 
ATOM      7  C   UNL     1      -9.455  64.242  41.553  1.00  0.00     0.046 A 
BRANCH   5   8
ATOM      8  O   UNL     1      -8.349  66.383  41.442  1.00  0.00    -0.508 OA
ATOM      9  H   UNL     1      -7.617  66.267  42.134  1.00  0.00     0.293 HD
ENDBRANCH   5   8
ENDBRANCH   1   2
BRANCH   1  10
ATOM     10  C   UNL     1     -11.772  61.259  39.738  1.00  0.00     0.040 C 
BRANCH  10  11
ATOM     11  C   UNL     1     -13.156  61.521  39.204  1.00  0.00    -0.040 A 
ATOM     12  C   UNL     1     -13.569  62.835  38.927  1.00  0.00     0.050 A 
ATOM     13  C   UNL     1     -14.022  60.452  38.927  1.00  0.00     0.050 A 
ATOM     14  C   UNL     1     -14.843  63.079  38.402  1.00  0.00     0.119 A 
ATOM     15  C   UNL     1     -15.296  60.692  38.401  1.00  0.00     0.119 A 
ATOM     16  C   UNL     1     -15.707  62.007  38.142  1.00  0.00     0.092 A 
BRANCH  14  17
ATOM     17  O   UNL     1     -15.238  64.389  38.140  1.00  0.00    -0.508 OA
ATOM     18  H   UNL     1     -15.932  64.857  38.712  1.00  0.00     0.293 HD
ENDBRANCH  14  17
BRANCH  15  19
ATOM     19  O   UNL     1     -16.145  59.618  38.139  1.00  0.00    -0.508 OA
ATOM     20  H   UNL     1     -16.221  59.219  37.211  1.00  0.00     0.293 HD
ENDBRANCH  15  19
ENDBRANCH  10  11
ENDBRANCH   1  10
TORSDOF 6
ENDMDL
MODEL 3
REMARK VINA RESULT:    -7.114     12.823     16.015
REMARK INTER + INTRA:          -9.536
REMARK INTER:                  -9.024
REMARK INTRA:                  -0.512
REMARK UNBOUND:                -0.550
REMARK SMILES Oc1ccc(CCc2cc(O)cc(O)c2)cc1
REMARK SMILES IDX 6 1 5 2 4 3 3 4 2 5 16 6 17 7 1 8 7 10 8 11 15 12 9 13 13 14
REMARK SMILES IDX 10 15 12 16 14 17 11 19
REMARK H PARENT 1 9 14 18 11 20
REMARK Flexibility Score: inf
ROOT
ATOM      1  C   UNL     1      -7.620  61.437  53.971  1.00  0.00     0.040 C 
ENDROOT
BRANCH   1   2
ATOM      2  C   UNL     1      -6.427  60.879  54.702  1.00  0.00    -0.047 A 
ATOM      3  C   UNL     1      -6.595  59.874  55.668  1.00  0.00     0.007 A 
ATOM      4  C   UNL     1      -5.485  59.333  56.322  1.00  0.00     0.046 A 
ATOM      5  C   UNL     1      -4.195  59.785  56.011  1.00  0.00     0.115 A 
ATOM      6  C   UNL     1      -5.132  61.320  54.384  1.00  0.00     0.007 A 
ATOM      7  C   UNL     1      -4.023  60.777  55.040  1.00  0.00     0.046 A 
BRANCH   5   8
ATOM      8  O   UNL     1      -3.081  59.255  56.657  1.00  0.00    -0.508 OA
ATOM      9  H   UNL     1      -3.109  58.342  57.097  1.00  0.00     0.293 HD
ENDBRANCH   5   8
ENDBRANCH   1   2
BRANCH   1  10
ATOM     10  C   UNL     1      -7.757  62.939  54.234  1.00  0.00     0.040 C 
BRANCH  10  11
ATOM     11  C   UNL     1      -7.225  63.730  53.068  1.00  0.00    -0.040 A 
ATOM     12  C   UNL     1      -6.835  65.068  53.241  1.00  0.00     0.050 A 
ATOM     13  C   UNL     1      -7.062  63.120  51.814  1.00  0.00     0.050 A 
ATOM     14  C   UNL     1      -6.310  65.796  52.167  1.00  0.00     0.119 A 
ATOM     15  C   UNL     1      -6.537  63.844  50.739  1.00  0.00     0.119 A 
ATOM     16  C   UNL     1      -6.164  65.184  50.916  1.00  0.00     0.092 A 
BRANCH  14  17
ATOM     17  O   UNL     1      -5.935  67.124  52.356  1.00  0.00    -0.508 OA
ATOM     18  H   UNL     1      -6.390  67.879  51.856  1.00  0.00     0.293 HD
ENDBRANCH  14  17
BRANCH  15  19
ATOM     19  O   UNL     1      -6.389  63.224  49.499  1.00  0.00    -0.508 OA
ATOM     20  H   UNL     1      -7.090  62.589  49.138  1.00  0.00     0.293 HD
ENDBRANCH  15  19
ENDBRANCH  10  11
ENDBRANCH   1  10
TORSDOF 6
ENDMDL
MODEL 4
REMARK VINA RESULT:    -7.057     12.791     15.929
REMARK INTER + INTRA:          -9.464
REMARK INTER:                  -8.969
REMARK INTRA:                  -0.495
REMARK UNBOUND:                -0.550
REMARK SMILES Oc1ccc(CCc2cc(O)cc(O)c2)cc1
REMARK SMILES IDX 6 1 5 2 4 3 3 4 2 5 16 6 17 7 1 8 7 10 8 11 15 12 9 13 13 14
REMARK SMILES IDX 10 15 12 16 14 17 11 19
REMARK H PARENT 1 9 14 18 11 20
REMARK Flexibility Score: inf
ROOT
ATOM      1  C   UNL     1      -7.619  61.435  54.009  1.00  0.00     0.040 C 
ENDROOT
BRANCH   1   2
ATOM      2  C   UNL     1      -6.434  60.879  54.752  1.00  0.00    -0.047 A 
ATOM      3  C   UNL     1      -6.601  59.826  55.667  1.00  0.00     0.007 A 
ATOM      4  C   UNL     1      -5.495  59.288  56.331  1.00  0.00     0.046 A 
ATOM      5  C   UNL     1      -4.211  59.792  56.083  1.00  0.00     0.115 A 
ATOM      6  C   UNL     1      -5.143  61.371  54.497  1.00  0.00     0.007 A 
ATOM      7  C   UNL     1      -4.038  60.831  55.164  1.00  0.00     0.046 A 
BRANCH   5   8
ATOM      8  O   UNL     1      -3.102  59.265  56.740  1.00  0.00    -0.508 OA
ATOM      9  H   UNL     1      -2.836  59.578  57.667  1.00  0.00     0.293 HD
ENDBRANCH   5   8
ENDBRANCH   1   2
BRANCH   1  10
ATOM     10  C   UNL     1      -7.752  62.940  54.256  1.00  0.00     0.040 C 
BRANCH  10  11
ATOM     11  C   UNL     1      -7.191  63.717  53.094  1.00  0.00    -0.040 A 
ATOM     12  C   UNL     1      -7.089  63.119  51.827  1.00  0.00     0.050 A 
ATOM     13  C   UNL     1      -6.818  65.061  53.255  1.00  0.00     0.050 A 
ATOM     14  C   UNL     1      -6.598  63.848  50.739  1.00  0.00     0.119 A 
ATOM     15  C   UNL     1      -6.327  65.793  52.169  1.00  0.00     0.119 A 
ATOM     16  C   UNL     1      -6.215  65.184  50.912  1.00  0.00     0.092 A 
BRANCH  14  17
ATOM     17  O   UNL     1      -6.498  63.236  49.491  1.00  0.00    -0.508 OA
ATOM     18  H   UNL     1      -6.369  62.235  49.402  1.00  0.00     0.293 HD
ENDBRANCH  14  17
BRANCH  15  19
ATOM     19  O   UNL     1      -5.956  67.124  52.350  1.00  0.00    -0.508 OA
ATOM     20  H   UNL     1      -6.610  67.882  52.195  1.00  0.00     0.293 HD
ENDBRANCH  15  19
ENDBRANCH  10  11
ENDBRANCH   1  10
TORSDOF 6
ENDMDL
MODEL 5
REMARK VINA RESULT:    -6.957      1.551      2.854
REMARK INTER + INTRA:          -9.337
REMARK INTER:                  -9.076
REMARK INTRA:                  -0.261
REMARK UNBOUND:                -0.550
REMARK SMILES Oc1ccc(CCc2cc(O)cc(O)c2)cc1
REMARK SMILES IDX 6 1 5 2 4 3 3 4 2 5 16 6 17 7 1 8 7 10 8 11 15 12 9 13 13 14
REMARK SMILES IDX 10 15 12 16 14 17 11 19
REMARK H PARENT 1 9 14 18 11 20
REMARK Flexibility Score: inf
ROOT
ATOM      1  C   UNL     1     -12.726  60.375  40.282  1.00  0.00     0.040 C 
ENDROOT
BRANCH   1   2
ATOM      2  C   UNL     1     -11.498  61.245  40.233  1.00  0.00    -0.047 A 
ATOM      3  C   UNL     1     -11.107  61.852  39.029  1.00  0.00     0.007 A 
ATOM      4  C   UNL     1      -9.987  62.686  38.992  1.00  0.00     0.046 A 
ATOM      5  C   UNL     1      -9.250  62.929  40.160  1.00  0.00     0.115 A 
ATOM      6  C   UNL     1     -10.765  61.501  41.404  1.00  0.00     0.007 A 
ATOM      7  C   UNL     1      -9.644  62.337  41.364  1.00  0.00     0.046 A 
BRANCH   5   8
ATOM      8  O   UNL     1      -8.131  63.758  40.135  1.00  0.00    -0.508 OA
ATOM      9  H   UNL     1      -7.209  63.411  40.373  1.00  0.00     0.293 HD
ENDBRANCH   5   8
ENDBRANCH   1   2
BRANCH   1  10
ATOM     10  C   UNL     1     -13.289  60.160  38.874  1.00  0.00     0.040 C 
BRANCH  10  11
ATOM     11  C   UNL     1     -14.487  61.043  38.644  1.00  0.00    -0.040 A 
ATOM     12  C   UNL     1     -14.323  62.428  38.476  1.00  0.00     0.050 A 
ATOM     13  C   UNL     1     -15.770  60.482  38.541  1.00  0.00     0.050 A 
ATOM     14  C   UNL     1     -15.431  63.246  38.231  1.00  0.00     0.119 A 
ATOM     15  C   UNL     1     -16.880  61.298  38.295  1.00  0.00     0.119 A 
ATOM     16  C   UNL     1     -16.709  62.680  38.143  1.00  0.00     0.092 A 
BRANCH  14  17
ATOM     17  O   UNL     1     -15.250  64.619  38.074  1.00  0.00    -0.508 OA
ATOM     18  H   UNL     1     -15.000  65.213  38.856  1.00  0.00     0.293 HD
ENDBRANCH  14  17
BRANCH  15  19
ATOM     19  O   UNL     1     -18.146  60.724  38.201  1.00  0.00    -0.508 OA
ATOM     20  H   UNL     1     -18.887  61.160  37.666  1.00  0.00     0.293 HD
ENDBRANCH  15  19
ENDBRANCH  10  11
ENDBRANCH   1  10
TORSDOF 6
ENDMDL
MODEL 6
REMARK VINA RESULT:    -6.912      1.553      2.089
REMARK INTER + INTRA:          -9.281
REMARK INTER:                  -9.079
REMARK INTRA:                  -0.202
REMARK UNBOUND:                -0.550
REMARK SMILES Oc1ccc(CCc2cc(O)cc(O)c2)cc1
REMARK SMILES IDX 6 1 5 2 4 3 3 4 2 5 16 6 17 7 1 8 7 10 8 11 15 12 9 13 13 14
REMARK SMILES IDX 10 15 12 16 14 17 11 19
REMARK H PARENT 1 9 14 18 11 20
REMARK Flexibility Score: inf
ROOT
ATOM      1  C   UNL     1     -12.734  60.395  40.294  1.00  0.00     0.040 C 
ENDROOT
BRANCH   1   2
ATOM      2  C   UNL     1     -11.505  61.262  40.226  1.00  0.00    -0.047 A 
ATOM      3  C   UNL     1     -11.122  61.854  39.011  1.00  0.00     0.007 A 
ATOM      4  C   UNL     1     -10.000  62.685  38.956  1.00  0.00     0.046 A 
ATOM      5  C   UNL     1      -9.255  62.941  40.116  1.00  0.00     0.115 A 
ATOM      6  C   UNL     1     -10.764  61.532  41.388  1.00  0.00     0.007 A 
ATOM      7  C   UNL     1      -9.642  62.365  41.330  1.00  0.00     0.046 A 
BRANCH   5   8
ATOM      8  O   UNL     1      -8.135  63.768  40.073  1.00  0.00    -0.508 OA
ATOM      9  H   UNL     1      -7.212  63.422  40.307  1.00  0.00     0.293 HD
ENDBRANCH   5   8
ENDBRANCH   1   2
BRANCH   1  10
ATOM     10  C   UNL     1     -13.283  60.130  38.890  1.00  0.00     0.040 C 
BRANCH  10  11
ATOM     11  C   UNL     1     -14.471  61.014  38.611  1.00  0.00    -0.040 A 
ATOM     12  C   UNL     1     -15.762  60.464  38.549  1.00  0.00     0.050 A 
ATOM     13  C   UNL     1     -14.303  62.401  38.468  1.00  0.00     0.050 A 
ATOM     14  C   UNL     1     -16.870  61.288  38.322  1.00  0.00     0.119 A 
ATOM     15  C   UNL     1     -15.409  63.226  38.242  1.00  0.00     0.119 A 
ATOM     16  C   UNL     1     -16.692  62.668  38.165  1.00  0.00     0.092 A 
BRANCH  14  17
ATOM     17  O   UNL     1     -18.143  60.724  38.256  1.00  0.00    -0.508 OA
ATOM     18  H   UNL     1     -18.926  61.126  38.757  1.00  0.00     0.293 HD
ENDBRANCH  14  17
BRANCH  15  19
ATOM     19  O   UNL     1     -15.222  64.600  38.095  1.00  0.00    -0.508 OA
ATOM     20  H   UNL     1     -14.450  65.080  38.542  1.00  0.00     0.293 HD
ENDBRANCH  15  19
ENDBRANCH  10  11
ENDBRANCH   1  10
TORSDOF 6
ENDMDL
MODEL 7
REMARK VINA RESULT:    -6.867     12.536     15.690
REMARK INTER + INTRA:          -9.224
REMARK INTER:                  -8.653
REMARK INTRA:                  -0.571
REMARK UNBOUND:                -0.550
REMARK SMILES Oc1ccc(CCc2cc(O)cc(O)c2)cc1
REMARK SMILES IDX 6 1 5 2 4 3 3 4 2 5 16 6 17 7 1 8 7 10 8 11 15 12 9 13 13 14
REMARK SMILES IDX 10 15 12 16 14 17 11 19
REMARK H PARENT 1 9 14 18 11 20
REMARK Flexibility Score: inf
ROOT
ATOM      1  C   UNL     1      -7.283  63.787  53.407  1.00  0.00     0.040 C 
ENDROOT
BRANCH   1   2
ATOM      2  C   UNL     1      -6.757  64.480  52.178  1.00  0.00    -0.047 A 
ATOM      3  C   UNL     1      -6.422  65.844  52.223  1.00  0.00     0.007 A 
ATOM      4  C   UNL     1      -5.902  66.478  51.092  1.00  0.00     0.046 A 
ATOM      5  C   UNL     1      -5.704  65.756  49.907  1.00  0.00     0.115 A 
ATOM      6  C   UNL     1      -6.544  63.757  50.993  1.00  0.00     0.007 A 
ATOM      7  C   UNL     1      -6.024  64.395  49.863  1.00  0.00     0.046 A 
BRANCH   5   8
ATOM      8  O   UNL     1      -5.188  66.378  48.773  1.00  0.00    -0.508 OA
ATOM      9  H   UNL     1      -4.691  67.260  48.833  1.00  0.00     0.293 HD
ENDBRANCH   5   8
ENDBRANCH   1   2
BRANCH   1  10
ATOM     10  C   UNL     1      -7.465  62.290  53.143  1.00  0.00     0.040 C 
BRANCH  10  11
ATOM     11  C   UNL     1      -6.510  61.486  53.986  1.00  0.00    -0.040 A 
ATOM     12  C   UNL     1      -5.133  61.508  53.709  1.00  0.00     0.050 A 
ATOM     13  C   UNL     1      -6.982  60.754  55.087  1.00  0.00     0.050 A 
ATOM     14  C   UNL     1      -4.240  60.787  54.509  1.00  0.00     0.119 A 
ATOM     15  C   UNL     1      -6.091  60.033  55.890  1.00  0.00     0.119 A 
ATOM     16  C   UNL     1      -4.721  60.047  55.598  1.00  0.00     0.092 A 
BRANCH  14  17
ATOM     17  O   UNL     1      -2.878  60.814  54.215  1.00  0.00    -0.508 OA
ATOM     18  H   UNL     1      -2.429  60.055  53.718  1.00  0.00     0.293 HD
ENDBRANCH  14  17
BRANCH  15  19
ATOM     19  O   UNL     1      -6.579  59.306  56.975  1.00  0.00    -0.508 OA
ATOM     20  H   UNL     1      -5.966  58.985  57.714  1.00  0.00     0.293 HD
ENDBRANCH  15  19
ENDBRANCH  10  11
ENDBRANCH   1  10
TORSDOF 6
ENDMDL
MODEL 8
REMARK VINA RESULT:    -6.597      1.351      6.768
REMARK INTER + INTRA:          -8.883
REMARK INTER:                  -8.416
REMARK INTRA:                  -0.467
REMARK UNBOUND:                -0.550
REMARK SMILES Oc1ccc(CCc2cc(O)cc(O)c2)cc1
REMARK SMILES IDX 6 1 5 2 4 3 3 4 2 5 16 6 17 7 1 8 7 10 8 11 15 12 9 13 13 14
REMARK SMILES IDX 10 15 12 16 14 17 11 19
REMARK H PARENT 1 9 14 18 11 20
REMARK Flexibility Score: inf
ROOT
ATOM      1  C   UNL     1     -11.266  62.020  39.748  1.00  0.00     0.040 C 
ENDROOT
BRANCH   1   2
ATOM      2  C   UNL     1     -12.634  61.668  39.227  1.00  0.00    -0.047 A 
ATOM      3  C   UNL     1     -12.987  60.325  39.014  1.00  0.00     0.007 A 
ATOM      4  C   UNL     1     -14.268  59.997  38.562  1.00  0.00     0.046 A 
ATOM      5  C   UNL     1     -15.212  61.006  38.326  1.00  0.00     0.115 A 
ATOM      6  C   UNL     1     -13.587  62.675  39.002  1.00  0.00     0.007 A 
ATOM      7  C   UNL     1     -14.868  62.344  38.550  1.00  0.00     0.046 A 
BRANCH   5   8
ATOM      8  O   UNL     1     -16.491  60.692  37.875  1.00  0.00    -0.508 OA
ATOM      9  H   UNL     1     -17.216  61.397  37.803  1.00  0.00     0.293 HD
ENDBRANCH   5   8
ENDBRANCH   1   2
BRANCH   1  10
ATOM     10  C   UNL     1     -10.419  62.661  38.645  1.00  0.00     0.040 C 
BRANCH  10  11
ATOM     11  C   UNL     1      -9.691  63.869  39.173  1.00  0.00    -0.040 A 
ATOM     12  C   UNL     1      -9.076  64.767  38.285  1.00  0.00     0.050 A 
ATOM     13  C   UNL     1      -9.669  64.136  40.551  1.00  0.00     0.050 A 
ATOM     14  C   UNL     1      -8.425  65.907  38.770  1.00  0.00     0.119 A 
ATOM     15  C   UNL     1      -9.020  65.275  41.039  1.00  0.00     0.119 A 
ATOM     16  C   UNL     1      -8.396  66.159  40.148  1.00  0.00     0.092 A 
BRANCH  14  17
ATOM     17  O   UNL     1      -7.815  66.783  37.875  1.00  0.00    -0.508 OA
ATOM     18  H   UNL     1      -7.897  66.658  36.873  1.00  0.00     0.293 HD
ENDBRANCH  14  17
BRANCH  15  19
ATOM     19  O   UNL     1      -9.004  65.521  42.411  1.00  0.00    -0.508 OA
ATOM     20  H   UNL     1      -8.894  66.458  42.780  1.00  0.00     0.293 HD
ENDBRANCH  15  19
ENDBRANCH  10  11
ENDBRANCH   1  10
TORSDOF 6
ENDMDL
