MODEL 1
REMARK VINA RESULT:    -4.854      0.000      0.000
REMARK INTER + INTRA:          -5.854
REMARK INTER:                  -5.563
REMARK INTRA:                  -0.291
REMARK UNBOUND:                -0.291
REMARK SMILES COc1ccc(C(C)=O)c(O)c1
REMARK SMILES IDX 6 1 10 2 12 3 3 4 4 5 5 6 7 7 8 8 9 9 11 10 2 12 1 13
REMARK H PARENT 11 11
REMARK Flexibility Score: inf
ROOT
ATOM      1  C   UNL     1      14.618 -11.513  12.495  1.00  0.00     0.059 A 
ATOM      2  C   UNL     1      16.026 -11.666  12.498  1.00  0.00     0.130 A 
ATOM      3  C   UNL     1      16.847 -10.533  12.543  1.00  0.00     0.093 A 
ATOM      4  C   UNL     1      16.301  -9.246  12.550  1.00  0.00     0.122 A 
ATOM      5  C   UNL     1      14.906  -9.094  12.517  1.00  0.00     0.047 A 
ATOM      6  C   UNL     1      14.075 -10.217  12.491  1.00  0.00     0.019 A 
ENDROOT
BRANCH   1   7
ATOM      7  C   UNL     1      13.701 -12.678  12.535  1.00  0.00     0.163 C 
ATOM      8  C   UNL     1      12.236 -12.519  12.273  1.00  0.00     0.093 C 
ATOM      9  O   UNL     1      14.138 -13.811  12.872  1.00  0.00    -0.294 OA
ENDBRANCH   1   7
BRANCH   2  10
ATOM     10  O   UNL     1      16.643 -12.917  12.427  1.00  0.00    -0.507 OA
ATOM     11  H   UNL     1      17.576 -13.097  12.771  1.00  0.00     0.293 HD
ENDBRANCH   2  10
BRANCH   4  12
ATOM     12  O   UNL     1      17.178  -8.151  12.588  1.00  0.00    -0.497 OA
ATOM     13  C   UNL     1      17.762  -7.630  13.778  1.00  0.00     0.278 C 
ENDBRANCH   4  12
TORSDOF 3
ENDMDL
MODEL 2
REMARK VINA RESULT:    -4.628      1.181      4.546
REMARK INTER + INTRA:          -5.595
REMARK INTER:                  -5.255
REMARK INTRA:                  -0.340
REMARK UNBOUND:                -0.291
REMARK SMILES COc1ccc(C(C)=O)c(O)c1
REMARK SMILES IDX 6 1 10 2 12 3 3 4 4 5 5 6 7 7 8 8 9 9 11 10 2 12 1 13
REMARK H PARENT 11 11
REMARK Flexibility Score: inf
ROOT
ATOM      1  C   UNL     1      16.042  -9.564  12.499  1.00  0.00     0.059 A 
ATOM      2  C   UNL     1      16.382 -10.913  12.233  1.00  0.00     0.130 A 
ATOM      3  C   UNL     1      15.369 -11.867  12.078  1.00  0.00     0.093 A 
ATOM      4  C   UNL     1      14.023 -11.518  12.216  1.00  0.00     0.122 A 
ATOM      5  C   UNL     1      13.686 -10.187  12.509  1.00  0.00     0.047 A 
ATOM      6  C   UNL     1      14.687  -9.222  12.648  1.00  0.00     0.019 A 
ENDROOT
BRANCH   1   7
ATOM      7  C   UNL     1      17.069  -8.498  12.587  1.00  0.00     0.163 C 
ATOM      8  C   UNL     1      16.872  -7.177  11.911  1.00  0.00     0.093 C 
ATOM      9  O   UNL     1      18.163  -8.725  13.169  1.00  0.00    -0.294 OA
ENDBRANCH   1   7
BRANCH   2  10
ATOM     10  O   UNL     1      17.707 -11.348  12.146  1.00  0.00    -0.507 OA
ATOM     11  H   UNL     1      18.318 -11.431  12.945  1.00  0.00     0.293 HD
ENDBRANCH   2  10
BRANCH   4  12
ATOM     12  O   UNL     1      13.055 -12.523  12.057  1.00  0.00    -0.497 OA
ATOM     13  C   UNL     1      11.673 -12.361  12.362  1.00  0.00     0.278 C 
ENDBRANCH   4  12
TORSDOF 3
ENDMDL
MODEL 3
REMARK VINA RESULT:    -4.606      1.556      4.966
REMARK INTER + INTRA:          -5.570
REMARK INTER:                  -5.247
REMARK INTRA:                  -0.323
REMARK UNBOUND:                -0.291
REMARK SMILES COc1ccc(C(C)=O)c(O)c1
REMARK SMILES IDX 6 1 10 2 12 3 3 4 4 5 5 6 7 7 8 8 9 9 11 10 2 12 1 13
REMARK H PARENT 11 11
REMARK Flexibility Score: inf
ROOT
ATOM      1  C   UNL     1      16.003 -10.196  12.451  1.00  0.00     0.059 A 
ATOM      2  C   UNL     1      14.681  -9.740  12.676  1.00  0.00     0.130 A 
ATOM      3  C   UNL     1      13.608 -10.631  12.550  1.00  0.00     0.093 A 
ATOM      4  C   UNL     1      13.816 -11.961  12.172  1.00  0.00     0.122 A 
ATOM      5  C   UNL     1      15.124 -12.405  11.920  1.00  0.00     0.047 A 
ATOM      6  C   UNL     1      16.204 -11.531  12.060  1.00  0.00     0.019 A 
ENDROOT
BRANCH   1   7
ATOM      7  C   UNL     1      17.181  -9.319  12.653  1.00  0.00     0.163 C 
ATOM      8  C   UNL     1      18.152  -9.571  13.765  1.00  0.00     0.093 C 
ATOM      9  O   UNL     1      17.334  -8.295  11.934  1.00  0.00    -0.294 OA
ENDBRANCH   1   7
BRANCH   2  10
ATOM     10  O   UNL     1      14.391  -8.411  12.994  1.00  0.00    -0.507 OA
ATOM     11  H   UNL     1      14.624  -7.988  13.881  1.00  0.00     0.293 HD
ENDBRANCH   2  10
BRANCH   4  12
ATOM     12  O   UNL     1      12.698 -12.802  12.056  1.00  0.00    -0.497 OA
ATOM     13  C   UNL     1      11.348 -12.362  12.164  1.00  0.00     0.278 C 
ENDBRANCH   4  12
TORSDOF 3
ENDMDL
MODEL 4
REMARK VINA RESULT:    -4.442      1.593      2.263
REMARK INTER + INTRA:          -5.382
REMARK INTER:                  -5.052
REMARK INTRA:                  -0.330
REMARK UNBOUND:                -0.291
REMARK SMILES COc1ccc(C(C)=O)c(O)c1
REMARK SMILES IDX 6 1 10 2 12 3 3 4 4 5 5 6 7 7 8 8 9 9 11 10 2 12 1 13
REMARK H PARENT 11 11
REMARK Flexibility Score: inf
ROOT
ATOM      1  C   UNL     1      14.601 -11.268  12.437  1.00  0.00     0.059 A 
ATOM      2  C   UNL     1      14.354  -9.883  12.608  1.00  0.00     0.130 A 
ATOM      3  C   UNL     1      15.421  -8.978  12.574  1.00  0.00     0.093 A 
ATOM      4  C   UNL     1      16.737  -9.420  12.408  1.00  0.00     0.122 A 
ATOM      5  C   UNL     1      16.985 -10.795  12.268  1.00  0.00     0.047 A 
ATOM      6  C   UNL     1      15.927 -11.707  12.282  1.00  0.00     0.019 A 
ENDROOT
BRANCH   1   7
ATOM      7  C   UNL     1      13.501 -12.261  12.380  1.00  0.00     0.163 C 
ATOM      8  C   UNL     1      13.712 -13.676  12.823  1.00  0.00     0.093 C 
ATOM      9  O   UNL     1      12.391 -11.942  11.876  1.00  0.00    -0.294 OA
ENDBRANCH   1   7
BRANCH   2  10
ATOM     10  O   UNL     1      13.074  -9.375  12.843  1.00  0.00    -0.507 OA
ATOM     11  H   UNL     1      12.228  -9.906  12.691  1.00  0.00     0.293 HD
ENDBRANCH   2  10
BRANCH   4  12
ATOM     12  O   UNL     1      17.764  -8.463  12.390  1.00  0.00    -0.497 OA
ATOM     13  C   UNL     1      18.021  -7.542  13.446  1.00  0.00     0.278 C 
ENDBRANCH   4  12
TORSDOF 3
ENDMDL
MODEL 5
REMARK VINA RESULT:    -4.418      1.352      5.034
REMARK INTER + INTRA:          -5.355
REMARK INTER:                  -5.028
REMARK INTRA:                  -0.327
REMARK UNBOUND:                -0.291
REMARK SMILES COc1ccc(C(C)=O)c(O)c1
REMARK SMILES IDX 6 1 10 2 12 3 3 4 4 5 5 6 7 7 8 8 9 9 11 10 2 12 1 13
REMARK H PARENT 11 11
REMARK Flexibility Score: inf
ROOT
ATOM      1  C   UNL     1      16.200  -9.177  12.686  1.00  0.00     0.059 A 
ATOM      2  C   UNL     1      14.800  -9.392  12.651  1.00  0.00     0.130 A 
ATOM      3  C   UNL     1      14.302 -10.682  12.437  1.00  0.00     0.093 A 
ATOM      4  C   UNL     1      15.163 -11.763  12.224  1.00  0.00     0.122 A 
ATOM      5  C   UNL     1      16.550 -11.544  12.229  1.00  0.00     0.047 A 
ATOM      6  C   UNL     1      17.061 -10.265  12.459  1.00  0.00     0.019 A 
ENDROOT
BRANCH   1   7
ATOM      7  C   UNL     1      16.783  -7.848  12.993  1.00  0.00     0.163 C 
ATOM      8  C   UNL     1      18.143  -7.467  12.496  1.00  0.00     0.093 C 
ATOM      9  O   UNL     1      16.168  -7.051  13.751  1.00  0.00    -0.294 OA
ENDBRANCH   1   7
BRANCH   2  10
ATOM     10  O   UNL     1      13.880  -8.351  12.792  1.00  0.00    -0.507 OA
ATOM     11  H   UNL     1      13.577  -7.768  12.024  1.00  0.00     0.293 HD
ENDBRANCH   2  10
BRANCH   4  12
ATOM     12  O   UNL     1      14.600 -13.030  12.007  1.00  0.00    -0.497 OA
ATOM     13  C   UNL     1      13.634 -13.636  12.861  1.00  0.00     0.278 C 
ENDBRANCH   4  12
TORSDOF 3
ENDMDL
MODEL 6
REMARK VINA RESULT:    -4.359      1.307      4.703
REMARK INTER + INTRA:          -5.287
REMARK INTER:                  -4.952
REMARK INTRA:                  -0.336
REMARK UNBOUND:                -0.291
REMARK SMILES COc1ccc(C(C)=O)c(O)c1
REMARK SMILES IDX 6 1 10 2 12 3 3 4 4 5 5 6 7 7 8 8 9 9 11 10 2 12 1 13
REMARK H PARENT 11 11
REMARK Flexibility Score: inf
ROOT
ATOM      1  C   UNL     1      16.115  -8.627  12.745  1.00  0.00     0.059 A 
ATOM      2  C   UNL     1      17.206  -9.531  12.756  1.00  0.00     0.130 A 
ATOM      3  C   UNL     1      16.978 -10.896  12.548  1.00  0.00     0.093 A 
ATOM      4  C   UNL     1      15.684 -11.392  12.361  1.00  0.00     0.122 A 
ATOM      5  C   UNL     1      14.600 -10.500  12.380  1.00  0.00     0.047 A 
ATOM      6  C   UNL     1      14.815  -9.133  12.568  1.00  0.00     0.019 A 
ENDROOT
BRANCH   1   7
ATOM      7  C   UNL     1      16.306  -7.163  12.875  1.00  0.00     0.163 C 
ATOM      8  C   UNL     1      15.444  -6.347  13.788  1.00  0.00     0.093 C 
ATOM      9  O   UNL     1      17.151  -6.572  12.150  1.00  0.00    -0.294 OA
ENDBRANCH   1   7
BRANCH   2  10
ATOM     10  O   UNL     1      18.517  -9.117  13.001  1.00  0.00    -0.507 OA
ATOM     11  H   UNL     1      18.960  -9.178  13.907  1.00  0.00     0.293 HD
ENDBRANCH   2  10
BRANCH   4  12
ATOM     12  O   UNL     1      15.522 -12.772  12.165  1.00  0.00    -0.497 OA
ATOM     13  C   UNL     1      14.426 -13.531  12.668  1.00  0.00     0.278 C 
ENDBRANCH   4  12
TORSDOF 3
ENDMDL
MODEL 7
REMARK VINA RESULT:    -4.351      2.079      2.970
REMARK INTER + INTRA:          -5.278
REMARK INTER:                  -4.970
REMARK INTRA:                  -0.308
REMARK UNBOUND:                -0.291
REMARK SMILES COc1ccc(C(C)=O)c(O)c1
REMARK SMILES IDX 6 1 10 2 12 3 3 4 4 5 5 6 7 7 8 8 9 9 11 10 2 12 1 13
REMARK H PARENT 11 11
REMARK Flexibility Score: inf
ROOT
ATOM      1  C   UNL     1      14.047 -10.975  12.591  1.00  0.00     0.059 A 
ATOM      2  C   UNL     1      12.918 -10.200  12.955  1.00  0.00     0.130 A 
ATOM      3  C   UNL     1      12.997  -8.803  12.927  1.00  0.00     0.093 A 
ATOM      4  C   UNL     1      14.185  -8.154  12.576  1.00  0.00     0.122 A 
ATOM      5  C   UNL     1      15.312  -8.922  12.243  1.00  0.00     0.047 A 
ATOM      6  C   UNL     1      15.241 -10.317  12.250  1.00  0.00     0.019 A 
ENDROOT
BRANCH   1   7
ATOM      7  C   UNL     1      13.994 -12.455  12.521  1.00  0.00     0.163 C 
ATOM      8  C   UNL     1      15.246 -13.276  12.530  1.00  0.00     0.093 C 
ATOM      9  O   UNL     1      12.887 -13.039  12.370  1.00  0.00    -0.294 OA
ENDBRANCH   1   7
BRANCH   2  10
ATOM     10  O   UNL     1      11.719 -10.778  13.378  1.00  0.00    -0.507 OA
ATOM     11  H   UNL     1      10.813 -10.367  13.205  1.00  0.00     0.293 HD
ENDBRANCH   2  10
BRANCH   4  12
ATOM     12  O   UNL     1      14.202  -6.751  12.574  1.00  0.00    -0.497 OA
ATOM     13  C   UNL     1      14.260  -5.947  13.749  1.00  0.00     0.278 C 
ENDBRANCH   4  12
TORSDOF 3
ENDMDL
MODEL 8
REMARK VINA RESULT:    -4.341      2.018      5.556
REMARK INTER + INTRA:          -5.267
REMARK INTER:                  -5.027
REMARK INTRA:                  -0.240
REMARK UNBOUND:                -0.291
REMARK SMILES COc1ccc(C(C)=O)c(O)c1
REMARK SMILES IDX 6 1 10 2 12 3 3 4 4 5 5 6 7 7 8 8 9 9 11 10 2 12 1 13
REMARK H PARENT 11 11
REMARK Flexibility Score: inf
ROOT
ATOM      1  C   UNL     1      17.113  -7.642  13.760  1.00  0.00     0.059 A 
ATOM      2  C   UNL     1      15.980  -7.814  12.927  1.00  0.00     0.130 A 
ATOM      3  C   UNL     1      15.741  -9.056  12.327  1.00  0.00     0.093 A 
ATOM      4  C   UNL     1      16.621 -10.127  12.510  1.00  0.00     0.122 A 
ATOM      5  C   UNL     1      17.760  -9.948  13.312  1.00  0.00     0.047 A 
ATOM      6  C   UNL     1      18.000  -8.719  13.930  1.00  0.00     0.019 A 
ENDROOT
BRANCH   1   7
ATOM      7  C   UNL     1      17.368  -6.375  14.487  1.00  0.00     0.163 C 
ATOM      8  C   UNL     1      17.009  -6.227  15.933  1.00  0.00     0.093 C 
ATOM      9  O   UNL     1      17.820  -5.375  13.868  1.00  0.00    -0.294 OA
ENDBRANCH   1   7
BRANCH   2  10
ATOM     10  O   UNL     1      15.093  -6.772  12.647  1.00  0.00    -0.507 OA
ATOM     11  H   UNL     1      14.100  -6.824  12.827  1.00  0.00     0.293 HD
ENDBRANCH   2  10
BRANCH   4  12
ATOM     12  O   UNL     1      16.329 -11.344  11.876  1.00  0.00    -0.497 OA
ATOM     13  C   UNL     1      15.910 -12.524  12.556  1.00  0.00     0.278 C 
ENDBRANCH   4  12
TORSDOF 3
ENDMDL
