MODEL 1
REMARK VINA RESULT:     0.011      0.000      0.000
REMARK INTER + INTRA:           0.771
REMARK INTER:                   0.016
REMARK INTRA:                   0.755
REMARK UNBOUND:                 0.755
REMARK SMILES OC[C@@H]1O[C@](CO)(O[C@H]2O[C@@H](CO)[C@@H](O)[C@H](O)[C@@H]2O)[C@@H](O)[C@@H]1O
REMARK SMILES IDX 8 1 9 2 11 3 14 4 10 5 16 6 18 7 12 8 13 9 15 11 17 13 19 15
REMARK SMILES IDX 5 17 20 18 4 19 22 20 3 21 6 22 7 23 21 25 23 27 2 29 1 30
REMARK H PARENT 13 10 15 12 17 14 19 16 7 24 21 26 23 28 1 31
REMARK Flexibility Score: inf
ROOT
ATOM      1  O   UNL     1     123.809 116.617 131.398  1.00  0.00    -0.313 OA
ENDROOT
BRANCH   1   2
ATOM      2  C   UNL     1     124.854 115.711 131.056  1.00  0.00     0.285 C 
ATOM      3  C   UNL     1     125.487 114.039 129.535  1.00  0.00     0.178 C 
ATOM      4  C   UNL     1     126.952 114.566 129.447  1.00  0.00     0.177 C 
ATOM      5  O   UNL     1     124.552 115.081 129.817  1.00  0.00    -0.341 OA
ATOM      6  C   UNL     1     127.307 115.488 130.662  1.00  0.00     0.179 C 
ATOM      7  C   UNL     1     126.167 116.495 130.883  1.00  0.00     0.202 C 
BRANCH   3   8
ATOM      8  C   UNL     1     125.068 113.325 128.232  1.00  0.00     0.191 C 
BRANCH   8   9
ATOM      9  O   UNL     1     125.721 112.084 128.140  1.00  0.00    -0.394 OA
ATOM     10  H   UNL     1     125.220 111.550 127.463  1.00  0.00     0.210 HD
ENDBRANCH   8   9
ENDBRANCH   3   8
BRANCH   4  11
ATOM     11  O   UNL     1     127.158 115.205 128.206  1.00  0.00    -0.387 OA
ATOM     12  H   UNL     1     127.540 114.576 127.544  1.00  0.00     0.211 HD
ENDBRANCH   4  11
BRANCH   6  13
ATOM     13  O   UNL     1     127.515 114.763 131.860  1.00  0.00    -0.387 OA
ATOM     14  H   UNL     1     126.709 114.207 132.071  1.00  0.00     0.211 HD
ENDBRANCH   6  13
BRANCH   7  15
ATOM     15  O   UNL     1     126.436 117.255 132.030  1.00  0.00    -0.385 OA
ATOM     16  H   UNL     1     125.725 117.057 132.697  1.00  0.00     0.211 HD
ENDBRANCH   7  15
ENDBRANCH   1   2
BRANCH   1  17
ATOM     17  C   UNL     1     122.768 116.022 132.185  1.00  0.00     0.224 C 
ATOM     18  C   UNL     1     121.643 115.418 131.298  1.00  0.00     0.208 C 
ATOM     19  O   UNL     1     122.180 116.985 133.046  1.00  0.00    -0.337 OA
ATOM     20  C   UNL     1     120.402 115.622 132.126  1.00  0.00     0.180 C 
ATOM     21  C   UNL     1     120.788 116.731 133.125  1.00  0.00     0.179 C 
BRANCH  17  22
ATOM     22  C   UNL     1     123.424 114.954 133.097  1.00  0.00     0.225 C 
BRANCH  22  23
ATOM     23  O   UNL     1     124.819 114.981 132.979  1.00  0.00    -0.391 OA
ATOM     24  H   UNL     1     124.999 115.177 132.022  1.00  0.00     0.210 HD
ENDBRANCH  22  23
ENDBRANCH  17  22
BRANCH  18  25
ATOM     25  O   UNL     1     121.850 114.060 131.006  1.00  0.00    -0.385 OA
ATOM     26  H   UNL     1     122.268 113.645 131.820  1.00  0.00     0.211 HD
ENDBRANCH  18  25
BRANCH  20  27
ATOM     27  O   UNL     1     119.323 115.952 131.285  1.00  0.00    -0.387 OA
ATOM     28  H   UNL     1     119.255 116.940 131.242  1.00  0.00     0.211 HD
ENDBRANCH  20  27
BRANCH  21  29
ATOM     29  C   UNL     1     119.984 118.069 133.036  1.00  0.00     0.191 C 
BRANCH  29  30
ATOM     30  O   UNL     1     118.598 117.846 133.099  1.00  0.00    -0.394 OA
ATOM     31  H   UNL     1     118.414 117.504 134.010  1.00  0.00     0.210 HD
ENDBRANCH  29  30
ENDBRANCH  21  29
ENDBRANCH   1  17
TORSDOF 13
ENDMDL
MODEL 2
REMARK VINA RESULT:     0.289      1.337      1.591
REMARK INTER + INTRA:           1.197
REMARK INTER:                  -0.645
REMARK INTRA:                   1.842
REMARK UNBOUND:                 0.755
REMARK SMILES OC[C@@H]1O[C@](CO)(O[C@H]2O[C@@H](CO)[C@@H](O)[C@H](O)[C@@H]2O)[C@@H](O)[C@@H]1O
REMARK SMILES IDX 8 1 9 2 11 3 14 4 10 5 16 6 18 7 12 8 13 9 15 11 17 13 19 15
REMARK SMILES IDX 5 17 20 18 4 19 22 20 3 21 6 22 7 23 21 25 23 27 2 29 1 30
REMARK H PARENT 13 10 15 12 17 14 19 16 7 24 21 26 23 28 1 31
REMARK Flexibility Score: inf
ROOT
ATOM      1  O   UNL     1     124.225 116.703 131.430  1.00  0.00    -0.313 OA
ENDROOT
BRANCH   1   2
ATOM      2  C   UNL     1     124.889 115.796 130.555  1.00  0.00     0.285 C 
ATOM      3  C   UNL     1     125.438 115.392 128.310  1.00  0.00     0.178 C 
ATOM      4  C   UNL     1     126.875 114.903 128.668  1.00  0.00     0.177 C 
ATOM      5  O   UNL     1     124.941 116.349 129.246  1.00  0.00    -0.341 OA
ATOM      6  C   UNL     1     126.986 114.499 130.177  1.00  0.00     0.179 C 
ATOM      7  C   UNL     1     126.334 115.590 131.043  1.00  0.00     0.202 C 
BRANCH   3   8
ATOM      8  C   UNL     1     125.391 116.002 126.893  1.00  0.00     0.191 C 
BRANCH   8   9
ATOM      9  O   UNL     1     124.218 116.762 126.742  1.00  0.00    -0.394 OA
ATOM     10  H   UNL     1     123.788 116.800 127.639  1.00  0.00     0.210 HD
ENDBRANCH   8   9
ENDBRANCH   3   8
BRANCH   4  11
ATOM     11  O   UNL     1     127.820 115.883 128.301  1.00  0.00    -0.387 OA
ATOM     12  H   UNL     1     128.573 115.905 128.942  1.00  0.00     0.211 HD
ENDBRANCH   4  11
BRANCH   6  13
ATOM     13  O   UNL     1     126.366 113.259 130.462  1.00  0.00    -0.387 OA
ATOM     14  H   UNL     1     125.506 113.178 129.954  1.00  0.00     0.211 HD
ENDBRANCH   6  13
BRANCH   7  15
ATOM     15  O   UNL     1     126.343 115.184 132.385  1.00  0.00    -0.385 OA
ATOM     16  H   UNL     1     127.273 114.918 132.614  1.00  0.00     0.211 HD
ENDBRANCH   7  15
ENDBRANCH   1   2
BRANCH   1  17
ATOM     17  C   UNL     1     123.183 116.095 132.206  1.00  0.00     0.224 C 
ATOM     18  C   UNL     1     122.076 115.477 131.306  1.00  0.00     0.208 C 
ATOM     19  O   UNL     1     122.574 117.050 133.061  1.00  0.00    -0.337 OA
ATOM     20  C   UNL     1     120.823 115.665 132.121  1.00  0.00     0.180 C 
ATOM     21  C   UNL     1     121.185 116.778 133.125  1.00  0.00     0.179 C 
BRANCH  17  22
ATOM     22  C   UNL     1     123.843 115.034 133.125  1.00  0.00     0.225 C 
BRANCH  22  23
ATOM     23  O   UNL     1     124.323 113.952 132.378  1.00  0.00    -0.391 OA
ATOM     24  H   UNL     1     123.517 113.438 132.110  1.00  0.00     0.210 HD
ENDBRANCH  22  23
ENDBRANCH  17  22
BRANCH  18  25
ATOM     25  O   UNL     1     122.303 114.122 131.016  1.00  0.00    -0.385 OA
ATOM     26  H   UNL     1     121.786 113.909 130.182  1.00  0.00     0.211 HD
ENDBRANCH  18  25
BRANCH  20  27
ATOM     27  O   UNL     1     119.749 115.981 131.269  1.00  0.00    -0.387 OA
ATOM     28  H   UNL     1     119.271 116.761 131.649  1.00  0.00     0.211 HD
ENDBRANCH  20  27
BRANCH  21  29
ATOM     29  C   UNL     1     120.364 118.106 133.028  1.00  0.00     0.191 C 
BRANCH  29  30
ATOM     30  O   UNL     1     118.982 117.869 133.119  1.00  0.00    -0.394 OA
ATOM     31  H   UNL     1     118.873 117.103 133.738  1.00  0.00     0.210 HD
ENDBRANCH  29  30
ENDBRANCH  21  29
ENDBRANCH   1  17
TORSDOF 13
ENDMDL
MODEL 3
REMARK VINA RESULT:     1.849      1.538      6.458
REMARK INTER + INTRA:           3.577
REMARK INTER:                   3.665
REMARK INTRA:                  -0.088
REMARK UNBOUND:                 0.755
REMARK SMILES OC[C@@H]1O[C@](CO)(O[C@H]2O[C@@H](CO)[C@@H](O)[C@H](O)[C@@H]2O)[C@@H](O)[C@@H]1O
REMARK SMILES IDX 8 1 9 2 11 3 14 4 10 5 16 6 18 7 12 8 13 9 15 11 17 13 19 15
REMARK SMILES IDX 5 17 20 18 4 19 22 20 3 21 6 22 7 23 21 25 23 27 2 29 1 30
REMARK H PARENT 13 10 15 12 17 14 19 16 7 24 21 26 23 28 1 31
REMARK Flexibility Score: inf
ROOT
ATOM      1  O   UNL     1     123.448 115.030 130.765  1.00  0.00    -0.313 OA
ENDROOT
BRANCH   1   2
ATOM      2  C   UNL     1     122.400 115.396 131.656  1.00  0.00     0.285 C 
ATOM      3  C   UNL     1     121.493 117.182 132.880  1.00  0.00     0.178 C 
ATOM      4  C   UNL     1     120.027 116.773 132.539  1.00  0.00     0.177 C 
ATOM      5  O   UNL     1     122.414 116.804 131.855  1.00  0.00    -0.341 OA
ATOM      6  C   UNL     1     119.941 115.283 132.063  1.00  0.00     0.179 C 
ATOM      7  C   UNL     1     121.047 115.018 131.027  1.00  0.00     0.202 C 
BRANCH   3   8
ATOM      8  C   UNL     1     121.608 118.701 133.125  1.00  0.00     0.191 C 
BRANCH   8   9
ATOM      9  O   UNL     1     120.328 119.281 133.123  1.00  0.00    -0.394 OA
ATOM     10  H   UNL     1     119.700 118.581 133.451  1.00  0.00     0.210 HD
ENDBRANCH   8   9
ENDBRANCH   3   8
BRANCH   4  11
ATOM     11  O   UNL     1     119.484 117.673 131.598  1.00  0.00    -0.387 OA
ATOM     12  H   UNL     1     118.718 118.167 131.984  1.00  0.00     0.211 HD
ENDBRANCH   4  11
BRANCH   6  13
ATOM     13  O   UNL     1     120.077 114.357 133.125  1.00  0.00    -0.387 OA
ATOM     14  H   UNL     1     120.138 113.425 132.764  1.00  0.00     0.211 HD
ENDBRANCH   6  13
BRANCH   7  15
ATOM     15  O   UNL     1     121.035 113.661 130.675  1.00  0.00    -0.385 OA
ATOM     16  H   UNL     1     121.560 113.562 129.837  1.00  0.00     0.211 HD
ENDBRANCH   7  15
ENDBRANCH   1   2
BRANCH   1  17
ATOM     17  C   UNL     1     124.757 115.148 131.338  1.00  0.00     0.224 C 
ATOM     18  C   UNL     1     125.273 116.615 131.309  1.00  0.00     0.208 C 
ATOM     19  O   UNL     1     125.687 114.340 130.633  1.00  0.00    -0.337 OA
ATOM     20  C   UNL     1     126.760 116.455 131.127  1.00  0.00     0.180 C 
ATOM     21  C   UNL     1     126.924 115.028 130.566  1.00  0.00     0.179 C 
BRANCH  17  22
ATOM     22  C   UNL     1     124.688 114.586 132.782  1.00  0.00     0.225 C 
BRANCH  22  23
ATOM     23  O   UNL     1     125.494 113.449 132.916  1.00  0.00    -0.391 OA
ATOM     24  H   UNL     1     126.378 113.786 133.218  1.00  0.00     0.210 HD
ENDBRANCH  22  23
ENDBRANCH  17  22
BRANCH  18  25
ATOM     25  O   UNL     1     124.971 117.321 132.484  1.00  0.00    -0.385 OA
ATOM     26  H   UNL     1     125.467 118.193 132.439  1.00  0.00     0.211 HD
ENDBRANCH  18  25
BRANCH  20  27
ATOM     27  O   UNL     1     127.242 117.469 130.279  1.00  0.00    -0.387 OA
ATOM     28  H   UNL     1     128.178 117.252 130.037  1.00  0.00     0.211 HD
ENDBRANCH  20  27
BRANCH  21  29
ATOM     29  C   UNL     1     127.541 114.903 129.134  1.00  0.00     0.191 C 
BRANCH  29  30
ATOM     30  O   UNL     1     126.561 115.029 128.135  1.00  0.00    -0.394 OA
ATOM     31  H   UNL     1     126.986 115.526 127.392  1.00  0.00     0.210 HD
ENDBRANCH  29  30
ENDBRANCH  21  29
ENDBRANCH   1  17
TORSDOF 13
ENDMDL
MODEL 4
REMARK VINA RESULT:     2.225      8.326     13.144
REMARK INTER + INTRA:           4.151
REMARK INTER:                   3.730
REMARK INTRA:                   0.421
REMARK UNBOUND:                 0.755
REMARK SMILES OC[C@@H]1O[C@](CO)(O[C@H]2O[C@@H](CO)[C@@H](O)[C@H](O)[C@@H]2O)[C@@H](O)[C@@H]1O
REMARK SMILES IDX 8 1 9 2 11 3 14 4 10 5 16 6 18 7 12 8 13 9 15 11 17 13 19 15
REMARK SMILES IDX 5 17 20 18 4 19 22 20 3 21 6 22 7 23 21 25 23 27 2 29 1 30
REMARK H PARENT 13 10 15 12 17 14 19 16 7 24 21 26 23 28 1 31
REMARK Flexibility Score: inf
ROOT
ATOM      1  O   UNL     1     113.819 121.410 131.412  1.00  0.00    -0.313 OA
ENDROOT
BRANCH   1   2
ATOM      2  C   UNL     1     113.027 122.249 130.576  1.00  0.00     0.285 C 
ATOM      3  C   UNL     1     112.562 122.799 128.343  1.00  0.00     0.178 C 
ATOM      4  C   UNL     1     111.029 122.908 128.608  1.00  0.00     0.177 C 
ATOM      5  O   UNL     1     113.199 121.867 129.217  1.00  0.00    -0.341 OA
ATOM      6  C   UNL     1     110.719 123.085 130.132  1.00  0.00     0.179 C 
ATOM      7  C   UNL     1     111.542 122.066 130.938  1.00  0.00     0.202 C 
BRANCH   3   8
ATOM      8  C   UNL     1     112.851 122.397 126.881  1.00  0.00     0.191 C 
BRANCH   8   9
ATOM      9  O   UNL     1     112.946 120.998 126.783  1.00  0.00    -0.394 OA
ATOM     10  H   UNL     1     113.315 120.678 127.652  1.00  0.00     0.210 HD
ENDBRANCH   8   9
ENDBRANCH   3   8
BRANCH   4  11
ATOM     11  O   UNL     1     110.365 121.796 128.047  1.00  0.00    -0.387 OA
ATOM     12  H   UNL     1     110.368 121.031 128.675  1.00  0.00     0.211 HD
ENDBRANCH   4  11
BRANCH   6  13
ATOM     13  O   UNL     1     111.012 124.387 130.606  1.00  0.00    -0.387 OA
ATOM     14  H   UNL     1     111.053 125.031 129.840  1.00  0.00     0.211 HD
ENDBRANCH   6  13
BRANCH   7  15
ATOM     15  O   UNL     1     111.343 122.289 132.308  1.00  0.00    -0.385 OA
ATOM     16  H   UNL     1     110.379 122.139 132.501  1.00  0.00     0.211 HD
ENDBRANCH   7  15
ENDBRANCH   1   2
BRANCH   1  17
ATOM     17  C   UNL     1     114.811 122.121 132.164  1.00  0.00     0.224 C 
ATOM     18  C   UNL     1     115.883 122.770 131.243  1.00  0.00     0.208 C 
ATOM     19  O   UNL     1     115.475 121.249 133.066  1.00  0.00    -0.337 OA
ATOM     20  C   UNL     1     117.139 122.703 132.073  1.00  0.00     0.180 C 
ATOM     21  C   UNL     1     116.843 121.614 133.125  1.00  0.00     0.179 C 
BRANCH  17  22
ATOM     22  C   UNL     1     114.075 123.176 133.030  1.00  0.00     0.225 C 
BRANCH  22  23
ATOM     23  O   UNL     1     113.367 124.078 132.227  1.00  0.00    -0.391 OA
ATOM     24  H   UNL     1     113.998 124.823 132.045  1.00  0.00     0.210 HD
ENDBRANCH  22  23
ENDBRANCH  17  22
BRANCH  18  25
ATOM     25  O   UNL     1     115.569 124.091 130.890  1.00  0.00    -0.385 OA
ATOM     26  H   UNL     1     116.386 124.647 131.072  1.00  0.00     0.211 HD
ENDBRANCH  18  25
BRANCH  20  27
ATOM     27  O   UNL     1     118.238 122.420 131.242  1.00  0.00    -0.387 OA
ATOM     28  H   UNL     1     118.631 123.280 130.946  1.00  0.00     0.211 HD
ENDBRANCH  20  27
BRANCH  21  29
ATOM     29  C   UNL     1     117.750 120.341 133.093  1.00  0.00     0.191 C 
BRANCH  29  30
ATOM     30  O   UNL     1     119.114 120.676 133.122  1.00  0.00    -0.394 OA
ATOM     31  H   UNL     1     119.189 121.566 132.696  1.00  0.00     0.210 HD
ENDBRANCH  29  30
ENDBRANCH  21  29
ENDBRANCH   1  17
TORSDOF 13
ENDMDL
MODEL 5
REMARK VINA RESULT:     2.906      1.762      5.748
REMARK INTER + INTRA:           5.190
REMARK INTER:                   5.681
REMARK INTRA:                  -0.491
REMARK UNBOUND:                 0.755
REMARK SMILES OC[C@@H]1O[C@](CO)(O[C@H]2O[C@@H](CO)[C@@H](O)[C@H](O)[C@@H]2O)[C@@H](O)[C@@H]1O
REMARK SMILES IDX 8 1 9 2 11 3 14 4 10 5 16 6 18 7 12 8 13 9 15 11 17 13 19 15
REMARK SMILES IDX 5 17 20 18 4 19 22 20 3 21 6 22 7 23 21 25 23 27 2 29 1 30
REMARK H PARENT 13 10 15 12 17 14 19 16 7 24 21 26 23 28 1 31
REMARK Flexibility Score: inf
ROOT
ATOM      1  O   UNL     1     125.151 115.267 131.767  1.00  0.00    -0.313 OA
ENDROOT
BRANCH   1   2
ATOM      2  C   UNL     1     123.782 115.601 131.558  1.00  0.00     0.285 C 
ATOM      3  C   UNL     1     121.685 114.719 130.982  1.00  0.00     0.178 C 
ATOM      4  C   UNL     1     120.942 115.583 132.046  1.00  0.00     0.177 C 
ATOM      5  O   UNL     1     123.025 114.412 131.371  1.00  0.00    -0.341 OA
ATOM      6  C   UNL     1     121.811 116.801 132.508  1.00  0.00     0.179 C 
ATOM      7  C   UNL     1     123.241 116.318 132.808  1.00  0.00     0.202 C 
BRANCH   3   8
ATOM      8  C   UNL     1     120.928 113.403 130.701  1.00  0.00     0.191 C 
BRANCH   8   9
ATOM      9  O   UNL     1     120.640 113.304 129.328  1.00  0.00    -0.394 OA
ATOM     10  H   UNL     1     119.838 113.872 129.167  1.00  0.00     0.210 HD
ENDBRANCH   8   9
ENDBRANCH   3   8
BRANCH   4  11
ATOM     11  O   UNL     1     120.535 114.770 133.125  1.00  0.00    -0.387 OA
ATOM     12  H   UNL     1     121.309 114.516 133.687  1.00  0.00     0.211 HD
ENDBRANCH   4  11
BRANCH   6  13
ATOM     13  O   UNL     1     121.871 117.833 131.541  1.00  0.00    -0.387 OA
ATOM     14  H   UNL     1     121.048 118.403 131.593  1.00  0.00     0.211 HD
ENDBRANCH   6  13
BRANCH   7  15
ATOM     15  O   UNL     1     124.045 117.421 133.125  1.00  0.00    -0.385 OA
ATOM     16  H   UNL     1     123.685 118.208 132.636  1.00  0.00     0.211 HD
ENDBRANCH   7  15
ENDBRANCH   1   2
BRANCH   1  17
ATOM     17  C   UNL     1     125.802 114.758 130.595  1.00  0.00     0.224 C 
ATOM     18  C   UNL     1     127.157 115.472 130.328  1.00  0.00     0.208 C 
ATOM     19  O   UNL     1     124.980 114.931 129.451  1.00  0.00    -0.337 OA
ATOM     20  C   UNL     1     127.256 115.477 128.825  1.00  0.00     0.180 C 
ATOM     21  C   UNL     1     125.805 115.262 128.347  1.00  0.00     0.179 C 
BRANCH  17  22
ATOM     22  C   UNL     1     125.979 113.229 130.785  1.00  0.00     0.225 C 
BRANCH  22  23
ATOM     23  O   UNL     1     126.571 112.943 132.021  1.00  0.00    -0.391 OA
ATOM     24  H   UNL     1     127.457 112.552 131.806  1.00  0.00     0.210 HD
ENDBRANCH  22  23
ENDBRANCH  17  22
BRANCH  18  25
ATOM     25  O   UNL     1     128.246 114.807 130.913  1.00  0.00    -0.385 OA
ATOM     26  H   UNL     1     128.249 113.871 130.550  1.00  0.00     0.211 HD
ENDBRANCH  18  25
BRANCH  20  27
ATOM     27  O   UNL     1     127.833 116.686 128.395  1.00  0.00    -0.387 OA
ATOM     28  H   UNL     1     127.102 117.325 128.198  1.00  0.00     0.211 HD
ENDBRANCH  20  27
BRANCH  21  29
ATOM     29  C   UNL     1     125.162 116.418 127.512  1.00  0.00     0.191 C 
BRANCH  29  30
ATOM     30  O   UNL     1     124.787 115.982 126.230  1.00  0.00    -0.394 OA
ATOM     31  H   UNL     1     125.149 116.650 125.594  1.00  0.00     0.210 HD
ENDBRANCH  29  30
ENDBRANCH  21  29
ENDBRANCH   1  17
TORSDOF 13
ENDMDL
MODEL 6
REMARK VINA RESULT:     2.976      1.337      5.906
REMARK INTER + INTRA:           5.297
REMARK INTER:                   6.495
REMARK INTRA:                  -1.198
REMARK UNBOUND:                 0.755
REMARK SMILES OC[C@@H]1O[C@](CO)(O[C@H]2O[C@@H](CO)[C@@H](O)[C@H](O)[C@@H]2O)[C@@H](O)[C@@H]1O
REMARK SMILES IDX 8 1 9 2 11 3 14 4 10 5 16 6 18 7 12 8 13 9 15 11 17 13 19 15
REMARK SMILES IDX 5 17 20 18 4 19 22 20 3 21 6 22 7 23 21 25 23 27 2 29 1 30
REMARK H PARENT 13 10 15 12 17 14 19 16 7 24 21 26 23 28 1 31
REMARK Flexibility Score: inf
ROOT
ATOM      1  O   UNL     1     123.864 114.118 130.627  1.00  0.00    -0.313 OA
ENDROOT
BRANCH   1   2
ATOM      2  C   UNL     1     122.911 115.069 131.094  1.00  0.00     0.285 C 
ATOM      3  C   UNL     1     120.662 115.722 130.950  1.00  0.00     0.178 C 
ATOM      4  C   UNL     1     120.569 116.018 132.478  1.00  0.00     0.177 C 
ATOM      5  O   UNL     1     121.612 114.698 130.652  1.00  0.00    -0.341 OA
ATOM      6  C   UNL     1     121.987 116.199 133.117  1.00  0.00     0.179 C 
ATOM      7  C   UNL     1     122.909 115.067 132.634  1.00  0.00     0.202 C 
BRANCH   3   8
ATOM      8  C   UNL     1     119.289 115.319 130.372  1.00  0.00     0.191 C 
BRANCH   8   9
ATOM      9  O   UNL     1     118.268 116.012 131.047  1.00  0.00    -0.394 OA
ATOM     10  H   UNL     1     117.943 116.716 130.421  1.00  0.00     0.210 HD
ENDBRANCH   8   9
ENDBRANCH   3   8
BRANCH   4  11
ATOM     11  O   UNL     1     119.814 115.012 133.116  1.00  0.00    -0.387 OA
ATOM     12  H   UNL     1     119.349 114.444 132.452  1.00  0.00     0.211 HD
ENDBRANCH   4  11
BRANCH   6  13
ATOM     13  O   UNL     1     122.582 117.442 132.794  1.00  0.00    -0.387 OA
ATOM     14  H   UNL     1     122.576 117.579 131.801  1.00  0.00     0.211 HD
ENDBRANCH   6  13
BRANCH   7  15
ATOM     15  O   UNL     1     124.204 115.283 133.124  1.00  0.00    -0.385 OA
ATOM     16  H   UNL     1     124.397 114.573 133.792  1.00  0.00     0.211 HD
ENDBRANCH   7  15
ENDBRANCH   1   2
BRANCH   1  17
ATOM     17  C   UNL     1     124.950 114.705 129.898  1.00  0.00     0.224 C 
ATOM     18  C   UNL     1     126.292 113.966 130.161  1.00  0.00     0.208 C 
ATOM     19  O   UNL     1     125.118 116.067 130.261  1.00  0.00    -0.337 OA
ATOM     20  C   UNL     1     127.317 115.067 130.074  1.00  0.00     0.180 C 
ATOM     21  C   UNL     1     126.504 116.361 130.283  1.00  0.00     0.179 C 
BRANCH  17  22
ATOM     22  C   UNL     1     124.566 114.692 128.396  1.00  0.00     0.225 C 
BRANCH  22  23
ATOM     23  O   UNL     1     125.038 115.839 127.747  1.00  0.00    -0.391 OA
ATOM     24  H   UNL     1     124.748 115.747 126.802  1.00  0.00     0.210 HD
ENDBRANCH  22  23
ENDBRANCH  17  22
BRANCH  18  25
ATOM     25  O   UNL     1     126.547 112.950 129.227  1.00  0.00    -0.385 OA
ATOM     26  H   UNL     1     125.663 112.689 128.828  1.00  0.00     0.211 HD
ENDBRANCH  18  25
BRANCH  20  27
ATOM     27  O   UNL     1     128.321 114.853 131.035  1.00  0.00    -0.387 OA
ATOM     28  H   UNL     1     128.584 115.732 131.410  1.00  0.00     0.211 HD
ENDBRANCH  20  27
BRANCH  21  29
ATOM     29  C   UNL     1     126.860 117.218 131.542  1.00  0.00     0.191 C 
BRANCH  29  30
ATOM     30  O   UNL     1     125.706 117.711 132.176  1.00  0.00    -0.394 OA
ATOM     31  H   UNL     1     125.142 116.922 132.373  1.00  0.00     0.210 HD
ENDBRANCH  29  30
ENDBRANCH  21  29
ENDBRANCH   1  17
TORSDOF 13
ENDMDL
