MODEL 1
REMARK VINA RESULT:    -7.559      0.000      0.000
REMARK INTER + INTRA:          -9.160
REMARK INTER:                  -8.884
REMARK INTRA:                  -0.276
REMARK UNBOUND:                -0.276
REMARK SMILES O=c1c(O)c(-c2ccc(O)cc2)oc2cc(O)cc(O)c12
REMARK SMILES IDX 5 1 3 2 2 3 1 4 21 5 19 6 18 7 16 8 15 9 14 10 13 11 6 12
REMARK SMILES IDX 7 13 8 14 9 15 12 16 11 17 10 18 4 20 20 22 17 24
REMARK H PARENT 10 19 4 21 20 23 17 25
REMARK Flexibility Score: inf
ROOT
ATOM      1  C   UNL     1     165.029 152.777 150.703  1.00  0.00     0.180 A 
ATOM      2  C   UNL     1     165.518 152.635 149.393  1.00  0.00     0.208 A 
ATOM      3  C   UNL     1     165.257 151.445 148.694  1.00  0.00     0.238 A 
ATOM      4  O   UNL     1     165.760 151.294 147.551  1.00  0.00    -0.285 OA
ATOM      5  C   UNL     1     164.463 150.436 149.292  1.00  0.00     0.111 A 
ATOM      6  C   UNL     1     164.097 149.209 148.659  1.00  0.00     0.134 A 
ATOM      7  C   UNL     1     163.396 148.239 149.388  1.00  0.00     0.093 A 
ATOM      8  C   UNL     1     162.993 148.477 150.704  1.00  0.00     0.123 A 
ATOM      9  C   UNL     1     163.298 149.693 151.310  1.00  0.00     0.094 A 
ATOM     10  C   UNL     1     164.028 150.665 150.624  1.00  0.00     0.146 A 
ATOM     11  O   UNL     1     164.315 151.800 151.249  1.00  0.00    -0.452 OA
ENDROOT
BRANCH   1  12
ATOM     12  C   UNL     1     165.275 153.996 151.508  1.00  0.00     0.021 A 
ATOM     13  C   UNL     1     166.367 154.031 152.391  1.00  0.00     0.016 A 
ATOM     14  C   UNL     1     166.632 155.179 153.144  1.00  0.00     0.047 A 
ATOM     15  C   UNL     1     165.821 156.310 153.012  1.00  0.00     0.115 A 
ATOM     16  C   UNL     1     164.475 155.144 151.365  1.00  0.00     0.016 A 
ATOM     17  C   UNL     1     164.743 156.290 152.118  1.00  0.00     0.047 A 
BRANCH  15  18
ATOM     18  O   UNL     1     166.098 157.446 153.769  1.00  0.00    -0.508 OA
ATOM     19  H   UNL     1     165.400 158.167 153.914  1.00  0.00     0.293 HD
ENDBRANCH  15  18
ENDBRANCH   1  12
BRANCH   2  20
ATOM     20  O   UNL     1     166.235 153.673 148.792  1.00  0.00    -0.502 OA
ATOM     21  H   UNL     1     167.234 153.785 148.911  1.00  0.00     0.293 HD
ENDBRANCH   2  20
BRANCH   6  22
ATOM     22  O   UNL     1     164.372 148.904 147.323  1.00  0.00    -0.507 OA
ATOM     23  H   UNL     1     165.282 148.961 146.893  1.00  0.00     0.293 HD
ENDBRANCH   6  22
BRANCH   8  24
ATOM     24  O   UNL     1     162.281 147.513 151.415  1.00  0.00    -0.508 OA
ATOM     25  H   UNL     1     162.413 147.384 152.411  1.00  0.00     0.293 HD
ENDBRANCH   8  24
TORSDOF 5
ENDMDL
MODEL 2
REMARK VINA RESULT:    -7.517      4.702      7.046
REMARK INTER + INTRA:          -9.111
REMARK INTER:                  -8.852
REMARK INTRA:                  -0.259
REMARK UNBOUND:                -0.276
REMARK SMILES O=c1c(O)c(-c2ccc(O)cc2)oc2cc(O)cc(O)c12
REMARK SMILES IDX 5 1 3 2 2 3 1 4 21 5 19 6 18 7 16 8 15 9 14 10 13 11 6 12
REMARK SMILES IDX 7 13 8 14 9 15 12 16 11 17 10 18 4 20 20 22 17 24
REMARK H PARENT 10 19 4 21 20 23 17 25
REMARK Flexibility Score: inf
ROOT
ATOM      1  C   UNL     1     167.709 151.291 147.256  1.00  0.00     0.180 A 
ATOM      2  C   UNL     1     168.589 152.381 147.365  1.00  0.00     0.208 A 
ATOM      3  C   UNL     1     169.970 152.137 147.437  1.00  0.00     0.238 A 
ATOM      4  O   UNL     1     170.747 153.112 147.609  1.00  0.00    -0.285 OA
ATOM      5  C   UNL     1     170.457 150.810 147.341  1.00  0.00     0.111 A 
ATOM      6  C   UNL     1     171.838 150.450 147.356  1.00  0.00     0.134 A 
ATOM      7  C   UNL     1     172.198 149.095 147.363  1.00  0.00     0.093 A 
ATOM      8  C   UNL     1     171.229 148.092 147.290  1.00  0.00     0.123 A 
ATOM      9  C   UNL     1     169.882 148.436 147.219  1.00  0.00     0.094 A 
ATOM     10  C   UNL     1     169.490 149.776 147.249  1.00  0.00     0.146 A 
ATOM     11  O   UNL     1     168.193 150.057 147.202  1.00  0.00    -0.452 OA
ENDROOT
BRANCH   1  12
ATOM     12  C   UNL     1     166.240 151.468 147.190  1.00  0.00     0.021 A 
ATOM     13  C   UNL     1     165.640 151.818 145.968  1.00  0.00     0.016 A 
ATOM     14  C   UNL     1     164.253 151.968 145.877  1.00  0.00     0.047 A 
ATOM     15  C   UNL     1     163.447 151.755 146.999  1.00  0.00     0.115 A 
ATOM     16  C   UNL     1     165.422 151.237 148.311  1.00  0.00     0.016 A 
ATOM     17  C   UNL     1     164.035 151.386 148.216  1.00  0.00     0.047 A 
BRANCH  15  18
ATOM     18  O   UNL     1     162.066 151.909 146.894  1.00  0.00    -0.508 OA
ATOM     19  H   UNL     1     161.590 152.703 147.305  1.00  0.00     0.293 HD
ENDBRANCH  15  18
ENDBRANCH   1  12
BRANCH   2  20
ATOM     20  O   UNL     1     168.094 153.688 147.381  1.00  0.00    -0.502 OA
ATOM     21  H   UNL     1     167.189 153.923 147.771  1.00  0.00     0.293 HD
ENDBRANCH   2  20
BRANCH   6  22
ATOM     22  O   UNL     1     172.890 151.371 147.341  1.00  0.00    -0.507 OA
ATOM     23  H   UNL     1     172.805 152.348 147.575  1.00  0.00     0.293 HD
ENDBRANCH   6  22
BRANCH   8  24
ATOM     24  O   UNL     1     171.598 146.748 147.279  1.00  0.00    -0.508 OA
ATOM     25  H   UNL     1     171.211 146.087 147.942  1.00  0.00     0.293 HD
ENDBRANCH   8  24
TORSDOF 5
ENDMDL
MODEL 3
REMARK VINA RESULT:    -7.499      1.257      3.132
REMARK INTER + INTRA:          -9.090
REMARK INTER:                  -8.821
REMARK INTRA:                  -0.269
REMARK UNBOUND:                -0.276
REMARK SMILES O=c1c(O)c(-c2ccc(O)cc2)oc2cc(O)cc(O)c12
REMARK SMILES IDX 5 1 3 2 2 3 1 4 21 5 19 6 18 7 16 8 15 9 14 10 13 11 6 12
REMARK SMILES IDX 7 13 8 14 9 15 12 16 11 17 10 18 4 20 20 22 17 24
REMARK H PARENT 10 19 4 21 20 23 17 25
REMARK Flexibility Score: inf
ROOT
ATOM      1  C   UNL     1     164.879 153.122 151.265  1.00  0.00     0.180 A 
ATOM      2  C   UNL     1     164.027 152.220 151.926  1.00  0.00     0.208 A 
ATOM      3  C   UNL     1     163.687 151.014 151.292  1.00  0.00     0.238 A 
ATOM      4  O   UNL     1     162.866 150.246 151.857  1.00  0.00    -0.285 OA
ATOM      5  C   UNL     1     164.247 150.699 150.030  1.00  0.00     0.111 A 
ATOM      6  C   UNL     1     164.008 149.486 149.316  1.00  0.00     0.134 A 
ATOM      7  C   UNL     1     164.532 149.329 148.026  1.00  0.00     0.093 A 
ATOM      8  C   UNL     1     165.338 150.315 147.451  1.00  0.00     0.123 A 
ATOM      9  C   UNL     1     165.622 151.477 148.162  1.00  0.00     0.094 A 
ATOM     10  C   UNL     1     165.083 151.680 149.435  1.00  0.00     0.146 A 
ATOM     11  O   UNL     1     165.362 152.813 150.067  1.00  0.00    -0.452 OA
ENDROOT
BRANCH   1  12
ATOM     12  C   UNL     1     165.270 154.419 151.862  1.00  0.00     0.021 A 
ATOM     13  C   UNL     1     164.567 155.583 151.510  1.00  0.00     0.016 A 
ATOM     14  C   UNL     1     164.904 156.814 152.079  1.00  0.00     0.047 A 
ATOM     15  C   UNL     1     165.937 156.897 153.018  1.00  0.00     0.115 A 
ATOM     16  C   UNL     1     166.295 154.505 152.822  1.00  0.00     0.016 A 
ATOM     17  C   UNL     1     166.629 155.737 153.390  1.00  0.00     0.047 A 
BRANCH  15  18
ATOM     18  O   UNL     1     166.262 158.131 153.576  1.00  0.00    -0.508 OA
ATOM     19  H   UNL     1     166.875 158.202 154.380  1.00  0.00     0.293 HD
ENDBRANCH  15  18
ENDBRANCH   1  12
BRANCH   2  20
ATOM     20  O   UNL     1     163.545 152.515 153.205  1.00  0.00    -0.502 OA
ATOM     21  H   UNL     1     163.909 152.071 154.039  1.00  0.00     0.293 HD
ENDBRANCH   2  20
BRANCH   6  22
ATOM     22  O   UNL     1     163.291 148.401 149.831  1.00  0.00    -0.507 OA
ATOM     23  H   UNL     1     163.701 147.537 150.150  1.00  0.00     0.293 HD
ENDBRANCH   6  22
BRANCH   8  24
ATOM     24  O   UNL     1     165.870 150.142 146.174  1.00  0.00    -0.508 OA
ATOM     25  H   UNL     1     166.867 150.050 146.024  1.00  0.00     0.293 HD
ENDBRANCH   8  24
TORSDOF 5
ENDMDL
MODEL 4
REMARK VINA RESULT:    -7.308      5.275      8.287
REMARK INTER + INTRA:          -8.866
REMARK INTER:                  -8.672
REMARK INTRA:                  -0.194
REMARK UNBOUND:                -0.276
REMARK SMILES O=c1c(O)c(-c2ccc(O)cc2)oc2cc(O)cc(O)c12
REMARK SMILES IDX 5 1 3 2 2 3 1 4 21 5 19 6 18 7 16 8 15 9 14 10 13 11 6 12
REMARK SMILES IDX 7 13 8 14 9 15 12 16 11 17 10 18 4 20 20 22 17 24
REMARK H PARENT 10 19 4 21 20 23 17 25
REMARK Flexibility Score: inf
ROOT
ATOM      1  C   UNL     1     169.451 149.591 146.981  1.00  0.00     0.180 A 
ATOM      2  C   UNL     1     170.063 150.836 147.205  1.00  0.00     0.208 A 
ATOM      3  C   UNL     1     169.269 151.994 147.212  1.00  0.00     0.238 A 
ATOM      4  O   UNL     1     169.834 153.112 147.340  1.00  0.00    -0.285 OA
ATOM      5  C   UNL     1     167.866 151.888 147.051  1.00  0.00     0.111 A 
ATOM      6  C   UNL     1     166.959 152.990 147.086  1.00  0.00     0.134 A 
ATOM      7  C   UNL     1     165.602 152.777 146.808  1.00  0.00     0.093 A 
ATOM      8  C   UNL     1     165.111 151.493 146.559  1.00  0.00     0.123 A 
ATOM      9  C   UNL     1     165.979 150.405 146.578  1.00  0.00     0.094 A 
ATOM     10  C   UNL     1     167.343 150.590 146.814  1.00  0.00     0.146 A 
ATOM     11  O   UNL     1     168.137 149.527 146.800  1.00  0.00    -0.452 OA
ENDROOT
BRANCH   1  12
ATOM     12  C   UNL     1     170.223 148.328 146.944  1.00  0.00     0.021 A 
ATOM     13  C   UNL     1     170.012 147.360 147.941  1.00  0.00     0.016 A 
ATOM     14  C   UNL     1     170.713 146.151 147.914  1.00  0.00     0.047 A 
ATOM     15  C   UNL     1     171.621 145.886 146.884  1.00  0.00     0.115 A 
ATOM     16  C   UNL     1     171.123 148.048 145.900  1.00  0.00     0.016 A 
ATOM     17  C   UNL     1     171.822 146.837 145.875  1.00  0.00     0.047 A 
BRANCH  15  18
ATOM     18  O   UNL     1     172.313 144.677 146.871  1.00  0.00    -0.508 OA
ATOM     19  H   UNL     1     172.301 144.053 147.669  1.00  0.00     0.293 HD
ENDBRANCH  15  18
ENDBRANCH   1  12
BRANCH   2  20
ATOM     20  O   UNL     1     171.439 150.912 147.438  1.00  0.00    -0.502 OA
ATOM     21  H   UNL     1     171.863 151.677 147.950  1.00  0.00     0.293 HD
ENDBRANCH   2  20
BRANCH   6  22
ATOM     22  O   UNL     1     167.328 154.299 147.410  1.00  0.00    -0.507 OA
ATOM     23  H   UNL     1     167.469 154.644 148.347  1.00  0.00     0.293 HD
ENDBRANCH   6  22
BRANCH   8  24
ATOM     24  O   UNL     1     163.757 151.289 146.302  1.00  0.00    -0.508 OA
ATOM     25  H   UNL     1     163.049 151.927 146.647  1.00  0.00     0.293 HD
ENDBRANCH   8  24
TORSDOF 5
ENDMDL
MODEL 5
REMARK VINA RESULT:    -7.295      1.682      2.459
REMARK INTER + INTRA:          -8.850
REMARK INTER:                  -8.584
REMARK INTRA:                  -0.266
REMARK UNBOUND:                -0.276
REMARK SMILES O=c1c(O)c(-c2ccc(O)cc2)oc2cc(O)cc(O)c12
REMARK SMILES IDX 5 1 3 2 2 3 1 4 21 5 19 6 18 7 16 8 15 9 14 10 13 11 6 12
REMARK SMILES IDX 7 13 8 14 9 15 12 16 11 17 10 18 4 20 20 22 17 24
REMARK H PARENT 10 19 4 21 20 23 17 25
REMARK Flexibility Score: inf
ROOT
ATOM      1  C   UNL     1     166.453 153.483 150.021  1.00  0.00     0.180 A 
ATOM      2  C   UNL     1     167.538 153.388 149.134  1.00  0.00     0.208 A 
ATOM      3  C   UNL     1     167.580 152.323 148.219  1.00  0.00     0.238 A 
ATOM      4  O   UNL     1     168.590 152.202 147.479  1.00  0.00    -0.285 OA
ATOM      5  C   UNL     1     166.509 151.398 148.166  1.00  0.00     0.111 A 
ATOM      6  C   UNL     1     166.423 150.307 147.249  1.00  0.00     0.134 A 
ATOM      7  C   UNL     1     165.367 149.393 147.359  1.00  0.00     0.093 A 
ATOM      8  C   UNL     1     164.359 149.568 148.310  1.00  0.00     0.123 A 
ATOM      9  C   UNL     1     164.405 150.661 149.172  1.00  0.00     0.094 A 
ATOM     10  C   UNL     1     165.465 151.567 149.113  1.00  0.00     0.146 A 
ATOM     11  O   UNL     1     165.479 152.582 149.969  1.00  0.00    -0.452 OA
ENDROOT
BRANCH   1  12
ATOM     12  C   UNL     1     166.346 154.568 151.022  1.00  0.00     0.021 A 
ATOM     13  C   UNL     1     165.845 155.822 150.632  1.00  0.00     0.016 A 
ATOM     14  C   UNL     1     165.714 156.855 151.565  1.00  0.00     0.047 A 
ATOM     15  C   UNL     1     166.066 156.644 152.902  1.00  0.00     0.115 A 
ATOM     16  C   UNL     1     166.679 154.357 152.373  1.00  0.00     0.016 A 
ATOM     17  C   UNL     1     166.546 155.391 153.304  1.00  0.00     0.047 A 
BRANCH  15  18
ATOM     18  O   UNL     1     165.930 157.682 153.820  1.00  0.00    -0.508 OA
ATOM     19  H   UNL     1     165.543 158.579 153.551  1.00  0.00     0.293 HD
ENDBRANCH  15  18
ENDBRANCH   1  12
BRANCH   2  20
ATOM     20  O   UNL     1     168.548 154.354 149.150  1.00  0.00    -0.502 OA
ATOM     21  H   UNL     1     169.199 154.449 149.921  1.00  0.00     0.293 HD
ENDBRANCH   2  20
BRANCH   6  22
ATOM     22  O   UNL     1     167.327 150.088 146.204  1.00  0.00    -0.507 OA
ATOM     23  H   UNL     1     167.160 150.320 145.237  1.00  0.00     0.293 HD
ENDBRANCH   6  22
BRANCH   8  24
ATOM     24  O   UNL     1     163.302 148.664 148.400  1.00  0.00    -0.508 OA
ATOM     25  H   UNL     1     162.863 148.449 149.288  1.00  0.00     0.293 HD
ENDBRANCH   8  24
TORSDOF 5
ENDMDL
MODEL 6
REMARK VINA RESULT:    -7.129      7.903      9.358
REMARK INTER + INTRA:          -8.656
REMARK INTER:                  -8.370
REMARK INTRA:                  -0.285
REMARK UNBOUND:                -0.276
REMARK SMILES O=c1c(O)c(-c2ccc(O)cc2)oc2cc(O)cc(O)c12
REMARK SMILES IDX 5 1 3 2 2 3 1 4 21 5 19 6 18 7 16 8 15 9 14 10 13 11 6 12
REMARK SMILES IDX 7 13 8 14 9 15 12 16 11 17 10 18 4 20 20 22 17 24
REMARK H PARENT 10 19 4 21 20 23 17 25
REMARK Flexibility Score: inf
ROOT
ATOM      1  C   UNL     1     168.622 145.054 154.102  1.00  0.00     0.180 A 
ATOM      2  C   UNL     1     168.505 143.693 154.433  1.00  0.00     0.208 A 
ATOM      3  C   UNL     1     168.369 142.750 153.401  1.00  0.00     0.238 A 
ATOM      4  O   UNL     1     168.190 141.543 153.707  1.00  0.00    -0.285 OA
ATOM      5  C   UNL     1     168.408 143.174 152.051  1.00  0.00     0.111 A 
ATOM      6  C   UNL     1     168.326 142.300 150.924  1.00  0.00     0.134 A 
ATOM      7  C   UNL     1     168.268 142.842 149.633  1.00  0.00     0.093 A 
ATOM      8  C   UNL     1     168.355 144.221 149.425  1.00  0.00     0.123 A 
ATOM      9  C   UNL     1     168.492 145.076 150.515  1.00  0.00     0.094 A 
ATOM     10  C   UNL     1     168.513 144.569 151.817  1.00  0.00     0.146 A 
ATOM     11  O   UNL     1     168.623 145.423 152.827  1.00  0.00    -0.452 OA
ENDROOT
BRANCH   1  12
ATOM     12  C   UNL     1     168.754 146.108 155.134  1.00  0.00     0.021 A 
ATOM     13  C   UNL     1     167.600 146.735 155.633  1.00  0.00     0.016 A 
ATOM     14  C   UNL     1     167.699 147.716 156.624  1.00  0.00     0.047 A 
ATOM     15  C   UNL     1     168.949 148.072 157.140  1.00  0.00     0.115 A 
ATOM     16  C   UNL     1     170.007 146.456 155.671  1.00  0.00     0.016 A 
ATOM     17  C   UNL     1     170.103 147.436 156.663  1.00  0.00     0.047 A 
BRANCH  15  18
ATOM     18  O   UNL     1     169.032 149.051 158.127  1.00  0.00    -0.508 OA
ATOM     19  H   UNL     1     169.925 149.346 158.505  1.00  0.00     0.293 HD
ENDBRANCH  15  18
ENDBRANCH   1  12
BRANCH   2  20
ATOM     20  O   UNL     1     168.545 143.288 155.770  1.00  0.00    -0.502 OA
ATOM     21  H   UNL     1     168.250 143.888 156.530  1.00  0.00     0.293 HD
ENDBRANCH   2  20
BRANCH   6  22
ATOM     22  O   UNL     1     168.322 140.905 151.012  1.00  0.00    -0.507 OA
ATOM     23  H   UNL     1     169.147 140.325 151.040  1.00  0.00     0.293 HD
ENDBRANCH   6  22
BRANCH   8  24
ATOM     24  O   UNL     1     168.315 144.750 148.137  1.00  0.00    -0.508 OA
ATOM     25  H   UNL     1     168.864 145.561 147.880  1.00  0.00     0.293 HD
ENDBRANCH   8  24
TORSDOF 5
ENDMDL
MODEL 7
REMARK VINA RESULT:    -7.119      2.833      4.927
REMARK INTER + INTRA:          -8.643
REMARK INTER:                  -8.357
REMARK INTRA:                  -0.287
REMARK UNBOUND:                -0.276
REMARK SMILES O=c1c(O)c(-c2ccc(O)cc2)oc2cc(O)cc(O)c12
REMARK SMILES IDX 5 1 3 2 2 3 1 4 21 5 19 6 18 7 16 8 15 9 14 10 13 11 6 12
REMARK SMILES IDX 7 13 8 14 9 15 12 16 11 17 10 18 4 20 20 22 17 24
REMARK H PARENT 10 19 4 21 20 23 17 25
REMARK Flexibility Score: inf
ROOT
ATOM      1  C   UNL     1     165.832 152.353 149.843  1.00  0.00     0.180 A 
ATOM      2  C   UNL     1     165.381 151.302 149.026  1.00  0.00     0.208 A 
ATOM      3  C   UNL     1     166.191 150.870 147.962  1.00  0.00     0.238 A 
ATOM      4  O   UNL     1     165.749 149.980 147.190  1.00  0.00    -0.285 OA
ATOM      5  C   UNL     1     167.465 151.456 147.764  1.00  0.00     0.111 A 
ATOM      6  C   UNL     1     168.388 151.066 146.747  1.00  0.00     0.134 A 
ATOM      7  C   UNL     1     169.576 151.790 146.579  1.00  0.00     0.093 A 
ATOM      8  C   UNL     1     169.903 152.846 147.432  1.00  0.00     0.123 A 
ATOM      9  C   UNL     1     169.035 153.197 148.461  1.00  0.00     0.094 A 
ATOM     10  C   UNL     1     167.825 152.521 148.631  1.00  0.00     0.146 A 
ATOM     11  O   UNL     1     167.017 152.904 149.612  1.00  0.00    -0.452 OA
ENDROOT
BRANCH   1  12
ATOM     12  C   UNL     1     165.029 152.872 150.973  1.00  0.00     0.021 A 
ATOM     13  C   UNL     1     164.062 153.864 150.736  1.00  0.00     0.016 A 
ATOM     14  C   UNL     1     163.276 154.352 151.784  1.00  0.00     0.047 A 
ATOM     15  C   UNL     1     163.434 153.846 153.078  1.00  0.00     0.115 A 
ATOM     16  C   UNL     1     165.170 152.353 152.273  1.00  0.00     0.016 A 
ATOM     17  C   UNL     1     164.382 152.842 153.319  1.00  0.00     0.047 A 
BRANCH  15  18
ATOM     18  O   UNL     1     162.645 154.343 154.112  1.00  0.00    -0.508 OA
ATOM     19  H   UNL     1     162.055 155.157 153.983  1.00  0.00     0.293 HD
ENDBRANCH  15  18
ENDBRANCH   1  12
BRANCH   2  20
ATOM     20  O   UNL     1     164.154 150.685 149.284  1.00  0.00    -0.502 OA
ATOM     21  H   UNL     1     163.877 149.817 148.842  1.00  0.00     0.293 HD
ENDBRANCH   2  20
BRANCH   6  22
ATOM     22  O   UNL     1     168.202 149.972 145.897  1.00  0.00    -0.507 OA
ATOM     23  H   UNL     1     168.939 149.376 145.553  1.00  0.00     0.293 HD
ENDBRANCH   6  22
BRANCH   8  24
ATOM     24  O   UNL     1     171.096 153.548 147.268  1.00  0.00    -0.508 OA
ATOM     25  H   UNL     1     171.282 154.403 147.779  1.00  0.00     0.293 HD
ENDBRANCH   8  24
TORSDOF 5
ENDMDL
MODEL 8
REMARK VINA RESULT:    -7.082      2.637      3.659
REMARK INTER + INTRA:          -8.600
REMARK INTER:                  -8.306
REMARK INTRA:                  -0.294
REMARK UNBOUND:                -0.276
REMARK SMILES O=c1c(O)c(-c2ccc(O)cc2)oc2cc(O)cc(O)c12
REMARK SMILES IDX 5 1 3 2 2 3 1 4 21 5 19 6 18 7 16 8 15 9 14 10 13 11 6 12
REMARK SMILES IDX 7 13 8 14 9 15 12 16 11 17 10 18 4 20 20 22 17 24
REMARK H PARENT 10 19 4 21 20 23 17 25
REMARK Flexibility Score: inf
ROOT
ATOM      1  C   UNL     1     166.093 152.504 149.995  1.00  0.00     0.180 A 
ATOM      2  C   UNL     1     167.364 152.956 149.601  1.00  0.00     0.208 A 
ATOM      3  C   UNL     1     167.980 152.369 148.484  1.00  0.00     0.238 A 
ATOM      4  O   UNL     1     169.148 152.727 148.182  1.00  0.00    -0.285 OA
ATOM      5  C   UNL     1     167.294 151.377 147.742  1.00  0.00     0.111 A 
ATOM      6  C   UNL     1     167.804 150.746 146.567  1.00  0.00     0.134 A 
ATOM      7  C   UNL     1     167.081 149.700 145.976  1.00  0.00     0.093 A 
ATOM      8  C   UNL     1     165.839 149.308 146.480  1.00  0.00     0.123 A 
ATOM      9  C   UNL     1     165.309 149.955 147.593  1.00  0.00     0.094 A 
ATOM     10  C   UNL     1     166.023 150.975 148.227  1.00  0.00     0.146 A 
ATOM     11  O   UNL     1     165.489 151.549 149.298  1.00  0.00    -0.452 OA
ENDROOT
BRANCH   1  12
ATOM     12  C   UNL     1     165.386 153.064 151.170  1.00  0.00     0.021 A 
ATOM     13  C   UNL     1     164.535 154.169 151.002  1.00  0.00     0.016 A 
ATOM     14  C   UNL     1     163.840 154.700 152.093  1.00  0.00     0.047 A 
ATOM     15  C   UNL     1     163.973 154.125 153.360  1.00  0.00     0.115 A 
ATOM     16  C   UNL     1     165.501 152.478 152.444  1.00  0.00     0.016 A 
ATOM     17  C   UNL     1     164.804 153.010 153.532  1.00  0.00     0.047 A 
BRANCH  15  18
ATOM     18  O   UNL     1     163.275 154.665 154.438  1.00  0.00    -0.508 OA
ATOM     19  H   UNL     1     163.296 155.658 154.637  1.00  0.00     0.293 HD
ENDBRANCH  15  18
ENDBRANCH   1  12
BRANCH   2  20
ATOM     20  O   UNL     1     167.992 153.990 150.301  1.00  0.00    -0.502 OA
ATOM     21  H   UNL     1     168.441 153.847 151.197  1.00  0.00     0.293 HD
ENDBRANCH   2  20
BRANCH   6  22
ATOM     22  O   UNL     1     168.990 151.118 145.928  1.00  0.00    -0.507 OA
ATOM     23  H   UNL     1     169.910 150.789 146.180  1.00  0.00     0.293 HD
ENDBRANCH   6  22
BRANCH   8  24
ATOM     24  O   UNL     1     165.119 148.279 145.875  1.00  0.00    -0.508 OA
ATOM     25  H   UNL     1     165.095 148.170 144.868  1.00  0.00     0.293 HD
ENDBRANCH   8  24
TORSDOF 5
ENDMDL
MODEL 9
REMARK VINA RESULT:    -7.015      3.119      4.780
REMARK INTER + INTRA:          -8.521
REMARK INTER:                  -8.295
REMARK INTRA:                  -0.226
REMARK UNBOUND:                -0.276
REMARK SMILES O=c1c(O)c(-c2ccc(O)cc2)oc2cc(O)cc(O)c12
REMARK SMILES IDX 5 1 3 2 2 3 1 4 21 5 19 6 18 7 16 8 15 9 14 10 13 11 6 12
REMARK SMILES IDX 7 13 8 14 9 15 12 16 11 17 10 18 4 20 20 22 17 24
REMARK H PARENT 10 19 4 21 20 23 17 25
REMARK Flexibility Score: inf
ROOT
ATOM      1  C   UNL     1     167.165 153.143 149.598  1.00  0.00     0.180 A 
ATOM      2  C   UNL     1     166.226 152.381 148.881  1.00  0.00     0.208 A 
ATOM      3  C   UNL     1     166.686 151.451 147.933  1.00  0.00     0.238 A 
ATOM      4  O   UNL     1     165.840 150.825 147.243  1.00  0.00    -0.285 OA
ATOM      5  C   UNL     1     168.077 151.255 147.756  1.00  0.00     0.111 A 
ATOM      6  C   UNL     1     168.655 150.308 146.857  1.00  0.00     0.134 A 
ATOM      7  C   UNL     1     170.045 150.276 146.687  1.00  0.00     0.093 A 
ATOM      8  C   UNL     1     170.881 151.113 147.430  1.00  0.00     0.123 A 
ATOM      9  C   UNL     1     170.329 152.001 148.349  1.00  0.00     0.094 A 
ATOM     10  C   UNL     1     168.945 152.083 148.514  1.00  0.00     0.146 A 
ATOM     11  O   UNL     1     168.462 152.960 149.385  1.00  0.00    -0.452 OA
ENDROOT
BRANCH   1  12
ATOM     12  C   UNL     1     166.757 154.153 150.601  1.00  0.00     0.021 A 
ATOM     13  C   UNL     1     166.217 155.376 150.171  1.00  0.00     0.016 A 
ATOM     14  C   UNL     1     165.804 156.335 151.101  1.00  0.00     0.047 A 
ATOM     15  C   UNL     1     165.911 156.078 152.472  1.00  0.00     0.115 A 
ATOM     16  C   UNL     1     166.844 153.892 151.981  1.00  0.00     0.016 A 
ATOM     17  C   UNL     1     166.429 154.852 152.909  1.00  0.00     0.047 A 
BRANCH  15  18
ATOM     18  O   UNL     1     165.496 157.043 153.387  1.00  0.00    -0.508 OA
ATOM     19  H   UNL     1     165.689 158.027 153.241  1.00  0.00     0.293 HD
ENDBRANCH  15  18
ENDBRANCH   1  12
BRANCH   2  20
ATOM     20  O   UNL     1     164.859 152.534 149.125  1.00  0.00    -0.502 OA
ATOM     21  H   UNL     1     164.150 152.174 148.498  1.00  0.00     0.293 HD
ENDBRANCH   2  20
BRANCH   6  22
ATOM     22  O   UNL     1     167.919 149.366 146.131  1.00  0.00    -0.507 OA
ATOM     23  H   UNL     1     167.943 148.370 146.286  1.00  0.00     0.293 HD
ENDBRANCH   6  22
BRANCH   8  24
ATOM     24  O   UNL     1     172.264 151.062 147.267  1.00  0.00    -0.508 OA
ATOM     25  H   UNL     1     172.848 151.873 147.436  1.00  0.00     0.293 HD
ENDBRANCH   8  24
TORSDOF 5
ENDMDL
