MODEL 1
REMARK VINA RESULT:    -5.636      0.000      0.000
REMARK INTER + INTRA:          -7.751
REMARK INTER:                  -7.284
REMARK INTRA:                  -0.467
REMARK UNBOUND:                -0.467
REMARK SMILES CO[C@@]1(CO)O[C@@H](CO)[C@@H](O)[C@H]1O
REMARK SMILES IDX 3 1 12 2 10 3 7 4 6 5 2 6 1 7 4 8 5 9 13 11 11 13 8 15 9 16
REMARK H PARENT 5 10 13 12 11 14 9 17
REMARK Flexibility Score: inf
ROOT
ATOM      1  C   UNL     1      -5.270 -47.895 -15.830  1.00  0.00     0.221 C 
ATOM      2  C   UNL     1      -3.869 -47.219 -15.733  1.00  0.00     0.207 C 
ATOM      3  C   UNL     1      -2.998 -48.275 -15.078  1.00  0.00     0.180 C 
ATOM      4  C   UNL     1      -4.032 -49.135 -14.365  1.00  0.00     0.179 C 
ATOM      5  O   UNL     1      -5.193 -49.142 -15.160  1.00  0.00    -0.337 OA
ENDROOT
BRANCH   1   6
ATOM      6  O   UNL     1      -5.615 -48.183 -17.186  1.00  0.00    -0.349 OA
ATOM      7  C   UNL     1      -6.991 -48.031 -17.482  1.00  0.00     0.198 C 
ENDBRANCH   1   6
BRANCH   1   8
ATOM      8  C   UNL     1      -6.352 -47.063 -15.083  1.00  0.00     0.224 C 
BRANCH   8   9
ATOM      9  O   UNL     1      -5.826 -45.820 -14.706  1.00  0.00    -0.391 OA
ATOM     10  H   UNL     1      -6.602 -45.207 -14.618  1.00  0.00     0.210 HD
ENDBRANCH   8   9
ENDBRANCH   1   8
BRANCH   2  11
ATOM     11  O   UNL     1      -3.356 -46.845 -16.987  1.00  0.00    -0.385 OA
ATOM     12  H   UNL     1      -4.138 -46.677 -17.576  1.00  0.00     0.211 HD
ENDBRANCH   2  11
BRANCH   3  13
ATOM     13  O   UNL     1      -2.254 -49.009 -16.026  1.00  0.00    -0.387 OA
ATOM     14  H   UNL     1      -1.291 -48.802 -15.894  1.00  0.00     0.211 HD
ENDBRANCH   3  13
BRANCH   4  15
ATOM     15  C   UNL     1      -3.561 -50.567 -14.089  1.00  0.00     0.191 C 
BRANCH  15  16
ATOM     16  O   UNL     1      -3.831 -51.371 -15.203  1.00  0.00    -0.394 OA
ATOM     17  H   UNL     1      -2.962 -51.506 -15.664  1.00  0.00     0.210 HD
ENDBRANCH  15  16
ENDBRANCH   4  15
TORSDOF 7
ENDMDL
MODEL 2
REMARK VINA RESULT:    -5.453      2.019      3.926
REMARK INTER + INTRA:          -7.515
REMARK INTER:                  -7.109
REMARK INTRA:                  -0.405
REMARK UNBOUND:                -0.467
REMARK SMILES CO[C@@]1(CO)O[C@@H](CO)[C@@H](O)[C@H]1O
REMARK SMILES IDX 3 1 12 2 10 3 7 4 6 5 2 6 1 7 4 8 5 9 13 11 11 13 8 15 9 16
REMARK H PARENT 5 10 13 12 11 14 9 17
REMARK Flexibility Score: inf
ROOT
ATOM      1  C   UNL     1      -4.110 -49.544 -14.399  1.00  0.00     0.221 C 
ATOM      2  C   UNL     1      -4.131 -51.038 -13.956  1.00  0.00     0.207 C 
ATOM      3  C   UNL     1      -5.593 -51.310 -13.656  1.00  0.00     0.180 C 
ATOM      4  C   UNL     1      -6.122 -49.910 -13.382  1.00  0.00     0.179 C 
ATOM      5  O   UNL     1      -5.416 -49.023 -14.217  1.00  0.00    -0.337 OA
ENDROOT
BRANCH   1   6
ATOM      6  O   UNL     1      -3.814 -49.420 -15.792  1.00  0.00    -0.349 OA
ATOM      7  C   UNL     1      -4.160 -48.166 -16.351  1.00  0.00     0.198 C 
ENDBRANCH   1   6
BRANCH   1   8
ATOM      8  C   UNL     1      -3.170 -48.698 -13.493  1.00  0.00     0.224 C 
BRANCH   8   9
ATOM      9  O   UNL     1      -1.838 -49.080 -13.695  1.00  0.00    -0.391 OA
ATOM     10  H   UNL     1      -1.570 -49.590 -12.886  1.00  0.00     0.210 HD
ENDBRANCH   8   9
ENDBRANCH   1   8
BRANCH   2  11
ATOM     11  O   UNL     1      -3.646 -51.908 -14.949  1.00  0.00    -0.385 OA
ATOM     12  H   UNL     1      -2.794 -52.286 -14.605  1.00  0.00     0.211 HD
ENDBRANCH   2  11
BRANCH   3  13
ATOM     13  O   UNL     1      -6.250 -51.928 -14.741  1.00  0.00    -0.387 OA
ATOM     14  H   UNL     1      -6.975 -52.503 -14.380  1.00  0.00     0.211 HD
ENDBRANCH   3  13
BRANCH   4  15
ATOM     15  C   UNL     1      -7.632 -49.765 -13.601  1.00  0.00     0.191 C 
BRANCH  15  16
ATOM     16  O   UNL     1      -7.909 -49.779 -14.973  1.00  0.00    -0.394 OA
ATOM     17  H   UNL     1      -7.034 -49.869 -15.432  1.00  0.00     0.210 HD
ENDBRANCH  15  16
ENDBRANCH   4  15
TORSDOF 7
ENDMDL
MODEL 3
REMARK VINA RESULT:    -5.286      1.742      1.997
REMARK INTER + INTRA:          -7.299
REMARK INTER:                  -6.826
REMARK INTRA:                  -0.472
REMARK UNBOUND:                -0.467
REMARK SMILES CO[C@@]1(CO)O[C@@H](CO)[C@@H](O)[C@H]1O
REMARK SMILES IDX 3 1 12 2 10 3 7 4 6 5 2 6 1 7 4 8 5 9 13 11 11 13 8 15 9 16
REMARK H PARENT 5 10 13 12 11 14 9 17
REMARK Flexibility Score: inf
ROOT
ATOM      1  C   UNL     1      -4.671 -46.966 -14.461  1.00  0.00     0.221 C 
ATOM      2  C   UNL     1      -3.474 -46.873 -13.467  1.00  0.00     0.207 C 
ATOM      3  C   UNL     1      -3.298 -48.296 -12.971  1.00  0.00     0.180 C 
ATOM      4  C   UNL     1      -4.677 -48.888 -13.227  1.00  0.00     0.179 C 
ATOM      5  O   UNL     1      -5.182 -48.287 -14.395  1.00  0.00    -0.337 OA
ENDROOT
BRANCH   1   6
ATOM      6  O   UNL     1      -4.244 -46.763 -15.809  1.00  0.00    -0.349 OA
ATOM      7  C   UNL     1      -4.387 -47.898 -16.643  1.00  0.00     0.198 C 
ENDBRANCH   1   6
BRANCH   1   8
ATOM      8  C   UNL     1      -5.834 -46.025 -14.035  1.00  0.00     0.224 C 
BRANCH   8   9
ATOM      9  O   UNL     1      -5.390 -44.696 -14.006  1.00  0.00    -0.391 OA
ATOM     10  H   UNL     1      -4.984 -44.560 -13.110  1.00  0.00     0.210 HD
ENDBRANCH   8   9
ENDBRANCH   1   8
BRANCH   2  11
ATOM     11  O   UNL     1      -2.298 -46.398 -14.075  1.00  0.00    -0.385 OA
ATOM     12  H   UNL     1      -2.496 -45.482 -14.402  1.00  0.00     0.211 HD
ENDBRANCH   2  11
BRANCH   3  13
ATOM     13  O   UNL     1      -2.283 -48.979 -13.672  1.00  0.00    -0.387 OA
ATOM     14  H   UNL     1      -1.792 -48.321 -14.231  1.00  0.00     0.211 HD
ENDBRANCH   3  13
BRANCH   4  15
ATOM     15  C   UNL     1      -4.677 -50.414 -13.366  1.00  0.00     0.191 C 
BRANCH  15  16
ATOM     16  O   UNL     1      -4.363 -50.765 -14.684  1.00  0.00    -0.394 OA
ATOM     17  H   UNL     1      -4.481 -51.749 -14.744  1.00  0.00     0.210 HD
ENDBRANCH  15  16
ENDBRANCH   4  15
TORSDOF 7
ENDMDL
MODEL 4
REMARK VINA RESULT:    -5.250      1.750      3.215
REMARK INTER + INTRA:          -7.252
REMARK INTER:                  -6.839
REMARK INTRA:                  -0.413
REMARK UNBOUND:                -0.467
REMARK SMILES CO[C@@]1(CO)O[C@@H](CO)[C@@H](O)[C@H]1O
REMARK SMILES IDX 3 1 12 2 10 3 7 4 6 5 2 6 1 7 4 8 5 9 13 11 11 13 8 15 9 16
REMARK H PARENT 5 10 13 12 11 14 9 17
REMARK Flexibility Score: inf
ROOT
ATOM      1  C   UNL     1      -5.325 -48.395 -15.181  1.00  0.00     0.221 C 
ATOM      2  C   UNL     1      -3.998 -48.782 -15.903  1.00  0.00     0.207 C 
ATOM      3  C   UNL     1      -3.007 -47.735 -15.432  1.00  0.00     0.180 C 
ATOM      4  C   UNL     1      -3.928 -46.596 -15.018  1.00  0.00     0.179 C 
ATOM      5  O   UNL     1      -5.102 -47.172 -14.500  1.00  0.00    -0.337 OA
ENDROOT
BRANCH   1   6
ATOM      6  O   UNL     1      -5.673 -49.358 -14.184  1.00  0.00    -0.349 OA
ATOM      7  C   UNL     1      -7.056 -49.655 -14.119  1.00  0.00     0.198 C 
ENDBRANCH   1   6
BRANCH   1   8
ATOM      8  C   UNL     1      -6.467 -48.125 -16.202  1.00  0.00     0.224 C 
BRANCH   8   9
ATOM      9  O   UNL     1      -5.947 -48.080 -17.502  1.00  0.00    -0.391 OA
ATOM     10  H   UNL     1      -5.148 -47.492 -17.460  1.00  0.00     0.210 HD
ENDBRANCH   8   9
ENDBRANCH   1   8
BRANCH   2  11
ATOM     11  O   UNL     1      -3.560 -50.078 -15.580  1.00  0.00    -0.385 OA
ATOM     12  H   UNL     1      -4.370 -50.601 -15.341  1.00  0.00     0.211 HD
ENDBRANCH   2  11
BRANCH   3  13
ATOM     13  O   UNL     1      -2.215 -48.199 -14.360  1.00  0.00    -0.387 OA
ATOM     14  H   UNL     1      -2.294 -49.189 -14.322  1.00  0.00     0.211 HD
ENDBRANCH   3  13
BRANCH   4  15
ATOM     15  C   UNL     1      -3.304 -45.637 -13.999  1.00  0.00     0.191 C 
BRANCH  15  16
ATOM     16  O   UNL     1      -1.957 -45.425 -14.317  1.00  0.00    -0.394 OA
ATOM     17  H   UNL     1      -1.947 -44.736 -15.031  1.00  0.00     0.210 HD
ENDBRANCH  15  16
ENDBRANCH   4  15
TORSDOF 7
ENDMDL
MODEL 5
REMARK VINA RESULT:    -5.241      1.549      2.392
REMARK INTER + INTRA:          -7.240
REMARK INTER:                  -6.816
REMARK INTRA:                  -0.424
REMARK UNBOUND:                -0.467
REMARK SMILES CO[C@@]1(CO)O[C@@H](CO)[C@@H](O)[C@H]1O
REMARK SMILES IDX 3 1 12 2 10 3 7 4 6 5 2 6 1 7 4 8 5 9 13 11 11 13 8 15 9 16
REMARK H PARENT 5 10 13 12 11 14 9 17
REMARK Flexibility Score: inf
ROOT
ATOM      1  C   UNL     1      -4.156 -47.591 -15.329  1.00  0.00     0.221 C 
ATOM      2  C   UNL     1      -3.124 -48.758 -15.334  1.00  0.00     0.207 C 
ATOM      3  C   UNL     1      -3.633 -49.703 -14.262  1.00  0.00     0.180 C 
ATOM      4  C   UNL     1      -4.474 -48.772 -13.400  1.00  0.00     0.179 C 
ATOM      5  O   UNL     1      -5.055 -47.817 -14.255  1.00  0.00    -0.337 OA
ENDROOT
BRANCH   1   6
ATOM      6  O   UNL     1      -4.942 -47.586 -16.522  1.00  0.00    -0.349 OA
ATOM      7  C   UNL     1      -6.327 -47.787 -16.308  1.00  0.00     0.198 C 
ENDBRANCH   1   6
BRANCH   1   8
ATOM      8  C   UNL     1      -3.466 -46.227 -15.041  1.00  0.00     0.224 C 
BRANCH   8   9
ATOM      9  O   UNL     1      -2.318 -46.425 -14.262  1.00  0.00    -0.391 OA
ATOM     10  H   UNL     1      -2.638 -46.621 -13.343  1.00  0.00     0.210 HD
ENDBRANCH   8   9
ENDBRANCH   1   8
BRANCH   2  11
ATOM     11  O   UNL     1      -3.038 -49.404 -16.580  1.00  0.00    -0.385 OA
ATOM     12  H   UNL     1      -3.743 -50.104 -16.587  1.00  0.00     0.211 HD
ENDBRANCH   2  11
BRANCH   3  13
ATOM     13  O   UNL     1      -4.392 -50.761 -14.805  1.00  0.00    -0.387 OA
ATOM     14  H   UNL     1      -5.283 -50.762 -14.368  1.00  0.00     0.211 HD
ENDBRANCH   3  13
BRANCH   4  15
ATOM     15  C   UNL     1      -5.556 -49.492 -12.587  1.00  0.00     0.191 C 
BRANCH  15  16
ATOM     16  O   UNL     1      -6.694 -49.675 -13.381  1.00  0.00    -0.394 OA
ATOM     17  H   UNL     1      -6.367 -49.803 -14.309  1.00  0.00     0.210 HD
ENDBRANCH  15  16
ENDBRANCH   4  15
TORSDOF 7
ENDMDL
MODEL 6
REMARK VINA RESULT:    -5.192      1.828      3.716
REMARK INTER + INTRA:          -7.177
REMARK INTER:                  -6.741
REMARK INTRA:                  -0.436
REMARK UNBOUND:                -0.467
REMARK SMILES CO[C@@]1(CO)O[C@@H](CO)[C@@H](O)[C@H]1O
REMARK SMILES IDX 3 1 12 2 10 3 7 4 6 5 2 6 1 7 4 8 5 9 13 11 11 13 8 15 9 16
REMARK H PARENT 5 10 13 12 11 14 9 17
REMARK Flexibility Score: inf
ROOT
ATOM      1  C   UNL     1      -4.199 -48.978 -14.363  1.00  0.00     0.221 C 
ATOM      2  C   UNL     1      -4.315 -48.709 -15.894  1.00  0.00     0.207 C 
ATOM      3  C   UNL     1      -4.023 -47.226 -16.028  1.00  0.00     0.180 C 
ATOM      4  C   UNL     1      -4.354 -46.716 -14.633  1.00  0.00     0.179 C 
ATOM      5  O   UNL     1      -4.006 -47.729 -13.721  1.00  0.00    -0.337 OA
ENDROOT
BRANCH   1   6
ATOM      6  O   UNL     1      -3.051 -49.772 -14.061  1.00  0.00    -0.349 OA
ATOM      7  C   UNL     1      -3.346 -51.014 -13.448  1.00  0.00     0.198 C 
ENDBRANCH   1   6
BRANCH   1   8
ATOM      8  C   UNL     1      -5.521 -49.564 -13.790  1.00  0.00     0.224 C 
BRANCH   8   9
ATOM      9  O   UNL     1      -6.360 -49.969 -14.837  1.00  0.00    -0.391 OA
ATOM     10  H   UNL     1      -6.865 -50.754 -14.499  1.00  0.00     0.210 HD
ENDBRANCH   8   9
ENDBRANCH   1   8
BRANCH   2  11
ATOM     11  O   UNL     1      -3.411 -49.475 -16.651  1.00  0.00    -0.385 OA
ATOM     12  H   UNL     1      -3.116 -50.224 -16.071  1.00  0.00     0.211 HD
ENDBRANCH   2  11
BRANCH   3  13
ATOM     13  O   UNL     1      -2.680 -46.981 -16.384  1.00  0.00    -0.387 OA
ATOM     14  H   UNL     1      -2.648 -46.142 -16.916  1.00  0.00     0.211 HD
ENDBRANCH   3  13
BRANCH   4  15
ATOM     15  C   UNL     1      -3.649 -45.403 -14.273  1.00  0.00     0.191 C 
BRANCH  15  16
ATOM     16  O   UNL     1      -2.303 -45.658 -13.986  1.00  0.00    -0.394 OA
ATOM     17  H   UNL     1      -2.265 -45.891 -13.022  1.00  0.00     0.210 HD
ENDBRANCH  15  16
ENDBRANCH   4  15
TORSDOF 7
ENDMDL
MODEL 7
REMARK VINA RESULT:    -5.098      2.177      3.814
REMARK INTER + INTRA:          -7.056
REMARK INTER:                  -6.617
REMARK INTRA:                  -0.438
REMARK UNBOUND:                -0.467
REMARK SMILES CO[C@@]1(CO)O[C@@H](CO)[C@@H](O)[C@H]1O
REMARK SMILES IDX 3 1 12 2 10 3 7 4 6 5 2 6 1 7 4 8 5 9 13 11 11 13 8 15 9 16
REMARK H PARENT 5 10 13 12 11 14 9 17
REMARK Flexibility Score: inf
ROOT
ATOM      1  C   UNL     1      -7.106 -49.333 -14.668  1.00  0.00     0.221 C 
ATOM      2  C   UNL     1      -7.441 -48.611 -16.008  1.00  0.00     0.207 C 
ATOM      3  C   UNL     1      -6.290 -47.642 -16.200  1.00  0.00     0.180 C 
ATOM      4  C   UNL     1      -5.781 -47.476 -14.775  1.00  0.00     0.179 C 
ATOM      5  O   UNL     1      -5.957 -48.708 -14.119  1.00  0.00    -0.337 OA
ENDROOT
BRANCH   1   6
ATOM      6  O   UNL     1      -6.758 -50.701 -14.888  1.00  0.00    -0.349 OA
ATOM      7  C   UNL     1      -5.778 -51.203 -13.999  1.00  0.00     0.198 C 
ENDBRANCH   1   6
BRANCH   1   8
ATOM      8  C   UNL     1      -8.245 -49.147 -13.625  1.00  0.00     0.224 C 
BRANCH   8   9
ATOM      9  O   UNL     1      -9.445 -48.834 -14.277  1.00  0.00    -0.391 OA
ATOM     10  H   UNL     1     -10.158 -48.898 -13.588  1.00  0.00     0.210 HD
ENDBRANCH   8   9
ENDBRANCH   1   8
BRANCH   2  11
ATOM     11  O   UNL     1      -7.544 -49.498 -17.094  1.00  0.00    -0.385 OA
ATOM     12  H   UNL     1      -6.627 -49.608 -17.459  1.00  0.00     0.211 HD
ENDBRANCH   2  11
BRANCH   3  13
ATOM     13  O   UNL     1      -5.302 -48.158 -17.065  1.00  0.00    -0.387 OA
ATOM     14  H   UNL     1      -5.757 -48.616 -17.819  1.00  0.00     0.211 HD
ENDBRANCH   3  13
BRANCH   4  15
ATOM     15  C   UNL     1      -4.318 -47.027 -14.690  1.00  0.00     0.191 C 
BRANCH  15  16
ATOM     16  O   UNL     1      -4.088 -46.001 -15.614  1.00  0.00    -0.394 OA
ATOM     17  H   UNL     1      -4.794 -46.089 -16.306  1.00  0.00     0.210 HD
ENDBRANCH  15  16
ENDBRANCH   4  15
TORSDOF 7
ENDMDL
MODEL 8
REMARK VINA RESULT:    -4.946      1.922      4.249
REMARK INTER + INTRA:          -6.859
REMARK INTER:                  -6.353
REMARK INTRA:                  -0.506
REMARK UNBOUND:                -0.467
REMARK SMILES CO[C@@]1(CO)O[C@@H](CO)[C@@H](O)[C@H]1O
REMARK SMILES IDX 3 1 12 2 10 3 7 4 6 5 2 6 1 7 4 8 5 9 13 11 11 13 8 15 9 16
REMARK H PARENT 5 10 13 12 11 14 9 17
REMARK Flexibility Score: inf
ROOT
ATOM      1  C   UNL     1      -4.222 -48.425 -13.712  1.00  0.00     0.221 C 
ATOM      2  C   UNL     1      -3.365 -47.524 -14.651  1.00  0.00     0.207 C 
ATOM      3  C   UNL     1      -4.325 -46.433 -15.088  1.00  0.00     0.180 C 
ATOM      4  C   UNL     1      -5.675 -47.102 -14.875  1.00  0.00     0.179 C 
ATOM      5  O   UNL     1      -5.555 -47.944 -13.754  1.00  0.00    -0.337 OA
ENDROOT
BRANCH   1   6
ATOM      6  O   UNL     1      -3.793 -48.314 -12.353  1.00  0.00    -0.349 OA
ATOM      7  C   UNL     1      -4.836 -48.432 -11.402  1.00  0.00     0.198 C 
ENDBRANCH   1   6
BRANCH   1   8
ATOM      8  C   UNL     1      -4.269 -49.893 -14.224  1.00  0.00     0.224 C 
BRANCH   8   9
ATOM      9  O   UNL     1      -3.506 -50.018 -15.392  1.00  0.00    -0.391 OA
ATOM     10  H   UNL     1      -2.889 -49.240 -15.404  1.00  0.00     0.210 HD
ENDBRANCH   8   9
ENDBRANCH   1   8
BRANCH   2  11
ATOM     11  O   UNL     1      -2.239 -46.981 -14.008  1.00  0.00    -0.385 OA
ATOM     12  H   UNL     1      -2.410 -46.008 -13.906  1.00  0.00     0.211 HD
ENDBRANCH   2  11
BRANCH   3  13
ATOM     13  O   UNL     1      -4.180 -45.261 -14.317  1.00  0.00    -0.387 OA
ATOM     14  H   UNL     1      -5.024 -44.741 -14.380  1.00  0.00     0.211 HD
ENDBRANCH   3  13
BRANCH   4  15
ATOM     15  C   UNL     1      -6.830 -46.114 -14.683  1.00  0.00     0.191 C 
BRANCH  15  16
ATOM     16  O   UNL     1      -6.891 -45.720 -13.340  1.00  0.00    -0.394 OA
ATOM     17  H   UNL     1      -6.098 -45.144 -13.185  1.00  0.00     0.210 HD
ENDBRANCH  15  16
ENDBRANCH   4  15
TORSDOF 7
ENDMDL
MODEL 9
REMARK VINA RESULT:    -4.927      2.621      4.946
REMARK INTER + INTRA:          -6.834
REMARK INTER:                  -6.328
REMARK INTRA:                  -0.506
REMARK UNBOUND:                -0.467
REMARK SMILES CO[C@@]1(CO)O[C@@H](CO)[C@@H](O)[C@H]1O
REMARK SMILES IDX 3 1 12 2 10 3 7 4 6 5 2 6 1 7 4 8 5 9 13 11 11 13 8 15 9 16
REMARK H PARENT 5 10 13 12 11 14 9 17
REMARK Flexibility Score: inf
ROOT
ATOM      1  C   UNL     1      -6.728 -47.980 -14.360  1.00  0.00     0.221 C 
ATOM      2  C   UNL     1      -7.900 -48.919 -13.941  1.00  0.00     0.207 C 
ATOM      3  C   UNL     1      -9.088 -48.393 -14.723  1.00  0.00     0.180 C 
ATOM      4  C   UNL     1      -8.666 -46.958 -15.005  1.00  0.00     0.179 C 
ATOM      5  O   UNL     1      -7.270 -46.957 -15.179  1.00  0.00    -0.337 OA
ENDROOT
BRANCH   1   6
ATOM      6  O   UNL     1      -5.767 -48.673 -15.159  1.00  0.00    -0.349 OA
ATOM      7  C   UNL     1      -5.336 -47.959 -16.302  1.00  0.00     0.198 C 
ENDBRANCH   1   6
BRANCH   1   8
ATOM      8  C   UNL     1      -6.105 -47.268 -13.126  1.00  0.00     0.224 C 
BRANCH   8   9
ATOM      9  O   UNL     1      -6.812 -47.612 -11.966  1.00  0.00    -0.391 OA
ATOM     10  H   UNL     1      -7.235 -48.491 -12.151  1.00  0.00     0.210 HD
ENDBRANCH   8   9
ENDBRANCH   1   8
BRANCH   2  11
ATOM     11  O   UNL     1      -7.651 -50.269 -14.245  1.00  0.00    -0.385 OA
ATOM     12  H   UNL     1      -6.720 -50.317 -14.588  1.00  0.00     0.211 HD
ENDBRANCH   2  11
BRANCH   3  13
ATOM     13  O   UNL     1      -9.311 -49.128 -15.907  1.00  0.00    -0.387 OA
ATOM     14  H   UNL     1     -10.122 -48.764 -16.351  1.00  0.00     0.211 HD
ENDBRANCH   3  13
BRANCH   4  15
ATOM     15  C   UNL     1      -9.359 -46.338 -16.223  1.00  0.00     0.191 C 
BRANCH  15  16
ATOM     16  O   UNL     1      -8.545 -46.487 -17.352  1.00  0.00    -0.394 OA
ATOM     17  H   UNL     1      -8.347 -47.457 -17.424  1.00  0.00     0.210 HD
ENDBRANCH  15  16
ENDBRANCH   4  15
TORSDOF 7
ENDMDL
