MODEL 1
REMARK VINA RESULT:    -4.864      0.000      0.000
REMARK INTER + INTRA:          -6.097
REMARK INTER:                  -6.001
REMARK INTRA:                  -0.096
REMARK UNBOUND:                -0.096
REMARK SMILES CCCCC=CC(C)=O
REMARK SMILES IDX 4 1 3 2 2 3 1 4 5 5 6 6 7 7 9 8 8 9
REMARK H PARENT
REMARK Flexibility Score: inf
ROOT
ATOM      1  C   UNL     1      -3.483  13.348 -31.216  1.00  0.00     0.027 C 
ENDROOT
BRANCH   1   2
ATOM      2  C   UNL     1      -2.228  12.498 -30.983  1.00  0.00     0.004 C 
BRANCH   2   3
ATOM      3  C   UNL     1      -0.939  13.263 -31.317  1.00  0.00    -0.003 C 
ATOM      4  C   UNL     1       0.244  12.310 -31.457  1.00  0.00     0.004 C 
ENDBRANCH   2   3
ENDBRANCH   1   2
BRANCH   1   5
ATOM      5  C   UNL     1      -4.153  13.710 -29.919  1.00  0.00    -0.023 C 
ATOM      6  C   UNL     1      -5.326  14.353 -29.891  1.00  0.00     0.042 C 
BRANCH   6   7
ATOM      7  C   UNL     1      -6.014  14.683 -28.629  1.00  0.00     0.152 C 
ATOM      8  O   UNL     1      -5.376  14.734 -27.542  1.00  0.00    -0.295 OA
ATOM      9  C   UNL     1      -7.482  14.959 -28.638  1.00  0.00     0.093 C 
ENDBRANCH   6   7
ENDBRANCH   1   5
TORSDOF 4
ENDMDL
MODEL 2
REMARK VINA RESULT:    -4.852      2.254      5.493
REMARK INTER + INTRA:          -6.082
REMARK INTER:                  -5.943
REMARK INTRA:                  -0.139
REMARK UNBOUND:                -0.096
REMARK SMILES CCCCC=CC(C)=O
REMARK SMILES IDX 4 1 3 2 2 3 1 4 5 5 6 6 7 7 9 8 8 9
REMARK H PARENT
REMARK Flexibility Score: inf
ROOT
ATOM      1  C   UNL     1      -4.558  13.094 -29.113  1.00  0.00     0.027 C 
ENDROOT
BRANCH   1   2
ATOM      2  C   UNL     1      -5.418  14.332 -29.395  1.00  0.00     0.004 C 
BRANCH   2   3
ATOM      3  C   UNL     1      -6.359  14.663 -28.226  1.00  0.00    -0.003 C 
ATOM      4  C   UNL     1      -7.735  15.086 -28.731  1.00  0.00     0.004 C 
ENDBRANCH   2   3
ENDBRANCH   1   2
BRANCH   1   5
ATOM      5  C   UNL     1      -3.140  13.292 -29.570  1.00  0.00    -0.023 C 
ATOM      6  C   UNL     1      -2.157  13.569 -28.707  1.00  0.00     0.042 C 
BRANCH   6   7
ATOM      7  C   UNL     1      -0.754  13.730 -29.134  1.00  0.00     0.152 C 
ATOM      8  O   UNL     1       0.117  14.171 -28.335  1.00  0.00    -0.295 OA
ATOM      9  C   UNL     1      -0.361  13.366 -30.528  1.00  0.00     0.093 C 
ENDBRANCH   6   7
ENDBRANCH   1   5
TORSDOF 4
ENDMDL
MODEL 3
REMARK VINA RESULT:    -4.841      2.848      5.324
REMARK INTER + INTRA:          -6.068
REMARK INTER:                  -5.887
REMARK INTRA:                  -0.182
REMARK UNBOUND:                -0.096
REMARK SMILES CCCCC=CC(C)=O
REMARK SMILES IDX 4 1 3 2 2 3 1 4 5 5 6 6 7 7 9 8 8 9
REMARK H PARENT
REMARK Flexibility Score: inf
ROOT
ATOM      1  C   UNL     1      -5.361  14.357 -29.541  1.00  0.00     0.027 C 
ENDROOT
BRANCH   1   2
ATOM      2  C   UNL     1      -6.388  14.368 -28.402  1.00  0.00     0.004 C 
BRANCH   2   3
ATOM      3  C   UNL     1      -7.613  15.232 -28.734  1.00  0.00    -0.003 C 
ATOM      4  C   UNL     1      -7.205  16.671 -29.037  1.00  0.00     0.004 C 
ENDBRANCH   2   3
ENDBRANCH   1   2
BRANCH   1   5
ATOM      5  C   UNL     1      -4.135  13.569 -29.171  1.00  0.00    -0.023 C 
ATOM      6  C   UNL     1      -4.008  12.992 -27.971  1.00  0.00     0.042 C 
BRANCH   6   7
ATOM      7  C   UNL     1      -2.829  12.185 -27.605  1.00  0.00     0.152 C 
ATOM      8  O   UNL     1      -1.804  12.170 -28.341  1.00  0.00    -0.295 OA
ATOM      9  C   UNL     1      -2.849  11.375 -26.350  1.00  0.00     0.093 C 
ENDBRANCH   6   7
ENDBRANCH   1   5
TORSDOF 4
ENDMDL
MODEL 4
REMARK VINA RESULT:    -4.720      2.689      5.417
REMARK INTER + INTRA:          -5.920
REMARK INTER:                  -5.733
REMARK INTRA:                  -0.187
REMARK UNBOUND:                -0.096
REMARK SMILES CCCCC=CC(C)=O
REMARK SMILES IDX 4 1 3 2 2 3 1 4 5 5 6 6 7 7 9 8 8 9
REMARK H PARENT
REMARK Flexibility Score: inf
ROOT
ATOM      1  C   UNL     1      -3.964  13.524 -31.586  1.00  0.00     0.027 C 
ENDROOT
BRANCH   1   2
ATOM      2  C   UNL     1      -4.944  14.401 -30.797  1.00  0.00     0.004 C 
BRANCH   2   3
ATOM      3  C   UNL     1      -5.085  13.943 -29.338  1.00  0.00    -0.003 C 
ATOM      4  C   UNL     1      -6.322  14.554 -28.687  1.00  0.00     0.004 C 
ENDBRANCH   2   3
ENDBRANCH   1   2
BRANCH   1   5
ATOM      5  C   UNL     1      -2.684  13.307 -30.828  1.00  0.00    -0.023 C 
ATOM      6  C   UNL     1      -1.505  13.214 -31.454  1.00  0.00     0.042 C 
BRANCH   6   7
ATOM      7  C   UNL     1      -0.237  13.038 -30.723  1.00  0.00     0.152 C 
ATOM      8  O   UNL     1       0.725  12.406 -31.241  1.00  0.00    -0.295 OA
ATOM      9  C   UNL     1      -0.088  13.614 -29.352  1.00  0.00     0.093 C 
ENDBRANCH   6   7
ENDBRANCH   1   5
TORSDOF 4
ENDMDL
MODEL 5
REMARK VINA RESULT:    -4.514      2.003      2.531
REMARK INTER + INTRA:          -5.665
REMARK INTER:                  -5.377
REMARK INTRA:                  -0.287
REMARK UNBOUND:                -0.096
REMARK SMILES CCCCC=CC(C)=O
REMARK SMILES IDX 4 1 3 2 2 3 1 4 5 5 6 6 7 7 9 8 8 9
REMARK H PARENT
REMARK Flexibility Score: inf
ROOT
ATOM      1  C   UNL     1      -4.398  12.905 -28.687  1.00  0.00     0.027 C 
ENDROOT
BRANCH   1   2
ATOM      2  C   UNL     1      -3.353  13.509 -29.633  1.00  0.00     0.004 C 
BRANCH   2   3
ATOM      3  C   UNL     1      -3.452  12.931 -31.052  1.00  0.00    -0.003 C 
ATOM      4  C   UNL     1      -4.012  13.961 -32.028  1.00  0.00     0.004 C 
ENDBRANCH   2   3
ENDBRANCH   1   2
BRANCH   1   5
ATOM      5  C   UNL     1      -5.671  13.706 -28.689  1.00  0.00    -0.023 C 
ATOM      6  C   UNL     1      -5.664  15.034 -28.852  1.00  0.00     0.042 C 
BRANCH   6   7
ATOM      7  C   UNL     1      -6.905  15.829 -28.893  1.00  0.00     0.152 C 
ATOM      8  O   UNL     1      -6.871  17.066 -29.142  1.00  0.00    -0.295 OA
ATOM      9  C   UNL     1      -8.218  15.164 -28.636  1.00  0.00     0.093 C 
ENDBRANCH   6   7
ENDBRANCH   1   5
TORSDOF 4
ENDMDL
MODEL 6
REMARK VINA RESULT:    -4.345      2.566      4.829
REMARK INTER + INTRA:          -5.456
REMARK INTER:                  -5.208
REMARK INTRA:                  -0.248
REMARK UNBOUND:                -0.096
REMARK SMILES CCCCC=CC(C)=O
REMARK SMILES IDX 4 1 3 2 2 3 1 4 5 5 6 6 7 7 9 8 8 9
REMARK H PARENT
REMARK Flexibility Score: inf
ROOT
ATOM      1  C   UNL     1      -4.355  13.594 -29.121  1.00  0.00     0.027 C 
ENDROOT
BRANCH   1   2
ATOM      2  C   UNL     1      -5.145  14.253 -30.258  1.00  0.00     0.004 C 
BRANCH   2   3
ATOM      3  C   UNL     1      -4.447  14.094 -31.616  1.00  0.00    -0.003 C 
ATOM      4  C   UNL     1      -5.031  15.053 -32.650  1.00  0.00     0.004 C 
ENDBRANCH   2   3
ENDBRANCH   1   2
BRANCH   1   5
ATOM      5  C   UNL     1      -2.927  13.339 -29.517  1.00  0.00    -0.023 C 
ATOM      6  C   UNL     1      -1.905  13.856 -28.826  1.00  0.00     0.042 C 
BRANCH   6   7
ATOM      7  C   UNL     1      -0.498  13.586 -29.179  1.00  0.00     0.152 C 
ATOM      8  O   UNL     1       0.421  13.737 -28.328  1.00  0.00    -0.295 OA
ATOM      9  C   UNL     1      -0.158  13.128 -30.560  1.00  0.00     0.093 C 
ENDBRANCH   6   7
ENDBRANCH   1   5
TORSDOF 4
ENDMDL
MODEL 7
REMARK VINA RESULT:    -4.337      2.143      2.482
REMARK INTER + INTRA:          -5.447
REMARK INTER:                  -5.292
REMARK INTRA:                  -0.155
REMARK UNBOUND:                -0.096
REMARK SMILES CCCCC=CC(C)=O
REMARK SMILES IDX 4 1 3 2 2 3 1 4 5 5 6 6 7 7 9 8 8 9
REMARK H PARENT
REMARK Flexibility Score: inf
ROOT
ATOM      1  C   UNL     1      -3.208  13.274 -27.410  1.00  0.00     0.027 C 
ENDROOT
BRANCH   1   2
ATOM      2  C   UNL     1      -2.469  12.012 -27.873  1.00  0.00     0.004 C 
BRANCH   2   3
ATOM      3  C   UNL     1      -1.427  12.316 -28.959  1.00  0.00    -0.003 C 
ATOM      4  C   UNL     1      -0.564  13.513 -28.572  1.00  0.00     0.004 C 
ENDBRANCH   2   3
ENDBRANCH   1   2
BRANCH   1   5
ATOM      5  C   UNL     1      -4.211  13.732 -28.431  1.00  0.00    -0.023 C 
ATOM      6  C   UNL     1      -5.352  14.332 -28.073  1.00  0.00     0.042 C 
BRANCH   6   7
ATOM      7  C   UNL     1      -6.330  14.820 -29.063  1.00  0.00     0.152 C 
ATOM      8  O   UNL     1      -5.994  15.004 -30.265  1.00  0.00    -0.295 OA
ATOM      9  C   UNL     1      -7.735  15.101 -28.638  1.00  0.00     0.093 C 
ENDBRANCH   6   7
ENDBRANCH   1   5
TORSDOF 4
ENDMDL
MODEL 8
REMARK VINA RESULT:    -4.312      1.764      2.388
REMARK INTER + INTRA:          -5.416
REMARK INTER:                  -5.230
REMARK INTRA:                  -0.186
REMARK UNBOUND:                -0.096
REMARK SMILES CCCCC=CC(C)=O
REMARK SMILES IDX 4 1 3 2 2 3 1 4 5 5 6 6 7 7 9 8 8 9
REMARK H PARENT
REMARK Flexibility Score: inf
ROOT
ATOM      1  C   UNL     1      -1.616  12.464 -31.114  1.00  0.00     0.027 C 
ENDROOT
BRANCH   1   2
ATOM      2  C   UNL     1      -0.262  13.057 -30.705  1.00  0.00     0.004 C 
BRANCH   2   3
ATOM      3  C   UNL     1       0.013  12.892 -29.203  1.00  0.00    -0.003 C 
ATOM      4  C   UNL     1       0.079  14.246 -28.504  1.00  0.00     0.004 C 
ENDBRANCH   2   3
ENDBRANCH   1   2
BRANCH   1   5
ATOM      5  C   UNL     1      -2.712  12.900 -30.183  1.00  0.00    -0.023 C 
ATOM      6  C   UNL     1      -3.754  13.620 -30.614  1.00  0.00     0.042 C 
BRANCH   6   7
ATOM      7  C   UNL     1      -4.857  14.024 -29.722  1.00  0.00     0.152 C 
ATOM      8  O   UNL     1      -5.717  14.866 -30.100  1.00  0.00    -0.295 OA
ATOM      9  C   UNL     1      -4.956  13.430 -28.355  1.00  0.00     0.093 C 
ENDBRANCH   6   7
ENDBRANCH   1   5
TORSDOF 4
ENDMDL
MODEL 9
REMARK VINA RESULT:    -4.270      1.870      2.485
REMARK INTER + INTRA:          -5.364
REMARK INTER:                  -5.123
REMARK INTRA:                  -0.242
REMARK UNBOUND:                -0.096
REMARK SMILES CCCCC=CC(C)=O
REMARK SMILES IDX 4 1 3 2 2 3 1 4 5 5 6 6 7 7 9 8 8 9
REMARK H PARENT
REMARK Flexibility Score: inf
ROOT
ATOM      1  C   UNL     1      -0.580  13.217 -28.546  1.00  0.00     0.027 C 
ENDROOT
BRANCH   1   2
ATOM      2  C   UNL     1      -0.064  13.798 -29.868  1.00  0.00     0.004 C 
BRANCH   2   3
ATOM      3  C   UNL     1      -0.803  13.218 -31.083  1.00  0.00    -0.003 C 
ATOM      4  C   UNL     1      -0.014  12.073 -31.711  1.00  0.00     0.004 C 
ENDBRANCH   2   3
ENDBRANCH   1   2
BRANCH   1   5
ATOM      5  C   UNL     1      -2.080  13.114 -28.537  1.00  0.00    -0.023 C 
ATOM      6  C   UNL     1      -2.836  13.956 -27.824  1.00  0.00     0.042 C 
BRANCH   6   7
ATOM      7  C   UNL     1      -4.310  13.892 -27.833  1.00  0.00     0.152 C 
ATOM      8  O   UNL     1      -4.994  14.669 -27.112  1.00  0.00    -0.295 OA
ATOM      9  C   UNL     1      -5.001  12.895 -28.705  1.00  0.00     0.093 C 
ENDBRANCH   6   7
ENDBRANCH   1   5
TORSDOF 4
ENDMDL
