MODEL 1
REMARK VINA RESULT:    -4.288      0.000      0.000
REMARK INTER + INTRA:          -4.836
REMARK INTER:                  -4.664
REMARK INTRA:                  -0.172
REMARK UNBOUND:                -0.172
REMARK SMILES CC1=CC[C@H](C(C)(C)O)CC1
REMARK SMILES IDX 6 1 7 2 8 3 5 4 1 5 2 6 3 7 11 8 4 9 10 10 9 11
REMARK H PARENT 9 12
REMARK Flexibility Score: inf
ROOT
ATOM      1  C   UNL     1     138.820 142.550 147.791  1.00  0.00     0.062 C 
ATOM      2  C   UNL     1     139.734 143.776 148.035  1.00  0.00     0.042 C 
ATOM      3  C   UNL     1     137.371 142.999 148.076  1.00  0.00     0.042 C 
ENDROOT
BRANCH   1   4
ATOM      4  C   UNL     1     138.940 142.018 146.312  1.00  0.00     0.024 C 
ATOM      5  C   UNL     1     139.487 141.544 141.969  1.00  0.00     0.039 C 
ATOM      6  C   UNL     1     139.339 141.845 143.435  1.00  0.00    -0.077 C 
ATOM      7  C   UNL     1     138.150 142.281 143.898  1.00  0.00    -0.028 C 
ATOM      8  C   UNL     1     140.485 141.528 144.369  1.00  0.00     0.031 C 
ATOM      9  C   UNL     1     137.913 142.654 145.341  1.00  0.00     0.034 C 
ATOM     10  C   UNL     1     140.355 142.223 145.728  1.00  0.00     0.011 C 
ENDBRANCH   1   4
BRANCH   1  11
ATOM     11  O   UNL     1     139.136 141.535 148.716  1.00  0.00    -0.390 OA
ATOM     12  H   UNL     1     139.948 141.808 149.215  1.00  0.00     0.211 HD
ENDBRANCH   1  11
TORSDOF 2
ENDMDL
MODEL 2
REMARK VINA RESULT:    -4.243      1.153      1.764
REMARK INTER + INTRA:          -4.788
REMARK INTER:                  -4.630
REMARK INTRA:                  -0.158
REMARK UNBOUND:                -0.172
REMARK SMILES CC1=CC[C@H](C(C)(C)O)CC1
REMARK SMILES IDX 6 1 7 2 8 3 5 4 1 5 2 6 3 7 11 8 4 9 10 10 9 11
REMARK H PARENT 9 12
REMARK Flexibility Score: inf
ROOT
ATOM      1  C   UNL     1     139.462 142.651 147.569  1.00  0.00     0.062 C 
ATOM      2  C   UNL     1     139.965 144.101 147.781  1.00  0.00     0.042 C 
ATOM      3  C   UNL     1     138.143 142.508 148.357  1.00  0.00     0.042 C 
ENDROOT
BRANCH   1   4
ATOM      4  C   UNL     1     139.217 142.335 146.044  1.00  0.00     0.024 C 
ATOM      5  C   UNL     1     137.717 140.900 142.162  1.00  0.00     0.039 C 
ATOM      6  C   UNL     1     138.114 141.326 143.548  1.00  0.00    -0.077 C 
ATOM      7  C   UNL     1     138.894 140.512 144.287  1.00  0.00    -0.028 C 
ATOM      8  C   UNL     1     137.735 142.710 144.027  1.00  0.00     0.031 C 
ATOM      9  C   UNL     1     139.309 140.826 145.703  1.00  0.00     0.034 C 
ATOM     10  C   UNL     1     137.854 142.866 145.547  1.00  0.00     0.011 C 
ENDBRANCH   1   4
BRANCH   1  11
ATOM     11  O   UNL     1     140.386 141.746 148.127  1.00  0.00    -0.390 OA
ATOM     12  H   UNL     1     140.832 141.258 147.388  1.00  0.00     0.211 HD
ENDBRANCH   1  11
TORSDOF 2
ENDMDL
MODEL 3
REMARK VINA RESULT:    -4.151      2.208      4.446
REMARK INTER + INTRA:          -4.688
REMARK INTER:                  -4.507
REMARK INTRA:                  -0.181
REMARK UNBOUND:                -0.172
REMARK SMILES CC1=CC[C@H](C(C)(C)O)CC1
REMARK SMILES IDX 6 1 7 2 8 3 5 4 1 5 2 6 3 7 11 8 4 9 10 10 9 11
REMARK H PARENT 9 12
REMARK Flexibility Score: inf
ROOT
ATOM      1  C   UNL     1     141.198 140.003 145.358  1.00  0.00     0.062 C 
ATOM      2  C   UNL     1     141.164 138.572 145.950  1.00  0.00     0.042 C 
ATOM      3  C   UNL     1     140.661 139.910 143.914  1.00  0.00     0.042 C 
ENDROOT
BRANCH   1   4
ATOM      4  C   UNL     1     140.317 141.004 146.199  1.00  0.00     0.024 C 
ATOM      5  C   UNL     1     137.093 143.103 148.340  1.00  0.00     0.039 C 
ATOM      6  C   UNL     1     138.099 142.279 147.584  1.00  0.00    -0.077 C 
ATOM      7  C   UNL     1     138.202 142.433 146.249  1.00  0.00    -0.028 C 
ATOM      8  C   UNL     1     139.054 141.397 148.356  1.00  0.00     0.031 C 
ATOM      9  C   UNL     1     139.146 141.622 145.394  1.00  0.00     0.034 C 
ATOM     10  C   UNL     1     139.742 140.349 147.474  1.00  0.00     0.011 C 
ENDBRANCH   1   4
BRANCH   1  11
ATOM     11  O   UNL     1     142.533 140.451 145.283  1.00  0.00    -0.390 OA
ATOM     12  H   UNL     1     142.653 140.934 144.425  1.00  0.00     0.211 HD
ENDBRANCH   1  11
TORSDOF 2
ENDMDL
MODEL 4
REMARK VINA RESULT:    -3.981      2.562      4.366
REMARK INTER + INTRA:          -4.503
REMARK INTER:                  -4.356
REMARK INTRA:                  -0.147
REMARK UNBOUND:                -0.172
REMARK SMILES CC1=CC[C@H](C(C)(C)O)CC1
REMARK SMILES IDX 6 1 7 2 8 3 5 4 1 5 2 6 3 7 11 8 4 9 10 10 9 11
REMARK H PARENT 9 12
REMARK Flexibility Score: inf
ROOT
ATOM      1  C   UNL     1     139.089 139.036 145.470  1.00  0.00     0.062 C 
ATOM      2  C   UNL     1     140.259 138.283 144.790  1.00  0.00     0.042 C 
ATOM      3  C   UNL     1     138.518 138.101 146.557  1.00  0.00     0.042 C 
ENDROOT
BRANCH   1   4
ATOM      4  C   UNL     1     139.566 140.391 146.120  1.00  0.00     0.024 C 
ATOM      5  C   UNL     1     139.874 144.277 148.165  1.00  0.00     0.039 C 
ATOM      6  C   UNL     1     139.628 142.950 147.503  1.00  0.00    -0.077 C 
ATOM      7  C   UNL     1     139.246 142.922 146.211  1.00  0.00    -0.028 C 
ATOM      8  C   UNL     1     139.940 141.681 148.265  1.00  0.00     0.031 C 
ATOM      9  C   UNL     1     138.930 141.646 145.470  1.00  0.00     0.034 C 
ATOM     10  C   UNL     1     139.296 140.439 147.640  1.00  0.00     0.011 C 
ENDBRANCH   1   4
BRANCH   1  11
ATOM     11  O   UNL     1     138.065 139.264 144.530  1.00  0.00    -0.390 OA
ATOM     12  H   UNL     1     138.099 140.215 144.253  1.00  0.00     0.211 HD
ENDBRANCH   1  11
TORSDOF 2
ENDMDL
MODEL 5
REMARK VINA RESULT:    -3.958      2.303      4.594
REMARK INTER + INTRA:          -4.478
REMARK INTER:                  -4.331
REMARK INTRA:                  -0.147
REMARK UNBOUND:                -0.172
REMARK SMILES CC1=CC[C@H](C(C)(C)O)CC1
REMARK SMILES IDX 6 1 7 2 8 3 5 4 1 5 2 6 3 7 11 8 4 9 10 10 9 11
REMARK H PARENT 9 12
REMARK Flexibility Score: inf
ROOT
ATOM      1  C   UNL     1     138.093 142.467 143.138  1.00  0.00     0.062 C 
ATOM      2  C   UNL     1     137.323 141.375 142.353  1.00  0.00     0.042 C 
ATOM      3  C   UNL     1     137.176 143.707 143.208  1.00  0.00     0.042 C 
ENDROOT
BRANCH   1   4
ATOM      4  C   UNL     1     138.466 141.987 144.592  1.00  0.00     0.024 C 
ATOM      5  C   UNL     1     139.959 141.599 148.716  1.00  0.00     0.039 C 
ATOM      6  C   UNL     1     139.499 141.868 147.310  1.00  0.00    -0.077 C 
ATOM      7  C   UNL     1     140.342 141.627 146.286  1.00  0.00    -0.028 C 
ATOM      8  C   UNL     1     138.062 142.278 147.074  1.00  0.00     0.031 C 
ATOM      9  C   UNL     1     139.992 141.907 144.845  1.00  0.00     0.034 C 
ATOM     10  C   UNL     1     137.837 142.882 145.684  1.00  0.00     0.011 C 
ENDBRANCH   1   4
BRANCH   1  11
ATOM     11  O   UNL     1     139.248 142.837 142.420  1.00  0.00    -0.390 OA
ATOM     12  H   UNL     1     139.296 143.827 142.393  1.00  0.00     0.211 HD
ENDBRANCH   1  11
TORSDOF 2
ENDMDL
MODEL 6
REMARK VINA RESULT:    -3.956      1.233      1.721
REMARK INTER + INTRA:          -4.475
REMARK INTER:                  -4.337
REMARK INTRA:                  -0.138
REMARK UNBOUND:                -0.172
REMARK SMILES CC1=CC[C@H](C(C)(C)O)CC1
REMARK SMILES IDX 6 1 7 2 8 3 5 4 1 5 2 6 3 7 11 8 4 9 10 10 9 11
REMARK H PARENT 9 12
REMARK Flexibility Score: inf
ROOT
ATOM      1  C   UNL     1     138.870 142.380 147.860  1.00  0.00     0.062 C 
ATOM      2  C   UNL     1     139.834 143.577 148.051  1.00  0.00     0.042 C 
ATOM      3  C   UNL     1     137.437 142.913 148.074  1.00  0.00     0.042 C 
ENDROOT
BRANCH   1   4
ATOM      4  C   UNL     1     139.002 141.749 146.421  1.00  0.00     0.024 C 
ATOM      5  C   UNL     1     140.285 139.624 142.785  1.00  0.00     0.039 C 
ATOM      6  C   UNL     1     139.965 140.296 144.092  1.00  0.00    -0.077 C 
ATOM      7  C   UNL     1     140.450 141.531 144.331  1.00  0.00    -0.028 C 
ATOM      8  C   UNL     1     139.004 139.623 145.047  1.00  0.00     0.031 C 
ATOM      9  C   UNL     1     140.225 142.271 145.626  1.00  0.00     0.034 C 
ATOM     10  C   UNL     1     139.068 140.205 146.463  1.00  0.00     0.011 C 
ENDBRANCH   1   4
BRANCH   1  11
ATOM     11  O   UNL     1     139.114 141.414 148.856  1.00  0.00    -0.390 OA
ATOM     12  H   UNL     1     138.336 141.395 149.471  1.00  0.00     0.211 HD
ENDBRANCH   1  11
TORSDOF 2
ENDMDL
MODEL 7
REMARK VINA RESULT:    -3.821      2.334      3.214
REMARK INTER + INTRA:          -4.328
REMARK INTER:                  -4.187
REMARK INTRA:                  -0.141
REMARK UNBOUND:                -0.172
REMARK SMILES CC1=CC[C@H](C(C)(C)O)CC1
REMARK SMILES IDX 6 1 7 2 8 3 5 4 1 5 2 6 3 7 11 8 4 9 10 10 9 11
REMARK H PARENT 9 12
REMARK Flexibility Score: inf
ROOT
ATOM      1  C   UNL     1     139.293 142.969 146.732  1.00  0.00     0.062 C 
ATOM      2  C   UNL     1     137.912 142.623 147.342  1.00  0.00     0.042 C 
ATOM      3  C   UNL     1     139.986 143.949 147.702  1.00  0.00     0.042 C 
ENDROOT
BRANCH   1   4
ATOM      4  C   UNL     1     140.183 141.683 146.535  1.00  0.00     0.024 C 
ATOM      5  C   UNL     1     141.901 137.817 145.316  1.00  0.00     0.039 C 
ATOM      6  C   UNL     1     141.209 139.113 145.635  1.00  0.00    -0.077 C 
ATOM      7  C   UNL     1     140.257 139.132 146.588  1.00  0.00    -0.028 C 
ATOM      8  C   UNL     1     141.690 140.385 144.970  1.00  0.00     0.031 C 
ATOM      9  C   UNL     1     139.473 140.370 146.949  1.00  0.00     0.034 C 
ATOM     10  C   UNL     1     140.680 141.531 145.079  1.00  0.00     0.011 C 
ENDBRANCH   1   4
BRANCH   1  11
ATOM     11  O   UNL     1     139.112 143.646 145.509  1.00  0.00    -0.390 OA
ATOM     12  H   UNL     1     138.139 143.714 145.330  1.00  0.00     0.211 HD
ENDBRANCH   1  11
TORSDOF 2
ENDMDL
MODEL 8
REMARK VINA RESULT:    -3.782      9.087     10.454
REMARK INTER + INTRA:          -4.286
REMARK INTER:                  -4.142
REMARK INTRA:                  -0.144
REMARK UNBOUND:                -0.172
REMARK SMILES CC1=CC[C@H](C(C)(C)O)CC1
REMARK SMILES IDX 6 1 7 2 8 3 5 4 1 5 2 6 3 7 11 8 4 9 10 10 9 11
REMARK H PARENT 9 12
REMARK Flexibility Score: inf
ROOT
ATOM      1  C   UNL     1     147.827 135.034 147.519  1.00  0.00     0.062 C 
ATOM      2  C   UNL     1     148.491 134.932 148.914  1.00  0.00     0.042 C 
ATOM      3  C   UNL     1     146.500 134.249 147.588  1.00  0.00     0.042 C 
ENDROOT
BRANCH   1   4
ATOM      4  C   UNL     1     147.548 136.531 147.112  1.00  0.00     0.024 C 
ATOM      5  C   UNL     1     146.558 140.286 145.037  1.00  0.00     0.039 C 
ATOM      6  C   UNL     1     146.859 138.934 145.623  1.00  0.00    -0.077 C 
ATOM      7  C   UNL     1     148.097 138.419 145.484  1.00  0.00    -0.028 C 
ATOM      8  C   UNL     1     145.805 138.247 146.463  1.00  0.00     0.031 C 
ATOM      9  C   UNL     1     148.486 137.054 145.995  1.00  0.00     0.034 C 
ATOM     10  C   UNL     1     146.086 136.755 146.666  1.00  0.00     0.011 C 
ENDBRANCH   1   4
BRANCH   1  11
ATOM     11  O   UNL     1     148.642 134.398 146.561  1.00  0.00    -0.390 OA
ATOM     12  H   UNL     1     148.362 133.449 146.492  1.00  0.00     0.211 HD
ENDBRANCH   1  11
TORSDOF 2
ENDMDL
MODEL 9
REMARK VINA RESULT:    -3.765      2.317      2.893
REMARK INTER + INTRA:          -4.268
REMARK INTER:                  -4.087
REMARK INTRA:                  -0.181
REMARK UNBOUND:                -0.172
REMARK SMILES CC1=CC[C@H](C(C)(C)O)CC1
REMARK SMILES IDX 6 1 7 2 8 3 5 4 1 5 2 6 3 7 11 8 4 9 10 10 9 11
REMARK H PARENT 9 12
REMARK Flexibility Score: inf
ROOT
ATOM      1  C   UNL     1     140.187 142.790 147.567  1.00  0.00     0.062 C 
ATOM      2  C   UNL     1     140.540 143.762 146.414  1.00  0.00     0.042 C 
ATOM      3  C   UNL     1     138.748 143.123 148.017  1.00  0.00     0.042 C 
ENDROOT
BRANCH   1   4
ATOM      4  C   UNL     1     140.275 141.284 147.110  1.00  0.00     0.024 C 
ATOM      5  C   UNL     1     139.787 137.378 145.139  1.00  0.00     0.039 C 
ATOM      6  C   UNL     1     139.861 138.765 145.713  1.00  0.00    -0.077 C 
ATOM      7  C   UNL     1     138.984 139.126 146.671  1.00  0.00    -0.028 C 
ATOM      8  C   UNL     1     140.996 139.673 145.296  1.00  0.00     0.031 C 
ATOM      9  C   UNL     1     138.945 140.507 147.278  1.00  0.00     0.034 C 
ATOM     10  C   UNL     1     140.741 141.143 145.643  1.00  0.00     0.011 C 
ENDBRANCH   1   4
BRANCH   1  11
ATOM     11  O   UNL     1     141.037 143.032 148.664  1.00  0.00    -0.390 OA
ATOM     12  H   UNL     1     141.166 142.180 149.155  1.00  0.00     0.211 HD
ENDBRANCH   1  11
TORSDOF 2
ENDMDL
