MODEL 1
REMARK VINA RESULT:    -6.965      0.000      0.000
REMARK INTER + INTRA:         -11.502
REMARK INTER:                 -10.223
REMARK INTRA:                  -1.279
REMARK UNBOUND:                -1.279
REMARK SMILES O=c1c(O[C@H]2O[C@@H](CO)[C@@H](O)[C@H](O)[C@H]2O)c(-c2ccc(O)c(O)c2)oc2cc(O)cc(O)c12
REMARK SMILES IDX 4 1 3 2 16 3 25 4 2 5 26 6 1 7 33 8 27 9 31 10 28 11 30 12
REMARK SMILES IDX 17 13 18 14 19 15 20 16 24 17 22 18 21 19 23 21 32 23 29 25
REMARK SMILES IDX 5 27 14 28 6 29 12 30 7 31 10 32 15 33 13 35 8 37 9 38 11 40
REMARK H PARENT 21 20 23 22 32 24 29 26 15 34 13 36 9 39 11 41
REMARK Flexibility Score: inf
ROOT
ATOM      1  O   UNL     1      -6.623   6.695  14.090  1.00  0.00    -0.454 OA
ENDROOT
BRANCH   1   2
ATOM      2  C   UNL     1      -5.496   6.026  14.600  1.00  0.00     0.214 A 
ATOM      3  C   UNL     1      -4.213   6.531  14.309  1.00  0.00     0.180 A 
ATOM      4  O   UNL     1      -3.131   5.893  14.745  1.00  0.00    -0.452 OA
ATOM      5  C   UNL     1      -5.597   4.858  15.381  1.00  0.00     0.239 A 
ATOM      6  C   UNL     1      -3.181   4.786  15.474  1.00  0.00     0.146 A 
ATOM      7  O   UNL     1      -6.730   4.400  15.686  1.00  0.00    -0.285 OA
ATOM      8  C   UNL     1      -4.425   4.215  15.831  1.00  0.00     0.111 A 
ATOM      9  C   UNL     1      -1.986   4.191  15.889  1.00  0.00     0.094 A 
ATOM     10  C   UNL     1      -4.440   3.035  16.614  1.00  0.00     0.134 A 
ATOM     11  C   UNL     1      -2.008   3.026  16.663  1.00  0.00     0.123 A 
ATOM     12  C   UNL     1      -3.231   2.453  17.022  1.00  0.00     0.093 A 
BRANCH   3  13
ATOM     13  C   UNL     1      -4.017   7.739  13.475  1.00  0.00     0.025 A 
ATOM     14  C   UNL     1      -3.921   9.017  14.048  1.00  0.00     0.016 A 
ATOM     15  C   UNL     1      -3.739  10.143  13.240  1.00  0.00     0.051 A 
ATOM     16  C   UNL     1      -3.635  10.004  11.850  1.00  0.00     0.157 A 
ATOM     17  C   UNL     1      -3.890   7.602  12.083  1.00  0.00     0.062 A 
ATOM     18  C   UNL     1      -3.706   8.731  11.271  1.00  0.00     0.158 A 
BRANCH  16  19
ATOM     19  O   UNL     1      -3.456  11.123  11.040  1.00  0.00    -0.504 OA
ATOM     20  H   UNL     1      -2.748  11.145  10.314  1.00  0.00     0.293 HD
ENDBRANCH  16  19
BRANCH  18  21
ATOM     21  O   UNL     1      -3.594   8.594   9.888  1.00  0.00    -0.504 OA
ATOM     22  H   UNL     1      -4.194   9.110   9.255  1.00  0.00     0.293 HD
ENDBRANCH  18  21
ENDBRANCH   3  13
BRANCH  10  23
ATOM     23  O   UNL     1      -5.644   2.436  16.989  1.00  0.00    -0.507 OA
ATOM     24  H   UNL     1      -6.531   2.733  16.600  1.00  0.00     0.293 HD
ENDBRANCH  10  23
BRANCH  11  25
ATOM     25  O   UNL     1      -0.821   2.428  17.079  1.00  0.00    -0.508 OA
ATOM     26  H   UNL     1       0.083   2.805  16.817  1.00  0.00     0.293 HD
ENDBRANCH  11  25
ENDBRANCH   1   2
BRANCH   1  27
ATOM     27  C   UNL     1      -7.951   6.586  14.605  1.00  0.00     0.339 C 
ATOM     28  C   UNL     1      -8.867   5.909  13.574  1.00  0.00     0.214 C 
ATOM     29  O   UNL     1      -8.457   7.840  15.043  1.00  0.00    -0.332 OA
ATOM     30  C   UNL     1      -9.071   6.836  12.367  1.00  0.00     0.180 C 
ATOM     31  C   UNL     1      -8.727   8.774  14.002  1.00  0.00     0.179 C 
ATOM     32  C   UNL     1      -9.593   8.198  12.848  1.00  0.00     0.177 C 
BRANCH  28  33
ATOM     33  O   UNL     1      -8.287   4.698  13.163  1.00  0.00    -0.384 OA
ATOM     34  H   UNL     1      -8.406   4.053  13.908  1.00  0.00     0.211 HD
ENDBRANCH  28  33
BRANCH  30  35
ATOM     35  O   UNL     1      -9.959   6.264  11.437  1.00  0.00    -0.387 OA
ATOM     36  H   UNL     1     -10.118   6.929  10.716  1.00  0.00     0.211 HD
ENDBRANCH  30  35
BRANCH  31  37
ATOM     37  C   UNL     1      -7.471   9.575  13.582  1.00  0.00     0.191 C 
BRANCH  37  38
ATOM     38  O   UNL     1      -7.009   9.221  12.308  1.00  0.00    -0.394 OA
ATOM     39  H   UNL     1      -6.913  10.060  11.786  1.00  0.00     0.210 HD
ENDBRANCH  37  38
ENDBRANCH  31  37
BRANCH  32  40
ATOM     40  O   UNL     1      -9.654   9.090  11.765  1.00  0.00    -0.387 OA
ATOM     41  H   UNL     1      -8.721   9.360  11.564  1.00  0.00     0.211 HD
ENDBRANCH  32  40
ENDBRANCH   1  27
TORSDOF 12
ENDMDL
MODEL 2
REMARK VINA RESULT:    -6.814      1.125      1.994
REMARK INTER + INTRA:         -11.280
REMARK INTER:                 -10.438
REMARK INTRA:                  -0.841
REMARK UNBOUND:                -1.279
REMARK SMILES O=c1c(O[C@H]2O[C@@H](CO)[C@@H](O)[C@H](O)[C@H]2O)c(-c2ccc(O)c(O)c2)oc2cc(O)cc(O)c12
REMARK SMILES IDX 4 1 3 2 16 3 25 4 2 5 26 6 1 7 33 8 27 9 31 10 28 11 30 12
REMARK SMILES IDX 17 13 18 14 19 15 20 16 24 17 22 18 21 19 23 21 32 23 29 25
REMARK SMILES IDX 5 27 14 28 6 29 12 30 7 31 10 32 15 33 13 35 8 37 9 38 11 40
REMARK H PARENT 21 20 23 22 32 24 29 26 15 34 13 36 9 39 11 41
REMARK Flexibility Score: inf
ROOT
ATOM      1  O   UNL     1      -6.357   6.629  13.843  1.00  0.00    -0.454 OA
ENDROOT
BRANCH   1   2
ATOM      2  C   UNL     1      -5.285   5.936  14.433  1.00  0.00     0.214 A 
ATOM      3  C   UNL     1      -3.969   6.372  14.180  1.00  0.00     0.180 A 
ATOM      4  O   UNL     1      -2.937   5.709  14.692  1.00  0.00    -0.452 OA
ATOM      5  C   UNL     1      -5.473   4.810  15.258  1.00  0.00     0.239 A 
ATOM      6  C   UNL     1      -3.069   4.640  15.466  1.00  0.00     0.146 A 
ATOM      7  O   UNL     1      -6.638   4.416  15.531  1.00  0.00    -0.285 OA
ATOM      8  C   UNL     1      -4.351   4.139  15.789  1.00  0.00     0.111 A 
ATOM      9  C   UNL     1      -1.921   4.013  15.961  1.00  0.00     0.094 A 
ATOM     10  C   UNL     1      -4.454   2.997  16.622  1.00  0.00     0.134 A 
ATOM     11  C   UNL     1      -2.030   2.886  16.783  1.00  0.00     0.123 A 
ATOM     12  C   UNL     1      -3.291   2.384  17.110  1.00  0.00     0.093 A 
BRANCH   3  13
ATOM     13  C   UNL     1      -3.683   7.531  13.303  1.00  0.00     0.025 A 
ATOM     14  C   UNL     1      -3.726   7.419  11.904  1.00  0.00     0.016 A 
ATOM     15  C   UNL     1      -3.448   8.526  11.097  1.00  0.00     0.051 A 
ATOM     16  C   UNL     1      -3.141   9.763  11.678  1.00  0.00     0.157 A 
ATOM     17  C   UNL     1      -3.395   8.778  13.881  1.00  0.00     0.062 A 
ATOM     18  C   UNL     1      -3.118   9.890  13.072  1.00  0.00     0.158 A 
BRANCH  16  19
ATOM     19  O   UNL     1      -2.861  10.869  10.878  1.00  0.00    -0.504 OA
ATOM     20  H   UNL     1      -1.913  11.093  10.596  1.00  0.00     0.293 HD
ENDBRANCH  16  19
BRANCH  18  21
ATOM     21  O   UNL     1      -2.819  11.124  13.648  1.00  0.00    -0.504 OA
ATOM     22  H   UNL     1      -3.325  11.964  13.394  1.00  0.00     0.293 HD
ENDBRANCH  18  21
ENDBRANCH   3  13
BRANCH  10  23
ATOM     23  O   UNL     1      -5.699   2.468  16.967  1.00  0.00    -0.507 OA
ATOM     24  H   UNL     1      -5.806   1.811  17.730  1.00  0.00     0.293 HD
ENDBRANCH  10  23
BRANCH  11  25
ATOM     25  O   UNL     1      -0.890   2.258  17.279  1.00  0.00    -0.508 OA
ATOM     26  H   UNL     1      -0.914   1.710  18.130  1.00  0.00     0.293 HD
ENDBRANCH  11  25
ENDBRANCH   1   2
BRANCH   1  27
ATOM     27  C   UNL     1      -7.456   6.022  13.160  1.00  0.00     0.339 C 
ATOM     28  C   UNL     1      -7.869   6.878  11.953  1.00  0.00     0.214 C 
ATOM     29  O   UNL     1      -8.544   5.753  14.034  1.00  0.00    -0.332 OA
ATOM     30  C   UNL     1      -8.487   8.199  12.434  1.00  0.00     0.180 C 
ATOM     31  C   UNL     1      -9.226   6.907  14.516  1.00  0.00     0.179 C 
ATOM     32  C   UNL     1      -9.644   7.903  13.399  1.00  0.00     0.177 C 
BRANCH  28  33
ATOM     33  O   UNL     1      -6.740   7.132  11.156  1.00  0.00    -0.384 OA
ATOM     34  H   UNL     1      -6.150   6.338  11.231  1.00  0.00     0.211 HD
ENDBRANCH  28  33
BRANCH  30  35
ATOM     35  O   UNL     1      -8.932   8.973  11.347  1.00  0.00    -0.387 OA
ATOM     36  H   UNL     1      -9.190   9.868  11.694  1.00  0.00     0.211 HD
ENDBRANCH  30  35
BRANCH  31  37
ATOM     37  C   UNL     1      -8.545   7.521  15.762  1.00  0.00     0.191 C 
BRANCH  37  38
ATOM     38  O   UNL     1      -8.427   6.607  16.817  1.00  0.00    -0.394 OA
ATOM     39  H   UNL     1      -9.211   6.740  17.412  1.00  0.00     0.210 HD
ENDBRANCH  37  38
ENDBRANCH  31  37
BRANCH  32  40
ATOM     40  O   UNL     1     -10.125   9.104  13.945  1.00  0.00    -0.387 OA
ATOM     41  H   UNL     1      -9.330   9.639  14.203  1.00  0.00     0.211 HD
ENDBRANCH  32  40
ENDBRANCH   1  27
TORSDOF 12
ENDMDL
MODEL 3
REMARK VINA RESULT:    -6.792      1.264      2.154
REMARK INTER + INTRA:         -11.248
REMARK INTER:                 -10.044
REMARK INTRA:                  -1.204
REMARK UNBOUND:                -1.279
REMARK SMILES O=c1c(O[C@H]2O[C@@H](CO)[C@@H](O)[C@H](O)[C@H]2O)c(-c2ccc(O)c(O)c2)oc2cc(O)cc(O)c12
REMARK SMILES IDX 4 1 3 2 16 3 25 4 2 5 26 6 1 7 33 8 27 9 31 10 28 11 30 12
REMARK SMILES IDX 17 13 18 14 19 15 20 16 24 17 22 18 21 19 23 21 32 23 29 25
REMARK SMILES IDX 5 27 14 28 6 29 12 30 7 31 10 32 15 33 13 35 8 37 9 38 11 40
REMARK H PARENT 21 20 23 22 32 24 29 26 15 34 13 36 9 39 11 41
REMARK Flexibility Score: inf
ROOT
ATOM      1  O   UNL     1      -5.888   6.993  13.918  1.00  0.00    -0.454 OA
ENDROOT
BRANCH   1   2
ATOM      2  C   UNL     1      -4.870   6.203  14.479  1.00  0.00     0.214 A 
ATOM      3  C   UNL     1      -3.525   6.559  14.252  1.00  0.00     0.180 A 
ATOM      4  O   UNL     1      -2.545   5.803  14.737  1.00  0.00    -0.452 OA
ATOM      5  C   UNL     1      -5.140   5.055  15.251  1.00  0.00     0.239 A 
ATOM      6  C   UNL     1      -2.755   4.711  15.460  1.00  0.00     0.146 A 
ATOM      7  O   UNL     1      -6.331   4.730  15.500  1.00  0.00    -0.285 OA
ATOM      8  C   UNL     1      -4.070   4.285  15.754  1.00  0.00     0.111 A 
ATOM      9  C   UNL     1      -1.656   3.986  15.930  1.00  0.00     0.094 A 
ATOM     10  C   UNL     1      -4.257   3.116  16.533  1.00  0.00     0.134 A 
ATOM     11  C   UNL     1      -1.847   2.832  16.698  1.00  0.00     0.123 A 
ATOM     12  C   UNL     1      -3.142   2.402  16.996  1.00  0.00     0.093 A 
BRANCH   3  13
ATOM     13  C   UNL     1      -3.154   7.735  13.432  1.00  0.00     0.025 A 
ATOM     14  C   UNL     1      -3.441   7.789  12.058  1.00  0.00     0.016 A 
ATOM     15  C   UNL     1      -3.077   8.908  11.304  1.00  0.00     0.051 A 
ATOM     16  C   UNL     1      -2.439   9.994  11.915  1.00  0.00     0.157 A 
ATOM     17  C   UNL     1      -2.533   8.835  14.045  1.00  0.00     0.062 A 
ATOM     18  C   UNL     1      -2.170   9.959  13.289  1.00  0.00     0.158 A 
BRANCH  16  19
ATOM     19  O   UNL     1      -2.073  11.111  11.167  1.00  0.00    -0.504 OA
ATOM     20  H   UNL     1      -2.462  11.283  10.247  1.00  0.00     0.293 HD
ENDBRANCH  16  19
BRANCH  18  21
ATOM     21  O   UNL     1      -1.541  11.045  13.897  1.00  0.00    -0.504 OA
ATOM     22  H   UNL     1      -0.775  11.533  13.448  1.00  0.00     0.293 HD
ENDBRANCH  18  21
ENDBRANCH   3  13
BRANCH  10  23
ATOM     23  O   UNL     1      -5.537   2.658  16.847  1.00  0.00    -0.507 OA
ATOM     24  H   UNL     1      -5.683   1.825  17.405  1.00  0.00     0.293 HD
ENDBRANCH  10  23
BRANCH  11  25
ATOM     25  O   UNL     1      -0.756   2.105  17.168  1.00  0.00    -0.508 OA
ATOM     26  H   UNL     1      -0.073   1.703  16.537  1.00  0.00     0.293 HD
ENDBRANCH  11  25
ENDBRANCH   1   2
BRANCH   1  27
ATOM     27  C   UNL     1      -6.262   8.297  14.366  1.00  0.00     0.339 C 
ATOM     28  C   UNL     1      -7.388   8.199  15.406  1.00  0.00     0.214 C 
ATOM     29  O   UNL     1      -6.595   9.158  13.284  1.00  0.00    -0.332 OA
ATOM     30  C   UNL     1      -8.680   7.712  14.736  1.00  0.00     0.180 C 
ATOM     31  C   UNL     1      -7.804   8.828  12.607  1.00  0.00     0.179 C 
ATOM     32  C   UNL     1      -9.021   8.628  13.552  1.00  0.00     0.177 C 
BRANCH  28  33
ATOM     33  O   UNL     1      -7.003   7.308  16.423  1.00  0.00    -0.384 OA
ATOM     34  H   UNL     1      -7.431   6.436  16.219  1.00  0.00     0.211 HD
ENDBRANCH  28  33
BRANCH  30  35
ATOM     35  O   UNL     1      -9.743   7.675  15.657  1.00  0.00    -0.387 OA
ATOM     36  H   UNL     1      -9.390   7.947  16.544  1.00  0.00     0.211 HD
ENDBRANCH  30  35
BRANCH  31  37
ATOM     37  C   UNL     1      -7.600   7.750  11.516  1.00  0.00     0.191 C 
BRANCH  37  38
ATOM     38  O   UNL     1      -8.048   6.485  11.919  1.00  0.00    -0.394 OA
ATOM     39  H   UNL     1      -7.558   5.813  11.378  1.00  0.00     0.210 HD
ENDBRANCH  37  38
ENDBRANCH  31  37
BRANCH  32  40
ATOM     40  O   UNL     1     -10.125   8.111  12.855  1.00  0.00    -0.387 OA
ATOM     41  H   UNL     1      -9.876   7.195  12.566  1.00  0.00     0.211 HD
ENDBRANCH  32  40
ENDBRANCH   1  27
TORSDOF 12
ENDMDL
MODEL 4
REMARK VINA RESULT:    -6.232      1.809      5.977
REMARK INTER + INTRA:         -10.425
REMARK INTER:                  -9.260
REMARK INTRA:                  -1.166
REMARK UNBOUND:                -1.279
REMARK SMILES O=c1c(O[C@H]2O[C@@H](CO)[C@@H](O)[C@H](O)[C@H]2O)c(-c2ccc(O)c(O)c2)oc2cc(O)cc(O)c12
REMARK SMILES IDX 4 1 3 2 16 3 25 4 2 5 26 6 1 7 33 8 27 9 31 10 28 11 30 12
REMARK SMILES IDX 17 13 18 14 19 15 20 16 24 17 22 18 21 19 23 21 32 23 29 25
REMARK SMILES IDX 5 27 14 28 6 29 12 30 7 31 10 32 15 33 13 35 8 37 9 38 11 40
REMARK H PARENT 21 20 23 22 32 24 29 26 15 34 13 36 9 39 11 41
REMARK Flexibility Score: inf
ROOT
ATOM      1  O   UNL     1      -6.314   7.337  13.077  1.00  0.00    -0.454 OA
ENDROOT
BRANCH   1   2
ATOM      2  C   UNL     1      -5.012   7.859  13.169  1.00  0.00     0.214 A 
ATOM      3  C   UNL     1      -4.130   7.329  14.131  1.00  0.00     0.180 A 
ATOM      4  O   UNL     1      -2.907   7.834  14.265  1.00  0.00    -0.452 OA
ATOM      5  C   UNL     1      -4.556   8.907  12.344  1.00  0.00     0.239 A 
ATOM      6  C   UNL     1      -2.442   8.826  13.517  1.00  0.00     0.146 A 
ATOM      7  O   UNL     1      -5.309   9.380  11.452  1.00  0.00    -0.285 OA
ATOM      8  C   UNL     1      -3.249   9.410  12.513  1.00  0.00     0.111 A 
ATOM      9  C   UNL     1      -1.139   9.285  13.732  1.00  0.00     0.094 A 
ATOM     10  C   UNL     1      -2.717  10.464  11.730  1.00  0.00     0.134 A 
ATOM     11  C   UNL     1      -0.620  10.327  12.955  1.00  0.00     0.123 A 
ATOM     12  C   UNL     1      -1.407  10.910  11.960  1.00  0.00     0.093 A 
BRANCH   3  13
ATOM     13  C   UNL     1      -4.537   6.245  15.053  1.00  0.00     0.025 A 
ATOM     14  C   UNL     1      -4.324   4.893  14.735  1.00  0.00     0.016 A 
ATOM     15  C   UNL     1      -4.721   3.887  15.620  1.00  0.00     0.051 A 
ATOM     16  C   UNL     1      -5.319   4.219  16.842  1.00  0.00     0.157 A 
ATOM     17  C   UNL     1      -5.118   6.572  16.289  1.00  0.00     0.062 A 
ATOM     18  C   UNL     1      -5.514   5.563  17.179  1.00  0.00     0.158 A 
BRANCH  16  19
ATOM     19  O   UNL     1      -5.718   3.219  17.727  1.00  0.00    -0.504 OA
ATOM     20  H   UNL     1      -6.557   3.313  18.289  1.00  0.00     0.293 HD
ENDBRANCH  16  19
BRANCH  18  21
ATOM     21  O   UNL     1      -6.103   5.891  18.400  1.00  0.00    -0.504 OA
ATOM     22  H   UNL     1      -7.084   6.136  18.466  1.00  0.00     0.293 HD
ENDBRANCH  18  21
ENDBRANCH   3  13
BRANCH  10  23
ATOM     23  O   UNL     1      -3.477  11.071  10.729  1.00  0.00    -0.507 OA
ATOM     24  H   UNL     1      -3.666  10.607   9.849  1.00  0.00     0.293 HD
ENDBRANCH  10  23
BRANCH  11  25
ATOM     25  O   UNL     1       0.677  10.789  13.165  1.00  0.00    -0.508 OA
ATOM     26  H   UNL     1       1.098  10.787  14.086  1.00  0.00     0.293 HD
ENDBRANCH  11  25
ENDBRANCH   1   2
BRANCH   1  27
ATOM     27  C   UNL     1      -7.496   8.102  12.835  1.00  0.00     0.339 C 
ATOM     28  C   UNL     1      -8.275   8.306  14.142  1.00  0.00     0.214 C 
ATOM     29  O   UNL     1      -8.297   7.535  11.806  1.00  0.00    -0.332 OA
ATOM     30  C   UNL     1      -8.858   6.967  14.619  1.00  0.00     0.180 C 
ATOM     31  C   UNL     1      -8.927   6.305  12.148  1.00  0.00     0.179 C 
ATOM     32  C   UNL     1      -9.700   6.346  13.495  1.00  0.00     0.177 C 
BRANCH  28  33
ATOM     33  O   UNL     1      -7.413   8.834  15.118  1.00  0.00    -0.384 OA
ATOM     34  H   UNL     1      -7.686   9.777  15.264  1.00  0.00     0.211 HD
ENDBRANCH  28  33
BRANCH  30  35
ATOM     35  O   UNL     1      -9.630   7.139  15.782  1.00  0.00    -0.387 OA
ATOM     36  H   UNL     1     -10.150   7.979  15.683  1.00  0.00     0.211 HD
ENDBRANCH  30  35
BRANCH  31  37
ATOM     37  C   UNL     1      -8.005   5.082  11.924  1.00  0.00     0.191 C 
BRANCH  37  38
ATOM     38  O   UNL     1      -7.603   4.485  13.126  1.00  0.00    -0.394 OA
ATOM     39  H   UNL     1      -8.340   4.610  13.779  1.00  0.00     0.210 HD
ENDBRANCH  37  38
ENDBRANCH  31  37
BRANCH  32  40
ATOM     40  O   UNL     1     -10.125   5.063  13.876  1.00  0.00    -0.387 OA
ATOM     41  H   UNL     1      -9.430   4.701  14.485  1.00  0.00     0.211 HD
ENDBRANCH  32  40
ENDBRANCH   1  27
TORSDOF 12
ENDMDL
MODEL 5
REMARK VINA RESULT:    -5.954      1.482      4.566
REMARK INTER + INTRA:         -10.018
REMARK INTER:                  -8.867
REMARK INTRA:                  -1.151
REMARK UNBOUND:                -1.279
REMARK SMILES O=c1c(O[C@H]2O[C@@H](CO)[C@@H](O)[C@H](O)[C@H]2O)c(-c2ccc(O)c(O)c2)oc2cc(O)cc(O)c12
REMARK SMILES IDX 4 1 3 2 16 3 25 4 2 5 26 6 1 7 33 8 27 9 31 10 28 11 30 12
REMARK SMILES IDX 17 13 18 14 19 15 20 16 24 17 22 18 21 19 23 21 32 23 29 25
REMARK SMILES IDX 5 27 14 28 6 29 12 30 7 31 10 32 15 33 13 35 8 37 9 38 11 40
REMARK H PARENT 21 20 23 22 32 24 29 26 15 34 13 36 9 39 11 41
REMARK Flexibility Score: inf
ROOT
ATOM      1  O   UNL     1      -4.115   6.658  13.743  1.00  0.00    -0.454 OA
ENDROOT
BRANCH   1   2
ATOM      2  C   UNL     1      -4.349   5.591  14.629  1.00  0.00     0.214 A 
ATOM      3  C   UNL     1      -5.677   5.208  14.901  1.00  0.00     0.180 A 
ATOM      4  O   UNL     1      -5.925   4.230  15.767  1.00  0.00    -0.452 OA
ATOM      5  C   UNL     1      -3.304   4.895  15.270  1.00  0.00     0.239 A 
ATOM      6  C   UNL     1      -4.972   3.557  16.398  1.00  0.00     0.146 A 
ATOM      7  O   UNL     1      -2.105   5.191  15.021  1.00  0.00    -0.285 OA
ATOM      8  C   UNL     1      -3.609   3.858  16.175  1.00  0.00     0.111 A 
ATOM      9  C   UNL     1      -5.335   2.540  17.288  1.00  0.00     0.094 A 
ATOM     10  C   UNL     1      -2.619   3.115  16.864  1.00  0.00     0.134 A 
ATOM     11  C   UNL     1      -4.352   1.810  17.965  1.00  0.00     0.123 A 
ATOM     12  C   UNL     1      -3.002   2.098  17.751  1.00  0.00     0.093 A 
BRANCH   3  13
ATOM     13  C   UNL     1      -6.833   5.903  14.290  1.00  0.00     0.025 A 
ATOM     14  C   UNL     1      -7.549   6.889  14.989  1.00  0.00     0.016 A 
ATOM     15  C   UNL     1      -8.639   7.528  14.393  1.00  0.00     0.051 A 
ATOM     16  C   UNL     1      -9.018   7.203  13.085  1.00  0.00     0.157 A 
ATOM     17  C   UNL     1      -7.204   5.596  12.971  1.00  0.00     0.062 A 
ATOM     18  C   UNL     1      -8.297   6.239  12.371  1.00  0.00     0.158 A 
BRANCH  16  19
ATOM     19  O   UNL     1     -10.105   7.836  12.486  1.00  0.00    -0.504 OA
ATOM     20  H   UNL     1      -9.984   8.477  11.710  1.00  0.00     0.293 HD
ENDBRANCH  16  19
BRANCH  18  21
ATOM     21  O   UNL     1      -8.671   5.923  11.065  1.00  0.00    -0.504 OA
ATOM     22  H   UNL     1      -9.363   5.209  10.871  1.00  0.00     0.293 HD
ENDBRANCH  18  21
ENDBRANCH   3  13
BRANCH  10  23
ATOM     23  O   UNL     1      -1.261   3.378  16.675  1.00  0.00    -0.507 OA
ATOM     24  H   UNL     1      -0.939   4.048  15.987  1.00  0.00     0.293 HD
ENDBRANCH  10  23
BRANCH  11  25
ATOM     25  O   UNL     1      -4.707   0.797  18.852  1.00  0.00    -0.508 OA
ATOM     26  H   UNL     1      -5.610   0.341  18.802  1.00  0.00     0.293 HD
ENDBRANCH  11  25
ENDBRANCH   1   2
BRANCH   1  27
ATOM     27  C   UNL     1      -3.283   7.787  14.012  1.00  0.00     0.339 C 
ATOM     28  C   UNL     1      -4.135   8.976  14.481  1.00  0.00     0.214 C 
ATOM     29  O   UNL     1      -2.454   8.115  12.905  1.00  0.00    -0.332 OA
ATOM     30  C   UNL     1      -4.999   9.491  13.321  1.00  0.00     0.180 C 
ATOM     31  C   UNL     1      -3.143   8.644  11.776  1.00  0.00     0.179 C 
ATOM     32  C   UNL     1      -4.102   9.817  12.118  1.00  0.00     0.177 C 
BRANCH  28  33
ATOM     33  O   UNL     1      -4.950   8.570  15.550  1.00  0.00    -0.384 OA
ATOM     34  H   UNL     1      -5.162   9.384  16.077  1.00  0.00     0.211 HD
ENDBRANCH  28  33
BRANCH  30  35
ATOM     35  O   UNL     1      -5.742  10.621  13.708  1.00  0.00    -0.387 OA
ATOM     36  H   UNL     1      -6.705  10.378  13.682  1.00  0.00     0.211 HD
ENDBRANCH  30  35
BRANCH  31  37
ATOM     37  C   UNL     1      -3.714   7.538  10.856  1.00  0.00     0.191 C 
BRANCH  37  38
ATOM     38  O   UNL     1      -5.090   7.346  11.036  1.00  0.00    -0.394 OA
ATOM     39  H   UNL     1      -5.288   7.513  11.994  1.00  0.00     0.210 HD
ENDBRANCH  37  38
ENDBRANCH  31  37
BRANCH  32  40
ATOM     40  O   UNL     1      -4.898  10.160  11.013  1.00  0.00    -0.387 OA
ATOM     41  H   UNL     1      -4.396   9.884  10.203  1.00  0.00     0.211 HD
ENDBRANCH  32  40
ENDBRANCH   1  27
TORSDOF 12
ENDMDL
MODEL 6
REMARK VINA RESULT:    -5.833      1.742      4.957
REMARK INTER + INTRA:          -9.839
REMARK INTER:                  -8.241
REMARK INTRA:                  -1.598
REMARK UNBOUND:                -1.279
REMARK SMILES O=c1c(O[C@H]2O[C@@H](CO)[C@@H](O)[C@H](O)[C@H]2O)c(-c2ccc(O)c(O)c2)oc2cc(O)cc(O)c12
REMARK SMILES IDX 4 1 3 2 16 3 25 4 2 5 26 6 1 7 33 8 27 9 31 10 28 11 30 12
REMARK SMILES IDX 17 13 18 14 19 15 20 16 24 17 22 18 21 19 23 21 32 23 29 25
REMARK SMILES IDX 5 27 14 28 6 29 12 30 7 31 10 32 15 33 13 35 8 37 9 38 11 40
REMARK H PARENT 21 20 23 22 32 24 29 26 15 34 13 36 9 39 11 41
REMARK Flexibility Score: inf
ROOT
ATOM      1  O   UNL     1      -4.142   7.246  13.986  1.00  0.00    -0.454 OA
ENDROOT
BRANCH   1   2
ATOM      2  C   UNL     1      -3.745   6.120  14.728  1.00  0.00     0.214 A 
ATOM      3  C   UNL     1      -4.698   5.124  15.019  1.00  0.00     0.180 A 
ATOM      4  O   UNL     1      -4.358   4.070  15.755  1.00  0.00    -0.452 OA
ATOM      5  C   UNL     1      -2.431   5.954  15.209  1.00  0.00     0.239 A 
ATOM      6  C   UNL     1      -3.136   3.880  16.234  1.00  0.00     0.146 A 
ATOM      7  O   UNL     1      -1.548   6.810  14.938  1.00  0.00    -0.285 OA
ATOM      8  C   UNL     1      -2.108   4.817  15.979  1.00  0.00     0.111 A 
ATOM      9  C   UNL     1      -2.875   2.736  16.995  1.00  0.00     0.094 A 
ATOM     10  C   UNL     1      -0.814   4.579  16.504  1.00  0.00     0.134 A 
ATOM     11  C   UNL     1      -1.595   2.506  17.510  1.00  0.00     0.123 A 
ATOM     12  C   UNL     1      -0.572   3.424  17.263  1.00  0.00     0.093 A 
BRANCH   3  13
ATOM     13  C   UNL     1      -6.106   5.234  14.574  1.00  0.00     0.025 A 
ATOM     14  C   UNL     1      -6.533   4.684  13.354  1.00  0.00     0.016 A 
ATOM     15  C   UNL     1      -7.867   4.804  12.953  1.00  0.00     0.051 A 
ATOM     16  C   UNL     1      -8.794   5.458  13.774  1.00  0.00     0.157 A 
ATOM     17  C   UNL     1      -7.044   5.870  15.403  1.00  0.00     0.062 A 
ATOM     18  C   UNL     1      -8.383   5.988  15.003  1.00  0.00     0.158 A 
BRANCH  16  19
ATOM     19  O   UNL     1     -10.125   5.581  13.378  1.00  0.00    -0.504 OA
ATOM     20  H   UNL     1     -10.394   6.179  12.605  1.00  0.00     0.293 HD
ENDBRANCH  16  19
BRANCH  18  21
ATOM     21  O   UNL     1      -9.310   6.632  15.822  1.00  0.00    -0.504 OA
ATOM     22  H   UNL     1     -10.291   6.380  15.812  1.00  0.00     0.293 HD
ENDBRANCH  18  21
ENDBRANCH   3  13
BRANCH  10  23
ATOM     23  O   UNL     1       0.230   5.477  16.278  1.00  0.00    -0.507 OA
ATOM     24  H   UNL     1       1.002   5.571  16.927  1.00  0.00     0.293 HD
ENDBRANCH  10  23
BRANCH  11  25
ATOM     25  O   UNL     1      -1.329   1.368  18.268  1.00  0.00    -0.508 OA
ATOM     26  H   UNL     1      -0.536   0.771  18.069  1.00  0.00     0.293 HD
ENDBRANCH  11  25
ENDBRANCH   1   2
BRANCH   1  27
ATOM     27  C   UNL     1      -3.961   7.413  12.578  1.00  0.00     0.339 C 
ATOM     28  C   UNL     1      -3.051   8.618  12.298  1.00  0.00     0.214 C 
ATOM     29  O   UNL     1      -5.201   7.495  11.888  1.00  0.00    -0.332 OA
ATOM     30  C   UNL     1      -3.771   9.919  12.680  1.00  0.00     0.180 C 
ATOM     31  C   UNL     1      -5.945   8.685  12.132  1.00  0.00     0.179 C 
ATOM     32  C   UNL     1      -5.122   9.990  11.953  1.00  0.00     0.177 C 
BRANCH  28  33
ATOM     33  O   UNL     1      -1.864   8.485  13.039  1.00  0.00    -0.384 OA
ATOM     34  H   UNL     1      -1.744   9.331  13.544  1.00  0.00     0.211 HD
ENDBRANCH  28  33
BRANCH  30  35
ATOM     35  O   UNL     1      -2.982  11.042  12.373  1.00  0.00    -0.387 OA
ATOM     36  H   UNL     1      -3.224  11.769  13.005  1.00  0.00     0.211 HD
ENDBRANCH  30  35
BRANCH  31  37
ATOM     37  C   UNL     1      -6.812   8.592  13.411  1.00  0.00     0.191 C 
BRANCH  37  38
ATOM     38  O   UNL     1      -6.214   9.217  14.513  1.00  0.00    -0.394 OA
ATOM     39  H   UNL     1      -5.871   8.501  15.108  1.00  0.00     0.210 HD
ENDBRANCH  37  38
ENDBRANCH  31  37
BRANCH  32  40
ATOM     40  O   UNL     1      -5.842  11.110  12.400  1.00  0.00    -0.387 OA
ATOM     41  H   UNL     1      -6.543  11.288  11.720  1.00  0.00     0.211 HD
ENDBRANCH  32  40
ENDBRANCH   1  27
TORSDOF 12
ENDMDL
MODEL 7
REMARK VINA RESULT:    -5.775      2.240      5.603
REMARK INTER + INTRA:          -9.755
REMARK INTER:                  -9.014
REMARK INTRA:                  -0.741
REMARK UNBOUND:                -1.279
REMARK SMILES O=c1c(O[C@H]2O[C@@H](CO)[C@@H](O)[C@H](O)[C@H]2O)c(-c2ccc(O)c(O)c2)oc2cc(O)cc(O)c12
REMARK SMILES IDX 4 1 3 2 16 3 25 4 2 5 26 6 1 7 33 8 27 9 31 10 28 11 30 12
REMARK SMILES IDX 17 13 18 14 19 15 20 16 24 17 22 18 21 19 23 21 32 23 29 25
REMARK SMILES IDX 5 27 14 28 6 29 12 30 7 31 10 32 15 33 13 35 8 37 9 38 11 40
REMARK H PARENT 21 20 23 22 32 24 29 26 15 34 13 36 9 39 11 41
REMARK Flexibility Score: inf
ROOT
ATOM      1  O   UNL     1      -6.430   7.485  13.200  1.00  0.00    -0.454 OA
ENDROOT
BRANCH   1   2
ATOM      2  C   UNL     1      -5.130   8.014  13.281  1.00  0.00     0.214 A 
ATOM      3  C   UNL     1      -4.502   8.091  14.540  1.00  0.00     0.180 A 
ATOM      4  O   UNL     1      -3.289   8.626  14.649  1.00  0.00    -0.452 OA
ATOM      5  C   UNL     1      -4.432   8.487  12.152  1.00  0.00     0.239 A 
ATOM      6  C   UNL     1      -2.602   9.091  13.614  1.00  0.00     0.146 A 
ATOM      7  O   UNL     1      -4.953   8.401  11.009  1.00  0.00    -0.285 OA
ATOM      8  C   UNL     1      -3.144   9.040  12.309  1.00  0.00     0.111 A 
ATOM      9  C   UNL     1      -1.331   9.631  13.830  1.00  0.00     0.094 A 
ATOM     10  C   UNL     1      -2.379   9.541  11.226  1.00  0.00     0.134 A 
ATOM     11  C   UNL     1      -0.581  10.125  12.757  1.00  0.00     0.123 A 
ATOM     12  C   UNL     1      -1.105  10.078  11.463  1.00  0.00     0.093 A 
BRANCH   3  13
ATOM     13  C   UNL     1      -5.174   7.641  15.780  1.00  0.00     0.025 A 
ATOM     14  C   UNL     1      -5.935   8.525  16.563  1.00  0.00     0.016 A 
ATOM     15  C   UNL     1      -6.558   8.077  17.732  1.00  0.00     0.051 A 
ATOM     16  C   UNL     1      -6.443   6.738  18.124  1.00  0.00     0.157 A 
ATOM     17  C   UNL     1      -5.080   6.294  16.166  1.00  0.00     0.062 A 
ATOM     18  C   UNL     1      -5.707   5.844  17.337  1.00  0.00     0.158 A 
BRANCH  16  19
ATOM     19  O   UNL     1      -7.060   6.287  19.289  1.00  0.00    -0.504 OA
ATOM     20  H   UNL     1      -6.778   5.423  19.738  1.00  0.00     0.293 HD
ENDBRANCH  16  19
BRANCH  18  21
ATOM     21  O   UNL     1      -5.600   4.509  17.725  1.00  0.00    -0.504 OA
ATOM     22  H   UNL     1      -6.238   3.803  17.376  1.00  0.00     0.293 HD
ENDBRANCH  18  21
ENDBRANCH   3  13
BRANCH  10  23
ATOM     23  O   UNL     1      -2.874   9.512   9.922  1.00  0.00    -0.507 OA
ATOM     24  H   UNL     1      -2.690   8.734   9.299  1.00  0.00     0.293 HD
ENDBRANCH  10  23
BRANCH  11  25
ATOM     25  O   UNL     1       0.686  10.664  12.966  1.00  0.00    -0.508 OA
ATOM     26  H   UNL     1       1.131  10.636  13.876  1.00  0.00     0.293 HD
ENDBRANCH  11  25
ENDBRANCH   1   2
BRANCH   1  27
ATOM     27  C   UNL     1      -7.617   8.139  13.653  1.00  0.00     0.339 C 
ATOM     28  C   UNL     1      -8.621   7.107  14.188  1.00  0.00     0.214 C 
ATOM     29  O   UNL     1      -8.179   8.977  12.652  1.00  0.00    -0.332 OA
ATOM     30  C   UNL     1      -9.155   6.247  13.033  1.00  0.00     0.180 C 
ATOM     31  C   UNL     1      -8.747   8.288  11.543  1.00  0.00     0.179 C 
ATOM     32  C   UNL     1      -9.737   7.159  11.942  1.00  0.00     0.177 C 
BRANCH  28  33
ATOM     33  O   UNL     1      -7.987   6.295  15.143  1.00  0.00    -0.384 OA
ATOM     34  H   UNL     1      -7.926   6.827  15.979  1.00  0.00     0.211 HD
ENDBRANCH  28  33
BRANCH  30  35
ATOM     35  O   UNL     1     -10.125   5.336  13.488  1.00  0.00    -0.387 OA
ATOM     36  H   UNL     1     -10.469   5.665  14.360  1.00  0.00     0.211 HD
ENDBRANCH  30  35
BRANCH  31  37
ATOM     37  C   UNL     1      -7.695   7.927  10.466  1.00  0.00     0.191 C 
BRANCH  37  38
ATOM     38  O   UNL     1      -7.298   6.585  10.530  1.00  0.00    -0.394 OA
ATOM     39  H   UNL     1      -7.979   6.053  10.041  1.00  0.00     0.210 HD
ENDBRANCH  37  38
ENDBRANCH  31  37
BRANCH  32  40
ATOM     40  O   UNL     1     -10.104   6.388  10.827  1.00  0.00    -0.387 OA
ATOM     41  H   UNL     1     -10.139   7.006  10.052  1.00  0.00     0.211 HD
ENDBRANCH  32  40
ENDBRANCH   1  27
TORSDOF 12
ENDMDL
MODEL 8
REMARK VINA RESULT:    -5.698     11.502     15.207
REMARK INTER + INTRA:          -9.642
REMARK INTER:                  -8.261
REMARK INTRA:                  -1.381
REMARK UNBOUND:                -1.279
REMARK SMILES O=c1c(O[C@H]2O[C@@H](CO)[C@@H](O)[C@H](O)[C@H]2O)c(-c2ccc(O)c(O)c2)oc2cc(O)cc(O)c12
REMARK SMILES IDX 4 1 3 2 16 3 25 4 2 5 26 6 1 7 33 8 27 9 31 10 28 11 30 12
REMARK SMILES IDX 17 13 18 14 19 15 20 16 24 17 22 18 21 19 23 21 32 23 29 25
REMARK SMILES IDX 5 27 14 28 6 29 12 30 7 31 10 32 15 33 13 35 8 37 9 38 11 40
REMARK H PARENT 21 20 23 22 32 24 29 26 15 34 13 36 9 39 11 41
REMARK Flexibility Score: inf
ROOT
ATOM      1  O   UNL     1      -7.424  -4.935  21.771  1.00  0.00    -0.454 OA
ENDROOT
BRANCH   1   2
ATOM      2  C   UNL     1      -7.163  -5.681  22.933  1.00  0.00     0.214 A 
ATOM      3  C   UNL     1      -5.859  -6.168  23.153  1.00  0.00     0.180 A 
ATOM      4  O   UNL     1      -5.597  -6.912  24.223  1.00  0.00    -0.452 OA
ATOM      5  C   UNL     1      -8.159  -5.976  23.885  1.00  0.00     0.239 A 
ATOM      6  C   UNL     1      -6.506  -7.220  25.138  1.00  0.00     0.146 A 
ATOM      7  O   UNL     1      -9.326  -5.526  23.735  1.00  0.00    -0.285 OA
ATOM      8  C   UNL     1      -7.838  -6.761  25.012  1.00  0.00     0.111 A 
ATOM      9  C   UNL     1      -6.131  -8.005  26.232  1.00  0.00     0.094 A 
ATOM     10  C   UNL     1      -8.782  -7.106  26.010  1.00  0.00     0.134 A 
ATOM     11  C   UNL     1      -7.068  -8.343  27.215  1.00  0.00     0.123 A 
ATOM     12  C   UNL     1      -8.385  -7.894  27.102  1.00  0.00     0.093 A 
BRANCH   3  13
ATOM     13  C   UNL     1      -4.760  -5.926  22.190  1.00  0.00     0.025 A 
ATOM     14  C   UNL     1      -4.394  -4.625  21.810  1.00  0.00     0.016 A 
ATOM     15  C   UNL     1      -3.355  -4.421  20.896  1.00  0.00     0.051 A 
ATOM     16  C   UNL     1      -2.659  -5.514  20.365  1.00  0.00     0.157 A 
ATOM     17  C   UNL     1      -4.044  -7.017  21.671  1.00  0.00     0.062 A 
ATOM     18  C   UNL     1      -3.001  -6.814  20.757  1.00  0.00     0.158 A 
BRANCH  16  19
ATOM     19  O   UNL     1      -1.624  -5.316  19.453  1.00  0.00    -0.504 OA
ATOM     20  H   UNL     1      -1.415  -5.998  18.732  1.00  0.00     0.293 HD
ENDBRANCH  16  19
BRANCH  18  21
ATOM     21  O   UNL     1      -2.301  -7.899  20.232  1.00  0.00    -0.504 OA
ATOM     22  H   UNL     1      -2.772  -8.756  19.968  1.00  0.00     0.293 HD
ENDBRANCH  18  21
ENDBRANCH   3  13
BRANCH  10  23
ATOM     23  O   UNL     1     -10.107  -6.676  25.927  1.00  0.00    -0.507 OA
ATOM     24  H   UNL     1     -10.862  -7.186  26.370  1.00  0.00     0.293 HD
ENDBRANCH  10  23
BRANCH  11  25
ATOM     25  O   UNL     1      -6.699  -9.125  28.307  1.00  0.00    -0.508 OA
ATOM     26  H   UNL     1      -7.329  -9.811  28.705  1.00  0.00     0.293 HD
ENDBRANCH  11  25
ENDBRANCH   1   2
BRANCH   1  27
ATOM     27  C   UNL     1      -8.363  -5.292  20.754  1.00  0.00     0.339 C 
ATOM     28  C   UNL     1      -7.727  -5.133  19.365  1.00  0.00     0.214 C 
ATOM     29  O   UNL     1      -9.583  -4.574  20.880  1.00  0.00    -0.332 OA
ATOM     30  C   UNL     1      -7.487  -3.646  19.065  1.00  0.00     0.180 C 
ATOM     31  C   UNL     1      -9.494  -3.183  20.584  1.00  0.00     0.179 C 
ATOM     32  C   UNL     1      -8.803  -2.871  19.228  1.00  0.00     0.177 C 
BRANCH  28  33
ATOM     33  O   UNL     1      -6.512  -5.837  19.328  1.00  0.00    -0.384 OA
ATOM     34  H   UNL     1      -5.791  -5.178  19.504  1.00  0.00     0.211 HD
ENDBRANCH  28  33
BRANCH  30  35
ATOM     35  O   UNL     1      -6.964  -3.470  17.771  1.00  0.00    -0.387 OA
ATOM     36  H   UNL     1      -6.007  -3.737  17.789  1.00  0.00     0.211 HD
ENDBRANCH  30  35
BRANCH  31  37
ATOM     37  C   UNL     1      -9.028  -2.346  21.800  1.00  0.00     0.191 C 
BRANCH  37  38
ATOM     38  O   UNL     1      -9.498  -2.857  23.017  1.00  0.00    -0.394 OA
ATOM     39  H   UNL     1     -10.410  -3.213  22.854  1.00  0.00     0.210 HD
ENDBRANCH  37  38
ENDBRANCH  31  37
BRANCH  32  40
ATOM     40  O   UNL     1      -8.562  -1.495  19.087  1.00  0.00    -0.387 OA
ATOM     41  H   UNL     1      -8.323  -1.343  18.135  1.00  0.00     0.211 HD
ENDBRANCH  32  40
ENDBRANCH   1  27
TORSDOF 12
ENDMDL
MODEL 9
REMARK VINA RESULT:    -5.681      2.000      6.500
REMARK INTER + INTRA:          -9.617
REMARK INTER:                  -8.904
REMARK INTRA:                  -0.713
REMARK UNBOUND:                -1.279
REMARK SMILES O=c1c(O[C@H]2O[C@@H](CO)[C@@H](O)[C@H](O)[C@H]2O)c(-c2ccc(O)c(O)c2)oc2cc(O)cc(O)c12
REMARK SMILES IDX 4 1 3 2 16 3 25 4 2 5 26 6 1 7 33 8 27 9 31 10 28 11 30 12
REMARK SMILES IDX 17 13 18 14 19 15 20 16 24 17 22 18 21 19 23 21 32 23 29 25
REMARK SMILES IDX 5 27 14 28 6 29 12 30 7 31 10 32 15 33 13 35 8 37 9 38 11 40
REMARK H PARENT 21 20 23 22 32 24 29 26 15 34 13 36 9 39 11 41
REMARK Flexibility Score: inf
ROOT
ATOM      1  O   UNL     1      -4.820   6.701  13.781  1.00  0.00    -0.454 OA
ENDROOT
BRANCH   1   2
ATOM      2  C   UNL     1      -5.681   7.541  13.054  1.00  0.00     0.214 A 
ATOM      3  C   UNL     1      -5.262   8.853  12.755  1.00  0.00     0.180 A 
ATOM      4  O   UNL     1      -6.076   9.680  12.105  1.00  0.00    -0.452 OA
ATOM      5  C   UNL     1      -6.957   7.128  12.622  1.00  0.00     0.239 A 
ATOM      6  C   UNL     1      -7.286   9.335  11.689  1.00  0.00     0.146 A 
ATOM      7  O   UNL     1      -7.346   5.951  12.843  1.00  0.00    -0.285 OA
ATOM      8  C   UNL     1      -7.785   8.033  11.927  1.00  0.00     0.111 A 
ATOM      9  C   UNL     1      -8.065  10.276  11.008  1.00  0.00     0.094 A 
ATOM     10  C   UNL     1      -9.082   7.698  11.464  1.00  0.00     0.134 A 
ATOM     11  C   UNL     1      -9.345   9.938  10.554  1.00  0.00     0.123 A 
ATOM     12  C   UNL     1      -9.847   8.655  10.782  1.00  0.00     0.093 A 
BRANCH   3  13
ATOM     13  C   UNL     1      -3.948   9.375  13.194  1.00  0.00     0.025 A 
ATOM     14  C   UNL     1      -3.819  10.147  14.361  1.00  0.00     0.016 A 
ATOM     15  C   UNL     1      -2.568  10.632  14.753  1.00  0.00     0.051 A 
ATOM     16  C   UNL     1      -1.429  10.338  13.994  1.00  0.00     0.157 A 
ATOM     17  C   UNL     1      -2.799   9.066  12.449  1.00  0.00     0.062 A 
ATOM     18  C   UNL     1      -1.543   9.550  12.843  1.00  0.00     0.158 A 
BRANCH  16  19
ATOM     19  O   UNL     1      -0.180  10.821  14.380  1.00  0.00    -0.504 OA
ATOM     20  H   UNL     1       0.165  11.718  14.055  1.00  0.00     0.293 HD
ENDBRANCH  16  19
BRANCH  18  21
ATOM     21  O   UNL     1      -0.406   9.253  12.093  1.00  0.00    -0.504 OA
ATOM     22  H   UNL     1       0.082   8.372  12.198  1.00  0.00     0.293 HD
ENDBRANCH  18  21
ENDBRANCH   3  13
BRANCH  10  23
ATOM     23  O   UNL     1      -9.615   6.426  11.677  1.00  0.00    -0.507 OA
ATOM     24  H   UNL     1     -10.023   5.886  10.923  1.00  0.00     0.293 HD
ENDBRANCH  10  23
BRANCH  11  25
ATOM     25  O   UNL     1     -10.125  10.872   9.875  1.00  0.00    -0.508 OA
ATOM     26  H   UNL     1      -9.708  11.593   9.299  1.00  0.00     0.293 HD
ENDBRANCH  11  25
ENDBRANCH   1   2
BRANCH   1  27
ATOM     27  C   UNL     1      -4.383   6.929  15.123  1.00  0.00     0.339 C 
ATOM     28  C   UNL     1      -3.037   6.232  15.369  1.00  0.00     0.214 C 
ATOM     29  O   UNL     1      -5.370   6.557  16.075  1.00  0.00    -0.332 OA
ATOM     30  C   UNL     1      -3.224   4.708  15.352  1.00  0.00     0.180 C 
ATOM     31  C   UNL     1      -5.604   5.156  16.180  1.00  0.00     0.179 C 
ATOM     32  C   UNL     1      -4.311   4.314  16.363  1.00  0.00     0.177 C 
BRANCH  28  33
ATOM     33  O   UNL     1      -2.125   6.619  14.372  1.00  0.00    -0.384 OA
ATOM     34  H   UNL     1      -1.319   6.051  14.483  1.00  0.00     0.211 HD
ENDBRANCH  28  33
BRANCH  30  35
ATOM     35  O   UNL     1      -2.016   4.047  15.639  1.00  0.00    -0.387 OA
ATOM     36  H   UNL     1      -1.990   3.867  16.616  1.00  0.00     0.211 HD
ENDBRANCH  30  35
BRANCH  31  37
ATOM     37  C   UNL     1      -6.613   4.640  15.126  1.00  0.00     0.191 C 
BRANCH  37  38
ATOM     38  O   UNL     1      -5.989   3.965  14.069  1.00  0.00    -0.394 OA
ATOM     39  H   UNL     1      -6.476   3.110  13.939  1.00  0.00     0.210 HD
ENDBRANCH  37  38
ENDBRANCH  31  37
BRANCH  32  40
ATOM     40  O   UNL     1      -4.581   2.940  16.257  1.00  0.00    -0.387 OA
ATOM     41  H   UNL     1      -5.567   2.838  16.307  1.00  0.00     0.211 HD
ENDBRANCH  32  40
ENDBRANCH   1  27
TORSDOF 12
ENDMDL
