MODEL 1
REMARK VINA RESULT:    -6.339      0.000      0.000
REMARK INTER + INTRA:         -11.106
REMARK INTER:                  -9.489
REMARK INTRA:                  -1.617
REMARK UNBOUND:                -1.617
REMARK SMILES COC(=O)C1=CO[C@@H](O[C@@H]2O[C@@H](CO)[C@H](O)[C@@H](O)[C@@H]2O)[C@@H]2C(CO)=CC[C@@H]12
REMARK SMILES IDX 9 1 8 2 5 3 6 4 27 5 7 6 21 7 26 8 22 9 25 10 3 11 4 12 2 13
REMARK SMILES IDX 1 14 23 15 24 16 10 18 19 19 11 20 17 21 12 22 15 23 20 24
REMARK SMILES IDX 18 26 13 28 14 29 16 31
REMARK H PARENT 24 17 20 25 18 27 14 30 16 32
REMARK Flexibility Score: inf
ROOT
ATOM      1  O   UNL     1      43.869 113.720  11.977  1.00  0.00    -0.310 OA
ENDROOT
BRANCH   1   2
ATOM      2  C   UNL     1      43.409 115.056  12.151  1.00  0.00     0.316 C 
ATOM      3  C   UNL     1      41.132 116.888  12.230  1.00  0.00     0.076 C 
ATOM      4  C   UNL     1      41.361 116.035  13.252  1.00  0.00     0.202 C 
ATOM      5  C   UNL     1      42.230 117.004  11.202  1.00  0.00     0.047 C 
ATOM      6  O   UNL     1      42.493 115.186  13.263  1.00  0.00    -0.471 OA
ATOM      7  C   UNL     1      42.754 115.612  10.876  1.00  0.00     0.094 C 
ATOM      8  C   UNL     1      41.976 117.599   9.818  1.00  0.00     0.037 C 
ATOM      9  C   UNL     1      43.564 115.874   9.651  1.00  0.00    -0.039 C 
ATOM     10  C   UNL     1      43.062 116.940   9.017  1.00  0.00    -0.024 C 
BRANCH   3  11
ATOM     11  C   UNL     1      39.943 117.770  12.228  1.00  0.00     0.337 C 
ATOM     12  O   UNL     1      40.078 119.013  12.400  1.00  0.00    -0.246 OA
BRANCH  11  13
ATOM     13  O   UNL     1      38.669 117.230  12.031  1.00  0.00    -0.466 OA
ATOM     14  C   UNL     1      37.575 117.510  12.896  1.00  0.00     0.282 C 
ENDBRANCH  11  13
ENDBRANCH   3  11
BRANCH   9  15
ATOM     15  C   UNL     1      44.502 114.897   9.000  1.00  0.00     0.187 C 
BRANCH  15  16
ATOM     16  O   UNL     1      45.672 114.771   9.761  1.00  0.00    -0.392 OA
ATOM     17  H   UNL     1      46.054 113.878   9.548  1.00  0.00     0.211 HD
ENDBRANCH  15  16
ENDBRANCH   9  15
ENDBRANCH   1   2
BRANCH   1  18
ATOM     18  C   UNL     1      44.948 113.300  12.812  1.00  0.00     0.286 C 
ATOM     19  C   UNL     1      45.503 111.940  12.330  1.00  0.00     0.202 C 
ATOM     20  O   UNL     1      45.989 114.259  12.928  1.00  0.00    -0.341 OA
ATOM     21  C   UNL     1      46.918 111.675  12.906  1.00  0.00     0.179 C 
ATOM     22  C   UNL     1      46.897 113.960  13.985  1.00  0.00     0.178 C 
ATOM     23  C   UNL     1      47.126 112.437  14.219  1.00  0.00     0.177 C 
BRANCH  19  24
ATOM     24  O   UNL     1      45.553 111.911  10.926  1.00  0.00    -0.385 OA
ATOM     25  H   UNL     1      46.083 112.701  10.642  1.00  0.00     0.211 HD
ENDBRANCH  19  24
BRANCH  21  26
ATOM     26  O   UNL     1      47.094 110.300  13.131  1.00  0.00    -0.387 OA
ATOM     27  H   UNL     1      48.074 110.137  13.162  1.00  0.00     0.211 HD
ENDBRANCH  21  26
BRANCH  22  28
ATOM     28  C   UNL     1      46.467 114.683  15.271  1.00  0.00     0.191 C 
BRANCH  28  29
ATOM     29  O   UNL     1      46.466 113.778  16.342  1.00  0.00    -0.394 OA
ATOM     30  H   UNL     1      47.107 114.140  17.008  1.00  0.00     0.210 HD
ENDBRANCH  28  29
ENDBRANCH  22  28
BRANCH  23  31
ATOM     31  O   UNL     1      48.432 112.209  14.685  1.00  0.00    -0.387 OA
ATOM     32  H   UNL     1      49.001 112.931  14.311  1.00  0.00     0.211 HD
ENDBRANCH  23  31
ENDBRANCH   1  18
TORSDOF 11
ENDMDL
MODEL 2
REMARK VINA RESULT:    -6.325      1.800      7.648
REMARK INTER + INTRA:         -11.085
REMARK INTER:                  -9.560
REMARK INTRA:                  -1.525
REMARK UNBOUND:                -1.617
REMARK SMILES COC(=O)C1=CO[C@@H](O[C@@H]2O[C@@H](CO)[C@H](O)[C@@H](O)[C@@H]2O)[C@@H]2C(CO)=CC[C@@H]12
REMARK SMILES IDX 9 1 8 2 5 3 6 4 27 5 7 6 21 7 26 8 22 9 25 10 3 11 4 12 2 13
REMARK SMILES IDX 1 14 23 15 24 16 10 18 19 19 11 20 17 21 12 22 15 23 20 24
REMARK SMILES IDX 18 26 13 28 14 29 16 31
REMARK H PARENT 24 17 20 25 18 27 14 30 16 32
REMARK Flexibility Score: inf
ROOT
ATOM      1  O   UNL     1      43.697 114.652  12.838  1.00  0.00    -0.310 OA
ENDROOT
BRANCH   1   2
ATOM      2  C   UNL     1      44.964 114.010  12.735  1.00  0.00     0.316 C 
ATOM      3  C   UNL     1      46.738 111.891  13.688  1.00  0.00     0.076 C 
ATOM      4  C   UNL     1      45.682 111.598  12.897  1.00  0.00     0.202 C 
ATOM      5  C   UNL     1      47.074 113.355  13.832  1.00  0.00     0.047 C 
ATOM      6  O   UNL     1      44.849 112.615  12.373  1.00  0.00    -0.471 OA
ATOM      7  C   UNL     1      45.785 114.142  14.028  1.00  0.00     0.094 C 
ATOM      8  C   UNL     1      47.956 113.869  14.969  1.00  0.00     0.037 C 
ATOM      9  C   UNL     1      46.307 115.468  14.472  1.00  0.00    -0.039 C 
ATOM     10  C   UNL     1      47.486 115.291  15.079  1.00  0.00    -0.024 C 
BRANCH   3  11
ATOM     11  C   UNL     1      47.601 110.818  14.232  1.00  0.00     0.337 C 
ATOM     12  O   UNL     1      47.188 110.097  15.183  1.00  0.00    -0.246 OA
BRANCH  11  13
ATOM     13  O   UNL     1      48.872 110.599  13.694  1.00  0.00    -0.466 OA
ATOM     14  C   UNL     1      49.071 110.028  12.407  1.00  0.00     0.282 C 
ENDBRANCH  11  13
ENDBRANCH   3  11
BRANCH   9  15
ATOM     15  C   UNL     1      45.493 116.725  14.607  1.00  0.00     0.187 C 
BRANCH  15  16
ATOM     16  O   UNL     1      45.368 117.354  13.361  1.00  0.00    -0.392 OA
ATOM     17  H   UNL     1      45.639 116.684  12.677  1.00  0.00     0.211 HD
ENDBRANCH  15  16
ENDBRANCH   9  15
ENDBRANCH   1   2
BRANCH   1  18
ATOM     18  C   UNL     1      43.257 115.389  11.697  1.00  0.00     0.286 C 
ATOM     19  C   UNL     1      42.063 116.297  12.072  1.00  0.00     0.202 C 
ATOM     20  O   UNL     1      44.286 116.141  11.070  1.00  0.00    -0.341 OA
ATOM     21  C   UNL     1      41.853 117.413  11.016  1.00  0.00     0.179 C 
ATOM     22  C   UNL     1      43.910 116.619   9.782  1.00  0.00     0.178 C 
ATOM     23  C   UNL     1      42.402 116.985   9.650  1.00  0.00     0.177 C 
BRANCH  19  24
ATOM     24  O   UNL     1      42.275 116.876  13.334  1.00  0.00    -0.385 OA
ATOM     25  H   UNL     1      43.239 116.765  13.542  1.00  0.00     0.211 HD
ENDBRANCH  19  24
BRANCH  21  26
ATOM     26  O   UNL     1      40.486 117.710  10.897  1.00  0.00    -0.387 OA
ATOM     27  H   UNL     1      40.000 117.067  11.478  1.00  0.00     0.211 HD
ENDBRANCH  21  26
BRANCH  22  28
ATOM     28  C   UNL     1      44.359 115.626   8.698  1.00  0.00     0.191 C 
BRANCH  28  29
ATOM     29  O   UNL     1      45.313 116.232   7.869  1.00  0.00    -0.394 OA
ATOM     30  H   UNL     1      45.250 115.769   6.993  1.00  0.00     0.210 HD
ENDBRANCH  28  29
ENDBRANCH  22  28
BRANCH  23  31
ATOM     31  O   UNL     1      42.236 118.037   8.734  1.00  0.00    -0.387 OA
ATOM     32  H   UNL     1      41.607 117.716   8.037  1.00  0.00     0.211 HD
ENDBRANCH  23  31
ENDBRANCH   1  18
TORSDOF 11
ENDMDL
MODEL 3
REMARK VINA RESULT:    -6.194      2.483      8.140
REMARK INTER + INTRA:         -10.889
REMARK INTER:                  -9.837
REMARK INTRA:                  -1.051
REMARK UNBOUND:                -1.617
REMARK SMILES COC(=O)C1=CO[C@@H](O[C@@H]2O[C@@H](CO)[C@H](O)[C@@H](O)[C@@H]2O)[C@@H]2C(CO)=CC[C@@H]12
REMARK SMILES IDX 9 1 8 2 5 3 6 4 27 5 7 6 21 7 26 8 22 9 25 10 3 11 4 12 2 13
REMARK SMILES IDX 1 14 23 15 24 16 10 18 19 19 11 20 17 21 12 22 15 23 20 24
REMARK SMILES IDX 18 26 13 28 14 29 16 31
REMARK H PARENT 24 17 20 25 18 27 14 30 16 32
REMARK Flexibility Score: inf
ROOT
ATOM      1  O   UNL     1      40.111 117.853  12.994  1.00  0.00    -0.310 OA
ENDROOT
BRANCH   1   2
ATOM      2  C   UNL     1      40.735 116.577  13.081  1.00  0.00     0.316 C 
ATOM      3  C   UNL     1      42.921 114.971  14.171  1.00  0.00     0.076 C 
ATOM      4  C   UNL     1      41.896 115.360  14.961  1.00  0.00     0.202 C 
ATOM      5  C   UNL     1      42.742 115.197  12.691  1.00  0.00     0.047 C 
ATOM      6  O   UNL     1      40.797 116.082  14.439  1.00  0.00    -0.471 OA
ATOM      7  C   UNL     1      42.145 116.580  12.468  1.00  0.00     0.094 C 
ATOM      8  C   UNL     1      43.928 115.185  11.726  1.00  0.00     0.037 C 
ATOM      9  C   UNL     1      42.341 116.761  11.000  1.00  0.00    -0.039 C 
ATOM     10  C   UNL     1      43.401 116.042  10.611  1.00  0.00    -0.024 C 
BRANCH   3  11
ATOM     11  C   UNL     1      44.067 114.218  14.729  1.00  0.00     0.337 C 
ATOM     12  O   UNL     1      44.957 114.821  15.393  1.00  0.00    -0.246 OA
BRANCH  11  13
ATOM     13  O   UNL     1      44.166 112.839  14.527  1.00  0.00    -0.466 OA
ATOM     14  C   UNL     1      45.156 112.255  13.690  1.00  0.00     0.282 C 
ENDBRANCH  11  13
ENDBRANCH   3  11
BRANCH   9  15
ATOM     15  C   UNL     1      41.746 117.862  10.169  1.00  0.00     0.187 C 
BRANCH  15  16
ATOM     16  O   UNL     1      42.337 117.882   8.898  1.00  0.00    -0.392 OA
ATOM     17  H   UNL     1      43.307 118.055   9.041  1.00  0.00     0.211 HD
ENDBRANCH  15  16
ENDBRANCH   9  15
ENDBRANCH   1   2
BRANCH   1  18
ATOM     18  C   UNL     1      38.920 118.038  13.758  1.00  0.00     0.286 C 
ATOM     19  C   UNL     1      38.514 119.530  13.769  1.00  0.00     0.202 C 
ATOM     20  O   UNL     1      37.836 117.223  13.335  1.00  0.00    -0.341 OA
ATOM     21  C   UNL     1      37.032 119.706  14.188  1.00  0.00     0.179 C 
ATOM     22  C   UNL     1      36.769 117.194  14.279  1.00  0.00     0.178 C 
ATOM     23  C   UNL     1      36.564 118.531  15.053  1.00  0.00     0.177 C 
BRANCH  19  24
ATOM     24  O   UNL     1      38.714 120.093  12.497  1.00  0.00    -0.385 OA
ATOM     25  H   UNL     1      38.958 121.044  12.639  1.00  0.00     0.211 HD
ENDBRANCH  19  24
BRANCH  21  26
ATOM     26  O   UNL     1      36.874 120.904  14.904  1.00  0.00    -0.387 OA
ATOM     27  H   UNL     1      37.755 121.111  15.314  1.00  0.00     0.211 HD
ENDBRANCH  21  26
BRANCH  22  28
ATOM     28  C   UNL     1      36.935 115.998  15.229  1.00  0.00     0.191 C 
BRANCH  28  29
ATOM     29  O   UNL     1      36.097 116.159  16.341  1.00  0.00    -0.394 OA
ATOM     30  H   UNL     1      35.414 116.829  16.076  1.00  0.00     0.210 HD
ENDBRANCH  28  29
ENDBRANCH  22  28
BRANCH  23  31
ATOM     31  O   UNL     1      35.207 118.702  15.373  1.00  0.00    -0.387 OA
ATOM     32  H   UNL     1      35.152 118.779  16.361  1.00  0.00     0.211 HD
ENDBRANCH  23  31
ENDBRANCH   1  18
TORSDOF 11
ENDMDL
MODEL 4
REMARK VINA RESULT:    -6.059      3.257      6.242
REMARK INTER + INTRA:         -10.687
REMARK INTER:                  -9.374
REMARK INTRA:                  -1.313
REMARK UNBOUND:                -1.617
REMARK SMILES COC(=O)C1=CO[C@@H](O[C@@H]2O[C@@H](CO)[C@H](O)[C@@H](O)[C@@H]2O)[C@@H]2C(CO)=CC[C@@H]12
REMARK SMILES IDX 9 1 8 2 5 3 6 4 27 5 7 6 21 7 26 8 22 9 25 10 3 11 4 12 2 13
REMARK SMILES IDX 1 14 23 15 24 16 10 18 19 19 11 20 17 21 12 22 15 23 20 24
REMARK SMILES IDX 18 26 13 28 14 29 16 31
REMARK H PARENT 24 17 20 25 18 27 14 30 16 32
REMARK Flexibility Score: inf
ROOT
ATOM      1  O   UNL     1      45.052 113.117   8.626  1.00  0.00    -0.310 OA
ENDROOT
BRANCH   1   2
ATOM      2  C   UNL     1      45.409 113.519   9.944  1.00  0.00     0.316 C 
ATOM      3  C   UNL     1      44.739 113.514  12.789  1.00  0.00     0.076 C 
ATOM      4  C   UNL     1      45.210 112.396  12.194  1.00  0.00     0.202 C 
ATOM      5  C   UNL     1      44.820 114.783  11.979  1.00  0.00     0.047 C 
ATOM      6  O   UNL     1      45.600 112.395  10.833  1.00  0.00    -0.471 OA
ATOM      7  C   UNL     1      44.381 114.488  10.550  1.00  0.00     0.094 C 
ATOM      8  C   UNL     1      43.993 116.018  12.334  1.00  0.00     0.037 C 
ATOM      9  C   UNL     1      44.207 115.864   9.998  1.00  0.00    -0.039 C 
ATOM     10  C   UNL     1      43.901 116.698  10.998  1.00  0.00    -0.024 C 
BRANCH   3  11
ATOM     11  C   UNL     1      44.331 113.502  14.213  1.00  0.00     0.337 C 
ATOM     12  O   UNL     1      43.106 113.509  14.519  1.00  0.00    -0.246 OA
BRANCH  11  13
ATOM     13  O   UNL     1      45.300 113.479  15.220  1.00  0.00    -0.466 OA
ATOM     14  C   UNL     1      46.375 114.409  15.273  1.00  0.00     0.282 C 
ENDBRANCH  11  13
ENDBRANCH   3  11
BRANCH   9  15
ATOM     15  C   UNL     1      43.989 116.201   8.550  1.00  0.00     0.187 C 
BRANCH  15  16
ATOM     16  O   UNL     1      45.218 116.256   7.878  1.00  0.00    -0.392 OA
ATOM     17  H   UNL     1      45.725 115.444   8.149  1.00  0.00     0.211 HD
ENDBRANCH  15  16
ENDBRANCH   9  15
ENDBRANCH   1   2
BRANCH   1  18
ATOM     18  C   UNL     1      46.121 112.947   7.695  1.00  0.00     0.286 C 
ATOM     19  C   UNL     1      46.825 111.589   7.928  1.00  0.00     0.202 C 
ATOM     20  O   UNL     1      45.727 113.086   6.338  1.00  0.00    -0.341 OA
ATOM     21  C   UNL     1      47.666 111.175   6.693  1.00  0.00     0.179 C 
ATOM     22  C   UNL     1      46.836 113.215   5.454  1.00  0.00     0.178 C 
ATOM     23  C   UNL     1      48.095 112.404   5.885  1.00  0.00     0.177 C 
BRANCH  19  24
ATOM     24  O   UNL     1      45.872 110.595   8.204  1.00  0.00    -0.385 OA
ATOM     25  H   UNL     1      44.987 110.967   7.952  1.00  0.00     0.211 HD
ENDBRANCH  19  24
BRANCH  21  26
ATOM     26  O   UNL     1      48.807 110.467   7.106  1.00  0.00    -0.387 OA
ATOM     27  H   UNL     1      48.584 110.047   7.978  1.00  0.00     0.211 HD
ENDBRANCH  21  26
BRANCH  22  28
ATOM     28  C   UNL     1      47.158 114.699   5.222  1.00  0.00     0.191 C 
BRANCH  28  29
ATOM     29  O   UNL     1      48.517 114.843   4.908  1.00  0.00    -0.394 OA
ATOM     30  H   UNL     1      48.793 115.722   5.278  1.00  0.00     0.210 HD
ENDBRANCH  28  29
ENDBRANCH  22  28
BRANCH  23  31
ATOM     31  O   UNL     1      48.814 111.986   4.752  1.00  0.00    -0.387 OA
ATOM     32  H   UNL     1      49.772 112.168   4.936  1.00  0.00     0.211 HD
ENDBRANCH  23  31
ENDBRANCH   1  18
TORSDOF 11
ENDMDL
MODEL 5
REMARK VINA RESULT:    -5.958      3.403      6.045
REMARK INTER + INTRA:         -10.536
REMARK INTER:                  -9.143
REMARK INTRA:                  -1.393
REMARK UNBOUND:                -1.617
REMARK SMILES COC(=O)C1=CO[C@@H](O[C@@H]2O[C@@H](CO)[C@H](O)[C@@H](O)[C@@H]2O)[C@@H]2C(CO)=CC[C@@H]12
REMARK SMILES IDX 9 1 8 2 5 3 6 4 27 5 7 6 21 7 26 8 22 9 25 10 3 11 4 12 2 13
REMARK SMILES IDX 1 14 23 15 24 16 10 18 19 19 11 20 17 21 12 22 15 23 20 24
REMARK SMILES IDX 18 26 13 28 14 29 16 31
REMARK H PARENT 24 17 20 25 18 27 14 30 16 32
REMARK Flexibility Score: inf
ROOT
ATOM      1  O   UNL     1      44.870 113.624   9.727  1.00  0.00    -0.310 OA
ENDROOT
BRANCH   1   2
ATOM      2  C   UNL     1      45.459 113.505  11.017  1.00  0.00     0.316 C 
ATOM      3  C   UNL     1      45.112 112.781  13.828  1.00  0.00     0.076 C 
ATOM      4  C   UNL     1      45.188 111.823  12.878  1.00  0.00     0.202 C 
ATOM      5  C   UNL     1      45.459 114.182  13.390  1.00  0.00     0.047 C 
ATOM      6  O   UNL     1      45.420 112.150  11.521  1.00  0.00    -0.471 OA
ATOM      7  C   UNL     1      44.811 114.453  12.039  1.00  0.00     0.094 C 
ATOM      8  C   UNL     1      45.051 115.406  14.209  1.00  0.00     0.037 C 
ATOM      9  C   UNL     1      44.970 115.932  11.919  1.00  0.00    -0.039 C 
ATOM     10  C   UNL     1      45.014 116.465  13.146  1.00  0.00    -0.024 C 
BRANCH   3  11
ATOM     11  C   UNL     1      44.867 112.428  15.245  1.00  0.00     0.337 C 
ATOM     12  O   UNL     1      45.836 112.331  16.049  1.00  0.00    -0.246 OA
BRANCH  11  13
ATOM     13  O   UNL     1      43.563 112.206  15.697  1.00  0.00    -0.466 OA
ATOM     14  C   UNL     1      42.705 113.261  16.112  1.00  0.00     0.282 C 
ENDBRANCH  11  13
ENDBRANCH   3  11
BRANCH   9  15
ATOM     15  C   UNL     1      44.707 116.741  10.680  1.00  0.00     0.187 C 
BRANCH  15  16
ATOM     16  O   UNL     1      45.801 116.657   9.808  1.00  0.00    -0.392 OA
ATOM     17  H   UNL     1      45.742 117.444   9.203  1.00  0.00     0.211 HD
ENDBRANCH  15  16
ENDBRANCH   9  15
ENDBRANCH   1   2
BRANCH   1  18
ATOM     18  C   UNL     1      45.496 112.902   8.667  1.00  0.00     0.286 C 
ATOM     19  C   UNL     1      45.438 113.717   7.354  1.00  0.00     0.202 C 
ATOM     20  O   UNL     1      46.828 112.501   8.956  1.00  0.00    -0.341 OA
ATOM     21  C   UNL     1      46.469 113.192   6.323  1.00  0.00     0.179 C 
ATOM     22  C   UNL     1      47.324 111.538   8.031  1.00  0.00     0.178 C 
ATOM     23  C   UNL     1      46.796 111.716   6.576  1.00  0.00     0.177 C 
BRANCH  19  24
ATOM     24  O   UNL     1      45.686 115.074   7.619  1.00  0.00    -0.385 OA
ATOM     25  H   UNL     1      44.970 115.590   7.164  1.00  0.00     0.211 HD
ENDBRANCH  19  24
BRANCH  21  26
ATOM     26  O   UNL     1      45.964 113.340   5.020  1.00  0.00    -0.387 OA
ATOM     27  H   UNL     1      46.515 114.037   4.576  1.00  0.00     0.211 HD
ENDBRANCH  21  26
BRANCH  22  28
ATOM     28  C   UNL     1      47.078 110.118   8.564  1.00  0.00     0.191 C 
BRANCH  28  29
ATOM     29  O   UNL     1      47.030 110.142   9.965  1.00  0.00    -0.394 OA
ATOM     30  H   UNL     1      47.596 110.908  10.247  1.00  0.00     0.210 HD
ENDBRANCH  28  29
ENDBRANCH  22  28
BRANCH  23  31
ATOM     31  O   UNL     1      47.766 111.291   5.653  1.00  0.00    -0.387 OA
ATOM     32  H   UNL     1      48.045 112.093   5.139  1.00  0.00     0.211 HD
ENDBRANCH  23  31
ENDBRANCH   1  18
TORSDOF 11
ENDMDL
MODEL 6
REMARK VINA RESULT:    -5.927      4.485      8.462
REMARK INTER + INTRA:         -10.489
REMARK INTER:                  -9.796
REMARK INTRA:                  -0.693
REMARK UNBOUND:                -1.617
REMARK SMILES COC(=O)C1=CO[C@@H](O[C@@H]2O[C@@H](CO)[C@H](O)[C@@H](O)[C@@H]2O)[C@@H]2C(CO)=CC[C@@H]12
REMARK SMILES IDX 9 1 8 2 5 3 6 4 27 5 7 6 21 7 26 8 22 9 25 10 3 11 4 12 2 13
REMARK SMILES IDX 1 14 23 15 24 16 10 18 19 19 11 20 17 21 12 22 15 23 20 24
REMARK SMILES IDX 18 26 13 28 14 29 16 31
REMARK H PARENT 24 17 20 25 18 27 14 30 16 32
REMARK Flexibility Score: inf
ROOT
ATOM      1  O   UNL     1      45.054 113.284   7.706  1.00  0.00    -0.310 OA
ENDROOT
BRANCH   1   2
ATOM      2  C   UNL     1      46.292 113.739   7.169  1.00  0.00     0.316 C 
ATOM      3  C   UNL     1      47.916 114.219   4.786  1.00  0.00     0.076 C 
ATOM      4  C   UNL     1      46.886 115.039   5.090  1.00  0.00     0.202 C 
ATOM      5  C   UNL     1      48.315 113.229   5.852  1.00  0.00     0.047 C 
ATOM      6  O   UNL     1      46.128 114.861   6.272  1.00  0.00    -0.471 OA
ATOM      7  C   UNL     1      47.058 112.614   6.453  1.00  0.00     0.094 C 
ATOM      8  C   UNL     1      49.167 112.002   5.531  1.00  0.00     0.037 C 
ATOM      9  C   UNL     1      47.621 111.463   7.218  1.00  0.00    -0.039 C 
ATOM     10  C   UNL     1      48.761 111.071   6.637  1.00  0.00    -0.024 C 
BRANCH   3  11
ATOM     11  C   UNL     1      48.701 114.413   3.546  1.00  0.00     0.337 C 
ATOM     12  O   UNL     1      49.904 114.791   3.611  1.00  0.00    -0.246 OA
BRANCH  11  13
ATOM     13  O   UNL     1      48.114 114.174   2.300  1.00  0.00    -0.466 OA
ATOM     14  C   UNL     1      48.813 113.550   1.230  1.00  0.00     0.282 C 
ENDBRANCH  11  13
ENDBRANCH   3  11
BRANCH   9  15
ATOM     15  C   UNL     1      46.863 110.613   8.199  1.00  0.00     0.187 C 
BRANCH  15  16
ATOM     16  O   UNL     1      45.517 110.521   7.818  1.00  0.00    -0.392 OA
ATOM     17  H   UNL     1      45.068 111.338   8.167  1.00  0.00     0.211 HD
ENDBRANCH  15  16
ENDBRANCH   9  15
ENDBRANCH   1   2
BRANCH   1  18
ATOM     18  C   UNL     1      44.397 114.155   8.627  1.00  0.00     0.286 C 
ATOM     19  C   UNL     1      44.570 113.636  10.074  1.00  0.00     0.202 C 
ATOM     20  O   UNL     1      44.807 115.511   8.524  1.00  0.00    -0.341 OA
ATOM     21  C   UNL     1      44.276 114.752  11.109  1.00  0.00     0.179 C 
ATOM     22  C   UNL     1      43.941 116.401   9.223  1.00  0.00     0.178 C 
ATOM     23  C   UNL     1      43.327 115.805  10.525  1.00  0.00     0.177 C 
BRANCH  19  24
ATOM     24  O   UNL     1      45.877 113.155  10.259  1.00  0.00    -0.385 OA
ATOM     25  H   UNL     1      46.374 113.857  10.754  1.00  0.00     0.211 HD
ENDBRANCH  19  24
BRANCH  21  26
ATOM     26  O   UNL     1      43.701 114.196  12.264  1.00  0.00    -0.387 OA
ATOM     27  H   UNL     1      44.408 113.653  12.703  1.00  0.00     0.211 HD
ENDBRANCH  21  26
BRANCH  22  28
ATOM     28  C   UNL     1      42.863 116.945   8.274  1.00  0.00     0.191 C 
BRANCH  28  29
ATOM     29  O   UNL     1      42.164 117.987   8.901  1.00  0.00    -0.394 OA
ATOM     30  H   UNL     1      42.822 118.717   9.037  1.00  0.00     0.210 HD
ENDBRANCH  28  29
ENDBRANCH  22  28
BRANCH  23  31
ATOM     31  O   UNL     1      43.121 116.820  11.474  1.00  0.00    -0.387 OA
ATOM     32  H   UNL     1      44.010 117.218  11.667  1.00  0.00     0.211 HD
ENDBRANCH  23  31
ENDBRANCH   1  18
TORSDOF 11
ENDMDL
MODEL 7
REMARK VINA RESULT:    -5.889      2.085      4.216
REMARK INTER + INTRA:         -10.433
REMARK INTER:                  -8.898
REMARK INTRA:                  -1.535
REMARK UNBOUND:                -1.617
REMARK SMILES COC(=O)C1=CO[C@@H](O[C@@H]2O[C@@H](CO)[C@H](O)[C@@H](O)[C@@H]2O)[C@@H]2C(CO)=CC[C@@H]12
REMARK SMILES IDX 9 1 8 2 5 3 6 4 27 5 7 6 21 7 26 8 22 9 25 10 3 11 4 12 2 13
REMARK SMILES IDX 1 14 23 15 24 16 10 18 19 19 11 20 17 21 12 22 15 23 20 24
REMARK SMILES IDX 18 26 13 28 14 29 16 31
REMARK H PARENT 24 17 20 25 18 27 14 30 16 32
REMARK Flexibility Score: inf
ROOT
ATOM      1  O   UNL     1      43.398 116.333  11.951  1.00  0.00    -0.310 OA
ENDROOT
BRANCH   1   2
ATOM      2  C   UNL     1      42.000 116.299  12.218  1.00  0.00     0.316 C 
ATOM      3  C   UNL     1      39.598 117.784  12.971  1.00  0.00     0.076 C 
ATOM      4  C   UNL     1      40.121 117.910  11.731  1.00  0.00     0.202 C 
ATOM      5  C   UNL     1      40.166 116.678  13.824  1.00  0.00     0.047 C 
ATOM      6  O   UNL     1      41.246 117.151  11.326  1.00  0.00    -0.471 OA
ATOM      7  C   UNL     1      41.682 116.666  13.676  1.00  0.00     0.094 C 
ATOM      8  C   UNL     1      39.978 116.653  15.340  1.00  0.00     0.037 C 
ATOM      9  C   UNL     1      42.088 115.770  14.798  1.00  0.00    -0.039 C 
ATOM     10  C   UNL     1      41.166 115.840  15.766  1.00  0.00    -0.024 C 
BRANCH   3  11
ATOM     11  C   UNL     1      38.423 118.585  13.384  1.00  0.00     0.337 C 
ATOM     12  O   UNL     1      38.537 119.831  13.559  1.00  0.00    -0.246 OA
BRANCH  11  13
ATOM     13  O   UNL     1      37.185 117.967  13.578  1.00  0.00    -0.466 OA
ATOM     14  C   UNL     1      36.128 118.053  12.630  1.00  0.00     0.282 C 
ENDBRANCH  11  13
ENDBRANCH   3  11
BRANCH   9  15
ATOM     15  C   UNL     1      43.466 115.213  15.015  1.00  0.00     0.187 C 
BRANCH  15  16
ATOM     16  O   UNL     1      44.432 116.168  14.669  1.00  0.00    -0.392 OA
ATOM     17  H   UNL     1      43.944 116.918  14.234  1.00  0.00     0.211 HD
ENDBRANCH  15  16
ENDBRANCH   9  15
ENDBRANCH   1   2
BRANCH   1  18
ATOM     18  C   UNL     1      43.962 115.175  11.334  1.00  0.00     0.286 C 
ATOM     19  C   UNL     1      44.182 115.423   9.824  1.00  0.00     0.202 C 
ATOM     20  O   UNL     1      45.158 114.722  11.952  1.00  0.00    -0.341 OA
ATOM     21  C   UNL     1      45.177 114.397   9.226  1.00  0.00     0.179 C 
ATOM     22  C   UNL     1      45.535 113.416  11.527  1.00  0.00     0.178 C 
ATOM     23  C   UNL     1      45.184 113.100  10.043  1.00  0.00     0.177 C 
BRANCH  19  24
ATOM     24  O   UNL     1      44.667 116.726   9.617  1.00  0.00    -0.385 OA
ATOM     25  H   UNL     1      45.378 116.660   8.927  1.00  0.00     0.211 HD
ENDBRANCH  19  24
BRANCH  21  26
ATOM     26  O   UNL     1      44.827 114.108   7.896  1.00  0.00    -0.387 OA
ATOM     27  H   UNL     1      45.357 114.721   7.321  1.00  0.00     0.211 HD
ENDBRANCH  21  26
BRANCH  22  28
ATOM     28  C   UNL     1      44.969 112.362  12.491  1.00  0.00     0.191 C 
BRANCH  28  29
ATOM     29  O   UNL     1      44.979 111.103  11.872  1.00  0.00    -0.394 OA
ATOM     30  H   UNL     1      45.653 111.159  11.146  1.00  0.00     0.210 HD
ENDBRANCH  28  29
ENDBRANCH  22  28
BRANCH  23  31
ATOM     31  O   UNL     1      46.129 112.214   9.498  1.00  0.00    -0.387 OA
ATOM     32  H   UNL     1      46.656 111.853  10.258  1.00  0.00     0.211 HD
ENDBRANCH  23  31
ENDBRANCH   1  18
TORSDOF 11
ENDMDL
MODEL 8
REMARK VINA RESULT:    -5.775      1.931      7.475
REMARK INTER + INTRA:         -10.261
REMARK INTER:                  -9.024
REMARK INTRA:                  -1.238
REMARK UNBOUND:                -1.617
REMARK SMILES COC(=O)C1=CO[C@@H](O[C@@H]2O[C@@H](CO)[C@H](O)[C@@H](O)[C@@H]2O)[C@@H]2C(CO)=CC[C@@H]12
REMARK SMILES IDX 9 1 8 2 5 3 6 4 27 5 7 6 21 7 26 8 22 9 25 10 3 11 4 12 2 13
REMARK SMILES IDX 1 14 23 15 24 16 10 18 19 19 11 20 17 21 12 22 15 23 20 24
REMARK SMILES IDX 18 26 13 28 14 29 16 31
REMARK H PARENT 24 17 20 25 18 27 14 30 16 32
REMARK Flexibility Score: inf
ROOT
ATOM      1  O   UNL     1      41.883 116.913  12.917  1.00  0.00    -0.310 OA
ENDROOT
BRANCH   1   2
ATOM      2  C   UNL     1      42.275 115.612  12.492  1.00  0.00     0.316 C 
ATOM      3  C   UNL     1      44.381 113.588  12.374  1.00  0.00     0.076 C 
ATOM      4  C   UNL     1      43.730 113.833  13.532  1.00  0.00     0.202 C 
ATOM      5  C   UNL     1      43.799 114.224  11.136  1.00  0.00     0.047 C 
ATOM      6  O   UNL     1      42.664 114.762  13.595  1.00  0.00    -0.471 OA
ATOM      7  C   UNL     1      43.408 115.661  11.454  1.00  0.00     0.094 C 
ATOM      8  C   UNL     1      44.611 114.374   9.851  1.00  0.00     0.037 C 
ATOM      9  C   UNL     1      43.174 116.218  10.089  1.00  0.00    -0.039 C 
ATOM     10  C   UNL     1      43.924 115.545   9.210  1.00  0.00    -0.024 C 
BRANCH   3  11
ATOM     11  C   UNL     1      45.496 112.615  12.320  1.00  0.00     0.337 C 
ATOM     12  O   UNL     1      45.429 111.618  11.548  1.00  0.00    -0.246 OA
BRANCH  11  13
ATOM     13  O   UNL     1      46.628 112.800  13.120  1.00  0.00    -0.466 OA
ATOM     14  C   UNL     1      46.884 112.017  14.279  1.00  0.00     0.282 C 
ENDBRANCH  11  13
ENDBRANCH   3  11
BRANCH   9  15
ATOM     15  C   UNL     1      42.550 117.552   9.787  1.00  0.00     0.187 C 
BRANCH  15  16
ATOM     16  O   UNL     1      41.177 117.517  10.068  1.00  0.00    -0.392 OA
ATOM     17  H   UNL     1      41.048 118.022  10.915  1.00  0.00     0.211 HD
ENDBRANCH  15  16
ENDBRANCH   9  15
ENDBRANCH   1   2
BRANCH   1  18
ATOM     18  C   UNL     1      40.561 117.045  13.439  1.00  0.00     0.286 C 
ATOM     19  C   UNL     1      40.607 117.293  14.964  1.00  0.00     0.202 C 
ATOM     20  O   UNL     1      39.786 118.042  12.788  1.00  0.00    -0.341 OA
ATOM     21  C   UNL     1      39.267 117.877  15.479  1.00  0.00     0.179 C 
ATOM     22  C   UNL     1      38.400 117.955  13.106  1.00  0.00     0.178 C 
ATOM     23  C   UNL     1      38.107 117.478  14.560  1.00  0.00     0.177 C 
BRANCH  19  24
ATOM     24  O   UNL     1      41.656 118.175  15.277  1.00  0.00    -0.385 OA
ATOM     25  H   UNL     1      41.709 118.831  14.535  1.00  0.00     0.211 HD
ENDBRANCH  19  24
BRANCH  21  26
ATOM     26  O   UNL     1      39.010 117.415  16.781  1.00  0.00    -0.387 OA
ATOM     27  H   UNL     1      39.206 118.169  17.397  1.00  0.00     0.211 HD
ENDBRANCH  21  26
BRANCH  22  28
ATOM     28  C   UNL     1      37.670 117.099  12.060  1.00  0.00     0.191 C 
BRANCH  28  29
ATOM     29  O   UNL     1      36.342 117.535  11.938  1.00  0.00    -0.394 OA
ATOM     30  H   UNL     1      35.819 117.013  12.600  1.00  0.00     0.210 HD
ENDBRANCH  28  29
ENDBRANCH  22  28
BRANCH  23  31
ATOM     31  O   UNL     1      36.919 118.062  15.032  1.00  0.00    -0.387 OA
ATOM     32  H   UNL     1      37.180 118.874  15.540  1.00  0.00     0.211 HD
ENDBRANCH  23  31
ENDBRANCH   1  18
TORSDOF 11
ENDMDL
MODEL 9
REMARK VINA RESULT:    -5.621      2.618      5.558
REMARK INTER + INTRA:         -10.030
REMARK INTER:                  -8.456
REMARK INTRA:                  -1.574
REMARK UNBOUND:                -1.617
REMARK SMILES COC(=O)C1=CO[C@@H](O[C@@H]2O[C@@H](CO)[C@H](O)[C@@H](O)[C@@H]2O)[C@@H]2C(CO)=CC[C@@H]12
REMARK SMILES IDX 9 1 8 2 5 3 6 4 27 5 7 6 21 7 26 8 22 9 25 10 3 11 4 12 2 13
REMARK SMILES IDX 1 14 23 15 24 16 10 18 19 19 11 20 17 21 12 22 15 23 20 24
REMARK SMILES IDX 18 26 13 28 14 29 16 31
REMARK H PARENT 24 17 20 25 18 27 14 30 16 32
REMARK Flexibility Score: inf
ROOT
ATOM      1  O   UNL     1      44.900 114.106  12.933  1.00  0.00    -0.310 OA
ENDROOT
BRANCH   1   2
ATOM      2  C   UNL     1      44.650 113.588  11.630  1.00  0.00     0.316 C 
ATOM      3  C   UNL     1      45.726 112.910   8.998  1.00  0.00     0.076 C 
ATOM      4  C   UNL     1      46.002 112.137  10.072  1.00  0.00     0.202 C 
ATOM      5  C   UNL     1      44.662 113.961   9.192  1.00  0.00     0.047 C 
ATOM      6  O   UNL     1      45.438 112.411  11.341  1.00  0.00    -0.471 OA
ATOM      7  C   UNL     1      44.877 114.644  10.536  1.00  0.00     0.094 C 
ATOM      8  C   UNL     1      44.516 115.144   8.236  1.00  0.00     0.037 C 
ATOM      9  C   UNL     1      43.980 115.831  10.419  1.00  0.00    -0.039 C 
ATOM     10  C   UNL     1      43.857 116.157   9.127  1.00  0.00    -0.024 C 
BRANCH   3  11
ATOM     11  C   UNL     1      46.323 112.615   7.676  1.00  0.00     0.337 C 
ATOM     12  O   UNL     1      45.578 112.351   6.691  1.00  0.00    -0.246 OA
BRANCH  11  13
ATOM     13  O   UNL     1      47.711 112.632   7.513  1.00  0.00    -0.466 OA
ATOM     14  C   UNL     1      48.333 112.633   6.234  1.00  0.00     0.282 C 
ENDBRANCH  11  13
ENDBRANCH   3  11
BRANCH   9  15
ATOM     15  C   UNL     1      43.614 116.762  11.540  1.00  0.00     0.187 C 
BRANCH  15  16
ATOM     16  O   UNL     1      44.758 117.104  12.275  1.00  0.00    -0.392 OA
ATOM     17  H   UNL     1      44.504 117.874  12.851  1.00  0.00     0.211 HD
ENDBRANCH  15  16
ENDBRANCH   9  15
ENDBRANCH   1   2
BRANCH   1  18
ATOM     18  C   UNL     1      46.135 113.732  13.544  1.00  0.00     0.286 C 
ATOM     19  C   UNL     1      46.838 114.975  14.137  1.00  0.00     0.202 C 
ATOM     20  O   UNL     1      46.004 112.710  14.522  1.00  0.00    -0.341 OA
ATOM     21  C   UNL     1      47.919 114.568  15.172  1.00  0.00     0.179 C 
ATOM     22  C   UNL     1      47.256 112.145  14.897  1.00  0.00     0.178 C 
ATOM     23  C   UNL     1      48.442 113.155  14.890  1.00  0.00     0.177 C 
BRANCH  19  24
ATOM     24  O   UNL     1      45.894 115.816  14.749  1.00  0.00    -0.385 OA
ATOM     25  H   UNL     1      45.182 115.983  14.079  1.00  0.00     0.211 HD
ENDBRANCH  19  24
BRANCH  21  26
ATOM     26  O   UNL     1      48.988 115.478  15.132  1.00  0.00    -0.387 OA
ATOM     27  H   UNL     1      49.375 115.506  16.047  1.00  0.00     0.211 HD
ENDBRANCH  21  26
BRANCH  22  28
ATOM     28  C   UNL     1      47.553 110.903  14.042  1.00  0.00     0.191 C 
BRANCH  28  29
ATOM     29  O   UNL     1      46.353 110.386  13.530  1.00  0.00    -0.394 OA
ATOM     30  H   UNL     1      45.794 111.172  13.294  1.00  0.00     0.210 HD
ENDBRANCH  28  29
ENDBRANCH  22  28
BRANCH  23  31
ATOM     31  O   UNL     1      49.383 112.805  15.873  1.00  0.00    -0.387 OA
ATOM     32  H   UNL     1      49.600 113.635  16.373  1.00  0.00     0.211 HD
ENDBRANCH  23  31
ENDBRANCH   1  18
TORSDOF 11
ENDMDL
