MODEL 1
REMARK VINA RESULT:    -3.612      0.000      0.000
REMARK INTER + INTRA:          -4.295
REMARK INTER:                  -4.246
REMARK INTRA:                  -0.049
REMARK UNBOUND:                -0.049
REMARK SMILES O=C([O-])CCC(=O)[O-]
REMARK SMILES IDX 4 1 2 2 1 3 3 4 5 5 6 6 7 7 8 8
REMARK H PARENT
REMARK Flexibility Score: inf
ROOT
ATOM      1  C   UNL     1      16.558 -48.243 -21.620  1.00  0.00     0.059 C 
ENDROOT
BRANCH   1   2
ATOM      2  C   UNL     1      15.278 -48.767 -21.051  1.00  0.00     0.042 C 
ATOM      3  O   UNL     1      14.261 -48.028 -20.992  1.00  0.00    -0.550 OA
ATOM      4  O   UNL     1      15.221 -50.058 -20.541  1.00  0.00    -0.550 OA
ENDBRANCH   1   2
BRANCH   1   5
ATOM      5  C   UNL     1      16.362 -46.827 -22.165  1.00  0.00     0.059 C 
BRANCH   5   6
ATOM      6  C   UNL     1      17.545 -45.972 -21.840  1.00  0.00     0.042 C 
ATOM      7  O   UNL     1      17.398 -44.740 -21.627  1.00  0.00    -0.550 OA
ATOM      8  O   UNL     1      18.805 -46.546 -21.722  1.00  0.00    -0.550 OA
ENDBRANCH   5   6
ENDBRANCH   1   5
TORSDOF 3
ENDMDL
MODEL 2
REMARK VINA RESULT:    -3.548     13.656     14.142
REMARK INTER + INTRA:          -4.220
REMARK INTER:                  -4.096
REMARK INTRA:                  -0.123
REMARK UNBOUND:                -0.049
REMARK SMILES O=C([O-])CCC(=O)[O-]
REMARK SMILES IDX 4 1 2 2 1 3 3 4 5 5 6 6 7 7 8 8
REMARK H PARENT
REMARK Flexibility Score: inf
ROOT
ATOM      1  C   UNL     1      11.238 -59.574 -17.595  1.00  0.00     0.059 C 
ENDROOT
BRANCH   1   2
ATOM      2  C   UNL     1      12.319 -59.821 -16.592  1.00  0.00     0.042 C 
ATOM      3  O   UNL     1      12.039 -60.294 -15.460  1.00  0.00    -0.550 OA
ATOM      4  O   UNL     1      13.634 -59.482 -16.890  1.00  0.00    -0.550 OA
ENDBRANCH   1   2
BRANCH   1   5
ATOM      5  C   UNL     1      11.158 -60.732 -18.592  1.00  0.00     0.059 C 
BRANCH   5   6
ATOM      6  C   UNL     1      11.797 -60.351 -19.889  1.00  0.00     0.042 C 
ATOM      7  O   UNL     1      13.000 -60.646 -20.115  1.00  0.00    -0.550 OA
ATOM      8  O   UNL     1      11.049 -59.711 -20.871  1.00  0.00    -0.550 OA
ENDBRANCH   5   6
ENDBRANCH   1   5
TORSDOF 3
ENDMDL
MODEL 3
REMARK VINA RESULT:    -3.522     13.478     14.042
REMARK INTER + INTRA:          -4.188
REMARK INTER:                  -4.073
REMARK INTRA:                  -0.116
REMARK UNBOUND:                -0.049
REMARK SMILES O=C([O-])CCC(=O)[O-]
REMARK SMILES IDX 4 1 2 2 1 3 3 4 5 5 6 6 7 7 8 8
REMARK H PARENT
REMARK Flexibility Score: inf
ROOT
ATOM      1  C   UNL     1      11.660 -60.316 -18.228  1.00  0.00     0.059 C 
ENDROOT
BRANCH   1   2
ATOM      2  C   UNL     1      11.927 -60.328 -19.699  1.00  0.00     0.042 C 
ATOM      3  O   UNL     1      13.047 -60.700 -20.137  1.00  0.00    -0.550 OA
ATOM      4  O   UNL     1      10.955 -59.881 -20.586  1.00  0.00    -0.550 OA
ENDBRANCH   1   2
BRANCH   1   5
ATOM      5  C   UNL     1      12.743 -61.095 -17.480  1.00  0.00     0.059 C 
BRANCH   5   6
ATOM      6  C   UNL     1      13.627 -60.162 -16.717  1.00  0.00     0.042 C 
ATOM      7  O   UNL     1      13.524 -60.072 -15.465  1.00  0.00    -0.550 OA
ATOM      8  O   UNL     1      14.599 -59.425 -17.382  1.00  0.00    -0.550 OA
ENDBRANCH   5   6
ENDBRANCH   1   5
TORSDOF 3
ENDMDL
MODEL 4
REMARK VINA RESULT:    -3.504     14.292     15.706
REMARK INTER + INTRA:          -4.167
REMARK INTER:                  -4.132
REMARK INTRA:                  -0.035
REMARK UNBOUND:                -0.049
REMARK SMILES O=C([O-])CCC(=O)[O-]
REMARK SMILES IDX 4 1 2 2 1 3 3 4 5 5 6 6 7 7 8 8
REMARK H PARENT
REMARK Flexibility Score: inf
ROOT
ATOM      1  C   UNL     1      13.059 -57.793 -31.029  1.00  0.00     0.059 C 
ENDROOT
BRANCH   1   2
ATOM      2  C   UNL     1      13.411 -56.350 -31.193  1.00  0.00     0.042 C 
ATOM      3  O   UNL     1      13.513 -55.604 -30.185  1.00  0.00    -0.550 OA
ATOM      4  O   UNL     1      13.578 -55.815 -32.465  1.00  0.00    -0.550 OA
ENDBRANCH   1   2
BRANCH   1   5
ATOM      5  C   UNL     1      13.401 -58.576 -32.299  1.00  0.00     0.059 C 
BRANCH   5   6
ATOM      6  C   UNL     1      13.100 -60.029 -32.115  1.00  0.00     0.042 C 
ATOM      7  O   UNL     1      13.646 -60.888 -32.856  1.00  0.00    -0.550 OA
ATOM      8  O   UNL     1      12.252 -60.440 -31.093  1.00  0.00    -0.550 OA
ENDBRANCH   5   6
ENDBRANCH   1   5
TORSDOF 3
ENDMDL
MODEL 5
REMARK VINA RESULT:    -3.483     13.434     14.200
REMARK INTER + INTRA:          -4.143
REMARK INTER:                  -4.045
REMARK INTRA:                  -0.098
REMARK UNBOUND:                -0.049
REMARK SMILES O=C([O-])CCC(=O)[O-]
REMARK SMILES IDX 4 1 2 2 1 3 3 4 5 5 6 6 7 7 8 8
REMARK H PARENT
REMARK Flexibility Score: inf
ROOT
ATOM      1  C   UNL     1      13.099 -60.990 -17.034  1.00  0.00     0.059 C 
ENDROOT
BRANCH   1   2
ATOM      2  C   UNL     1      14.160 -60.055 -16.549  1.00  0.00     0.042 C 
ATOM      3  O   UNL     1      14.798 -59.342 -17.366  1.00  0.00    -0.550 OA
ATOM      4  O   UNL     1      14.479 -60.007 -15.197  1.00  0.00    -0.550 OA
ENDBRANCH   1   2
BRANCH   1   5
ATOM      5  C   UNL     1      12.944 -60.884 -18.553  1.00  0.00     0.059 C 
BRANCH   5   6
ATOM      6  C   UNL     1      11.624 -60.277 -18.904  1.00  0.00     0.042 C 
ATOM      7  O   UNL     1      10.988 -59.605 -18.051  1.00  0.00    -0.550 OA
ATOM      8  O   UNL     1      11.117 -60.412 -20.191  1.00  0.00    -0.550 OA
ENDBRANCH   5   6
ENDBRANCH   1   5
TORSDOF 3
ENDMDL
MODEL 6
REMARK VINA RESULT:    -3.355      2.953      4.689
REMARK INTER + INTRA:          -3.992
REMARK INTER:                  -3.877
REMARK INTRA:                  -0.115
REMARK UNBOUND:                -0.049
REMARK SMILES O=C([O-])CCC(=O)[O-]
REMARK SMILES IDX 4 1 2 2 1 3 3 4 5 5 6 6 7 7 8 8
REMARK H PARENT
REMARK Flexibility Score: inf
ROOT
ATOM      1  C   UNL     1      16.411 -44.606 -23.101  1.00  0.00     0.059 C 
ENDROOT
BRANCH   1   2
ATOM      2  C   UNL     1      17.305 -45.076 -21.999  1.00  0.00     0.042 C 
ATOM      3  O   UNL     1      17.262 -46.274 -21.614  1.00  0.00    -0.550 OA
ATOM      4  O   UNL     1      18.155 -44.179 -21.362  1.00  0.00    -0.550 OA
ENDBRANCH   1   2
BRANCH   1   5
ATOM      5  C   UNL     1      16.594 -43.106 -23.336  1.00  0.00     0.059 C 
BRANCH   5   6
ATOM      6  C   UNL     1      15.457 -42.339 -22.740  1.00  0.00     0.042 C 
ATOM      7  O   UNL     1      14.334 -42.328 -23.307  1.00  0.00    -0.550 OA
ATOM      8  O   UNL     1      15.624 -41.676 -21.530  1.00  0.00    -0.550 OA
ENDBRANCH   5   6
ENDBRANCH   1   5
TORSDOF 3
ENDMDL
MODEL 7
REMARK VINA RESULT:    -3.351      2.906      4.883
REMARK INTER + INTRA:          -3.987
REMARK INTER:                  -3.884
REMARK INTRA:                  -0.104
REMARK UNBOUND:                -0.049
REMARK SMILES O=C([O-])CCC(=O)[O-]
REMARK SMILES IDX 4 1 2 2 1 3 3 4 5 5 6 6 7 7 8 8
REMARK H PARENT
REMARK Flexibility Score: inf
ROOT
ATOM      1  C   UNL     1      16.647 -43.193 -23.294  1.00  0.00     0.059 C 
ENDROOT
BRANCH   1   2
ATOM      2  C   UNL     1      15.512 -42.394 -22.739  1.00  0.00     0.042 C 
ATOM      3  O   UNL     1      14.468 -42.217 -23.420  1.00  0.00    -0.550 OA
ATOM      4  O   UNL     1      15.627 -41.801 -21.487  1.00  0.00    -0.550 OA
ENDBRANCH   1   2
BRANCH   1   5
ATOM      5  C   UNL     1      16.362 -44.691 -23.163  1.00  0.00     0.059 C 
BRANCH   5   6
ATOM      6  C   UNL     1      17.214 -45.294 -22.094  1.00  0.00     0.042 C 
ATOM      7  O   UNL     1      18.100 -44.605 -21.524  1.00  0.00    -0.550 OA
ATOM      8  O   UNL     1      16.999 -46.607 -21.691  1.00  0.00    -0.550 OA
ENDBRANCH   5   6
ENDBRANCH   1   5
TORSDOF 3
ENDMDL
MODEL 8
REMARK VINA RESULT:    -3.310      2.521      3.817
REMARK INTER + INTRA:          -3.940
REMARK INTER:                  -3.824
REMARK INTRA:                  -0.116
REMARK UNBOUND:                -0.049
REMARK SMILES O=C([O-])CCC(=O)[O-]
REMARK SMILES IDX 4 1 2 2 1 3 3 4 5 5 6 6 7 7 8 8
REMARK H PARENT
REMARK Flexibility Score: inf
ROOT
ATOM      1  C   UNL     1      17.307 -45.466 -21.946  1.00  0.00     0.059 C 
ENDROOT
BRANCH   1   2
ATOM      2  C   UNL     1      16.739 -44.855 -23.186  1.00  0.00     0.042 C 
ATOM      3  O   UNL     1      15.688 -44.163 -23.129  1.00  0.00    -0.550 OA
ATOM      4  O   UNL     1      17.343 -45.088 -24.416  1.00  0.00    -0.550 OA
ENDBRANCH   1   2
BRANCH   1   5
ATOM      5  C   UNL     1      17.148 -46.988 -21.978  1.00  0.00     0.059 C 
BRANCH   5   6
ATOM      6  C   UNL     1      18.487 -47.654 -21.971  1.00  0.00     0.042 C 
ATOM      7  O   UNL     1      19.523 -46.997 -22.254  1.00  0.00    -0.550 OA
ATOM      8  O   UNL     1      18.597 -48.990 -21.605  1.00  0.00    -0.550 OA
ENDBRANCH   5   6
ENDBRANCH   1   5
TORSDOF 3
ENDMDL
MODEL 9
REMARK VINA RESULT:    -3.300      2.528      3.199
REMARK INTER + INTRA:          -3.928
REMARK INTER:                  -3.808
REMARK INTRA:                  -0.120
REMARK UNBOUND:                -0.049
REMARK SMILES O=C([O-])CCC(=O)[O-]
REMARK SMILES IDX 4 1 2 2 1 3 3 4 5 5 6 6 7 7 8 8
REMARK H PARENT
REMARK Flexibility Score: inf
ROOT
ATOM      1  C   UNL     1      17.147 -47.012 -22.007  1.00  0.00     0.059 C 
ENDROOT
BRANCH   1   2
ATOM      2  C   UNL     1      18.497 -47.654 -21.985  1.00  0.00     0.042 C 
ATOM      3  O   UNL     1      19.514 -47.003 -22.340  1.00  0.00    -0.550 OA
ATOM      4  O   UNL     1      18.626 -48.989 -21.620  1.00  0.00    -0.550 OA
ENDBRANCH   1   2
BRANCH   1   5
ATOM      5  C   UNL     1      17.277 -45.489 -21.930  1.00  0.00     0.059 C 
BRANCH   5   6
ATOM      6  C   UNL     1      16.740 -44.854 -23.172  1.00  0.00     0.042 C 
ATOM      7  O   UNL     1      15.782 -44.041 -23.106  1.00  0.00    -0.550 OA
ATOM      8  O   UNL     1      17.330 -45.123 -24.402  1.00  0.00    -0.550 OA
ENDBRANCH   5   6
ENDBRANCH   1   5
TORSDOF 3
ENDMDL
