MODEL 1
REMARK VINA RESULT:    -4.186      0.000      0.000
REMARK INTER + INTRA:          -4.320
REMARK INTER:                  -5.165
REMARK INTRA:                   0.845
REMARK UNBOUND:                 0.845
REMARK SMILES CC1=CC=CC(C)(C)CC1=O
REMARK SMILES IDX 1 1 2 2 3 3 10 4 11 5 9 6 4 8 5 9 6 10 7 11 8 12
REMARK H PARENT
REMARK Flexibility Score: 80.00
ROOT
ATOM      1  C   UNL     1       5.405  13.508  47.462  1.00  0.00     0.048 C 
ATOM      2  C   UNL     1       3.964  13.103  47.260  1.00  0.00    -0.008 C 
ATOM      3  C   UNL     1       3.152  13.963  46.608  1.00  0.00     0.007 C 
ENDROOT
BRANCH   2   4
ATOM      4  C   UNL     1       3.546  11.802  47.850  1.00  0.00     0.159 C 
ATOM      5  O   UNL     1       4.422  11.081  48.400  1.00  0.00    -0.295 OA
BRANCH   4   6
ATOM      6  C   UNL     1       2.131  11.304  47.869  1.00  0.00     0.091 CG0
ATOM      7  G   UNL     1       1.444  11.313  46.485  1.00  0.00     0.000 G0
ENDBRANCH   4   6
ENDBRANCH   2   4
BRANCH   3   8
ATOM      8  C   UNL     1       1.719  13.834  46.259  1.00  0.00    -0.003 C 
ATOM      9  C   UNL     1       0.979  12.723  46.174  1.00  0.00    -0.020 C 
BRANCH   9  10
ATOM     10  C   UNL     1       1.437  11.319  46.492  1.00  0.00    -0.010 CG0
ATOM     11  C   UNL     1       2.337  10.779  45.356  1.00  0.00     0.016 C 
ATOM     12  C   UNL     1       0.189  10.412  46.582  1.00  0.00     0.016 C 
ATOM     13  G   UNL     1       2.140  11.308  47.868  1.00  0.00     0.000 G0
ENDBRANCH   9  10
ENDBRANCH   3   8
TORSDOF 0
ENDMDL
MODEL 2
REMARK VINA RESULT:    -3.974      1.858      3.648
REMARK INTER + INTRA:          -4.058
REMARK INTER:                  -5.154
REMARK INTRA:                   1.096
REMARK UNBOUND:                 0.845
REMARK SMILES CC1=CC=CC(C)(C)CC1=O
REMARK SMILES IDX 1 1 2 2 3 3 10 4 11 5 9 6 4 8 5 9 6 10 7 11 8 12
REMARK H PARENT
REMARK Flexibility Score: 80.00
ROOT
ATOM      1  C   UNL     1      -0.181  12.644  45.604  1.00  0.00     0.048 C 
ATOM      2  C   UNL     1       1.257  12.329  45.947  1.00  0.00    -0.008 C 
ATOM      3  C   UNL     1       1.727  11.103  45.629  1.00  0.00     0.007 C 
ENDROOT
BRANCH   2   4
ATOM      4  C   UNL     1       2.022  13.387  46.660  1.00  0.00     0.159 C 
ATOM      5  O   UNL     1       1.400  14.402  47.077  1.00  0.00    -0.295 OA
BRANCH   4   6
ATOM      6  C   UNL     1       3.491  13.309  46.955  1.00  0.00     0.091 CG0
ATOM      7  G   UNL     1       3.916  12.012  47.681  1.00  0.00     0.000 G0
ENDBRANCH   4   6
ENDBRANCH   2   4
BRANCH   3   8
ATOM      8  C   UNL     1       3.075  10.524  45.829  1.00  0.00    -0.003 C 
ATOM      9  C   UNL     1       4.034  10.917  46.675  1.00  0.00    -0.020 C 
BRANCH   9  10
ATOM     10  C   UNL     1       3.926  12.029  47.692  1.00  0.00    -0.010 CG0
ATOM     11  C   UNL     1       5.259  12.187  48.458  1.00  0.00     0.016 C 
ATOM     12  C   UNL     1       2.832  11.644  48.714  1.00  0.00     0.016 C 
ATOM     13  G   UNL     1       3.486  13.331  46.984  1.00  0.00     0.000 G0
ENDBRANCH   9  10
ENDBRANCH   3   8
TORSDOF 0
ENDMDL
MODEL 3
REMARK VINA RESULT:    -3.888      1.688      2.709
REMARK INTER + INTRA:          -3.952
REMARK INTER:                  -5.026
REMARK INTRA:                   1.075
REMARK UNBOUND:                 0.845
REMARK SMILES CC1=CC=CC(C)(C)CC1=O
REMARK SMILES IDX 1 1 2 2 3 3 10 4 11 5 9 6 4 8 5 9 6 10 7 11 8 12
REMARK H PARENT
REMARK Flexibility Score: 80.00
ROOT
ATOM      1  C   UNL     1       6.595  13.491  48.669  1.00  0.00     0.048 C 
ATOM      2  C   UNL     1       5.199  12.963  48.435  1.00  0.00    -0.008 C 
ATOM      3  C   UNL     1       4.743  11.996  49.261  1.00  0.00     0.007 C 
ENDROOT
BRANCH   2   4
ATOM      4  C   UNL     1       4.460  13.520  47.270  1.00  0.00     0.159 C 
ATOM      5  O   UNL     1       5.086  14.244  46.449  1.00  0.00    -0.295 OA
BRANCH   4   6
ATOM      6  C   UNL     1       3.014  13.243  46.982  1.00  0.00     0.091 CG0
ATOM      7  G   UNL     1       2.666  11.739  46.905  1.00  0.00     0.000 G0
ENDBRANCH   4   6
ENDBRANCH   2   4
BRANCH   3   8
ATOM      8  C   UNL     1       3.434  11.307  49.282  1.00  0.00    -0.003 C 
ATOM      9  C   UNL     1       2.525  11.214  48.304  1.00  0.00    -0.020 C 
BRANCH   9  10
ATOM     10  C   UNL     1       2.668  11.751  46.900  1.00  0.00    -0.010 CG0
ATOM     11  C   UNL     1       1.376  11.489  46.091  1.00  0.00     0.016 C 
ATOM     12  C   UNL     1       3.824  10.993  46.208  1.00  0.00     0.016 C 
ATOM     13  G   UNL     1       3.042  13.249  46.958  1.00  0.00     0.000 G0
ENDBRANCH   9  10
ENDBRANCH   3   8
TORSDOF 0
ENDMDL
MODEL 4
REMARK VINA RESULT:    -3.649      1.471      2.361
REMARK INTER + INTRA:          -3.657
REMARK INTER:                  -4.521
REMARK INTRA:                   0.865
REMARK UNBOUND:                 0.845
REMARK SMILES CC1=CC=CC(C)(C)CC1=O
REMARK SMILES IDX 1 1 2 2 3 3 10 4 11 5 9 6 4 8 5 9 6 10 7 11 8 12
REMARK H PARENT
REMARK Flexibility Score: 80.00
ROOT
ATOM      1  C   UNL     1       5.511  13.763  47.449  1.00  0.00     0.048 C 
ATOM      2  C   UNL     1       4.426  12.875  46.886  1.00  0.00    -0.008 C 
ATOM      3  C   UNL     1       4.775  11.637  46.472  1.00  0.00     0.007 C 
ENDROOT
BRANCH   2   4
ATOM      4  C   UNL     1       3.064  13.465  46.785  1.00  0.00     0.159 C 
ATOM      5  O   UNL     1       2.874  14.625  47.243  1.00  0.00    -0.295 OA
BRANCH   4   6
ATOM      6  C   UNL     1       1.898  12.782  46.133  1.00  0.00     0.091 CG0
ATOM      7  G   UNL     1       1.647  11.345  46.644  1.00  0.00     0.000 G0
ENDBRANCH   4   6
ENDBRANCH   2   4
BRANCH   3   8
ATOM      8  C   UNL     1       3.939  10.559  45.898  1.00  0.00    -0.003 C 
ATOM      9  C   UNL     1       2.613  10.399  45.980  1.00  0.00    -0.020 C 
BRANCH   9  10
ATOM     10  C   UNL     1       1.640  11.346  46.640  1.00  0.00    -0.010 CG0
ATOM     11  C   UNL     1       1.743  11.236  48.179  1.00  0.00     0.016 C 
ATOM     12  C   UNL     1       0.208  10.932  46.228  1.00  0.00     0.016 C 
ATOM     13  G   UNL     1       1.892  12.782  46.126  1.00  0.00     0.000 G0
ENDBRANCH   9  10
ENDBRANCH   3   8
TORSDOF 0
ENDMDL
MODEL 5
REMARK VINA RESULT:    -3.543      1.727      3.404
REMARK INTER + INTRA:          -3.527
REMARK INTER:                  -4.358
REMARK INTRA:                   0.831
REMARK UNBOUND:                 0.845
REMARK SMILES CC1=CC=CC(C)(C)CC1=O
REMARK SMILES IDX 1 1 2 2 3 3 10 4 11 5 9 6 4 8 5 9 6 10 7 11 8 12
REMARK H PARENT
REMARK Flexibility Score: 80.00
ROOT
ATOM      1  C   UNL     1      -0.972  13.042  45.805  1.00  0.00     0.048 C 
ATOM      2  C   UNL     1       0.504  12.819  46.032  1.00  0.00    -0.008 C 
ATOM      3  C   UNL     1       1.265  13.891  46.341  1.00  0.00     0.007 C 
ENDROOT
BRANCH   2   4
ATOM      4  C   UNL     1       1.008  11.431  45.841  1.00  0.00     0.159 C 
ATOM      5  O   UNL     1       0.175  10.518  45.591  1.00  0.00    -0.295 OA
BRANCH   4   6
ATOM      6  C   UNL     1       2.458  11.050  45.886  1.00  0.00     0.091 CG0
ATOM      7  G   UNL     1       3.193  11.528  47.159  1.00  0.00     0.000 G0
ENDBRANCH   4   6
ENDBRANCH   2   4
BRANCH   3   8
ATOM      8  C   UNL     1       2.715  13.974  46.625  1.00  0.00    -0.003 C 
ATOM      9  C   UNL     1       3.549  12.997  46.999  1.00  0.00    -0.020 C 
BRANCH   9  10
ATOM     10  C   UNL     1       3.198  11.536  47.153  1.00  0.00    -0.010 CG0
ATOM     11  C   UNL     1       2.401  11.311  48.458  1.00  0.00     0.016 C 
ATOM     12  C   UNL     1       4.514  10.731  47.254  1.00  0.00     0.016 C 
ATOM     13  G   UNL     1       2.436  11.055  45.897  1.00  0.00     0.000 G0
ENDBRANCH   9  10
ENDBRANCH   3   8
TORSDOF 0
ENDMDL
MODEL 6
REMARK VINA RESULT:    -3.522      3.544      5.297
REMARK INTER + INTRA:          -3.501
REMARK INTER:                  -4.357
REMARK INTRA:                   0.857
REMARK UNBOUND:                 0.845
REMARK SMILES CC1=CC=CC(C)(C)CC1=O
REMARK SMILES IDX 1 1 2 2 3 3 10 4 11 5 9 6 4 8 5 9 6 10 7 11 8 12
REMARK H PARENT
REMARK Flexibility Score: 80.00
ROOT
ATOM      1  C   UNL     1      -0.209  11.283  46.254  1.00  0.00     0.048 C 
ATOM      2  C   UNL     1      -0.682  12.646  45.804  1.00  0.00    -0.008 C 
ATOM      3  C   UNL     1      -2.008  12.824  45.616  1.00  0.00     0.007 C 
ENDROOT
BRANCH   2   4
ATOM      4  C   UNL     1       0.369  13.668  45.551  1.00  0.00     0.159 C 
ATOM      5  O   UNL     1       1.568  13.378  45.817  1.00  0.00    -0.295 OA
BRANCH   4   6
ATOM      6  C   UNL     1       0.102  15.021  44.960  1.00  0.00     0.091 CG0
ATOM      7  G   UNL     1      -0.999  15.820  45.694  1.00  0.00     0.000 G0
ENDBRANCH   4   6
ENDBRANCH   2   4
BRANCH   3   8
ATOM      8  C   UNL     1      -2.751  14.033  45.197  1.00  0.00    -0.003 C 
ATOM      9  C   UNL     1      -2.358  15.311  45.241  1.00  0.00    -0.020 C 
BRANCH   9  10
ATOM     10  C   UNL     1      -1.003  15.812  45.680  1.00  0.00    -0.010 CG0
ATOM     11  C   UNL     1      -0.877  15.741  47.220  1.00  0.00     0.016 C 
ATOM     12  C   UNL     1      -0.876  17.295  45.261  1.00  0.00     0.016 C 
ATOM     13  G   UNL     1       0.101  15.011  44.954  1.00  0.00     0.000 G0
ENDBRANCH   9  10
ENDBRANCH   3   8
TORSDOF 0
ENDMDL
MODEL 7
REMARK VINA RESULT:    -3.402     17.192     18.940
REMARK INTER + INTRA:          -3.352
REMARK INTER:                  -4.234
REMARK INTRA:                   0.882
REMARK UNBOUND:                 0.845
REMARK SMILES CC1=CC=CC(C)(C)CC1=O
REMARK SMILES IDX 1 1 2 2 3 3 10 4 11 5 9 6 4 8 5 9 6 10 7 11 8 12
REMARK H PARENT
REMARK Flexibility Score: 80.00
ROOT
ATOM      1  C   UNL     1      16.751  10.820  63.124  1.00  0.00     0.048 C 
ATOM      2  C   UNL     1      16.097  11.445  61.913  1.00  0.00    -0.008 C 
ATOM      3  C   UNL     1      15.832  10.646  60.856  1.00  0.00     0.007 C 
ENDROOT
BRANCH   2   4
ATOM      4  C   UNL     1      15.848  12.911  61.969  1.00  0.00     0.159 C 
ATOM      5  O   UNL     1      16.110  13.526  63.038  1.00  0.00    -0.295 OA
BRANCH   4   6
ATOM      6  C   UNL     1      15.338  13.721  60.814  1.00  0.00     0.091 CG0
ATOM      7  G   UNL     1      14.048  13.159  60.174  1.00  0.00     0.000 G0
ENDBRANCH   4   6
ENDBRANCH   2   4
BRANCH   3   8
ATOM      8  C   UNL     1      15.196  10.970  59.560  1.00  0.00    -0.003 C 
ATOM      9  C   UNL     1      14.413  12.010  59.252  1.00  0.00    -0.020 C 
BRANCH   9  10
ATOM     10  C   UNL     1      14.049  13.154  60.168  1.00  0.00    -0.010 CG0
ATOM     11  C   UNL     1      13.025  12.686  61.228  1.00  0.00     0.016 C 
ATOM     12  C   UNL     1      13.382  14.261  59.319  1.00  0.00     0.016 C 
ATOM     13  G   UNL     1      15.334  13.739  60.796  1.00  0.00     0.000 G0
ENDBRANCH   9  10
ENDBRANCH   3   8
TORSDOF 0
ENDMDL
MODEL 8
REMARK VINA RESULT:    -3.344      3.282      4.301
REMARK INTER + INTRA:          -3.281
REMARK INTER:                  -4.124
REMARK INTRA:                   0.843
REMARK UNBOUND:                 0.845
REMARK SMILES CC1=CC=CC(C)(C)CC1=O
REMARK SMILES IDX 1 1 2 2 3 3 10 4 11 5 9 6 4 8 5 9 6 10 7 11 8 12
REMARK H PARENT
REMARK Flexibility Score: 80.00
ROOT
ATOM      1  C   UNL     1       2.850  13.907  46.636  1.00  0.00     0.048 C 
ATOM      2  C   UNL     1       1.390  14.295  46.604  1.00  0.00    -0.008 C 
ATOM      3  C   UNL     1       1.007  15.373  47.323  1.00  0.00     0.007 C 
ENDROOT
BRANCH   2   4
ATOM      4  C   UNL     1       0.482  13.416  45.819  1.00  0.00     0.159 C 
ATOM      5  O   UNL     1       0.986  12.472  45.151  1.00  0.00    -0.295 OA
BRANCH   4   6
ATOM      6  C   UNL     1      -1.012  13.553  45.800  1.00  0.00     0.091 CG0
ATOM      7  G   UNL     1      -1.507  14.976  45.455  1.00  0.00     0.000 G0
ENDBRANCH   4   6
ENDBRANCH   2   4
BRANCH   3   8
ATOM      8  C   UNL     1      -0.332  15.986  47.471  1.00  0.00    -0.003 C 
ATOM      9  C   UNL     1      -1.400  15.858  46.675  1.00  0.00    -0.020 C 
BRANCH   9  10
ATOM     10  C   UNL     1      -1.499  14.981  45.450  1.00  0.00    -0.010 CG0
ATOM     11  C   UNL     1      -0.732  15.620  44.269  1.00  0.00     0.016 C 
ATOM     12  C   UNL     1      -2.989  14.877  45.049  1.00  0.00     0.016 C 
ATOM     13  G   UNL     1      -0.993  13.561  45.792  1.00  0.00     0.000 G0
ENDBRANCH   9  10
ENDBRANCH   3   8
TORSDOF 0
ENDMDL
