MODEL 1
REMARK VINA RESULT:    -4.196      0.000      0.000
REMARK INTER + INTRA:          -4.441
REMARK INTER:                  -4.441
REMARK INTRA:                   0.000
REMARK UNBOUND:                 0.000
REMARK SMILES Cc1cc(O)c(C)c(C)c1O
REMARK SMILES IDX 1 1 2 2 3 3 4 4 6 5 8 6 10 7 9 8 7 9 11 10 5 12
REMARK H PARENT 11 11 5 13
REMARK Flexibility Score: inf
ROOT
ATOM      1  C   UNL     1     174.844 159.985 155.919  1.00  0.00     0.048 C 
ATOM      2  C   UNL     1     174.853 160.205 154.429  1.00  0.00    -0.005 A 
ATOM      3  C   UNL     1     174.227 159.271 153.597  1.00  0.00     0.053 A 
ATOM      4  C   UNL     1     174.221 159.428 152.212  1.00  0.00     0.119 A 
ATOM      5  C   UNL     1     174.873 160.535 151.620  1.00  0.00    -0.003 A 
ATOM      6  C   UNL     1     175.457 161.525 152.458  1.00  0.00    -0.002 A 
ATOM      7  C   UNL     1     175.467 161.340 153.860  1.00  0.00     0.121 A 
ATOM      8  C   UNL     1     176.093 162.763 151.867  1.00  0.00     0.049 C 
ATOM      9  C   UNL     1     174.906 160.653 150.112  1.00  0.00     0.049 C 
ENDROOT
BRANCH   7  10
ATOM     10  O   UNL     1     176.092 162.295 154.669  1.00  0.00    -0.507 OA
ATOM     11  H   UNL     1     176.289 162.154 155.652  1.00  0.00     0.293 HD
ENDBRANCH   7  10
BRANCH   4  12
ATOM     12  O   UNL     1     173.548 158.466 151.455  1.00  0.00    -0.508 OA
ATOM     13  H   UNL     1     172.542 158.354 151.455  1.00  0.00     0.293 HD
ENDBRANCH   4  12
TORSDOF 2
ENDMDL
MODEL 2
REMARK VINA RESULT:    -4.190     11.169     12.445
REMARK INTER + INTRA:          -4.435
REMARK INTER:                  -4.435
REMARK INTRA:                   0.000
REMARK UNBOUND:                 0.000
REMARK SMILES Cc1cc(O)c(C)c(C)c1O
REMARK SMILES IDX 1 1 2 2 3 3 4 4 6 5 8 6 10 7 9 8 7 9 11 10 5 12
REMARK H PARENT 11 11 5 13
REMARK Flexibility Score: inf
ROOT
ATOM      1  C   UNL     1     174.151 172.710 155.949  1.00  0.00     0.048 C 
ATOM      2  C   UNL     1     174.010 172.709 154.450  1.00  0.00    -0.005 A 
ATOM      3  C   UNL     1     174.718 171.767 153.697  1.00  0.00     0.053 A 
ATOM      4  C   UNL     1     174.627 171.737 152.307  1.00  0.00     0.119 A 
ATOM      5  C   UNL     1     173.824 172.683 151.628  1.00  0.00    -0.003 A 
ATOM      6  C   UNL     1     173.048 173.605 152.384  1.00  0.00    -0.002 A 
ATOM      7  C   UNL     1     173.167 173.631 153.793  1.00  0.00     0.121 A 
ATOM      8  C   UNL     1     172.117 174.580 151.698  1.00  0.00     0.049 C 
ATOM      9  C   UNL     1     173.788 172.671 150.114  1.00  0.00     0.049 C 
ENDROOT
BRANCH   7  10
ATOM     10  O   UNL     1     172.440 174.578 154.522  1.00  0.00    -0.507 OA
ATOM     11  H   UNL     1     171.436 174.538 154.647  1.00  0.00     0.293 HD
ENDBRANCH   7  10
BRANCH   4  12
ATOM     12  O   UNL     1     175.343 170.745 151.632  1.00  0.00    -0.508 OA
ATOM     13  H   UNL     1     176.350 170.653 151.674  1.00  0.00     0.293 HD
ENDBRANCH   4  12
TORSDOF 2
ENDMDL
MODEL 3
REMARK VINA RESULT:    -4.140     10.258     12.704
REMARK INTER + INTRA:          -4.382
REMARK INTER:                  -4.382
REMARK INTRA:                   0.000
REMARK UNBOUND:                 0.000
REMARK SMILES Cc1cc(O)c(C)c(C)c1O
REMARK SMILES IDX 1 1 2 2 3 3 4 4 6 5 8 6 10 7 9 8 7 9 11 10 5 12
REMARK H PARENT 11 11 5 13
REMARK Flexibility Score: inf
ROOT
ATOM      1  C   UNL     1     174.609 173.804 149.736  1.00  0.00     0.048 C 
ATOM      2  C   UNL     1     174.653 173.264 151.141  1.00  0.00    -0.005 A 
ATOM      3  C   UNL     1     174.718 174.157 152.215  1.00  0.00     0.053 A 
ATOM      4  C   UNL     1     174.772 173.702 153.531  1.00  0.00     0.119 A 
ATOM      5  C   UNL     1     174.783 172.313 153.802  1.00  0.00    -0.003 A 
ATOM      6  C   UNL     1     174.652 171.395 152.723  1.00  0.00    -0.002 A 
ATOM      7  C   UNL     1     174.615 171.876 151.394  1.00  0.00     0.121 A 
ATOM      8  C   UNL     1     174.580 169.906 152.978  1.00  0.00     0.049 C 
ATOM      9  C   UNL     1     174.904 171.841 155.235  1.00  0.00     0.049 C 
ENDROOT
BRANCH   7  10
ATOM     10  O   UNL     1     174.540 170.959 150.339  1.00  0.00    -0.507 OA
ATOM     11  H   UNL     1     173.977 170.119 150.367  1.00  0.00     0.293 HD
ENDBRANCH   7  10
BRANCH   4  12
ATOM     12  O   UNL     1     174.805 174.661 154.547  1.00  0.00    -0.508 OA
ATOM     13  H   UNL     1     174.362 175.568 154.477  1.00  0.00     0.293 HD
ENDBRANCH   4  12
TORSDOF 2
ENDMDL
MODEL 4
REMARK VINA RESULT:    -4.074     13.507     13.920
REMARK INTER + INTRA:          -4.312
REMARK INTER:                  -4.312
REMARK INTRA:                   0.000
REMARK UNBOUND:                 0.000
REMARK SMILES Cc1cc(O)c(C)c(C)c1O
REMARK SMILES IDX 1 1 2 2 3 3 4 4 6 5 8 6 10 7 9 8 7 9 11 10 5 12
REMARK H PARENT 11 11 5 13
REMARK Flexibility Score: inf
ROOT
ATOM      1  C   UNL     1     170.217 173.947 151.301  1.00  0.00     0.048 C 
ATOM      2  C   UNL     1     171.633 173.955 151.812  1.00  0.00    -0.005 A 
ATOM      3  C   UNL     1     172.686 174.089 150.902  1.00  0.00     0.053 A 
ATOM      4  C   UNL     1     174.014 174.090 151.328  1.00  0.00     0.119 A 
ATOM      5  C   UNL     1     174.318 173.932 152.701  1.00  0.00    -0.003 A 
ATOM      6  C   UNL     1     173.255 173.859 153.643  1.00  0.00    -0.002 A 
ATOM      7  C   UNL     1     171.915 173.844 153.189  1.00  0.00     0.121 A 
ATOM      8  C   UNL     1     173.539 173.770 155.126  1.00  0.00     0.049 C 
ATOM      9  C   UNL     1     175.767 173.874 153.134  1.00  0.00     0.049 C 
ENDROOT
BRANCH   7  10
ATOM     10  O   UNL     1     170.881 173.718 154.123  1.00  0.00    -0.507 OA
ATOM     11  H   UNL     1     169.910 173.591 153.869  1.00  0.00     0.293 HD
ENDBRANCH   7  10
BRANCH   4  12
ATOM     12  O   UNL     1     175.005 174.260 150.358  1.00  0.00    -0.508 OA
ATOM     13  H   UNL     1     175.212 173.575 149.642  1.00  0.00     0.293 HD
ENDBRANCH   4  12
TORSDOF 2
ENDMDL
MODEL 5
REMARK VINA RESULT:    -4.057     16.389     18.243
REMARK INTER + INTRA:          -4.294
REMARK INTER:                  -4.294
REMARK INTRA:                   0.000
REMARK UNBOUND:                 0.000
REMARK SMILES Cc1cc(O)c(C)c(C)c1O
REMARK SMILES IDX 1 1 2 2 3 3 4 4 6 5 8 6 10 7 9 8 7 9 11 10 5 12
REMARK H PARENT 11 11 5 13
REMARK Flexibility Score: inf
ROOT
ATOM      1  C   UNL     1     176.074 175.355 164.002  1.00  0.00     0.048 C 
ATOM      2  C   UNL     1     174.990 174.521 164.631  1.00  0.00    -0.005 A 
ATOM      3  C   UNL     1     174.201 175.077 165.644  1.00  0.00     0.053 A 
ATOM      4  C   UNL     1     173.194 174.338 166.262  1.00  0.00     0.119 A 
ATOM      5  C   UNL     1     172.967 172.993 165.886  1.00  0.00    -0.003 A 
ATOM      6  C   UNL     1     173.719 172.437 164.814  1.00  0.00    -0.002 A 
ATOM      7  C   UNL     1     174.747 173.197 164.210  1.00  0.00     0.121 A 
ATOM      8  C   UNL     1     173.451 171.029 164.329  1.00  0.00     0.049 C 
ATOM      9  C   UNL     1     171.910 172.190 166.613  1.00  0.00     0.049 C 
ENDROOT
BRANCH   7  10
ATOM     10  O   UNL     1     175.515 172.618 163.193  1.00  0.00    -0.507 OA
ATOM     11  H   UNL     1     176.055 173.154 162.526  1.00  0.00     0.293 HD
ENDBRANCH   7  10
BRANCH   4  12
ATOM     12  O   UNL     1     172.432 174.977 167.243  1.00  0.00    -0.508 OA
ATOM     13  H   UNL     1     172.808 175.297 168.126  1.00  0.00     0.293 HD
ENDBRANCH   4  12
TORSDOF 2
ENDMDL
MODEL 6
REMARK VINA RESULT:    -4.051     10.367     12.308
REMARK INTER + INTRA:          -4.288
REMARK INTER:                  -4.288
REMARK INTRA:                   0.000
REMARK UNBOUND:                 0.000
REMARK SMILES Cc1cc(O)c(C)c(C)c1O
REMARK SMILES IDX 1 1 2 2 3 3 4 4 6 5 8 6 10 7 9 8 7 9 11 10 5 12
REMARK H PARENT 11 11 5 13
REMARK Flexibility Score: inf
ROOT
ATOM      1  C   UNL     1     175.104 170.364 154.532  1.00  0.00     0.048 C 
ATOM      2  C   UNL     1     174.467 171.464 153.724  1.00  0.00    -0.005 A 
ATOM      3  C   UNL     1     173.702 172.436 154.377  1.00  0.00     0.053 A 
ATOM      4  C   UNL     1     173.085 173.465 153.668  1.00  0.00     0.119 A 
ATOM      5  C   UNL     1     173.207 173.530 152.260  1.00  0.00    -0.003 A 
ATOM      6  C   UNL     1     174.035 172.586 151.592  1.00  0.00    -0.002 A 
ATOM      7  C   UNL     1     174.639 171.539 152.326  1.00  0.00     0.121 A 
ATOM      8  C   UNL     1     174.255 172.670 150.097  1.00  0.00     0.049 C 
ATOM      9  C   UNL     1     172.478 174.620 151.504  1.00  0.00     0.049 C 
ENDROOT
BRANCH   7  10
ATOM     10  O   UNL     1     175.407 170.586 151.648  1.00  0.00    -0.507 OA
ATOM     11  H   UNL     1     176.147 170.822 150.999  1.00  0.00     0.293 HD
ENDBRANCH   7  10
BRANCH   4  12
ATOM     12  O   UNL     1     172.364 174.413 154.399  1.00  0.00    -0.508 OA
ATOM     13  H   UNL     1     171.848 175.174 153.976  1.00  0.00     0.293 HD
ENDBRANCH   4  12
TORSDOF 2
ENDMDL
MODEL 7
REMARK VINA RESULT:    -4.001      0.745      3.206
REMARK INTER + INTRA:          -4.235
REMARK INTER:                  -4.235
REMARK INTRA:                   0.000
REMARK UNBOUND:                 0.000
REMARK SMILES Cc1cc(O)c(C)c(C)c1O
REMARK SMILES IDX 1 1 2 2 3 3 4 4 6 5 8 6 10 7 9 8 7 9 11 10 5 12
REMARK H PARENT 11 11 5 13
REMARK Flexibility Score: inf
ROOT
ATOM      1  C   UNL     1     172.982 158.469 154.766  1.00  0.00     0.048 C 
ATOM      2  C   UNL     1     173.797 159.400 153.908  1.00  0.00    -0.005 A 
ATOM      3  C   UNL     1     174.528 160.425 154.515  1.00  0.00     0.053 A 
ATOM      4  C   UNL     1     175.287 161.317 153.759  1.00  0.00     0.119 A 
ATOM      5  C   UNL     1     175.311 161.210 152.349  1.00  0.00    -0.003 A 
ATOM      6  C   UNL     1     174.623 160.133 151.723  1.00  0.00    -0.002 A 
ATOM      7  C   UNL     1     173.846 159.249 152.506  1.00  0.00     0.121 A 
ATOM      8  C   UNL     1     174.690 159.939 150.225  1.00  0.00     0.049 C 
ATOM      9  C   UNL     1     176.092 162.227 151.544  1.00  0.00     0.049 C 
ENDROOT
BRANCH   7  10
ATOM     10  O   UNL     1     173.131 158.226 151.872  1.00  0.00    -0.507 OA
ATOM     11  H   UNL     1     173.098 158.106 150.868  1.00  0.00     0.293 HD
ENDBRANCH   7  10
BRANCH   4  12
ATOM     12  O   UNL     1     176.013 162.294 154.446  1.00  0.00    -0.508 OA
ATOM     13  H   UNL     1     175.606 163.151 154.798  1.00  0.00     0.293 HD
ENDBRANCH   4  12
TORSDOF 2
ENDMDL
MODEL 8
REMARK VINA RESULT:    -3.963     19.244     20.095
REMARK INTER + INTRA:          -4.195
REMARK INTER:                  -4.195
REMARK INTRA:                   0.000
REMARK UNBOUND:                 0.000
REMARK SMILES Cc1cc(O)c(C)c(C)c1O
REMARK SMILES IDX 1 1 2 2 3 3 4 4 6 5 8 6 10 7 9 8 7 9 11 10 5 12
REMARK H PARENT 11 11 5 13
REMARK Flexibility Score: inf
ROOT
ATOM      1  C   UNL     1     161.087 175.972 150.098  1.00  0.00     0.048 C 
ATOM      2  C   UNL     1     161.463 175.754 151.539  1.00  0.00    -0.005 A 
ATOM      3  C   UNL     1     160.462 175.454 152.468  1.00  0.00     0.053 A 
ATOM      4  C   UNL     1     160.763 175.255 153.815  1.00  0.00     0.119 A 
ATOM      5  C   UNL     1     162.097 175.379 154.270  1.00  0.00    -0.003 A 
ATOM      6  C   UNL     1     163.133 175.621 153.325  1.00  0.00    -0.002 A 
ATOM      7  C   UNL     1     162.806 175.835 151.966  1.00  0.00     0.121 A 
ATOM      8  C   UNL     1     164.580 175.680 153.760  1.00  0.00     0.049 C 
ATOM      9  C   UNL     1     162.392 175.220 155.746  1.00  0.00     0.049 C 
ENDROOT
BRANCH   7  10
ATOM     10  O   UNL     1     163.828 176.125 151.056  1.00  0.00    -0.507 OA
ATOM     11  H   UNL     1     164.204 177.053 150.914  1.00  0.00     0.293 HD
ENDBRANCH   7  10
BRANCH   4  12
ATOM     12  O   UNL     1     159.710 174.928 154.672  1.00  0.00    -0.508 OA
ATOM     13  H   UNL     1     159.192 175.611 155.211  1.00  0.00     0.293 HD
ENDBRANCH   4  12
TORSDOF 2
ENDMDL
