MODEL 1
REMARK VINA RESULT:    21.028      0.000      0.000
REMARK INTER + INTRA:          51.652
REMARK INTER:                  52.991
REMARK INTRA:                  -1.339
REMARK UNBOUND:                -1.339
REMARK SMILES CCCCCCCCCCCCCCCCCCCCCCCCCCCC(=O)[O-]
REMARK SMILES IDX 15 1 16 2 17 3 18 4 19 5 20 6 21 7 22 8 23 9 24 10 25 11
REMARK SMILES IDX 26 12 27 13 28 14 29 15 30 16 14 17 13 18 12 19 11 20 10 21
REMARK SMILES IDX 9 22 8 23 7 24 6 25 5 26 4 27 3 28 2 29 1 30
REMARK H PARENT
REMARK Flexibility Score: inf
ROOT
ATOM      1  C   UNL     1      14.539  14.051  16.666  1.00  0.00     0.000 C 
ENDROOT
BRANCH   1   2
ATOM      2  C   UNL     1      13.418  13.051  17.016  1.00  0.00     0.000 C 
BRANCH   2   3
ATOM      3  C   UNL     1      13.853  11.573  17.052  1.00  0.00     0.000 C 
BRANCH   3   4
ATOM      4  C   UNL     1      15.332  11.318  16.701  1.00  0.00     0.000 C 
BRANCH   4   5
ATOM      5  C   UNL     1      15.616  11.061  15.210  1.00  0.00     0.000 C 
BRANCH   5   6
ATOM      6  C   UNL     1      16.227   9.674  14.947  1.00  0.00     0.000 C 
BRANCH   6   7
ATOM      7  C   UNL     1      16.016   9.199  13.500  1.00  0.00     0.000 C 
BRANCH   7   8
ATOM      8  C   UNL     1      16.816  10.027  12.479  1.00  0.00     0.000 C 
BRANCH   8   9
ATOM      9  C   UNL     1      17.027   9.279  11.153  1.00  0.00     0.000 C 
BRANCH   9  10
ATOM     10  C   UNL     1      16.442  10.034   9.946  1.00  0.00     0.000 C 
BRANCH  10  11
ATOM     11  C   UNL     1      16.774  11.535   9.975  1.00  0.00     0.000 C 
BRANCH  11  12
ATOM     12  C   UNL     1      15.814  12.368   9.107  1.00  0.00     0.006 C 
BRANCH  12  13
ATOM     13  C   UNL     1      15.779  13.842   9.533  1.00  0.00     0.053 C 
BRANCH  13  14
ATOM     14  C   UNL     1      17.127  14.329   9.967  1.00  0.00     0.041 C 
ATOM     15  O   UNL     1      17.486  14.215  11.169  1.00  0.00    -0.550 OA
ATOM     16  O   UNL     1      17.982  14.926   9.048  1.00  0.00    -0.550 OA
ENDBRANCH  13  14
ENDBRANCH  12  13
ENDBRANCH  11  12
ENDBRANCH  10  11
ENDBRANCH   9  10
ENDBRANCH   8   9
ENDBRANCH   7   8
ENDBRANCH   6   7
ENDBRANCH   5   6
ENDBRANCH   4   5
ENDBRANCH   3   4
ENDBRANCH   2   3
ENDBRANCH   1   2
BRANCH   1  17
ATOM     17  C   UNL     1      14.875  15.060  17.778  1.00  0.00     0.000 C 
BRANCH  17  18
ATOM     18  C   UNL     1      14.389  16.484  17.456  1.00  0.00     0.000 C 
BRANCH  18  19
ATOM     19  C   UNL     1      13.282  16.505  16.391  1.00  0.00     0.000 C 
BRANCH  19  20
ATOM     20  C   UNL     1      13.095  17.894  15.760  1.00  0.00     0.000 C 
BRANCH  20  21
ATOM     21  C   UNL     1      14.424  18.660  15.721  1.00  0.00     0.000 C 
BRANCH  21  22
ATOM     22  C   UNL     1      14.288  20.063  15.105  1.00  0.00    -0.000 C 
BRANCH  22  23
ATOM     23  C   UNL     1      15.628  20.818  14.981  1.00  0.00    -0.000 C 
BRANCH  23  24
ATOM     24  C   UNL     1      15.762  21.939  16.028  1.00  0.00    -0.000 C 
BRANCH  24  25
ATOM     25  C   UNL     1      17.224  22.195  16.431  1.00  0.00    -0.000 C 
BRANCH  25  26
ATOM     26  C   UNL     1      17.547  21.671  17.842  1.00  0.00    -0.000 C 
BRANCH  26  27
ATOM     27  C   UNL     1      16.276  21.370  18.661  1.00  0.00    -0.000 C 
BRANCH  27  28
ATOM     28  C   UNL     1      16.554  20.836  20.080  1.00  0.00    -0.000 C 
BRANCH  28  29
ATOM     29  C   UNL     1      17.009  19.363  20.122  1.00  0.00    -0.003 C 
ATOM     30  C   UNL     1      16.463  18.548  18.950  1.00  0.00     0.004 C 
ENDBRANCH  28  29
ENDBRANCH  27  28
ENDBRANCH  26  27
ENDBRANCH  25  26
ENDBRANCH  24  25
ENDBRANCH  23  24
ENDBRANCH  22  23
ENDBRANCH  21  22
ENDBRANCH  20  21
ENDBRANCH  19  20
ENDBRANCH  18  19
ENDBRANCH  17  18
ENDBRANCH   1  17
TORSDOF 26
ENDMDL
MODEL 2
REMARK VINA RESULT:    21.840      0.770      2.515
REMARK INTER + INTRA:          53.696
REMARK INTER:                  54.735
REMARK INTRA:                  -1.039
REMARK UNBOUND:                -1.339
REMARK SMILES CCCCCCCCCCCCCCCCCCCCCCCCCCCC(=O)[O-]
REMARK SMILES IDX 15 1 16 2 17 3 18 4 19 5 20 6 21 7 22 8 23 9 24 10 25 11
REMARK SMILES IDX 26 12 27 13 28 14 29 15 30 16 14 17 13 18 12 19 11 20 10 21
REMARK SMILES IDX 9 22 8 23 7 24 6 25 5 26 4 27 3 28 2 29 1 30
REMARK H PARENT
REMARK Flexibility Score: inf
ROOT
ATOM      1  C   UNL     1      13.958  13.476  17.976  1.00  0.00     0.000 C 
ENDROOT
BRANCH   1   2
ATOM      2  C   UNL     1      13.051  12.300  17.561  1.00  0.00     0.000 C 
BRANCH   2   3
ATOM      3  C   UNL     1      13.767  11.156  16.818  1.00  0.00     0.000 C 
BRANCH   3   4
ATOM      4  C   UNL     1      15.017  11.577  16.018  1.00  0.00     0.000 C 
BRANCH   4   5
ATOM      5  C   UNL     1      16.185  10.577  16.055  1.00  0.00     0.000 C 
BRANCH   5   6
ATOM      6  C   UNL     1      16.135   9.554  14.907  1.00  0.00     0.000 C 
BRANCH   6   7
ATOM      7  C   UNL     1      16.413  10.191  13.535  1.00  0.00     0.000 C 
BRANCH   7   8
ATOM      8  C   UNL     1      16.326   9.177  12.380  1.00  0.00     0.000 C 
BRANCH   8   9
ATOM      9  C   UNL     1      17.182   9.589  11.172  1.00  0.00     0.000 C 
BRANCH   9  10
ATOM     10  C   UNL     1      16.345  10.190  10.028  1.00  0.00     0.000 C 
BRANCH  10  11
ATOM     11  C   UNL     1      16.717  11.652   9.733  1.00  0.00     0.000 C 
BRANCH  11  12
ATOM     12  C   UNL     1      15.526  12.467   9.200  1.00  0.00     0.006 C 
BRANCH  12  13
ATOM     13  C   UNL     1      15.684  13.969   9.471  1.00  0.00     0.053 C 
BRANCH  13  14
ATOM     14  C   UNL     1      17.046  14.301   9.998  1.00  0.00     0.041 C 
ATOM     15  O   UNL     1      17.320  14.112  11.213  1.00  0.00    -0.550 OA
ATOM     16  O   UNL     1      18.010  14.835   9.151  1.00  0.00    -0.550 OA
ENDBRANCH  13  14
ENDBRANCH  12  13
ENDBRANCH  11  12
ENDBRANCH  10  11
ENDBRANCH   9  10
ENDBRANCH   8   9
ENDBRANCH   7   8
ENDBRANCH   6   7
ENDBRANCH   5   6
ENDBRANCH   4   5
ENDBRANCH   3   4
ENDBRANCH   2   3
ENDBRANCH   1   2
BRANCH   1  17
ATOM     17  C   UNL     1      14.423  14.374  16.817  1.00  0.00     0.000 C 
BRANCH  17  18
ATOM     18  C   UNL     1      13.693  15.729  16.784  1.00  0.00     0.000 C 
BRANCH  18  19
ATOM     19  C   UNL     1      14.438  16.822  17.565  1.00  0.00     0.000 C 
BRANCH  19  20
ATOM     20  C   UNL     1      15.802  16.347  18.090  1.00  0.00     0.000 C 
BRANCH  20  21
ATOM     21  C   UNL     1      16.755  17.534  18.290  1.00  0.00     0.000 C 
BRANCH  21  22
ATOM     22  C   UNL     1      16.098  18.709  19.034  1.00  0.00    -0.000 C 
BRANCH  22  23
ATOM     23  C   UNL     1      17.082  19.517  19.906  1.00  0.00    -0.000 C 
BRANCH  23  24
ATOM     24  C   UNL     1      16.687  21.001  20.004  1.00  0.00    -0.000 C 
BRANCH  24  25
ATOM     25  C   UNL     1      15.891  21.481  18.778  1.00  0.00    -0.000 C 
BRANCH  25  26
ATOM     26  C   UNL     1      16.799  21.837  17.587  1.00  0.00    -0.000 C 
BRANCH  26  27
ATOM     27  C   UNL     1      16.001  22.038  16.283  1.00  0.00    -0.000 C 
BRANCH  27  28
ATOM     28  C   UNL     1      14.663  21.274  16.240  1.00  0.00    -0.000 C 
BRANCH  28  29
ATOM     29  C   UNL     1      14.772  19.839  15.687  1.00  0.00    -0.003 C 
ATOM     30  C   UNL     1      13.414  19.255  15.300  1.00  0.00     0.004 C 
ENDBRANCH  28  29
ENDBRANCH  27  28
ENDBRANCH  26  27
ENDBRANCH  25  26
ENDBRANCH  24  25
ENDBRANCH  23  24
ENDBRANCH  22  23
ENDBRANCH  21  22
ENDBRANCH  20  21
ENDBRANCH  19  20
ENDBRANCH  18  19
ENDBRANCH  17  18
ENDBRANCH   1  17
TORSDOF 26
ENDMDL
MODEL 3
REMARK VINA RESULT:    22.591      0.745      1.712
REMARK INTER + INTRA:          55.589
REMARK INTER:                  56.414
REMARK INTRA:                  -0.825
REMARK UNBOUND:                -1.339
REMARK SMILES CCCCCCCCCCCCCCCCCCCCCCCCCCCC(=O)[O-]
REMARK SMILES IDX 15 1 16 2 17 3 18 4 19 5 20 6 21 7 22 8 23 9 24 10 25 11
REMARK SMILES IDX 26 12 27 13 28 14 29 15 30 16 14 17 13 18 12 19 11 20 10 21
REMARK SMILES IDX 9 22 8 23 7 24 6 25 5 26 4 27 3 28 2 29 1 30
REMARK H PARENT
REMARK Flexibility Score: inf
ROOT
ATOM      1  C   UNL     1      12.894  12.859  16.914  1.00  0.00     0.000 C 
ENDROOT
BRANCH   1   2
ATOM      2  C   UNL     1      13.533  11.486  17.205  1.00  0.00     0.000 C 
BRANCH   2   3
ATOM      3  C   UNL     1      15.036  11.384  16.878  1.00  0.00     0.000 C 
BRANCH   3   4
ATOM      4  C   UNL     1      15.363  11.060  15.406  1.00  0.00     0.000 C 
BRANCH   4   5
ATOM      5  C   UNL     1      16.589  10.155  15.192  1.00  0.00     0.000 C 
BRANCH   5   6
ATOM      6  C   UNL     1      16.250   8.854  14.444  1.00  0.00     0.000 C 
BRANCH   6   7
ATOM      7  C   UNL     1      15.764   9.106  13.007  1.00  0.00     0.000 C 
BRANCH   7   8
ATOM      8  C   UNL     1      16.808   9.839  12.146  1.00  0.00     0.000 C 
BRANCH   8   9
ATOM      9  C   UNL     1      16.998   9.182  10.769  1.00  0.00     0.000 C 
BRANCH   9  10
ATOM     10  C   UNL     1      16.572  10.101   9.609  1.00  0.00     0.000 C 
BRANCH  10  11
ATOM     11  C   UNL     1      16.580  11.587  10.004  1.00  0.00     0.000 C 
BRANCH  11  12
ATOM     12  C   UNL     1      15.666  12.441   9.107  1.00  0.00     0.006 C 
BRANCH  12  13
ATOM     13  C   UNL     1      15.771  13.937   9.429  1.00  0.00     0.053 C 
BRANCH  13  14
ATOM     14  C   UNL     1      17.072  14.275  10.091  1.00  0.00     0.041 C 
ATOM     15  O   UNL     1      18.099  14.496   9.397  1.00  0.00    -0.550 OA
ATOM     16  O   UNL     1      17.154  14.330  11.478  1.00  0.00    -0.550 OA
ENDBRANCH  13  14
ENDBRANCH  12  13
ENDBRANCH  11  12
ENDBRANCH  10  11
ENDBRANCH   9  10
ENDBRANCH   8   9
ENDBRANCH   7   8
ENDBRANCH   6   7
ENDBRANCH   5   6
ENDBRANCH   4   5
ENDBRANCH   3   4
ENDBRANCH   2   3
ENDBRANCH   1   2
BRANCH   1  17
ATOM     17  C   UNL     1      13.897  14.009  16.718  1.00  0.00     0.000 C 
BRANCH  17  18
ATOM     18  C   UNL     1      14.350  14.637  18.049  1.00  0.00     0.000 C 
BRANCH  18  19
ATOM     19  C   UNL     1      15.343  15.792  17.850  1.00  0.00     0.000 C 
BRANCH  19  20
ATOM     20  C   UNL     1      14.644  17.131  17.570  1.00  0.00     0.000 C 
BRANCH  20  21
ATOM     21  C   UNL     1      13.744  17.030  16.331  1.00  0.00     0.000 C 
BRANCH  21  22
ATOM     22  C   UNL     1      13.560  18.378  15.614  1.00  0.00    -0.000 C 
BRANCH  22  23
ATOM     23  C   UNL     1      14.698  19.384  15.884  1.00  0.00    -0.000 C 
BRANCH  23  24
ATOM     24  C   UNL     1      14.417  20.761  15.259  1.00  0.00    -0.000 C 
BRANCH  24  25
ATOM     25  C   UNL     1      13.972  21.802  16.301  1.00  0.00    -0.000 C 
BRANCH  25  26
ATOM     26  C   UNL     1      14.904  21.847  17.525  1.00  0.00    -0.000 C 
BRANCH  26  27
ATOM     27  C   UNL     1      16.389  21.692  17.137  1.00  0.00    -0.000 C 
BRANCH  27  28
ATOM     28  C   UNL     1      17.350  21.626  18.340  1.00  0.00    -0.000 C 
BRANCH  28  29
ATOM     29  C   UNL     1      16.709  21.071  19.629  1.00  0.00    -0.003 C 
ATOM     30  C   UNL     1      16.504  19.557  19.576  1.00  0.00     0.004 C 
ENDBRANCH  28  29
ENDBRANCH  27  28
ENDBRANCH  26  27
ENDBRANCH  25  26
ENDBRANCH  24  25
ENDBRANCH  23  24
ENDBRANCH  22  23
ENDBRANCH  21  22
ENDBRANCH  20  21
ENDBRANCH  19  20
ENDBRANCH  18  19
ENDBRANCH  17  18
ENDBRANCH   1  17
TORSDOF 26
ENDMDL
MODEL 4
REMARK VINA RESULT:    22.727      2.359     10.047
REMARK INTER + INTRA:          55.933
REMARK INTER:                  57.494
REMARK INTRA:                  -1.561
REMARK UNBOUND:                -1.339
REMARK SMILES CCCCCCCCCCCCCCCCCCCCCCCCCCCC(=O)[O-]
REMARK SMILES IDX 15 1 16 2 17 3 18 4 19 5 20 6 21 7 22 8 23 9 24 10 25 11
REMARK SMILES IDX 26 12 27 13 28 14 29 15 30 16 14 17 13 18 12 19 11 20 10 21
REMARK SMILES IDX 9 22 8 23 7 24 6 25 5 26 4 27 3 28 2 29 1 30
REMARK H PARENT
REMARK Flexibility Score: inf
ROOT
ATOM      1  C   UNL     1      13.082  12.764  17.142  1.00  0.00     0.000 C 
ENDROOT
BRANCH   1   2
ATOM      2  C   UNL     1      13.799  14.062  17.565  1.00  0.00     0.000 C 
BRANCH   2   3
ATOM      3  C   UNL     1      13.694  15.222  16.557  1.00  0.00     0.000 C 
BRANCH   3   4
ATOM      4  C   UNL     1      14.199  16.585  17.073  1.00  0.00     0.000 C 
BRANCH   4   5
ATOM      5  C   UNL     1      14.970  16.534  18.404  1.00  0.00     0.000 C 
BRANCH   5   6
ATOM      6  C   UNL     1      16.389  17.120  18.298  1.00  0.00     0.000 C 
BRANCH   6   7
ATOM      7  C   UNL     1      16.407  18.653  18.413  1.00  0.00     0.000 C 
BRANCH   7   8
ATOM      8  C   UNL     1      16.415  19.140  19.873  1.00  0.00     0.000 C 
BRANCH   8   9
ATOM      9  C   UNL     1      16.876  20.601  20.002  1.00  0.00     0.000 C 
BRANCH   9  10
ATOM     10  C   UNL     1      16.659  21.408  18.708  1.00  0.00     0.000 C 
BRANCH  10  11
ATOM     11  C   UNL     1      15.177  21.730  18.459  1.00  0.00     0.000 C 
BRANCH  11  12
ATOM     12  C   UNL     1      14.916  22.231  17.027  1.00  0.00     0.006 C 
BRANCH  12  13
ATOM     13  C   UNL     1      15.242  21.165  15.972  1.00  0.00     0.053 C 
BRANCH  13  14
ATOM     14  C   UNL     1      16.285  21.636  15.006  1.00  0.00     0.041 C 
ATOM     15  O   UNL     1      16.150  21.424  13.772  1.00  0.00    -0.550 OA
ATOM     16  O   UNL     1      17.418  22.294  15.471  1.00  0.00    -0.550 OA
ENDBRANCH  13  14
ENDBRANCH  12  13
ENDBRANCH  11  12
ENDBRANCH  10  11
ENDBRANCH   9  10
ENDBRANCH   8   9
ENDBRANCH   7   8
ENDBRANCH   6   7
ENDBRANCH   5   6
ENDBRANCH   4   5
ENDBRANCH   3   4
ENDBRANCH   2   3
ENDBRANCH   1   2
BRANCH   1  17
ATOM     17  C   UNL     1      13.919  11.482  17.303  1.00  0.00     0.000 C 
BRANCH  17  18
ATOM     18  C   UNL     1      15.297  11.582  16.626  1.00  0.00     0.000 C 
BRANCH  18  19
ATOM     19  C   UNL     1      15.325  10.923  15.238  1.00  0.00     0.000 C 
BRANCH  19  20
ATOM     20  C   UNL     1      16.382   9.814  15.132  1.00  0.00     0.000 C 
BRANCH  20  21
ATOM     21  C   UNL     1      16.248   9.055  13.805  1.00  0.00     0.000 C 
BRANCH  21  22
ATOM     22  C   UNL     1      16.199   9.989  12.584  1.00  0.00    -0.000 C 
BRANCH  22  23
ATOM     23  C   UNL     1      17.098   9.530  11.416  1.00  0.00    -0.000 C 
BRANCH  23  24
ATOM     24  C   UNL     1      17.315  10.644  10.378  1.00  0.00    -0.000 C 
BRANCH  24  25
ATOM     25  C   UNL     1      16.059  10.915   9.533  1.00  0.00    -0.000 C 
BRANCH  25  26
ATOM     26  C   UNL     1      16.011  12.355   8.991  1.00  0.00    -0.000 C 
BRANCH  26  27
ATOM     27  C   UNL     1      15.753  13.391  10.103  1.00  0.00    -0.000 C 
BRANCH  27  28
ATOM     28  C   UNL     1      17.034  14.023  10.683  1.00  0.00    -0.000 C 
BRANCH  28  29
ATOM     29  C   UNL     1      18.164  14.218   9.652  1.00  0.00    -0.003 C 
ATOM     30  C   UNL     1      17.888  15.378   8.694  1.00  0.00     0.004 C 
ENDBRANCH  28  29
ENDBRANCH  27  28
ENDBRANCH  26  27
ENDBRANCH  25  26
ENDBRANCH  24  25
ENDBRANCH  23  24
ENDBRANCH  22  23
ENDBRANCH  21  22
ENDBRANCH  20  21
ENDBRANCH  19  20
ENDBRANCH  18  19
ENDBRANCH  17  18
ENDBRANCH   1  17
TORSDOF 26
ENDMDL
MODEL 5
REMARK VINA RESULT:    22.750      2.769     10.484
REMARK INTER + INTRA:          55.990
REMARK INTER:                  57.349
REMARK INTRA:                  -1.360
REMARK UNBOUND:                -1.339
REMARK SMILES CCCCCCCCCCCCCCCCCCCCCCCCCCCC(=O)[O-]
REMARK SMILES IDX 15 1 16 2 17 3 18 4 19 5 20 6 21 7 22 8 23 9 24 10 25 11
REMARK SMILES IDX 26 12 27 13 28 14 29 15 30 16 14 17 13 18 12 19 11 20 10 21
REMARK SMILES IDX 9 22 8 23 7 24 6 25 5 26 4 27 3 28 2 29 1 30
REMARK H PARENT
REMARK Flexibility Score: inf
ROOT
ATOM      1  C   UNL     1      14.258  14.090  16.836  1.00  0.00     0.000 C 
ENDROOT
BRANCH   1   2
ATOM      2  C   UNL     1      14.754  15.178  17.810  1.00  0.00     0.000 C 
BRANCH   2   3
ATOM      3  C   UNL     1      14.336  16.616  17.448  1.00  0.00     0.000 C 
BRANCH   3   4
ATOM      4  C   UNL     1      13.406  16.738  16.224  1.00  0.00     0.000 C 
BRANCH   4   5
ATOM      5  C   UNL     1      13.159  18.174  15.730  1.00  0.00     0.000 C 
BRANCH   5   6
ATOM      6  C   UNL     1      14.407  19.068  15.839  1.00  0.00     0.000 C 
BRANCH   6   7
ATOM      7  C   UNL     1      14.207  20.445  15.185  1.00  0.00     0.000 C 
BRANCH   7   8
ATOM      8  C   UNL     1      15.072  21.542  15.832  1.00  0.00     0.000 C 
BRANCH   8   9
ATOM      9  C   UNL     1      16.430  21.707  15.131  1.00  0.00     0.000 C 
BRANCH   9  10
ATOM     10  C   UNL     1      17.441  22.504  15.976  1.00  0.00     0.000 C 
BRANCH  10  11
ATOM     11  C   UNL     1      17.921  21.723  17.210  1.00  0.00     0.000 C 
BRANCH  11  12
ATOM     12  C   UNL     1      16.883  21.720  18.347  1.00  0.00     0.006 C 
BRANCH  12  13
ATOM     13  C   UNL     1      17.403  21.011  19.604  1.00  0.00     0.053 C 
BRANCH  13  14
ATOM     14  C   UNL     1      16.621  19.771  19.910  1.00  0.00     0.041 C 
ATOM     15  O   UNL     1      16.727  18.756  19.172  1.00  0.00    -0.550 OA
ATOM     16  O   UNL     1      15.762  19.740  21.002  1.00  0.00    -0.550 OA
ENDBRANCH  13  14
ENDBRANCH  12  13
ENDBRANCH  11  12
ENDBRANCH  10  11
ENDBRANCH   9  10
ENDBRANCH   8   9
ENDBRANCH   7   8
ENDBRANCH   6   7
ENDBRANCH   5   6
ENDBRANCH   4   5
ENDBRANCH   3   4
ENDBRANCH   2   3
ENDBRANCH   1   2
BRANCH   1  17
ATOM     17  C   UNL     1      13.283  13.070  17.448  1.00  0.00     0.000 C 
BRANCH  17  18
ATOM     18  C   UNL     1      13.770  11.617  17.298  1.00  0.00     0.000 C 
BRANCH  18  19
ATOM     19  C   UNL     1      15.072  11.510  16.489  1.00  0.00     0.000 C 
BRANCH  19  20
ATOM     20  C   UNL     1      15.102  10.273  15.579  1.00  0.00     0.000 C 
BRANCH  20  21
ATOM     21  C   UNL     1      16.545   9.885  15.230  1.00  0.00     0.000 C 
BRANCH  21  22
ATOM     22  C   UNL     1      16.870  10.068  13.738  1.00  0.00    -0.000 C 
BRANCH  22  23
ATOM     23  C   UNL     1      16.051   9.148  12.808  1.00  0.00    -0.000 C 
BRANCH  23  24
ATOM     24  C   UNL     1      16.763   8.893  11.468  1.00  0.00    -0.000 C 
BRANCH  24  25
ATOM     25  C   UNL     1      17.152  10.197  10.751  1.00  0.00    -0.000 C 
BRANCH  25  26
ATOM     26  C   UNL     1      16.146  10.590   9.654  1.00  0.00    -0.000 C 
BRANCH  26  27
ATOM     27  C   UNL     1      16.230  12.086   9.291  1.00  0.00    -0.000 C 
BRANCH  27  28
ATOM     28  C   UNL     1      17.307  12.863  10.074  1.00  0.00    -0.000 C 
BRANCH  28  29
ATOM     29  C   UNL     1      16.874  14.279  10.507  1.00  0.00    -0.003 C 
ATOM     30  C   UNL     1      15.555  14.710   9.865  1.00  0.00     0.004 C 
ENDBRANCH  28  29
ENDBRANCH  27  28
ENDBRANCH  26  27
ENDBRANCH  25  26
ENDBRANCH  24  25
ENDBRANCH  23  24
ENDBRANCH  22  23
ENDBRANCH  21  22
ENDBRANCH  20  21
ENDBRANCH  19  20
ENDBRANCH  18  19
ENDBRANCH  17  18
ENDBRANCH   1  17
TORSDOF 26
ENDMDL
MODEL 6
REMARK VINA RESULT:    22.767      2.741     10.172
REMARK INTER + INTRA:          56.034
REMARK INTER:                  57.115
REMARK INTRA:                  -1.081
REMARK UNBOUND:                -1.339
REMARK SMILES CCCCCCCCCCCCCCCCCCCCCCCCCCCC(=O)[O-]
REMARK SMILES IDX 15 1 16 2 17 3 18 4 19 5 20 6 21 7 22 8 23 9 24 10 25 11
REMARK SMILES IDX 26 12 27 13 28 14 29 15 30 16 14 17 13 18 12 19 11 20 10 21
REMARK SMILES IDX 9 22 8 23 7 24 6 25 5 26 4 27 3 28 2 29 1 30
REMARK H PARENT
REMARK Flexibility Score: inf
ROOT
ATOM      1  C   UNL     1      13.470  13.054  17.571  1.00  0.00     0.000 C 
ENDROOT
BRANCH   1   2
ATOM      2  C   UNL     1      14.272  14.169  16.870  1.00  0.00     0.000 C 
BRANCH   2   3
ATOM      3  C   UNL     1      14.659  15.358  17.771  1.00  0.00     0.000 C 
BRANCH   3   4
ATOM      4  C   UNL     1      14.532  16.746  17.110  1.00  0.00     0.000 C 
BRANCH   4   5
ATOM      5  C   UNL     1      13.279  16.944  16.239  1.00  0.00     0.000 C 
BRANCH   5   6
ATOM      6  C   UNL     1      13.304  18.262  15.445  1.00  0.00     0.000 C 
BRANCH   6   7
ATOM      7  C   UNL     1      14.532  19.127  15.771  1.00  0.00     0.000 C 
BRANCH   7   8
ATOM      8  C   UNL     1      14.378  20.582  15.296  1.00  0.00     0.000 C 
BRANCH   8   9
ATOM      9  C   UNL     1      15.733  21.264  15.043  1.00  0.00     0.000 C 
BRANCH   9  10
ATOM     10  C   UNL     1      16.413  21.734  16.341  1.00  0.00     0.000 C 
BRANCH  10  11
ATOM     11  C   UNL     1      15.412  22.322  17.349  1.00  0.00     0.000 C 
BRANCH  11  12
ATOM     12  C   UNL     1      15.405  21.561  18.687  1.00  0.00     0.006 C 
BRANCH  12  13
ATOM     13  C   UNL     1      16.816  21.146  19.124  1.00  0.00     0.053 C 
BRANCH  13  14
ATOM     14  C   UNL     1      16.833  19.774  19.725  1.00  0.00     0.041 C 
ATOM     15  O   UNL     1      16.609  18.764  19.007  1.00  0.00    -0.550 OA
ATOM     16  O   UNL     1      17.081  19.611  21.083  1.00  0.00    -0.550 OA
ENDBRANCH  13  14
ENDBRANCH  12  13
ENDBRANCH  11  12
ENDBRANCH  10  11
ENDBRANCH   9  10
ENDBRANCH   8   9
ENDBRANCH   7   8
ENDBRANCH   6   7
ENDBRANCH   5   6
ENDBRANCH   4   5
ENDBRANCH   3   4
ENDBRANCH   2   3
ENDBRANCH   1   2
BRANCH   1  17
ATOM     17  C   UNL     1      13.749  11.633  17.052  1.00  0.00     0.000 C 
BRANCH  17  18
ATOM     18  C   UNL     1      15.044  11.546  16.224  1.00  0.00     0.000 C 
BRANCH  18  19
ATOM     19  C   UNL     1      15.422  10.100  15.868  1.00  0.00     0.000 C 
BRANCH  19  20
ATOM     20  C   UNL     1      16.638  10.020  14.931  1.00  0.00     0.000 C 
BRANCH  20  21
ATOM     21  C   UNL     1      16.247   9.410  13.578  1.00  0.00     0.000 C 
BRANCH  21  22
ATOM     22  C   UNL     1      16.749  10.237  12.382  1.00  0.00    -0.000 C 
BRANCH  22  23
ATOM     23  C   UNL     1      16.965   9.404  11.101  1.00  0.00    -0.000 C 
BRANCH  23  24
ATOM     24  C   UNL     1      16.625  10.199   9.828  1.00  0.00    -0.000 C 
BRANCH  24  25
ATOM     25  C   UNL     1      16.403  11.694  10.109  1.00  0.00    -0.000 C 
BRANCH  25  26
ATOM     26  C   UNL     1      15.613  12.395   8.989  1.00  0.00    -0.000 C 
BRANCH  26  27
ATOM     27  C   UNL     1      15.879  13.913   8.947  1.00  0.00    -0.000 C 
BRANCH  27  28
ATOM     28  C   UNL     1      17.263  14.325   9.488  1.00  0.00    -0.000 C 
BRANCH  28  29
ATOM     29  C   UNL     1      17.397  14.220  11.021  1.00  0.00    -0.003 C 
ATOM     30  C   UNL     1      16.135  14.678  11.752  1.00  0.00     0.004 C 
ENDBRANCH  28  29
ENDBRANCH  27  28
ENDBRANCH  26  27
ENDBRANCH  25  26
ENDBRANCH  24  25
ENDBRANCH  23  24
ENDBRANCH  22  23
ENDBRANCH  21  22
ENDBRANCH  20  21
ENDBRANCH  19  20
ENDBRANCH  18  19
ENDBRANCH  17  18
ENDBRANCH   1  17
TORSDOF 26
ENDMDL
MODEL 7
REMARK VINA RESULT:    22.784      2.384     10.102
REMARK INTER + INTRA:          56.077
REMARK INTER:                  57.456
REMARK INTRA:                  -1.379
REMARK UNBOUND:                -1.339
REMARK SMILES CCCCCCCCCCCCCCCCCCCCCCCCCCCC(=O)[O-]
REMARK SMILES IDX 15 1 16 2 17 3 18 4 19 5 20 6 21 7 22 8 23 9 24 10 25 11
REMARK SMILES IDX 26 12 27 13 28 14 29 15 30 16 14 17 13 18 12 19 11 20 10 21
REMARK SMILES IDX 9 22 8 23 7 24 6 25 5 26 4 27 3 28 2 29 1 30
REMARK H PARENT
REMARK Flexibility Score: inf
ROOT
ATOM      1  C   UNL     1      12.762  13.639  16.753  1.00  0.00     0.000 C 
ENDROOT
BRANCH   1   2
ATOM      2  C   UNL     1      13.509  14.984  16.648  1.00  0.00     0.000 C 
BRANCH   2   3
ATOM      3  C   UNL     1      14.791  15.085  17.498  1.00  0.00     0.000 C 
BRANCH   3   4
ATOM      4  C   UNL     1      14.991  16.433  18.219  1.00  0.00     0.000 C 
BRANCH   4   5
ATOM      5  C   UNL     1      16.437  16.958  18.235  1.00  0.00     0.000 C 
BRANCH   5   6
ATOM      6  C   UNL     1      16.517  18.492  18.320  1.00  0.00     0.000 C 
BRANCH   6   7
ATOM      7  C   UNL     1      16.686  18.998  19.762  1.00  0.00     0.000 C 
BRANCH   7   8
ATOM      8  C   UNL     1      16.392  20.502  19.903  1.00  0.00     0.000 C 
BRANCH   8   9
ATOM      9  C   UNL     1      17.272  21.362  18.981  1.00  0.00     0.000 C 
BRANCH   9  10
ATOM     10  C   UNL     1      16.473  22.016  17.839  1.00  0.00     0.000 C 
BRANCH  10  11
ATOM     11  C   UNL     1      17.259  22.051  16.518  1.00  0.00     0.000 C 
BRANCH  11  12
ATOM     12  C   UNL     1      16.339  22.166  15.288  1.00  0.00     0.006 C 
BRANCH  12  13
ATOM     13  C   UNL     1      15.769  20.806  14.863  1.00  0.00     0.053 C 
BRANCH  13  14
ATOM     14  C   UNL     1      14.475  20.502  15.553  1.00  0.00     0.041 C 
ATOM     15  O   UNL     1      13.949  19.363  15.443  1.00  0.00    -0.550 OA
ATOM     16  O   UNL     1      13.840  21.483  16.306  1.00  0.00    -0.550 OA
ENDBRANCH  13  14
ENDBRANCH  12  13
ENDBRANCH  11  12
ENDBRANCH  10  11
ENDBRANCH   9  10
ENDBRANCH   8   9
ENDBRANCH   7   8
ENDBRANCH   6   7
ENDBRANCH   5   6
ENDBRANCH   4   5
ENDBRANCH   3   4
ENDBRANCH   2   3
ENDBRANCH   1   2
BRANCH   1  17
ATOM     17  C   UNL     1      13.256  12.712  17.877  1.00  0.00     0.000 C 
BRANCH  17  18
ATOM     18  C   UNL     1      13.842  11.391  17.345  1.00  0.00     0.000 C 
BRANCH  18  19
ATOM     19  C   UNL     1      14.797  11.602  16.160  1.00  0.00     0.000 C 
BRANCH  19  20
ATOM     20  C   UNL     1      16.025  10.682  16.220  1.00  0.00     0.000 C 
BRANCH  20  21
ATOM     21  C   UNL     1      16.543  10.368  14.810  1.00  0.00     0.000 C 
BRANCH  21  22
ATOM     22  C   UNL     1      16.093   8.989  14.299  1.00  0.00    -0.000 C 
BRANCH  22  23
ATOM     23  C   UNL     1      15.760   8.964  12.793  1.00  0.00    -0.000 C 
BRANCH  23  24
ATOM     24  C   UNL     1      16.951   9.410  11.927  1.00  0.00    -0.000 C 
BRANCH  24  25
ATOM     25  C   UNL     1      16.545   9.705  10.474  1.00  0.00    -0.000 C 
BRANCH  25  26
ATOM     26  C   UNL     1      17.255  10.946   9.902  1.00  0.00    -0.000 C 
BRANCH  26  27
ATOM     27  C   UNL     1      16.885  12.235  10.663  1.00  0.00    -0.000 C 
BRANCH  27  28
ATOM     28  C   UNL     1      17.430  13.525  10.019  1.00  0.00    -0.000 C 
BRANCH  28  29
ATOM     29  C   UNL     1      16.415  14.685   9.974  1.00  0.00    -0.003 C 
ATOM     30  C   UNL     1      15.067  14.263   9.388  1.00  0.00     0.004 C 
ENDBRANCH  28  29
ENDBRANCH  27  28
ENDBRANCH  26  27
ENDBRANCH  25  26
ENDBRANCH  24  25
ENDBRANCH  23  24
ENDBRANCH  22  23
ENDBRANCH  21  22
ENDBRANCH  20  21
ENDBRANCH  19  20
ENDBRANCH  18  19
ENDBRANCH  17  18
ENDBRANCH   1  17
TORSDOF 26
ENDMDL
MODEL 8
REMARK VINA RESULT:    23.275      2.285     10.285
REMARK INTER + INTRA:          57.312
REMARK INTER:                  59.121
REMARK INTRA:                  -1.809
REMARK UNBOUND:                -1.339
REMARK SMILES CCCCCCCCCCCCCCCCCCCCCCCCCCCC(=O)[O-]
REMARK SMILES IDX 15 1 16 2 17 3 18 4 19 5 20 6 21 7 22 8 23 9 24 10 25 11
REMARK SMILES IDX 26 12 27 13 28 14 29 15 30 16 14 17 13 18 12 19 11 20 10 21
REMARK SMILES IDX 9 22 8 23 7 24 6 25 5 26 4 27 3 28 2 29 1 30
REMARK H PARENT
REMARK Flexibility Score: inf
ROOT
ATOM      1  C   UNL     1      13.900  15.677  16.966  1.00  0.00     0.000 C 
ENDROOT
BRANCH   1   2
ATOM      2  C   UNL     1      14.459  16.318  18.252  1.00  0.00     0.000 C 
BRANCH   2   3
ATOM      3  C   UNL     1      15.932  16.763  18.171  1.00  0.00     0.000 C 
BRANCH   3   4
ATOM      4  C   UNL     1      16.159  18.287  18.239  1.00  0.00     0.000 C 
BRANCH   4   5
ATOM      5  C   UNL     1      17.070  18.761  19.385  1.00  0.00     0.000 C 
BRANCH   5   6
ATOM      6  C   UNL     1      16.486  19.956  20.158  1.00  0.00     0.000 C 
BRANCH   6   7
ATOM      7  C   UNL     1      16.559  21.270  19.362  1.00  0.00     0.000 C 
BRANCH   7   8
ATOM      8  C   UNL     1      17.989  21.613  18.910  1.00  0.00     0.000 C 
BRANCH   8   9
ATOM      9  C   UNL     1      18.088  21.834  17.392  1.00  0.00     0.000 C 
BRANCH   9  10
ATOM     10  C   UNL     1      16.815  22.465  16.800  1.00  0.00     0.000 C 
BRANCH  10  11
ATOM     11  C   UNL     1      16.801  22.429  15.263  1.00  0.00     0.000 C 
BRANCH  11  12
ATOM     12  C   UNL     1      15.950  21.272  14.708  1.00  0.00     0.006 C 
BRANCH  12  13
ATOM     13  C   UNL     1      15.395  20.375  15.822  1.00  0.00     0.053 C 
BRANCH  13  14
ATOM     14  C   UNL     1      13.945  20.062  15.616  1.00  0.00     0.041 C 
ATOM     15  O   UNL     1      13.079  20.971  15.712  1.00  0.00    -0.550 OA
ATOM     16  O   UNL     1      13.546  18.760  15.336  1.00  0.00    -0.550 OA
ENDBRANCH  13  14
ENDBRANCH  12  13
ENDBRANCH  11  12
ENDBRANCH  10  11
ENDBRANCH   9  10
ENDBRANCH   8   9
ENDBRANCH   7   8
ENDBRANCH   6   7
ENDBRANCH   5   6
ENDBRANCH   4   5
ENDBRANCH   3   4
ENDBRANCH   2   3
ENDBRANCH   1   2
BRANCH   1  17
ATOM     17  C   UNL     1      14.282  14.201  16.761  1.00  0.00     0.000 C 
BRANCH  17  18
ATOM     18  C   UNL     1      13.451  13.244  17.635  1.00  0.00     0.000 C 
BRANCH  18  19
ATOM     19  C   UNL     1      13.718  11.766  17.312  1.00  0.00     0.000 C 
BRANCH  19  20
ATOM     20  C   UNL     1      15.146  11.521  16.803  1.00  0.00     0.000 C 
BRANCH  20  21
ATOM     21  C   UNL     1      15.128  10.911  15.394  1.00  0.00     0.000 C 
BRANCH  21  22
ATOM     22  C   UNL     1      16.389  10.088  15.082  1.00  0.00    -0.000 C 
BRANCH  22  23
ATOM     23  C   UNL     1      16.096   8.750  14.372  1.00  0.00    -0.000 C 
BRANCH  23  24
ATOM     24  C   UNL     1      15.917   8.925  12.854  1.00  0.00    -0.000 C 
BRANCH  24  25
ATOM     25  C   UNL     1      16.799  10.048  12.283  1.00  0.00    -0.000 C 
BRANCH  25  26
ATOM     26  C   UNL     1      17.017   9.915  10.765  1.00  0.00    -0.000 C 
BRANCH  26  27
ATOM     27  C   UNL     1      17.253  11.278  10.085  1.00  0.00    -0.000 C 
BRANCH  27  28
ATOM     28  C   UNL     1      15.958  12.027   9.713  1.00  0.00    -0.000 C 
BRANCH  28  29
ATOM     29  C   UNL     1      16.087  13.564   9.743  1.00  0.00    -0.003 C 
ATOM     30  C   UNL     1      17.493  14.026  10.128  1.00  0.00     0.004 C 
ENDBRANCH  28  29
ENDBRANCH  27  28
ENDBRANCH  26  27
ENDBRANCH  25  26
ENDBRANCH  24  25
ENDBRANCH  23  24
ENDBRANCH  22  23
ENDBRANCH  21  22
ENDBRANCH  20  21
ENDBRANCH  19  20
ENDBRANCH  18  19
ENDBRANCH  17  18
ENDBRANCH   1  17
TORSDOF 26
ENDMDL
MODEL 9
REMARK VINA RESULT:    23.466      1.076      2.899
REMARK INTER + INTRA:          57.794
REMARK INTER:                  57.779
REMARK INTRA:                   0.015
REMARK UNBOUND:                -1.339
REMARK SMILES CCCCCCCCCCCCCCCCCCCCCCCCCCCC(=O)[O-]
REMARK SMILES IDX 15 1 16 2 17 3 18 4 19 5 20 6 21 7 22 8 23 9 24 10 25 11
REMARK SMILES IDX 26 12 27 13 28 14 29 15 30 16 14 17 13 18 12 19 11 20 10 21
REMARK SMILES IDX 9 22 8 23 7 24 6 25 5 26 4 27 3 28 2 29 1 30
REMARK H PARENT
REMARK Flexibility Score: inf
ROOT
ATOM      1  C   UNL     1      13.833  11.343  17.151  1.00  0.00     0.000 C 
ENDROOT
BRANCH   1   2
ATOM      2  C   UNL     1      15.132  11.819  16.470  1.00  0.00     0.000 C 
BRANCH   2   3
ATOM      3  C   UNL     1      15.550  11.010  15.227  1.00  0.00     0.000 C 
BRANCH   3   4
ATOM      4  C   UNL     1      16.676   9.984  15.464  1.00  0.00     0.000 C 
BRANCH   4   5
ATOM      5  C   UNL     1      16.393   8.568  14.931  1.00  0.00     0.000 C 
BRANCH   5   6
ATOM      6  C   UNL     1      15.637   8.572  13.591  1.00  0.00     0.000 C 
BRANCH   6   7
ATOM      7  C   UNL     1      16.193   9.607  12.600  1.00  0.00     0.000 C 
BRANCH   7   8
ATOM      8  C   UNL     1      16.673   8.972  11.283  1.00  0.00     0.000 C 
BRANCH   8   9
ATOM      9  C   UNL     1      17.780   9.796  10.604  1.00  0.00     0.000 C 
BRANCH   9  10
ATOM     10  C   UNL     1      17.353  11.248  10.324  1.00  0.00     0.000 C 
BRANCH  10  11
ATOM     11  C   UNL     1      16.185  11.335   9.329  1.00  0.00     0.000 C 
BRANCH  11  12
ATOM     12  C   UNL     1      15.294  12.567   9.571  1.00  0.00     0.006 C 
BRANCH  12  13
ATOM     13  C   UNL     1      15.995  13.874   9.178  1.00  0.00     0.053 C 
BRANCH  13  14
ATOM     14  C   UNL     1      17.067  14.249  10.155  1.00  0.00     0.041 C 
ATOM     15  O   UNL     1      18.227  14.523   9.750  1.00  0.00    -0.550 OA
ATOM     16  O   UNL     1      16.788  14.279  11.516  1.00  0.00    -0.550 OA
ENDBRANCH  13  14
ENDBRANCH  12  13
ENDBRANCH  11  12
ENDBRANCH  10  11
ENDBRANCH   9  10
ENDBRANCH   8   9
ENDBRANCH   7   8
ENDBRANCH   6   7
ENDBRANCH   5   6
ENDBRANCH   4   5
ENDBRANCH   3   4
ENDBRANCH   2   3
ENDBRANCH   1   2
BRANCH   1  17
ATOM     17  C   UNL     1      12.918  12.471  17.658  1.00  0.00     0.000 C 
BRANCH  17  18
ATOM     18  C   UNL     1      13.015  13.746  16.801  1.00  0.00     0.000 C 
BRANCH  18  19
ATOM     19  C   UNL     1      14.322  14.519  17.034  1.00  0.00     0.000 C 
BRANCH  19  20
ATOM     20  C   UNL     1      14.111  16.040  17.072  1.00  0.00     0.000 C 
BRANCH  20  21
ATOM     21  C   UNL     1      14.881  16.670  18.241  1.00  0.00     0.000 C 
BRANCH  21  22
ATOM     22  C   UNL     1      16.381  16.839  17.947  1.00  0.00    -0.000 C 
BRANCH  22  23
ATOM     23  C   UNL     1      17.044  17.982  18.744  1.00  0.00    -0.000 C 
BRANCH  23  24
ATOM     24  C   UNL     1      16.007  18.926  19.378  1.00  0.00    -0.000 C 
BRANCH  24  25
ATOM     25  C   UNL     1      16.656  20.013  20.250  1.00  0.00    -0.000 C 
BRANCH  25  26
ATOM     26  C   UNL     1      16.942  21.307  19.465  1.00  0.00    -0.000 C 
BRANCH  26  27
ATOM     27  C   UNL     1      16.268  21.311  18.078  1.00  0.00    -0.000 C 
BRANCH  27  28
ATOM     28  C   UNL     1      17.170  21.835  16.943  1.00  0.00    -0.000 C 
BRANCH  28  29
ATOM     29  C   UNL     1      16.398  22.398  15.733  1.00  0.00    -0.003 C 
ATOM     30  C   UNL     1      15.859  21.298  14.818  1.00  0.00     0.004 C 
ENDBRANCH  28  29
ENDBRANCH  27  28
ENDBRANCH  26  27
ENDBRANCH  25  26
ENDBRANCH  24  25
ENDBRANCH  23  24
ENDBRANCH  22  23
ENDBRANCH  21  22
ENDBRANCH  20  21
ENDBRANCH  19  20
ENDBRANCH  18  19
ENDBRANCH  17  18
ENDBRANCH   1  17
TORSDOF 26
ENDMDL
