MODEL 1
REMARK VINA RESULT:    -2.643      0.000      0.000
REMARK INTER + INTRA:          -3.142
REMARK INTER:                  -3.107
REMARK INTRA:                  -0.036
REMARK UNBOUND:                -0.036
REMARK SMILES O=C([O-])CCC(=O)[O-]
REMARK SMILES IDX 4 1 2 2 1 3 3 4 5 5 6 6 7 7 8 8
REMARK H PARENT
REMARK Flexibility Score: inf
ROOT
ATOM      1  C   UNL     1      72.602  31.247  60.425  1.00  0.00     0.059 C 
ENDROOT
BRANCH   1   2
ATOM      2  C   UNL     1      72.136  30.729  61.748  1.00  0.00     0.042 C 
ATOM      3  O   UNL     1      72.950  30.591  62.697  1.00  0.00    -0.550 OA
ATOM      4  O   UNL     1      70.790  30.445  61.948  1.00  0.00    -0.550 OA
ENDBRANCH   1   2
BRANCH   1   5
ATOM      5  C   UNL     1      71.409  31.656  59.559  1.00  0.00     0.059 C 
BRANCH   5   6
ATOM      6  C   UNL     1      71.190  33.133  59.633  1.00  0.00     0.042 C 
ATOM      7  O   UNL     1      71.198  33.720  60.747  1.00  0.00    -0.550 OA
ATOM      8  O   UNL     1      70.929  33.857  58.475  1.00  0.00    -0.550 OA
ENDBRANCH   5   6
ENDBRANCH   1   5
TORSDOF 3
ENDMDL
MODEL 2
REMARK VINA RESULT:    -2.643     17.411     18.607
REMARK INTER + INTRA:          -3.142
REMARK INTER:                  -3.031
REMARK INTRA:                  -0.110
REMARK UNBOUND:                -0.036
REMARK SMILES O=C([O-])CCC(=O)[O-]
REMARK SMILES IDX 4 1 2 2 1 3 3 4 5 5 6 6 7 7 8 8
REMARK H PARENT
REMARK Flexibility Score: inf
ROOT
ATOM      1  C   UNL     1      58.090  28.064  50.717  1.00  0.00     0.059 C 
ENDROOT
BRANCH   1   2
ATOM      2  C   UNL     1      58.880  28.350  49.480  1.00  0.00     0.042 C 
ATOM      3  O   UNL     1      58.735  29.444  48.875  1.00  0.00    -0.550 OA
ATOM      4  O   UNL     1      59.813  27.427  49.022  1.00  0.00    -0.550 OA
ENDBRANCH   1   2
BRANCH   1   5
ATOM      5  C   UNL     1      56.619  27.830  50.372  1.00  0.00     0.059 C 
BRANCH   5   6
ATOM      6  C   UNL     1      56.359  26.376  50.142  1.00  0.00     0.042 C 
ATOM      7  O   UNL     1      57.186  25.514  50.537  1.00  0.00    -0.550 OA
ATOM      8  O   UNL     1      55.225  25.973  49.446  1.00  0.00    -0.550 OA
ENDBRANCH   5   6
ENDBRANCH   1   5
TORSDOF 3
ENDMDL
MODEL 3
REMARK VINA RESULT:    -2.605      9.091      9.821
REMARK INTER + INTRA:          -3.097
REMARK INTER:                  -3.062
REMARK INTRA:                  -0.035
REMARK UNBOUND:                -0.036
REMARK SMILES O=C([O-])CCC(=O)[O-]
REMARK SMILES IDX 4 1 2 2 1 3 3 4 5 5 6 6 7 7 8 8
REMARK H PARENT
REMARK Flexibility Score: inf
ROOT
ATOM      1  C   UNL     1      62.564  32.662  60.851  1.00  0.00     0.059 C 
ENDROOT
BRANCH   1   2
ATOM      2  C   UNL     1      61.301  31.864  60.892  1.00  0.00     0.042 C 
ATOM      3  O   UNL     1      60.582  31.762  59.864  1.00  0.00    -0.550 OA
ATOM      4  O   UNL     1      60.940  31.191  62.054  1.00  0.00    -0.550 OA
ENDBRANCH   1   2
BRANCH   1   5
ATOM      5  C   UNL     1      62.262  34.130  60.547  1.00  0.00     0.059 C 
BRANCH   5   6
ATOM      6  C   UNL     1      63.230  35.022  61.255  1.00  0.00     0.042 C 
ATOM      7  O   UNL     1      64.364  34.590  61.588  1.00  0.00    -0.550 OA
ATOM      8  O   UNL     1      62.862  36.320  61.593  1.00  0.00    -0.550 OA
ENDBRANCH   5   6
ENDBRANCH   1   5
TORSDOF 3
ENDMDL
MODEL 4
REMARK VINA RESULT:    -2.601     18.630     19.612
REMARK INTER + INTRA:          -3.093
REMARK INTER:                  -3.050
REMARK INTRA:                  -0.043
REMARK UNBOUND:                -0.036
REMARK SMILES O=C([O-])CCC(=O)[O-]
REMARK SMILES IDX 4 1 2 2 1 3 3 4 5 5 6 6 7 7 8 8
REMARK H PARENT
REMARK Flexibility Score: inf
ROOT
ATOM      1  C   UNL     1      57.030  27.041  50.264  1.00  0.00     0.059 C 
ENDROOT
BRANCH   1   2
ATOM      2  C   UNL     1      58.272  26.253  49.992  1.00  0.00     0.042 C 
ATOM      3  O   UNL     1      58.377  25.071  50.412  1.00  0.00    -0.550 OA
ATOM      4  O   UNL     1      59.296  26.808  49.233  1.00  0.00    -0.550 OA
ENDBRANCH   1   2
BRANCH   1   5
ATOM      5  C   UNL     1      55.847  26.106  50.516  1.00  0.00     0.059 C 
BRANCH   5   6
ATOM      6  C   UNL     1      54.676  26.504  49.675  1.00  0.00     0.042 C 
ATOM      7  O   UNL     1      54.217  27.674  49.741  1.00  0.00    -0.550 OA
ATOM      8  O   UNL     1      54.060  25.567  48.853  1.00  0.00    -0.550 OA
ENDBRANCH   5   6
ENDBRANCH   1   5
TORSDOF 3
ENDMDL
MODEL 5
REMARK VINA RESULT:    -2.584     18.175     19.322
REMARK INTER + INTRA:          -3.073
REMARK INTER:                  -3.035
REMARK INTRA:                  -0.037
REMARK UNBOUND:                -0.036
REMARK SMILES O=C([O-])CCC(=O)[O-]
REMARK SMILES IDX 4 1 2 2 1 3 3 4 5 5 6 6 7 7 8 8
REMARK H PARENT
REMARK Flexibility Score: inf
ROOT
ATOM      1  C   UNL     1      56.988  27.752  50.370  1.00  0.00     0.059 C 
ENDROOT
BRANCH   1   2
ATOM      2  C   UNL     1      57.911  28.927  50.299  1.00  0.00     0.042 C 
ATOM      3  O   UNL     1      58.469  29.230  49.213  1.00  0.00    -0.550 OA
ATOM      4  O   UNL     1      58.118  29.717  51.424  1.00  0.00    -0.550 OA
ENDBRANCH   1   2
BRANCH   1   5
ATOM      5  C   UNL     1      55.535  28.218  50.464  1.00  0.00     0.059 C 
BRANCH   5   6
ATOM      6  C   UNL     1      54.624  27.228  49.811  1.00  0.00     0.042 C 
ATOM      7  O   UNL     1      55.037  26.071  49.537  1.00  0.00    -0.550 OA
ATOM      8  O   UNL     1      53.331  27.599  49.459  1.00  0.00    -0.550 OA
ENDBRANCH   5   6
ENDBRANCH   1   5
TORSDOF 3
ENDMDL
MODEL 6
REMARK VINA RESULT:    -2.580     18.799     19.895
REMARK INTER + INTRA:          -3.068
REMARK INTER:                  -3.027
REMARK INTRA:                  -0.041
REMARK UNBOUND:                -0.036
REMARK SMILES O=C([O-])CCC(=O)[O-]
REMARK SMILES IDX 4 1 2 2 1 3 3 4 5 5 6 6 7 7 8 8
REMARK H PARENT
REMARK Flexibility Score: inf
ROOT
ATOM      1  C   UNL     1      55.596  26.556  50.055  1.00  0.00     0.059 C 
ENDROOT
BRANCH   1   2
ATOM      2  C   UNL     1      54.217  26.592  49.479  1.00  0.00     0.042 C 
ATOM      3  O   UNL     1      53.537  27.650  49.529  1.00  0.00    -0.550 OA
ATOM      4  O   UNL     1      53.700  25.470  48.841  1.00  0.00    -0.550 OA
ENDBRANCH   1   2
BRANCH   1   5
ATOM      5  C   UNL     1      56.083  27.971  50.371  1.00  0.00     0.059 C 
BRANCH   5   6
ATOM      6  C   UNL     1      57.561  28.074  50.170  1.00  0.00     0.042 C 
ATOM      7  O   UNL     1      58.313  27.119  50.497  1.00  0.00    -0.550 OA
ATOM      8  O   UNL     1      58.114  29.245  49.666  1.00  0.00    -0.550 OA
ENDBRANCH   5   6
ENDBRANCH   1   5
TORSDOF 3
ENDMDL
MODEL 7
REMARK VINA RESULT:    -2.565      8.252      9.311
REMARK INTER + INTRA:          -3.050
REMARK INTER:                  -3.010
REMARK INTRA:                  -0.040
REMARK UNBOUND:                -0.036
REMARK SMILES O=C([O-])CCC(=O)[O-]
REMARK SMILES IDX 4 1 2 2 1 3 3 4 5 5 6 6 7 7 8 8
REMARK H PARENT
REMARK Flexibility Score: inf
ROOT
ATOM      1  C   UNL     1      64.043  34.000  61.149  1.00  0.00     0.059 C 
ENDROOT
BRANCH   1   2
ATOM      2  C   UNL     1      64.186  35.415  61.611  1.00  0.00     0.042 C 
ATOM      3  O   UNL     1      65.320  35.871  61.913  1.00  0.00    -0.550 OA
ATOM      4  O   UNL     1      63.073  36.246  61.663  1.00  0.00    -0.550 OA
ENDBRANCH   1   2
BRANCH   1   5
ATOM      5  C   UNL     1      62.620  33.740  60.652  1.00  0.00     0.059 C 
BRANCH   5   6
ATOM      6  C   UNL     1      62.244  32.308  60.864  1.00  0.00     0.042 C 
ATOM      7  O   UNL     1      63.086  31.395  60.657  1.00  0.00    -0.550 OA
ATOM      8  O   UNL     1      60.948  31.978  61.243  1.00  0.00    -0.550 OA
ENDBRANCH   5   6
ENDBRANCH   1   5
TORSDOF 3
ENDMDL
MODEL 8
REMARK VINA RESULT:    -2.546     17.768     18.885
REMARK INTER + INTRA:          -3.029
REMARK INTER:                  -2.984
REMARK INTRA:                  -0.044
REMARK UNBOUND:                -0.036
REMARK SMILES O=C([O-])CCC(=O)[O-]
REMARK SMILES IDX 4 1 2 2 1 3 3 4 5 5 6 6 7 7 8 8
REMARK H PARENT
REMARK Flexibility Score: inf
ROOT
ATOM      1  C   UNL     1      57.013  26.119  50.215  1.00  0.00     0.059 C 
ENDROOT
BRANCH   1   2
ATOM      2  C   UNL     1      55.623  26.626  49.994  1.00  0.00     0.042 C 
ATOM      3  O   UNL     1      55.289  27.763  50.418  1.00  0.00    -0.550 OA
ATOM      4  O   UNL     1      54.710  25.862  49.278  1.00  0.00    -0.550 OA
ENDBRANCH   1   2
BRANCH   1   5
ATOM      5  C   UNL     1      57.982  27.284  50.420  1.00  0.00     0.059 C 
BRANCH   5   6
ATOM      6  C   UNL     1      59.181  27.129  49.540  1.00  0.00     0.042 C 
ATOM      7  O   UNL     1      59.621  28.113  48.890  1.00  0.00    -0.550 OA
ATOM      8  O   UNL     1      59.784  25.885  49.399  1.00  0.00    -0.550 OA
ENDBRANCH   5   6
ENDBRANCH   1   5
TORSDOF 3
ENDMDL
