MODEL 1
REMARK VINA RESULT:    -2.908      0.000      0.000
REMARK INTER + INTRA:          -3.311
REMARK INTER:                  -3.248
REMARK INTRA:                  -0.063
REMARK UNBOUND:                -0.063
REMARK SMILES O=C([O-])c1ccccc1C(=O)[O-]
REMARK SMILES IDX 4 1 9 2 5 3 8 4 6 5 7 6 2 7 1 8 3 9 10 10 11 11 12 12
REMARK H PARENT
REMARK Flexibility Score: inf
ROOT
ATOM      1  C   UNL     1      -5.369  37.013  21.397  1.00  0.00     0.006 A 
ATOM      2  C   UNL     1      -4.299  36.312  20.772  1.00  0.00     0.006 A 
ATOM      3  C   UNL     1      -6.125  36.364  22.389  1.00  0.00     0.010 A 
ATOM      4  C   UNL     1      -3.984  35.013  21.211  1.00  0.00     0.010 A 
ATOM      5  C   UNL     1      -5.808  35.067  22.794  1.00  0.00     0.001 A 
ATOM      6  C   UNL     1      -4.734  34.397  22.215  1.00  0.00     0.001 A 
ENDROOT
BRANCH   1   7
ATOM      7  C   UNL     1      -5.687  38.429  21.098  1.00  0.00     0.072 C 
ATOM      8  O   UNL     1      -6.085  38.773  19.954  1.00  0.00    -0.545 OA
ATOM      9  O   UNL     1      -5.484  39.407  22.065  1.00  0.00    -0.545 OA
ENDBRANCH   1   7
BRANCH   2  10
ATOM     10  C   UNL     1      -3.542  36.865  19.626  1.00  0.00     0.072 C 
ATOM     11  O   UNL     1      -2.459  37.479  19.818  1.00  0.00    -0.545 OA
ATOM     12  O   UNL     1      -3.977  36.658  18.322  1.00  0.00    -0.545 OA
ENDBRANCH   2  10
TORSDOF 2
ENDMDL
MODEL 2
REMARK VINA RESULT:    -2.905      0.109      3.038
REMARK INTER + INTRA:          -3.308
REMARK INTER:                  -3.250
REMARK INTRA:                  -0.058
REMARK UNBOUND:                -0.063
REMARK SMILES O=C([O-])c1ccccc1C(=O)[O-]
REMARK SMILES IDX 4 1 9 2 5 3 8 4 6 5 7 6 2 7 1 8 3 9 10 10 11 11 12 12
REMARK H PARENT
REMARK Flexibility Score: inf
ROOT
ATOM      1  C   UNL     1      -4.291  36.305  20.697  1.00  0.00     0.006 A 
ATOM      2  C   UNL     1      -5.361  37.023  21.302  1.00  0.00     0.006 A 
ATOM      3  C   UNL     1      -3.984  35.014  21.162  1.00  0.00     0.010 A 
ATOM      4  C   UNL     1      -6.124  36.396  22.304  1.00  0.00     0.010 A 
ATOM      5  C   UNL     1      -4.741  34.420  22.172  1.00  0.00     0.001 A 
ATOM      6  C   UNL     1      -5.815  35.104  22.735  1.00  0.00     0.001 A 
ENDROOT
BRANCH   1   7
ATOM      7  C   UNL     1      -3.521  36.828  19.544  1.00  0.00     0.072 C 
ATOM      8  O   UNL     1      -3.876  36.573  18.363  1.00  0.00    -0.545 OA
ATOM      9  O   UNL     1      -2.354  37.553  19.757  1.00  0.00    -0.545 OA
ENDBRANCH   1   7
BRANCH   2  10
ATOM     10  C   UNL     1      -5.665  38.434  20.973  1.00  0.00     0.072 C 
ATOM     11  O   UNL     1      -6.058  38.745  19.818  1.00  0.00    -0.545 OA
ATOM     12  O   UNL     1      -5.585  39.423  21.947  1.00  0.00    -0.545 OA
ENDBRANCH   2  10
TORSDOF 2
ENDMDL
MODEL 3
REMARK VINA RESULT:    -2.796      1.433      3.276
REMARK INTER + INTRA:          -3.187
REMARK INTER:                  -3.751
REMARK INTRA:                   0.564
REMARK UNBOUND:                -0.063
REMARK SMILES O=C([O-])c1ccccc1C(=O)[O-]
REMARK SMILES IDX 4 1 9 2 5 3 8 4 6 5 7 6 2 7 1 8 3 9 10 10 11 11 12 12
REMARK H PARENT
REMARK Flexibility Score: inf
ROOT
ATOM      1  C   UNL     1      -5.467  35.735  21.800  1.00  0.00     0.006 A 
ATOM      2  C   UNL     1      -5.785  37.020  22.322  1.00  0.00     0.006 A 
ATOM      3  C   UNL     1      -5.435  34.631  22.671  1.00  0.00     0.010 A 
ATOM      4  C   UNL     1      -6.125  37.141  23.682  1.00  0.00     0.010 A 
ATOM      5  C   UNL     1      -5.754  34.778  24.022  1.00  0.00     0.001 A 
ATOM      6  C   UNL     1      -6.109  36.027  24.524  1.00  0.00     0.001 A 
ENDROOT
BRANCH   1   7
ATOM      7  C   UNL     1      -5.231  35.487  20.358  1.00  0.00     0.072 C 
ATOM      8  O   UNL     1      -6.125  34.967  19.639  1.00  0.00    -0.545 OA
ATOM      9  O   UNL     1      -3.990  35.766  19.797  1.00  0.00    -0.545 OA
ENDBRANCH   1   7
BRANCH   2  10
ATOM     10  C   UNL     1      -5.707  38.256  21.510  1.00  0.00     0.072 C 
ATOM     11  O   UNL     1      -5.743  38.191  20.252  1.00  0.00    -0.545 OA
ATOM     12  O   UNL     1      -5.661  39.504  22.119  1.00  0.00    -0.545 OA
ENDBRANCH   2  10
TORSDOF 2
ENDMDL
MODEL 4
REMARK VINA RESULT:    -2.738      2.230      4.055
REMARK INTER + INTRA:          -3.121
REMARK INTER:                  -3.315
REMARK INTRA:                   0.194
REMARK UNBOUND:                -0.063
REMARK SMILES O=C([O-])c1ccccc1C(=O)[O-]
REMARK SMILES IDX 4 1 9 2 5 3 8 4 6 5 7 6 2 7 1 8 3 9 10 10 11 11 12 12
REMARK H PARENT
REMARK Flexibility Score: inf
ROOT
ATOM      1  C   UNL     1      -3.831  35.792  17.872  1.00  0.00     0.006 A 
ATOM      2  C   UNL     1      -3.949  36.344  19.179  1.00  0.00     0.006 A 
ATOM      3  C   UNL     1      -4.572  34.642  17.546  1.00  0.00     0.010 A 
ATOM      4  C   UNL     1      -4.854  35.764  20.087  1.00  0.00     0.010 A 
ATOM      5  C   UNL     1      -5.447  34.070  18.470  1.00  0.00     0.001 A 
ATOM      6  C   UNL     1      -5.597  34.636  19.733  1.00  0.00     0.001 A 
ENDROOT
BRANCH   1   7
ATOM      7  C   UNL     1      -3.010  36.414  16.806  1.00  0.00     0.072 C 
ATOM      8  O   UNL     1      -3.404  37.453  16.214  1.00  0.00    -0.545 OA
ATOM      9  O   UNL     1      -1.823  35.814  16.403  1.00  0.00    -0.545 OA
ENDBRANCH   1   7
BRANCH   2  10
ATOM     10  C   UNL     1      -3.107  37.466  19.653  1.00  0.00     0.072 C 
ATOM     11  O   UNL     1      -3.546  38.266  20.521  1.00  0.00    -0.545 OA
ATOM     12  O   UNL     1      -1.801  37.613  19.199  1.00  0.00    -0.545 OA
ENDBRANCH   2  10
TORSDOF 2
ENDMDL
MODEL 5
REMARK VINA RESULT:    -2.710      2.729      5.128
REMARK INTER + INTRA:          -3.091
REMARK INTER:                  -3.116
REMARK INTRA:                   0.026
REMARK UNBOUND:                -0.063
REMARK SMILES O=C([O-])c1ccccc1C(=O)[O-]
REMARK SMILES IDX 4 1 9 2 5 3 8 4 6 5 7 6 2 7 1 8 3 9 10 10 11 11 12 12
REMARK H PARENT
REMARK Flexibility Score: inf
ROOT
ATOM      1  C   UNL     1      -1.966  36.969  17.889  1.00  0.00     0.006 A 
ATOM      2  C   UNL     1      -3.313  36.521  17.999  1.00  0.00     0.006 A 
ATOM      3  C   UNL     1      -1.270  36.753  16.687  1.00  0.00     0.010 A 
ATOM      4  C   UNL     1      -3.932  35.935  16.880  1.00  0.00     0.010 A 
ATOM      5  C   UNL     1      -1.897  36.150  15.596  1.00  0.00     0.001 A 
ATOM      6  C   UNL     1      -3.228  35.752  15.688  1.00  0.00     0.001 A 
ENDROOT
BRANCH   1   7
ATOM      7  C   UNL     1      -1.276  37.719  18.966  1.00  0.00     0.072 C 
ATOM      8  O   UNL     1      -0.684  38.802  18.718  1.00  0.00    -0.545 OA
ATOM      9  O   UNL     1      -1.218  37.195  20.252  1.00  0.00    -0.545 OA
ENDBRANCH   1   7
BRANCH   2  10
ATOM     10  C   UNL     1      -4.074  36.580  19.267  1.00  0.00     0.072 C 
ATOM     11  O   UNL     1      -4.757  37.601  19.550  1.00  0.00    -0.545 OA
ATOM     12  O   UNL     1      -4.102  35.491  20.130  1.00  0.00    -0.545 OA
ENDBRANCH   2  10
TORSDOF 2
ENDMDL
MODEL 6
REMARK VINA RESULT:    -2.672      2.396      4.591
REMARK INTER + INTRA:          -3.047
REMARK INTER:                  -3.392
REMARK INTRA:                   0.344
REMARK UNBOUND:                -0.063
REMARK SMILES O=C([O-])c1ccccc1C(=O)[O-]
REMARK SMILES IDX 4 1 9 2 5 3 8 4 6 5 7 6 2 7 1 8 3 9 10 10 11 11 12 12
REMARK H PARENT
REMARK Flexibility Score: inf
ROOT
ATOM      1  C   UNL     1      -4.137  35.685  18.590  1.00  0.00     0.006 A 
ATOM      2  C   UNL     1      -3.822  36.338  19.815  1.00  0.00     0.006 A 
ATOM      3  C   UNL     1      -3.454  36.061  17.419  1.00  0.00     0.010 A 
ATOM      4  C   UNL     1      -2.790  37.294  19.834  1.00  0.00     0.010 A 
ATOM      5  C   UNL     1      -2.450  37.028  17.458  1.00  0.00     0.001 A 
ATOM      6  C   UNL     1      -2.110  37.635  18.664  1.00  0.00     0.001 A 
ENDROOT
BRANCH   1   7
ATOM      7  C   UNL     1      -5.110  34.571  18.498  1.00  0.00     0.072 C 
ATOM      8  O   UNL     1      -6.125  34.539  19.243  1.00  0.00    -0.545 OA
ATOM      9  O   UNL     1      -4.874  33.510  17.631  1.00  0.00    -0.545 OA
ENDBRANCH   1   7
BRANCH   2  10
ATOM     10  C   UNL     1      -4.582  36.106  21.064  1.00  0.00     0.072 C 
ATOM     11  O   UNL     1      -5.525  36.878  21.386  1.00  0.00    -0.545 OA
ATOM     12  O   UNL     1      -4.314  35.001  21.863  1.00  0.00    -0.545 OA
ENDBRANCH   2  10
TORSDOF 2
ENDMDL
MODEL 7
REMARK VINA RESULT:    -2.662      2.705      4.677
REMARK INTER + INTRA:          -3.037
REMARK INTER:                  -3.107
REMARK INTRA:                   0.070
REMARK UNBOUND:                -0.063
REMARK SMILES O=C([O-])c1ccccc1C(=O)[O-]
REMARK SMILES IDX 4 1 9 2 5 3 8 4 6 5 7 6 2 7 1 8 3 9 10 10 11 11 12 12
REMARK H PARENT
REMARK Flexibility Score: inf
ROOT
ATOM      1  C   UNL     1      -3.436  36.501  17.975  1.00  0.00     0.006 A 
ATOM      2  C   UNL     1      -2.078  36.917  17.873  1.00  0.00     0.006 A 
ATOM      3  C   UNL     1      -4.072  35.960  16.844  1.00  0.00     0.010 A 
ATOM      4  C   UNL     1      -1.390  36.714  16.663  1.00  0.00     0.010 A 
ATOM      5  C   UNL     1      -3.377  35.788  15.647  1.00  0.00     0.001 A 
ATOM      6  C   UNL     1      -2.036  36.154  15.559  1.00  0.00     0.001 A 
ENDROOT
BRANCH   1   7
ATOM      7  C   UNL     1      -4.199  36.548  19.245  1.00  0.00     0.072 C 
ATOM      8  O   UNL     1      -4.784  37.603  19.606  1.00  0.00    -0.545 OA
ATOM      9  O   UNL     1      -4.221  35.441  20.085  1.00  0.00    -0.545 OA
ENDBRANCH   1   7
BRANCH   2  10
ATOM     10  C   UNL     1      -1.373  37.622  18.968  1.00  0.00     0.072 C 
ATOM     11  O   UNL     1      -0.809  38.727  18.750  1.00  0.00    -0.545 OA
ATOM     12  O   UNL     1      -1.379  37.111  20.260  1.00  0.00    -0.545 OA
ENDBRANCH   2  10
TORSDOF 2
ENDMDL
MODEL 8
REMARK VINA RESULT:    -2.643      2.438      4.082
REMARK INTER + INTRA:          -3.015
REMARK INTER:                  -3.418
REMARK INTRA:                   0.403
REMARK UNBOUND:                -0.063
REMARK SMILES O=C([O-])c1ccccc1C(=O)[O-]
REMARK SMILES IDX 4 1 9 2 5 3 8 4 6 5 7 6 2 7 1 8 3 9 10 10 11 11 12 12
REMARK H PARENT
REMARK Flexibility Score: inf
ROOT
ATOM      1  C   UNL     1      -3.867  36.281  19.726  1.00  0.00     0.006 A 
ATOM      2  C   UNL     1      -4.161  35.586  18.518  1.00  0.00     0.006 A 
ATOM      3  C   UNL     1      -2.877  37.280  19.716  1.00  0.00     0.010 A 
ATOM      4  C   UNL     1      -3.500  35.963  17.335  1.00  0.00     0.010 A 
ATOM      5  C   UNL     1      -2.219  37.622  18.535  1.00  0.00     0.001 A 
ATOM      6  C   UNL     1      -2.537  36.973  17.345  1.00  0.00     0.001 A 
ENDROOT
BRANCH   1   7
ATOM      7  C   UNL     1      -4.607  36.050  20.989  1.00  0.00     0.072 C 
ATOM      8  O   UNL     1      -5.525  36.832  21.350  1.00  0.00    -0.545 OA
ATOM      9  O   UNL     1      -4.247  34.998  21.824  1.00  0.00    -0.545 OA
ENDBRANCH   1   7
BRANCH   2  10
ATOM     10  C   UNL     1      -5.085  34.430  18.465  1.00  0.00     0.072 C 
ATOM     11  O   UNL     1      -4.900  33.510  17.625  1.00  0.00    -0.545 OA
ATOM     12  O   UNL     1      -6.125  34.311  19.379  1.00  0.00    -0.545 OA
ENDBRANCH   2  10
TORSDOF 2
ENDMDL
MODEL 9
REMARK VINA RESULT:    -2.623      2.675      4.944
REMARK INTER + INTRA:          -2.993
REMARK INTER:                  -2.951
REMARK INTRA:                  -0.042
REMARK UNBOUND:                -0.063
REMARK SMILES O=C([O-])c1ccccc1C(=O)[O-]
REMARK SMILES IDX 4 1 9 2 5 3 8 4 6 5 7 6 2 7 1 8 3 9 10 10 11 11 12 12
REMARK H PARENT
REMARK Flexibility Score: inf
ROOT
ATOM      1  C   UNL     1      -2.682  36.875  17.688  1.00  0.00     0.006 A 
ATOM      2  C   UNL     1      -3.192  36.870  19.017  1.00  0.00     0.006 A 
ATOM      3  C   UNL     1      -1.356  37.287  17.466  1.00  0.00     0.010 A 
ATOM      4  C   UNL     1      -2.335  37.213  20.079  1.00  0.00     0.010 A 
ATOM      5  C   UNL     1      -0.530  37.644  18.532  1.00  0.00     0.001 A 
ATOM      6  C   UNL     1      -1.015  37.597  19.837  1.00  0.00     0.001 A 
ENDROOT
BRANCH   1   7
ATOM      7  C   UNL     1      -3.465  36.399  16.523  1.00  0.00     0.072 C 
ATOM      8  O   UNL     1      -3.757  35.180  16.398  1.00  0.00    -0.545 OA
ATOM      9  O   UNL     1      -3.828  37.288  15.518  1.00  0.00    -0.545 OA
ENDBRANCH   1   7
BRANCH   2  10
ATOM     10  C   UNL     1      -4.611  36.587  19.329  1.00  0.00     0.072 C 
ATOM     11  O   UNL     1      -5.039  35.402  19.315  1.00  0.00    -0.545 OA
ATOM     12  O   UNL     1      -5.473  37.610  19.704  1.00  0.00    -0.545 OA
ENDBRANCH   2  10
TORSDOF 2
ENDMDL
