MODEL 1
REMARK VINA RESULT:    -4.091      0.000      0.000
REMARK INTER + INTRA:         -13.347
REMARK INTER:                 -10.668
REMARK INTRA:                  -2.679
REMARK UNBOUND:                -2.679
REMARK SMILES CCCCCCCCCCCCCCCCCCCCCCCCCCCCCO
REMARK SMILES IDX 16 1 15 2 14 3 13 4 12 5 11 6 10 7 9 8 8 9 7 10 6 11 5 12
REMARK SMILES IDX 4 13 3 14 2 15 1 16 17 17 18 18 19 19 20 20 21 21 22 22
REMARK SMILES IDX 23 23 24 24 25 25 26 26 27 27 28 28 29 29 30 30
REMARK H PARENT 30 31
REMARK Flexibility Score: inf
ROOT
ATOM      1  C   UNL     1      25.884  26.734  24.144  1.00  0.00     0.000 C 
ENDROOT
BRANCH   1   2
ATOM      2  C   UNL     1      27.110  26.652  25.078  1.00  0.00     0.000 C 
BRANCH   2   3
ATOM      3  C   UNL     1      28.174  27.720  24.760  1.00  0.00     0.000 C 
BRANCH   3   4
ATOM      4  C   UNL     1      27.615  29.150  24.840  1.00  0.00     0.000 C 
BRANCH   4   5
ATOM      5  C   UNL     1      28.707  30.225  24.698  1.00  0.00     0.000 C 
BRANCH   5   6
ATOM      6  C   UNL     1      30.133  29.647  24.774  1.00  0.00     0.000 C 
BRANCH   6   7
ATOM      7  C   UNL     1      31.174  30.345  23.876  1.00  0.00     0.000 C 
BRANCH   7   8
ATOM      8  C   UNL     1      31.149  29.848  22.420  1.00  0.00    -0.000 C 
BRANCH   8   9
ATOM      9  C   UNL     1      32.483  29.212  21.987  1.00  0.00    -0.000 C 
BRANCH   9  10
ATOM     10  C   UNL     1      33.049  28.148  22.948  1.00  0.00    -0.000 C 
BRANCH  10  11
ATOM     11  C   UNL     1      32.671  26.693  22.615  1.00  0.00    -0.000 C 
BRANCH  11  12
ATOM     12  C   UNL     1      31.241  26.335  23.054  1.00  0.00    -0.000 C 
BRANCH  12  13
ATOM     13  C   UNL     1      30.526  25.396  22.064  1.00  0.00    -0.000 C 
BRANCH  13  14
ATOM     14  C   UNL     1      29.012  25.635  21.913  1.00  0.00    -0.000 C 
BRANCH  14  15
ATOM     15  C   UNL     1      28.661  26.524  20.711  1.00  0.00    -0.003 C 
ATOM     16  C   UNL     1      29.079  25.866  19.400  1.00  0.00     0.004 C 
ENDBRANCH  14  15
ENDBRANCH  13  14
ENDBRANCH  12  13
ENDBRANCH  11  12
ENDBRANCH  10  11
ENDBRANCH   9  10
ENDBRANCH   8   9
ENDBRANCH   7   8
ENDBRANCH   6   7
ENDBRANCH   5   6
ENDBRANCH   4   5
ENDBRANCH   3   4
ENDBRANCH   2   3
ENDBRANCH   1   2
BRANCH   1  17
ATOM     17  C   UNL     1      25.187  25.382  23.899  1.00  0.00     0.000 C 
BRANCH  17  18
ATOM     18  C   UNL     1      24.368  24.838  25.081  1.00  0.00     0.000 C 
BRANCH  18  19
ATOM     19  C   UNL     1      22.869  25.166  24.966  1.00  0.00     0.000 C 
BRANCH  19  20
ATOM     20  C   UNL     1      21.969  23.927  25.125  1.00  0.00     0.000 C 
BRANCH  20  21
ATOM     21  C   UNL     1      21.123  23.566  23.888  1.00  0.00     0.000 C 
BRANCH  21  22
ATOM     22  C   UNL     1      21.922  23.625  22.574  1.00  0.00     0.000 C 
BRANCH  22  23
ATOM     23  C   UNL     1      23.066  22.597  22.533  1.00  0.00     0.000 C 
BRANCH  23  24
ATOM     24  C   UNL     1      22.691  21.339  21.729  1.00  0.00     0.000 C 
BRANCH  24  25
ATOM     25  C   UNL     1      22.048  20.249  22.601  1.00  0.00     0.000 C 
BRANCH  25  26
ATOM     26  C   UNL     1      20.725  19.723  22.014  1.00  0.00     0.000 C 
BRANCH  26  27
ATOM     27  C   UNL     1      20.652  18.187  21.989  1.00  0.00     0.002 C 
BRANCH  27  28
ATOM     28  C   UNL     1      19.228  17.605  22.076  1.00  0.00     0.028 C 
BRANCH  28  29
ATOM     29  C   UNL     1      19.095  16.426  23.050  1.00  0.00     0.156 C 
BRANCH  29  30
ATOM     30  O   UNL     1      20.348  16.005  23.513  1.00  0.00    -0.396 OA
ATOM     31  H   UNL     1      20.275  15.930  24.502  1.00  0.00     0.210 HD
ENDBRANCH  29  30
ENDBRANCH  28  29
ENDBRANCH  27  28
ENDBRANCH  26  27
ENDBRANCH  25  26
ENDBRANCH  24  25
ENDBRANCH  23  24
ENDBRANCH  22  23
ENDBRANCH  21  22
ENDBRANCH  20  21
ENDBRANCH  19  20
ENDBRANCH  18  19
ENDBRANCH  17  18
ENDBRANCH   1  17
TORSDOF 28
ENDMDL
MODEL 2
REMARK VINA RESULT:    -3.600      1.271      2.220
REMARK INTER + INTRA:         -12.066
REMARK INTER:                  -9.156
REMARK INTRA:                  -2.910
REMARK UNBOUND:                -2.679
REMARK SMILES CCCCCCCCCCCCCCCCCCCCCCCCCCCCCO
REMARK SMILES IDX 16 1 15 2 14 3 13 4 12 5 11 6 10 7 9 8 8 9 7 10 6 11 5 12
REMARK SMILES IDX 4 13 3 14 2 15 1 16 17 17 18 18 19 19 20 20 21 21 22 22
REMARK SMILES IDX 23 23 24 24 25 25 26 26 27 27 28 28 29 29 30 30
REMARK H PARENT 30 31
REMARK Flexibility Score: inf
ROOT
ATOM      1  C   UNL     1      26.929  27.168  25.056  1.00  0.00     0.000 C 
ENDROOT
BRANCH   1   2
ATOM      2  C   UNL     1      27.627  28.544  25.097  1.00  0.00     0.000 C 
BRANCH   2   3
ATOM      3  C   UNL     1      29.164  28.432  25.104  1.00  0.00     0.000 C 
BRANCH   3   4
ATOM      4  C   UNL     1      29.815  29.219  23.954  1.00  0.00     0.000 C 
BRANCH   4   5
ATOM      5  C   UNL     1      30.999  30.084  24.419  1.00  0.00     0.000 C 
BRANCH   5   6
ATOM      6  C   UNL     1      32.316  29.739  23.697  1.00  0.00     0.000 C 
BRANCH   6   7
ATOM      7  C   UNL     1      32.154  29.085  22.311  1.00  0.00     0.000 C 
BRANCH   7   8
ATOM      8  C   UNL     1      32.920  27.757  22.175  1.00  0.00    -0.000 C 
BRANCH   8   9
ATOM      9  C   UNL     1      32.884  26.916  23.464  1.00  0.00    -0.000 C 
BRANCH   9  10
ATOM     10  C   UNL     1      32.083  25.601  23.370  1.00  0.00    -0.000 C 
BRANCH  10  11
ATOM     11  C   UNL     1      31.037  25.547  22.241  1.00  0.00    -0.000 C 
BRANCH  11  12
ATOM     12  C   UNL     1      29.638  25.986  22.705  1.00  0.00    -0.000 C 
BRANCH  12  13
ATOM     13  C   UNL     1      28.688  26.303  21.535  1.00  0.00    -0.000 C 
BRANCH  13  14
ATOM     14  C   UNL     1      29.382  26.731  20.229  1.00  0.00    -0.000 C 
BRANCH  14  15
ATOM     15  C   UNL     1      29.049  25.814  19.042  1.00  0.00    -0.003 C 
ATOM     16  C   UNL     1      29.747  26.284  17.770  1.00  0.00     0.004 C 
ENDBRANCH  14  15
ENDBRANCH  13  14
ENDBRANCH  12  13
ENDBRANCH  11  12
ENDBRANCH  10  11
ENDBRANCH   9  10
ENDBRANCH   8   9
ENDBRANCH   7   8
ENDBRANCH   6   7
ENDBRANCH   5   6
ENDBRANCH   4   5
ENDBRANCH   3   4
ENDBRANCH   2   3
ENDBRANCH   1   2
BRANCH   1  17
ATOM     17  C   UNL     1      25.575  27.170  24.321  1.00  0.00     0.000 C 
BRANCH  17  18
ATOM     18  C   UNL     1      25.522  26.330  23.034  1.00  0.00     0.000 C 
BRANCH  18  19
ATOM     19  C   UNL     1      26.104  24.918  23.222  1.00  0.00     0.000 C 
BRANCH  19  20
ATOM     20  C   UNL     1      25.026  23.819  23.221  1.00  0.00     0.000 C 
BRANCH  20  21
ATOM     21  C   UNL     1      23.631  24.266  22.743  1.00  0.00     0.000 C 
BRANCH  21  22
ATOM     22  C   UNL     1      22.532  24.035  23.795  1.00  0.00     0.000 C 
BRANCH  22  23
ATOM     23  C   UNL     1      21.686  22.785  23.501  1.00  0.00     0.000 C 
BRANCH  23  24
ATOM     24  C   UNL     1      22.194  22.012  22.270  1.00  0.00     0.000 C 
BRANCH  24  25
ATOM     25  C   UNL     1      21.364  20.752  21.978  1.00  0.00     0.000 C 
BRANCH  25  26
ATOM     26  C   UNL     1      20.949  20.004  23.258  1.00  0.00     0.000 C 
BRANCH  26  27
ATOM     27  C   UNL     1      20.166  18.713  22.968  1.00  0.00     0.002 C 
BRANCH  27  28
ATOM     28  C   UNL     1      20.368  18.138  21.552  1.00  0.00     0.028 C 
BRANCH  28  29
ATOM     29  C   UNL     1      19.060  17.791  20.828  1.00  0.00     0.156 C 
BRANCH  29  30
ATOM     30  O   UNL     1      18.401  16.724  21.450  1.00  0.00    -0.396 OA
ATOM     31  H   UNL     1      17.749  17.124  22.085  1.00  0.00     0.210 HD
ENDBRANCH  29  30
ENDBRANCH  28  29
ENDBRANCH  27  28
ENDBRANCH  26  27
ENDBRANCH  25  26
ENDBRANCH  24  25
ENDBRANCH  23  24
ENDBRANCH  22  23
ENDBRANCH  21  22
ENDBRANCH  20  21
ENDBRANCH  19  20
ENDBRANCH  18  19
ENDBRANCH  17  18
ENDBRANCH   1  17
TORSDOF 28
ENDMDL
MODEL 3
REMARK VINA RESULT:    -3.589      3.017     11.029
REMARK INTER + INTRA:         -12.038
REMARK INTER:                 -10.175
REMARK INTRA:                  -1.864
REMARK UNBOUND:                -2.679
REMARK SMILES CCCCCCCCCCCCCCCCCCCCCCCCCCCCCO
REMARK SMILES IDX 16 1 15 2 14 3 13 4 12 5 11 6 10 7 9 8 8 9 7 10 6 11 5 12
REMARK SMILES IDX 4 13 3 14 2 15 1 16 17 17 18 18 19 19 20 20 21 21 22 22
REMARK SMILES IDX 23 23 24 24 25 25 26 26 27 27 28 28 29 29 30 30
REMARK H PARENT 30 31
REMARK Flexibility Score: inf
ROOT
ATOM      1  C   UNL     1      28.248  25.987  20.856  1.00  0.00     0.000 C 
ENDROOT
BRANCH   1   2
ATOM      2  C   UNL     1      27.724  25.321  22.146  1.00  0.00     0.000 C 
BRANCH   2   3
ATOM      3  C   UNL     1      26.773  26.234  22.944  1.00  0.00     0.000 C 
BRANCH   3   4
ATOM      4  C   UNL     1      26.420  25.652  24.323  1.00  0.00     0.000 C 
BRANCH   4   5
ATOM      5  C   UNL     1      24.952  25.896  24.714  1.00  0.00     0.000 C 
BRANCH   5   6
ATOM      6  C   UNL     1      23.975  24.933  24.011  1.00  0.00     0.000 C 
BRANCH   6   7
ATOM      7  C   UNL     1      22.836  24.390  24.895  1.00  0.00     0.000 C 
BRANCH   7   8
ATOM      8  C   UNL     1      21.723  23.696  24.091  1.00  0.00    -0.000 C 
BRANCH   8   9
ATOM      9  C   UNL     1      22.214  23.168  22.730  1.00  0.00    -0.000 C 
BRANCH   9  10
ATOM     10  C   UNL     1      22.601  21.676  22.703  1.00  0.00    -0.000 C 
BRANCH  10  11
ATOM     11  C   UNL     1      21.763  20.797  21.756  1.00  0.00    -0.000 C 
BRANCH  11  12
ATOM     12  C   UNL     1      20.756  19.908  22.505  1.00  0.00    -0.000 C 
BRANCH  12  13
ATOM     13  C   UNL     1      19.987  18.953  21.573  1.00  0.00    -0.000 C 
BRANCH  13  14
ATOM     14  C   UNL     1      19.511  17.643  22.227  1.00  0.00    -0.000 C 
BRANCH  14  15
ATOM     15  C   UNL     1      20.556  17.028  23.171  1.00  0.00    -0.003 C 
ATOM     16  C   UNL     1      19.905  16.509  24.449  1.00  0.00     0.004 C 
ENDBRANCH  14  15
ENDBRANCH  13  14
ENDBRANCH  12  13
ENDBRANCH  11  12
ENDBRANCH  10  11
ENDBRANCH   9  10
ENDBRANCH   8   9
ENDBRANCH   7   8
ENDBRANCH   6   7
ENDBRANCH   5   6
ENDBRANCH   4   5
ENDBRANCH   3   4
ENDBRANCH   2   3
ENDBRANCH   1   2
BRANCH   1  17
ATOM     17  C   UNL     1      29.342  27.045  21.093  1.00  0.00     0.000 C 
BRANCH  17  18
ATOM     18  C   UNL     1      30.616  26.533  21.785  1.00  0.00     0.000 C 
BRANCH  18  19
ATOM     19  C   UNL     1      31.114  27.481  22.890  1.00  0.00     0.000 C 
BRANCH  19  20
ATOM     20  C   UNL     1      30.469  27.198  24.260  1.00  0.00     0.000 C 
BRANCH  20  21
ATOM     21  C   UNL     1      29.821  28.416  24.945  1.00  0.00     0.000 C 
BRANCH  21  22
ATOM     22  C   UNL     1      30.789  29.601  25.109  1.00  0.00     0.000 C 
BRANCH  22  23
ATOM     23  C   UNL     1      30.241  30.900  24.494  1.00  0.00     0.000 C 
BRANCH  23  24
ATOM     24  C   UNL     1      28.903  31.326  25.125  1.00  0.00     0.000 C 
BRANCH  24  25
ATOM     25  C   UNL     1      28.101  32.279  24.224  1.00  0.00     0.000 C 
BRANCH  25  26
ATOM     26  C   UNL     1      26.944  32.969  24.970  1.00  0.00     0.000 C 
BRANCH  26  27
ATOM     27  C   UNL     1      25.662  32.120  24.997  1.00  0.00     0.002 C 
BRANCH  27  28
ATOM     28  C   UNL     1      25.847  30.653  24.565  1.00  0.00     0.028 C 
BRANCH  28  29
ATOM     29  C   UNL     1      24.538  29.942  24.194  1.00  0.00     0.156 C 
BRANCH  29  30
ATOM     30  O   UNL     1      24.590  29.430  22.891  1.00  0.00    -0.396 OA
ATOM     31  H   UNL     1      23.972  28.651  22.867  1.00  0.00     0.210 HD
ENDBRANCH  29  30
ENDBRANCH  28  29
ENDBRANCH  27  28
ENDBRANCH  26  27
ENDBRANCH  25  26
ENDBRANCH  24  25
ENDBRANCH  23  24
ENDBRANCH  22  23
ENDBRANCH  21  22
ENDBRANCH  20  21
ENDBRANCH  19  20
ENDBRANCH  18  19
ENDBRANCH  17  18
ENDBRANCH   1  17
TORSDOF 28
ENDMDL
MODEL 4
REMARK VINA RESULT:    -3.455      3.100     10.758
REMARK INTER + INTRA:         -11.688
REMARK INTER:                 -10.248
REMARK INTRA:                  -1.440
REMARK UNBOUND:                -2.679
REMARK SMILES CCCCCCCCCCCCCCCCCCCCCCCCCCCCCO
REMARK SMILES IDX 16 1 15 2 14 3 13 4 12 5 11 6 10 7 9 8 8 9 7 10 6 11 5 12
REMARK SMILES IDX 4 13 3 14 2 15 1 16 17 17 18 18 19 19 20 20 21 21 22 22
REMARK SMILES IDX 23 23 24 24 25 25 26 26 27 27 28 28 29 29 30 30
REMARK H PARENT 30 31
REMARK Flexibility Score: inf
ROOT
ATOM      1  C   UNL     1      29.678  27.278  21.286  1.00  0.00     0.000 C 
ENDROOT
BRANCH   1   2
ATOM      2  C   UNL     1      28.384  26.438  21.223  1.00  0.00     0.000 C 
BRANCH   2   3
ATOM      3  C   UNL     1      28.277  25.422  22.376  1.00  0.00     0.000 C 
BRANCH   3   4
ATOM      4  C   UNL     1      26.833  25.252  22.877  1.00  0.00     0.000 C 
BRANCH   4   5
ATOM      5  C   UNL     1      26.265  26.537  23.505  1.00  0.00     0.000 C 
BRANCH   5   6
ATOM      6  C   UNL     1      25.097  26.268  24.474  1.00  0.00     0.000 C 
BRANCH   6   7
ATOM      7  C   UNL     1      24.635  24.800  24.554  1.00  0.00     0.000 C 
BRANCH   7   8
ATOM      8  C   UNL     1      23.783  24.366  23.348  1.00  0.00    -0.000 C 
BRANCH   8   9
ATOM      9  C   UNL     1      22.500  23.623  23.765  1.00  0.00    -0.000 C 
BRANCH   9  10
ATOM     10  C   UNL     1      21.940  22.639  22.718  1.00  0.00    -0.000 C 
BRANCH  10  11
ATOM     11  C   UNL     1      22.938  21.585  22.206  1.00  0.00    -0.000 C 
BRANCH  11  12
ATOM     12  C   UNL     1      22.260  20.259  21.823  1.00  0.00    -0.000 C 
BRANCH  12  13
ATOM     13  C   UNL     1      20.761  20.228  22.174  1.00  0.00    -0.000 C 
BRANCH  13  14
ATOM     14  C   UNL     1      19.988  19.011  21.631  1.00  0.00    -0.000 C 
BRANCH  14  15
ATOM     15  C   UNL     1      20.311  17.710  22.383  1.00  0.00    -0.003 C 
ATOM     16  C   UNL     1      19.673  17.702  23.768  1.00  0.00     0.004 C 
ENDBRANCH  14  15
ENDBRANCH  13  14
ENDBRANCH  12  13
ENDBRANCH  11  12
ENDBRANCH  10  11
ENDBRANCH   9  10
ENDBRANCH   8   9
ENDBRANCH   7   8
ENDBRANCH   6   7
ENDBRANCH   5   6
ENDBRANCH   4   5
ENDBRANCH   3   4
ENDBRANCH   2   3
ENDBRANCH   1   2
BRANCH   1  17
ATOM     17  C   UNL     1      30.767  26.690  22.203  1.00  0.00     0.000 C 
BRANCH  17  18
ATOM     18  C   UNL     1      32.049  27.529  22.326  1.00  0.00     0.000 C 
BRANCH  18  19
ATOM     19  C   UNL     1      31.886  28.951  21.761  1.00  0.00     0.000 C 
BRANCH  19  20
ATOM     20  C   UNL     1      31.843  30.031  22.857  1.00  0.00     0.000 C 
BRANCH  20  21
ATOM     21  C   UNL     1      32.126  29.530  24.286  1.00  0.00     0.000 C 
BRANCH  21  22
ATOM     22  C   UNL     1      30.866  29.015  25.004  1.00  0.00     0.000 C 
BRANCH  22  23
ATOM     23  C   UNL     1      29.570  29.579  24.398  1.00  0.00     0.000 C 
BRANCH  23  24
ATOM     24  C   UNL     1      29.504  31.115  24.485  1.00  0.00     0.000 C 
BRANCH  24  25
ATOM     25  C   UNL     1      28.125  31.671  24.096  1.00  0.00     0.000 C 
BRANCH  25  26
ATOM     26  C   UNL     1      27.033  31.324  25.125  1.00  0.00     0.000 C 
BRANCH  26  27
ATOM     27  C   UNL     1      25.660  31.914  24.761  1.00  0.00     0.002 C 
BRANCH  27  28
ATOM     28  C   UNL     1      24.464  30.978  25.021  1.00  0.00     0.028 C 
BRANCH  28  29
ATOM     29  C   UNL     1      24.437  29.736  24.118  1.00  0.00     0.156 C 
BRANCH  29  30
ATOM     30  O   UNL     1      24.683  30.074  22.782  1.00  0.00    -0.396 OA
ATOM     31  H   UNL     1      25.256  30.886  22.795  1.00  0.00     0.210 HD
ENDBRANCH  29  30
ENDBRANCH  28  29
ENDBRANCH  27  28
ENDBRANCH  26  27
ENDBRANCH  25  26
ENDBRANCH  24  25
ENDBRANCH  23  24
ENDBRANCH  22  23
ENDBRANCH  21  22
ENDBRANCH  20  21
ENDBRANCH  19  20
ENDBRANCH  18  19
ENDBRANCH  17  18
ENDBRANCH   1  17
TORSDOF 28
ENDMDL
MODEL 5
REMARK VINA RESULT:    -3.414      1.064      1.787
REMARK INTER + INTRA:         -11.581
REMARK INTER:                  -9.072
REMARK INTRA:                  -2.509
REMARK UNBOUND:                -2.679
REMARK SMILES CCCCCCCCCCCCCCCCCCCCCCCCCCCCCO
REMARK SMILES IDX 16 1 15 2 14 3 13 4 12 5 11 6 10 7 9 8 8 9 7 10 6 11 5 12
REMARK SMILES IDX 4 13 3 14 2 15 1 16 17 17 18 18 19 19 20 20 21 21 22 22
REMARK SMILES IDX 23 23 24 24 25 25 26 26 27 27 28 28 29 29 30 30
REMARK H PARENT 30 31
REMARK Flexibility Score: inf
ROOT
ATOM      1  C   UNL     1      26.295  25.331  24.762  1.00  0.00     0.000 C 
ENDROOT
BRANCH   1   2
ATOM      2  C   UNL     1      27.096  26.607  25.098  1.00  0.00     0.000 C 
BRANCH   2   3
ATOM      3  C   UNL     1      26.261  27.892  24.946  1.00  0.00     0.000 C 
BRANCH   3   4
ATOM      4  C   UNL     1      27.126  29.163  24.983  1.00  0.00     0.000 C 
BRANCH   4   5
ATOM      5  C   UNL     1      28.630  28.857  25.100  1.00  0.00     0.000 C 
BRANCH   5   6
ATOM      6  C   UNL     1      29.504  30.126  25.097  1.00  0.00     0.000 C 
BRANCH   6   7
ATOM      7  C   UNL     1      29.850  30.683  23.702  1.00  0.00     0.000 C 
BRANCH   7   8
ATOM      8  C   UNL     1      31.315  30.439  23.299  1.00  0.00    -0.000 C 
BRANCH   8   9
ATOM      9  C   UNL     1      31.445  29.671  21.971  1.00  0.00    -0.000 C 
BRANCH   9  10
ATOM     10  C   UNL     1      32.407  28.465  21.999  1.00  0.00    -0.000 C 
BRANCH  10  11
ATOM     11  C   UNL     1      32.713  27.902  23.399  1.00  0.00    -0.000 C 
BRANCH  11  12
ATOM     12  C   UNL     1      32.033  26.546  23.657  1.00  0.00    -0.000 C 
BRANCH  12  13
ATOM     13  C   UNL     1      30.595  26.482  23.110  1.00  0.00    -0.000 C 
BRANCH  13  14
ATOM     14  C   UNL     1      30.366  25.447  21.993  1.00  0.00    -0.000 C 
BRANCH  14  15
ATOM     15  C   UNL     1      29.333  25.906  20.951  1.00  0.00    -0.003 C 
ATOM     16  C   UNL     1      28.197  26.684  21.608  1.00  0.00     0.004 C 
ENDBRANCH  14  15
ENDBRANCH  13  14
ENDBRANCH  12  13
ENDBRANCH  11  12
ENDBRANCH  10  11
ENDBRANCH   9  10
ENDBRANCH   8   9
ENDBRANCH   7   8
ENDBRANCH   6   7
ENDBRANCH   5   6
ENDBRANCH   4   5
ENDBRANCH   3   4
ENDBRANCH   2   3
ENDBRANCH   1   2
BRANCH   1  17
ATOM     17  C   UNL     1      24.845  25.596  24.315  1.00  0.00     0.000 C 
BRANCH  17  18
ATOM     18  C   UNL     1      23.979  24.344  24.108  1.00  0.00     0.000 C 
BRANCH  18  19
ATOM     19  C   UNL     1      22.518  24.553  24.545  1.00  0.00     0.000 C 
BRANCH  19  20
ATOM     20  C   UNL     1      21.585  23.417  24.085  1.00  0.00     0.000 C 
BRANCH  20  21
ATOM     21  C   UNL     1      21.976  22.742  22.756  1.00  0.00     0.000 C 
BRANCH  21  22
ATOM     22  C   UNL     1      22.089  21.211  22.869  1.00  0.00     0.000 C 
BRANCH  22  23
ATOM     23  C   UNL     1      21.453  20.483  21.673  1.00  0.00     0.000 C 
BRANCH  23  24
ATOM     24  C   UNL     1      20.158  19.745  22.061  1.00  0.00     0.000 C 
BRANCH  24  25
ATOM     25  C   UNL     1      20.039  18.367  21.391  1.00  0.00     0.000 C 
BRANCH  25  26
ATOM     26  C   UNL     1      19.378  17.318  22.303  1.00  0.00     0.000 C 
BRANCH  26  27
ATOM     27  C   UNL     1      19.091  17.852  23.717  1.00  0.00     0.002 C 
BRANCH  27  28
ATOM     28  C   UNL     1      20.043  17.331  24.811  1.00  0.00     0.028 C 
BRANCH  28  29
ATOM     29  C   UNL     1      20.454  15.863  24.631  1.00  0.00     0.156 C 
BRANCH  29  30
ATOM     30  O   UNL     1      21.627  15.753  23.872  1.00  0.00    -0.396 OA
ATOM     31  H   UNL     1      22.377  15.675  24.519  1.00  0.00     0.210 HD
ENDBRANCH  29  30
ENDBRANCH  28  29
ENDBRANCH  27  28
ENDBRANCH  26  27
ENDBRANCH  25  26
ENDBRANCH  24  25
ENDBRANCH  23  24
ENDBRANCH  22  23
ENDBRANCH  21  22
ENDBRANCH  20  21
ENDBRANCH  19  20
ENDBRANCH  18  19
ENDBRANCH  17  18
ENDBRANCH   1  17
TORSDOF 28
ENDMDL
MODEL 6
REMARK VINA RESULT:    -3.298      1.348      3.265
REMARK INTER + INTRA:         -11.278
REMARK INTER:                  -9.369
REMARK INTRA:                  -1.909
REMARK UNBOUND:                -2.679
REMARK SMILES CCCCCCCCCCCCCCCCCCCCCCCCCCCCCO
REMARK SMILES IDX 16 1 15 2 14 3 13 4 12 5 11 6 10 7 9 8 8 9 7 10 6 11 5 12
REMARK SMILES IDX 4 13 3 14 2 15 1 16 17 17 18 18 19 19 20 20 21 21 22 22
REMARK SMILES IDX 23 23 24 24 25 25 26 26 27 27 28 28 29 29 30 30
REMARK H PARENT 30 31
REMARK Flexibility Score: inf
ROOT
ATOM      1  C   UNL     1      24.863  24.902  23.754  1.00  0.00     0.000 C 
ENDROOT
BRANCH   1   2
ATOM      2  C   UNL     1      25.259  26.266  24.358  1.00  0.00     0.000 C 
BRANCH   2   3
ATOM      3  C   UNL     1      26.745  26.332  24.758  1.00  0.00     0.000 C 
BRANCH   3   4
ATOM      4  C   UNL     1      27.620  26.968  23.666  1.00  0.00     0.000 C 
BRANCH   4   5
ATOM      5  C   UNL     1      27.449  26.290  22.295  1.00  0.00     0.000 C 
BRANCH   5   6
ATOM      6  C   UNL     1      28.506  26.737  21.267  1.00  0.00     0.000 C 
BRANCH   6   7
ATOM      7  C   UNL     1      29.502  25.646  20.831  1.00  0.00     0.000 C 
BRANCH   7   8
ATOM      8  C   UNL     1      30.336  25.085  21.996  1.00  0.00    -0.000 C 
BRANCH   8   9
ATOM      9  C   UNL     1      31.479  26.028  22.416  1.00  0.00    -0.000 C 
BRANCH   9  10
ATOM     10  C   UNL     1      32.352  25.526  23.584  1.00  0.00    -0.000 C 
BRANCH  10  11
ATOM     11  C   UNL     1      32.687  26.580  24.654  1.00  0.00    -0.000 C 
BRANCH  11  12
ATOM     12  C   UNL     1      31.641  27.706  24.730  1.00  0.00    -0.000 C 
BRANCH  12  13
ATOM     13  C   UNL     1      32.228  29.094  24.418  1.00  0.00    -0.000 C 
BRANCH  13  14
ATOM     14  C   UNL     1      32.903  29.224  23.040  1.00  0.00    -0.000 C 
BRANCH  14  15
ATOM     15  C   UNL     1      31.898  29.425  21.895  1.00  0.00    -0.003 C 
ATOM     16  C   UNL     1      30.905  30.535  22.223  1.00  0.00     0.004 C 
ENDBRANCH  14  15
ENDBRANCH  13  14
ENDBRANCH  12  13
ENDBRANCH  11  12
ENDBRANCH  10  11
ENDBRANCH   9  10
ENDBRANCH   8   9
ENDBRANCH   7   8
ENDBRANCH   6   7
ENDBRANCH   5   6
ENDBRANCH   4   5
ENDBRANCH   3   4
ENDBRANCH   2   3
ENDBRANCH   1   2
BRANCH   1  17
ATOM     17  C   UNL     1      23.818  24.127  24.579  1.00  0.00     0.000 C 
BRANCH  17  18
ATOM     18  C   UNL     1      22.652  24.968  25.125  1.00  0.00     0.000 C 
BRANCH  18  19
ATOM     19  C   UNL     1      21.276  24.388  24.754  1.00  0.00     0.000 C 
BRANCH  19  20
ATOM     20  C   UNL     1      21.345  22.918  24.304  1.00  0.00     0.000 C 
BRANCH  20  21
ATOM     21  C   UNL     1      21.180  22.685  22.789  1.00  0.00     0.000 C 
BRANCH  21  22
ATOM     22  C   UNL     1      22.354  21.909  22.167  1.00  0.00     0.000 C 
BRANCH  22  23
ATOM     23  C   UNL     1      22.009  20.435  21.895  1.00  0.00     0.000 C 
BRANCH  23  24
ATOM     24  C   UNL     1      20.544  20.107  22.233  1.00  0.00     0.000 C 
BRANCH  24  25
ATOM     25  C   UNL     1      20.072  18.788  21.599  1.00  0.00     0.000 C 
BRANCH  25  26
ATOM     26  C   UNL     1      20.434  17.557  22.451  1.00  0.00     0.000 C 
BRANCH  26  27
ATOM     27  C   UNL     1      20.333  17.826  23.962  1.00  0.00     0.002 C 
BRANCH  27  28
ATOM     28  C   UNL     1      20.136  16.569  24.831  1.00  0.00     0.028 C 
BRANCH  28  29
ATOM     29  C   UNL     1      19.893  15.286  24.024  1.00  0.00     0.156 C 
BRANCH  29  30
ATOM     30  O   UNL     1      19.609  14.202  24.865  1.00  0.00    -0.396 OA
ATOM     31  H   UNL     1      20.317  14.190  25.562  1.00  0.00     0.210 HD
ENDBRANCH  29  30
ENDBRANCH  28  29
ENDBRANCH  27  28
ENDBRANCH  26  27
ENDBRANCH  25  26
ENDBRANCH  24  25
ENDBRANCH  23  24
ENDBRANCH  22  23
ENDBRANCH  21  22
ENDBRANCH  20  21
ENDBRANCH  19  20
ENDBRANCH  18  19
ENDBRANCH  17  18
ENDBRANCH   1  17
TORSDOF 28
ENDMDL
MODEL 7
REMARK VINA RESULT:    -2.933      3.181     10.049
REMARK INTER + INTRA:         -10.327
REMARK INTER:                  -8.861
REMARK INTRA:                  -1.466
REMARK UNBOUND:                -2.679
REMARK SMILES CCCCCCCCCCCCCCCCCCCCCCCCCCCCCO
REMARK SMILES IDX 16 1 15 2 14 3 13 4 12 5 11 6 10 7 9 8 8 9 7 10 6 11 5 12
REMARK SMILES IDX 4 13 3 14 2 15 1 16 17 17 18 18 19 19 20 20 21 21 22 22
REMARK SMILES IDX 23 23 24 24 25 25 26 26 27 27 28 28 29 29 30 30
REMARK H PARENT 30 31
REMARK Flexibility Score: inf
ROOT
ATOM      1  C   UNL     1      32.175  26.284  24.185  1.00  0.00     0.000 C 
ENDROOT
BRANCH   1   2
ATOM      2  C   UNL     1      32.859  26.008  22.829  1.00  0.00     0.000 C 
BRANCH   2   3
ATOM      3  C   UNL     1      31.901  25.391  21.793  1.00  0.00     0.000 C 
BRANCH   3   4
ATOM      4  C   UNL     1      30.433  25.439  22.248  1.00  0.00     0.000 C 
BRANCH   4   5
ATOM      5  C   UNL     1      29.443  25.416  21.070  1.00  0.00     0.000 C 
BRANCH   5   6
ATOM      6  C   UNL     1      28.318  26.461  21.210  1.00  0.00     0.000 C 
BRANCH   6   7
ATOM      7  C   UNL     1      28.147  27.059  22.620  1.00  0.00     0.000 C 
BRANCH   7   8
ATOM      8  C   UNL     1      26.674  27.220  23.035  1.00  0.00    -0.000 C 
BRANCH   8   9
ATOM      9  C   UNL     1      26.377  26.610  24.418  1.00  0.00    -0.000 C 
BRANCH   9  10
ATOM     10  C   UNL     1      25.865  25.156  24.400  1.00  0.00    -0.000 C 
BRANCH  10  11
ATOM     11  C   UNL     1      25.068  24.755  23.145  1.00  0.00    -0.000 C 
BRANCH  11  12
ATOM     12  C   UNL     1      24.123  23.566  23.395  1.00  0.00    -0.000 C 
BRANCH  12  13
ATOM     13  C   UNL     1      23.105  23.359  22.258  1.00  0.00    -0.000 C 
BRANCH  13  14
ATOM     14  C   UNL     1      22.804  21.888  21.912  1.00  0.00    -0.000 C 
BRANCH  14  15
ATOM     15  C   UNL     1      21.458  21.403  22.472  1.00  0.00    -0.003 C 
ATOM     16  C   UNL     1      21.228  19.929  22.152  1.00  0.00     0.004 C 
ENDBRANCH  14  15
ENDBRANCH  13  14
ENDBRANCH  12  13
ENDBRANCH  11  12
ENDBRANCH  10  11
ENDBRANCH   9  10
ENDBRANCH   8   9
ENDBRANCH   7   8
ENDBRANCH   6   7
ENDBRANCH   5   6
ENDBRANCH   4   5
ENDBRANCH   3   4
ENDBRANCH   2   3
ENDBRANCH   1   2
BRANCH   1  17
ATOM     17  C   UNL     1      32.776  27.470  24.964  1.00  0.00     0.000 C 
BRANCH  17  18
ATOM     18  C   UNL     1      32.758  28.820  24.228  1.00  0.00     0.000 C 
BRANCH  18  19
ATOM     19  C   UNL     1      32.235  28.703  22.785  1.00  0.00     0.000 C 
BRANCH  19  20
ATOM     20  C   UNL     1      30.846  29.340  22.596  1.00  0.00     0.000 C 
BRANCH  20  21
ATOM     21  C   UNL     1      30.854  30.825  22.185  1.00  0.00     0.000 C 
BRANCH  21  22
ATOM     22  C   UNL     1      29.732  31.641  22.853  1.00  0.00     0.000 C 
BRANCH  22  23
ATOM     23  C   UNL     1      30.254  32.921  23.526  1.00  0.00     0.000 C 
BRANCH  23  24
ATOM     24  C   UNL     1      29.699  33.101  24.951  1.00  0.00     0.000 C 
BRANCH  24  25
ATOM     25  C   UNL     1      28.163  33.081  24.994  1.00  0.00     0.000 C 
BRANCH  25  26
ATOM     26  C   UNL     1      27.591  31.658  25.125  1.00  0.00     0.000 C 
BRANCH  26  27
ATOM     27  C   UNL     1      26.114  31.567  24.703  1.00  0.00     0.002 C 
BRANCH  27  28
ATOM     28  C   UNL     1      25.457  30.194  24.942  1.00  0.00     0.028 C 
BRANCH  28  29
ATOM     29  C   UNL     1      24.257  29.910  24.027  1.00  0.00     0.156 C 
BRANCH  29  30
ATOM     30  O   UNL     1      24.638  29.892  22.679  1.00  0.00    -0.396 OA
ATOM     31  H   UNL     1      25.108  29.029  22.528  1.00  0.00     0.210 HD
ENDBRANCH  29  30
ENDBRANCH  28  29
ENDBRANCH  27  28
ENDBRANCH  26  27
ENDBRANCH  25  26
ENDBRANCH  24  25
ENDBRANCH  23  24
ENDBRANCH  22  23
ENDBRANCH  21  22
ENDBRANCH  20  21
ENDBRANCH  19  20
ENDBRANCH  18  19
ENDBRANCH  17  18
ENDBRANCH   1  17
TORSDOF 28
ENDMDL
MODEL 8
REMARK VINA RESULT:    -2.798      2.688     11.537
REMARK INTER + INTRA:          -9.975
REMARK INTER:                  -7.947
REMARK INTRA:                  -2.028
REMARK UNBOUND:                -2.679
REMARK SMILES CCCCCCCCCCCCCCCCCCCCCCCCCCCCCO
REMARK SMILES IDX 16 1 15 2 14 3 13 4 12 5 11 6 10 7 9 8 8 9 7 10 6 11 5 12
REMARK SMILES IDX 4 13 3 14 2 15 1 16 17 17 18 18 19 19 20 20 21 21 22 22
REMARK SMILES IDX 23 23 24 24 25 25 26 26 27 27 28 28 29 29 30 30
REMARK H PARENT 30 31
REMARK Flexibility Score: inf
ROOT
ATOM      1  C   UNL     1      26.701  26.421  25.085  1.00  0.00     0.000 C 
ENDROOT
BRANCH   1   2
ATOM      2  C   UNL     1      25.506  25.637  24.502  1.00  0.00     0.000 C 
BRANCH   2   3
ATOM      3  C   UNL     1      25.940  24.519  23.536  1.00  0.00     0.000 C 
BRANCH   3   4
ATOM      4  C   UNL     1      24.784  24.026  22.650  1.00  0.00     0.000 C 
BRANCH   4   5
ATOM      5  C   UNL     1      23.423  24.069  23.368  1.00  0.00     0.000 C 
BRANCH   5   6
ATOM      6  C   UNL     1      22.310  23.341  22.591  1.00  0.00     0.000 C 
BRANCH   6   7
ATOM      7  C   UNL     1      22.533  21.830  22.384  1.00  0.00     0.000 C 
BRANCH   7   8
ATOM      8  C   UNL     1      21.518  20.958  23.144  1.00  0.00    -0.000 C 
BRANCH   8   9
ATOM      9  C   UNL     1      20.505  20.273  22.208  1.00  0.00    -0.000 C 
BRANCH   9  10
ATOM     10  C   UNL     1      20.994  18.966  21.552  1.00  0.00    -0.000 C 
BRANCH  10  11
ATOM     11  C   UNL     1      19.903  17.909  21.299  1.00  0.00    -0.000 C 
BRANCH  11  12
ATOM     12  C   UNL     1      19.171  17.491  22.586  1.00  0.00    -0.000 C 
BRANCH  12  13
ATOM     13  C   UNL     1      20.034  17.655  23.850  1.00  0.00    -0.000 C 
BRANCH  13  14
ATOM     14  C   UNL     1      20.361  16.346  24.593  1.00  0.00    -0.000 C 
BRANCH  14  15
ATOM     15  C   UNL     1      19.436  15.184  24.198  1.00  0.00    -0.003 C 
ATOM     16  C   UNL     1      19.734  13.938  25.026  1.00  0.00     0.004 C 
ENDBRANCH  14  15
ENDBRANCH  13  14
ENDBRANCH  12  13
ENDBRANCH  11  12
ENDBRANCH  10  11
ENDBRANCH   9  10
ENDBRANCH   8   9
ENDBRANCH   7   8
ENDBRANCH   6   7
ENDBRANCH   5   6
ENDBRANCH   4   5
ENDBRANCH   3   4
ENDBRANCH   2   3
ENDBRANCH   1   2
BRANCH   1  17
ATOM     17  C   UNL     1      26.512  27.950  25.086  1.00  0.00     0.000 C 
BRANCH  17  18
ATOM     18  C   UNL     1      27.509  28.739  24.222  1.00  0.00     0.000 C 
BRANCH  18  19
ATOM     19  C   UNL     1      28.864  28.949  24.920  1.00  0.00     0.000 C 
BRANCH  19  20
ATOM     20  C   UNL     1      29.346  30.410  24.869  1.00  0.00     0.000 C 
BRANCH  20  21
ATOM     21  C   UNL     1      30.787  30.610  24.361  1.00  0.00     0.000 C 
BRANCH  21  22
ATOM     22  C   UNL     1      31.102  29.784  23.101  1.00  0.00     0.000 C 
BRANCH  22  23
ATOM     23  C   UNL     1      32.399  28.969  23.239  1.00  0.00     0.000 C 
BRANCH  23  24
ATOM     24  C   UNL     1      32.372  27.681  22.397  1.00  0.00     0.000 C 
BRANCH  24  25
ATOM     25  C   UNL     1      31.925  26.453  23.207  1.00  0.00     0.000 C 
BRANCH  25  26
ATOM     26  C   UNL     1      30.395  26.357  23.344  1.00  0.00     0.000 C 
BRANCH  26  27
ATOM     27  C   UNL     1      29.723  25.733  22.109  1.00  0.00     0.002 C 
BRANCH  27  28
ATOM     28  C   UNL     1      28.852  26.702  21.287  1.00  0.00     0.028 C 
BRANCH  28  29
ATOM     29  C   UNL     1      29.046  26.580  19.769  1.00  0.00     0.156 C 
BRANCH  29  30
ATOM     30  O   UNL     1      28.187  25.618  19.222  1.00  0.00    -0.396 OA
ATOM     31  H   UNL     1      27.410  25.547  19.839  1.00  0.00     0.210 HD
ENDBRANCH  29  30
ENDBRANCH  28  29
ENDBRANCH  27  28
ENDBRANCH  26  27
ENDBRANCH  25  26
ENDBRANCH  24  25
ENDBRANCH  23  24
ENDBRANCH  22  23
ENDBRANCH  21  22
ENDBRANCH  20  21
ENDBRANCH  19  20
ENDBRANCH  18  19
ENDBRANCH  17  18
ENDBRANCH   1  17
TORSDOF 28
ENDMDL
MODEL 9
REMARK VINA RESULT:    -2.529      3.420     12.060
REMARK INTER + INTRA:          -9.273
REMARK INTER:                  -7.574
REMARK INTRA:                  -1.700
REMARK UNBOUND:                -2.679
REMARK SMILES CCCCCCCCCCCCCCCCCCCCCCCCCCCCCO
REMARK SMILES IDX 16 1 15 2 14 3 13 4 12 5 11 6 10 7 9 8 8 9 7 10 6 11 5 12
REMARK SMILES IDX 4 13 3 14 2 15 1 16 17 17 18 18 19 19 20 20 21 21 22 22
REMARK SMILES IDX 23 23 24 24 25 25 26 26 27 27 28 28 29 29 30 30
REMARK H PARENT 30 31
REMARK Flexibility Score: inf
ROOT
ATOM      1  C   UNL     1      26.927  27.351  24.388  1.00  0.00     0.000 C 
ENDROOT
BRANCH   1   2
ATOM      2  C   UNL     1      25.419  27.022  24.373  1.00  0.00     0.000 C 
BRANCH   2   3
ATOM      3  C   UNL     1      25.086  25.720  25.125  1.00  0.00     0.000 C 
BRANCH   3   4
ATOM      4  C   UNL     1      24.144  24.805  24.326  1.00  0.00     0.000 C 
BRANCH   4   5
ATOM      5  C   UNL     1      22.832  24.502  25.072  1.00  0.00     0.000 C 
BRANCH   5   6
ATOM      6  C   UNL     1      21.677  24.121  24.126  1.00  0.00     0.000 C 
BRANCH   6   7
ATOM      7  C   UNL     1      22.049  23.147  22.991  1.00  0.00     0.000 C 
BRANCH   7   8
ATOM      8  C   UNL     1      21.327  21.793  23.093  1.00  0.00    -0.000 C 
BRANCH   8   9
ATOM      9  C   UNL     1      21.468  20.947  21.814  1.00  0.00    -0.000 C 
BRANCH   9  10
ATOM     10  C   UNL     1      21.474  19.420  22.031  1.00  0.00    -0.000 C 
BRANCH  10  11
ATOM     11  C   UNL     1      20.155  18.826  22.557  1.00  0.00    -0.000 C 
BRANCH  11  12
ATOM     12  C   UNL     1      20.006  18.964  24.082  1.00  0.00    -0.000 C 
BRANCH  12  13
ATOM     13  C   UNL     1      20.029  17.609  24.814  1.00  0.00    -0.000 C 
BRANCH  13  14
ATOM     14  C   UNL     1      20.148  16.375  23.900  1.00  0.00    -0.000 C 
BRANCH  14  15
ATOM     15  C   UNL     1      20.496  15.091  24.667  1.00  0.00    -0.003 C 
ATOM     16  C   UNL     1      19.256  14.234  24.898  1.00  0.00     0.004 C 
ENDBRANCH  14  15
ENDBRANCH  13  14
ENDBRANCH  12  13
ENDBRANCH  11  12
ENDBRANCH  10  11
ENDBRANCH   9  10
ENDBRANCH   8   9
ENDBRANCH   7   8
ENDBRANCH   6   7
ENDBRANCH   5   6
ENDBRANCH   4   5
ENDBRANCH   3   4
ENDBRANCH   2   3
ENDBRANCH   1   2
BRANCH   1  17
ATOM     17  C   UNL     1      27.621  27.188  23.023  1.00  0.00     0.000 C 
BRANCH  17  18
ATOM     18  C   UNL     1      28.945  26.406  23.046  1.00  0.00     0.000 C 
BRANCH  18  19
ATOM     19  C   UNL     1      29.341  25.867  21.660  1.00  0.00     0.000 C 
BRANCH  19  20
ATOM     20  C   UNL     1      29.648  26.984  20.646  1.00  0.00     0.000 C 
BRANCH  20  21
ATOM     21  C   UNL     1      30.286  28.255  21.241  1.00  0.00     0.000 C 
BRANCH  21  22
ATOM     22  C   UNL     1      31.747  28.047  21.677  1.00  0.00     0.000 C 
BRANCH  22  23
ATOM     23  C   UNL     1      32.132  28.919  22.884  1.00  0.00     0.000 C 
BRANCH  23  24
ATOM     24  C   UNL     1      31.895  28.197  24.224  1.00  0.00     0.000 C 
BRANCH  24  25
ATOM     25  C   UNL     1      30.740  28.812  25.031  1.00  0.00     0.000 C 
BRANCH  25  26
ATOM     26  C   UNL     1      30.760  30.351  25.018  1.00  0.00     0.000 C 
BRANCH  26  27
ATOM     27  C   UNL     1      29.577  30.957  24.244  1.00  0.00     0.002 C 
BRANCH  27  28
ATOM     28  C   UNL     1      29.045  32.287  24.812  1.00  0.00     0.028 C 
BRANCH  28  29
ATOM     29  C   UNL     1      27.517  32.339  24.951  1.00  0.00     0.156 C 
BRANCH  29  30
ATOM     30  O   UNL     1      26.896  31.430  24.086  1.00  0.00    -0.396 OA
ATOM     31  H   UNL     1      27.621  30.995  23.563  1.00  0.00     0.210 HD
ENDBRANCH  29  30
ENDBRANCH  28  29
ENDBRANCH  27  28
ENDBRANCH  26  27
ENDBRANCH  25  26
ENDBRANCH  24  25
ENDBRANCH  23  24
ENDBRANCH  22  23
ENDBRANCH  21  22
ENDBRANCH  20  21
ENDBRANCH  19  20
ENDBRANCH  18  19
ENDBRANCH  17  18
ENDBRANCH   1  17
TORSDOF 28
ENDMDL
