MODEL 1
REMARK VINA RESULT:    -4.654      0.000      0.000
REMARK INTER + INTRA:          -5.241
REMARK INTER:                  -5.198
REMARK INTRA:                  -0.044
REMARK UNBOUND:                -0.044
REMARK SMILES O=C([O-])c1ccc(O)c(O)c1
REMARK SMILES IDX 4 1 11 2 5 3 9 4 6 5 7 6 2 7 1 8 3 9 10 10 8 12
REMARK H PARENT 10 11 8 13
REMARK Flexibility Score: inf
ROOT
ATOM      1  C   UNL     1      11.575 -16.315   8.232  1.00  0.00     0.001 A 
ATOM      2  C   UNL     1      12.867 -16.793   8.516  1.00  0.00     0.060 A 
ATOM      3  C   UNL     1      11.435 -15.106   7.529  1.00  0.00     0.014 A 
ATOM      4  C   UNL     1      13.999 -16.079   8.107  1.00  0.00     0.158 A 
ATOM      5  C   UNL     1      12.564 -14.391   7.120  1.00  0.00     0.051 A 
ATOM      6  C   UNL     1      13.848 -14.872   7.406  1.00  0.00     0.157 A 
ENDROOT
BRANCH   1   7
ATOM      7  C   UNL     1      10.378 -17.069   8.664  1.00  0.00     0.072 C 
ATOM      8  O   UNL     1      10.477 -18.270   9.034  1.00  0.00    -0.545 OA
ATOM      9  O   UNL     1       9.126 -16.464   8.667  1.00  0.00    -0.545 OA
ENDBRANCH   1   7
BRANCH   4  10
ATOM     10  O   UNL     1      15.263 -16.585   8.407  1.00  0.00    -0.504 OA
ATOM     11  H   UNL     1      16.091 -16.000   8.403  1.00  0.00     0.293 HD
ENDBRANCH   4  10
BRANCH   6  12
ATOM     12  O   UNL     1      14.972 -14.155   6.996  1.00  0.00    -0.504 OA
ATOM     13  H   UNL     1      15.513 -14.435   6.186  1.00  0.00     0.293 HD
ENDBRANCH   6  12
TORSDOF 3
ENDMDL
MODEL 2
REMARK VINA RESULT:    -4.420      1.402      2.549
REMARK INTER + INTRA:          -4.981
REMARK INTER:                  -4.945
REMARK INTRA:                  -0.036
REMARK UNBOUND:                -0.044
REMARK SMILES O=C([O-])c1ccc(O)c(O)c1
REMARK SMILES IDX 4 1 11 2 5 3 9 4 6 5 7 6 2 7 1 8 3 9 10 10 8 12
REMARK H PARENT 10 11 8 13
REMARK Flexibility Score: inf
ROOT
ATOM      1  C   UNL     1      10.422 -16.567   7.827  1.00  0.00     0.001 A 
ATOM      2  C   UNL     1      11.236 -15.447   7.584  1.00  0.00     0.060 A 
ATOM      3  C   UNL     1      11.026 -17.785   8.182  1.00  0.00     0.014 A 
ATOM      4  C   UNL     1      12.629 -15.540   7.693  1.00  0.00     0.158 A 
ATOM      5  C   UNL     1      12.416 -17.880   8.290  1.00  0.00     0.051 A 
ATOM      6  C   UNL     1      13.222 -16.761   8.047  1.00  0.00     0.157 A 
ENDROOT
BRANCH   1   7
ATOM      7  C   UNL     1       8.950 -16.470   7.713  1.00  0.00     0.072 C 
ATOM      8  O   UNL     1       8.258 -16.062   8.684  1.00  0.00    -0.545 OA
ATOM      9  O   UNL     1       8.308 -16.829   6.533  1.00  0.00    -0.545 OA
ENDBRANCH   1   7
BRANCH   4  10
ATOM     10  O   UNL     1      13.404 -14.407   7.444  1.00  0.00    -0.504 OA
ATOM     11  H   UNL     1      13.595 -13.718   8.162  1.00  0.00     0.293 HD
ENDBRANCH   4  10
BRANCH   6  12
ATOM     12  O   UNL     1      14.609 -16.860   8.156  1.00  0.00    -0.504 OA
ATOM     13  H   UNL     1      15.104 -17.700   7.881  1.00  0.00     0.293 HD
ENDBRANCH   6  12
TORSDOF 3
ENDMDL
MODEL 3
REMARK VINA RESULT:    -4.340      4.028      5.530
REMARK INTER + INTRA:          -4.891
REMARK INTER:                  -4.852
REMARK INTRA:                  -0.039
REMARK UNBOUND:                -0.044
REMARK SMILES O=C([O-])c1ccc(O)c(O)c1
REMARK SMILES IDX 4 1 11 2 5 3 9 4 6 5 7 6 2 7 1 8 3 9 10 10 8 12
REMARK H PARENT 10 11 8 13
REMARK Flexibility Score: inf
ROOT
ATOM      1  C   UNL     1       6.572 -18.024   8.250  1.00  0.00     0.001 A 
ATOM      2  C   UNL     1       7.417 -18.526   7.244  1.00  0.00     0.060 A 
ATOM      3  C   UNL     1       6.909 -16.816   8.884  1.00  0.00     0.014 A 
ATOM      4  C   UNL     1       8.577 -17.835   6.876  1.00  0.00     0.158 A 
ATOM      5  C   UNL     1       8.068 -16.125   8.518  1.00  0.00     0.051 A 
ATOM      6  C   UNL     1       8.906 -16.630   7.516  1.00  0.00     0.157 A 
ENDROOT
BRANCH   1   7
ATOM      7  C   UNL     1       5.345 -18.753   8.640  1.00  0.00     0.072 C 
ATOM      8  O   UNL     1       4.512 -19.116   7.767  1.00  0.00    -0.545 OA
ATOM      9  O   UNL     1       5.092 -19.046   9.975  1.00  0.00    -0.545 OA
ENDBRANCH   1   7
BRANCH   4  10
ATOM     10  O   UNL     1       9.390 -18.364   5.874  1.00  0.00    -0.504 OA
ATOM     11  H   UNL     1       9.454 -17.943   4.955  1.00  0.00     0.293 HD
ENDBRANCH   4  10
BRANCH   6  12
ATOM     12  O   UNL     1      10.061 -15.938   7.154  1.00  0.00    -0.504 OA
ATOM     13  H   UNL     1      10.653 -16.254   6.396  1.00  0.00     0.293 HD
ENDBRANCH   6  12
TORSDOF 3
ENDMDL
MODEL 4
REMARK VINA RESULT:    -4.337      1.944      4.896
REMARK INTER + INTRA:          -4.888
REMARK INTER:                  -4.850
REMARK INTRA:                  -0.038
REMARK UNBOUND:                -0.044
REMARK SMILES O=C([O-])c1ccc(O)c(O)c1
REMARK SMILES IDX 4 1 11 2 5 3 9 4 6 5 7 6 2 7 1 8 3 9 10 10 8 12
REMARK H PARENT 10 11 8 13
REMARK Flexibility Score: inf
ROOT
ATOM      1  C   UNL     1      11.533 -16.477   7.870  1.00  0.00     0.001 A 
ATOM      2  C   UNL     1      10.224 -15.964   7.870  1.00  0.00     0.060 A 
ATOM      3  C   UNL     1      11.744 -17.808   7.472  1.00  0.00     0.014 A 
ATOM      4  C   UNL     1       9.144 -16.765   7.481  1.00  0.00     0.158 A 
ATOM      5  C   UNL     1      10.667 -18.609   7.084  1.00  0.00     0.051 A 
ATOM      6  C   UNL     1       9.365 -18.094   7.086  1.00  0.00     0.157 A 
ENDROOT
BRANCH   1   7
ATOM      7  C   UNL     1      12.676 -15.631   8.281  1.00  0.00     0.072 C 
ATOM      8  O   UNL     1      12.952 -14.577   7.648  1.00  0.00    -0.545 OA
ATOM      9  O   UNL     1      13.462 -15.988   9.371  1.00  0.00    -0.545 OA
ENDBRANCH   1   7
BRANCH   4  10
ATOM     10  O   UNL     1       7.859 -16.221   7.494  1.00  0.00    -0.504 OA
ATOM     11  H   UNL     1       7.319 -16.138   8.348  1.00  0.00     0.293 HD
ENDBRANCH   4  10
BRANCH   6  12
ATOM     12  O   UNL     1       8.293 -18.896   6.698  1.00  0.00    -0.504 OA
ATOM     13  H   UNL     1       7.476 -19.011   7.286  1.00  0.00     0.293 HD
ENDBRANCH   6  12
TORSDOF 3
ENDMDL
MODEL 5
REMARK VINA RESULT:    -4.321      1.517      2.408
REMARK INTER + INTRA:          -4.870
REMARK INTER:                  -4.834
REMARK INTRA:                  -0.036
REMARK UNBOUND:                -0.044
REMARK SMILES O=C([O-])c1ccc(O)c(O)c1
REMARK SMILES IDX 4 1 11 2 5 3 9 4 6 5 7 6 2 7 1 8 3 9 10 10 8 12
REMARK H PARENT 10 11 8 13
REMARK Flexibility Score: inf
ROOT
ATOM      1  C   UNL     1      10.113 -16.538   7.864  1.00  0.00     0.001 A 
ATOM      2  C   UNL     1      10.728 -17.702   8.357  1.00  0.00     0.060 A 
ATOM      3  C   UNL     1      10.916 -15.440   7.511  1.00  0.00     0.014 A 
ATOM      4  C   UNL     1      12.119 -17.770   8.497  1.00  0.00     0.158 A 
ATOM      5  C   UNL     1      12.305 -15.505   7.651  1.00  0.00     0.051 A 
ATOM      6  C   UNL     1      12.912 -16.667   8.143  1.00  0.00     0.157 A 
ENDROOT
BRANCH   1   7
ATOM      7  C   UNL     1       8.643 -16.465   7.715  1.00  0.00     0.072 C 
ATOM      8  O   UNL     1       7.920 -16.091   8.677  1.00  0.00    -0.545 OA
ATOM      9  O   UNL     1       8.037 -16.809   6.512  1.00  0.00    -0.545 OA
ENDBRANCH   1   7
BRANCH   4  10
ATOM     10  O   UNL     1      12.693 -18.942   8.991  1.00  0.00    -0.504 OA
ATOM     11  H   UNL     1      12.132 -19.731   9.289  1.00  0.00     0.293 HD
ENDBRANCH   4  10
BRANCH   6  12
ATOM     12  O   UNL     1      14.298 -16.729   8.281  1.00  0.00    -0.504 OA
ATOM     13  H   UNL     1      14.867 -17.301   7.669  1.00  0.00     0.293 HD
ENDBRANCH   6  12
TORSDOF 3
ENDMDL
MODEL 6
REMARK VINA RESULT:    -4.204      0.892      4.222
REMARK INTER + INTRA:          -4.740
REMARK INTER:                  -4.695
REMARK INTRA:                  -0.044
REMARK UNBOUND:                -0.044
REMARK SMILES O=C([O-])c1ccc(O)c(O)c1
REMARK SMILES IDX 4 1 11 2 5 3 9 4 6 5 7 6 2 7 1 8 3 9 10 10 8 12
REMARK H PARENT 10 11 8 13
REMARK Flexibility Score: inf
ROOT
ATOM      1  C   UNL     1      12.649 -16.206   7.949  1.00  0.00     0.001 A 
ATOM      2  C   UNL     1      12.391 -17.445   8.561  1.00  0.00     0.060 A 
ATOM      3  C   UNL     1      11.567 -15.417   7.522  1.00  0.00     0.014 A 
ATOM      4  C   UNL     1      11.077 -17.890   8.746  1.00  0.00     0.158 A 
ATOM      5  C   UNL     1      10.254 -15.860   7.705  1.00  0.00     0.051 A 
ATOM      6  C   UNL     1      10.003 -17.095   8.316  1.00  0.00     0.157 A 
ENDROOT
BRANCH   1   7
ATOM      7  C   UNL     1      14.038 -15.734   7.753  1.00  0.00     0.072 C 
ATOM      8  O   UNL     1      15.011 -16.426   8.153  1.00  0.00    -0.545 OA
ATOM      9  O   UNL     1      14.288 -14.518   7.127  1.00  0.00    -0.545 OA
ENDBRANCH   1   7
BRANCH   4  10
ATOM     10  O   UNL     1      10.860 -19.125   9.357  1.00  0.00    -0.504 OA
ATOM     11  H   UNL     1      10.409 -19.206  10.261  1.00  0.00     0.293 HD
ENDBRANCH   4  10
BRANCH   6  12
ATOM     12  O   UNL     1       8.691 -17.534   8.496  1.00  0.00    -0.504 OA
ATOM     13  H   UNL     1       8.391 -18.451   8.185  1.00  0.00     0.293 HD
ENDBRANCH   6  12
TORSDOF 3
ENDMDL
MODEL 7
REMARK VINA RESULT:    -4.003      2.339      5.432
REMARK INTER + INTRA:          -4.515
REMARK INTER:                  -4.476
REMARK INTRA:                  -0.038
REMARK UNBOUND:                -0.044
REMARK SMILES O=C([O-])c1ccc(O)c(O)c1
REMARK SMILES IDX 4 1 11 2 5 3 9 4 6 5 7 6 2 7 1 8 3 9 10 10 8 12
REMARK H PARENT 10 11 8 13
REMARK Flexibility Score: inf
ROOT
ATOM      1  C   UNL     1      10.362 -16.890   7.983  1.00  0.00     0.001 A 
ATOM      2  C   UNL     1       9.260 -16.114   8.383  1.00  0.00     0.060 A 
ATOM      3  C   UNL     1      10.137 -18.173   7.456  1.00  0.00     0.014 A 
ATOM      4  C   UNL     1       7.956 -16.609   8.261  1.00  0.00     0.158 A 
ATOM      5  C   UNL     1       8.836 -18.669   7.334  1.00  0.00     0.051 A 
ATOM      6  C   UNL     1       7.742 -17.892   7.734  1.00  0.00     0.157 A 
ENDROOT
BRANCH   1   7
ATOM      7  C   UNL     1      11.741 -16.368   8.111  1.00  0.00     0.072 C 
ATOM      8  O   UNL     1      12.615 -17.018   8.745  1.00  0.00    -0.545 OA
ATOM      9  O   UNL     1      12.091 -15.153   7.534  1.00  0.00    -0.545 OA
ENDBRANCH   1   7
BRANCH   4  10
ATOM     10  O   UNL     1       6.888 -15.810   8.669  1.00  0.00    -0.504 OA
ATOM     11  H   UNL     1       6.375 -15.994   9.524  1.00  0.00     0.293 HD
ENDBRANCH   4  10
BRANCH   6  12
ATOM     12  O   UNL     1       6.446 -18.391   7.611  1.00  0.00    -0.504 OA
ATOM     13  H   UNL     1       6.224 -19.137   6.962  1.00  0.00     0.293 HD
ENDBRANCH   6  12
TORSDOF 3
ENDMDL
MODEL 8
REMARK VINA RESULT:    -3.996      2.667      3.594
REMARK INTER + INTRA:          -4.507
REMARK INTER:                  -4.472
REMARK INTRA:                  -0.036
REMARK UNBOUND:                -0.044
REMARK SMILES O=C([O-])c1ccc(O)c(O)c1
REMARK SMILES IDX 4 1 11 2 5 3 9 4 6 5 7 6 2 7 1 8 3 9 10 10 8 12
REMARK H PARENT 10 11 8 13
REMARK Flexibility Score: inf
ROOT
ATOM      1  C   UNL     1       9.196 -17.961   7.179  1.00  0.00     0.001 A 
ATOM      2  C   UNL     1      10.201 -18.773   7.733  1.00  0.00     0.060 A 
ATOM      3  C   UNL     1       9.240 -16.574   7.399  1.00  0.00     0.014 A 
ATOM      4  C   UNL     1      11.233 -18.211   8.495  1.00  0.00     0.158 A 
ATOM      5  C   UNL     1      10.269 -16.012   8.160  1.00  0.00     0.051 A 
ATOM      6  C   UNL     1      11.267 -16.825   8.710  1.00  0.00     0.157 A 
ENDROOT
BRANCH   1   7
ATOM      7  C   UNL     1       8.105 -18.553   6.373  1.00  0.00     0.072 C 
ATOM      8  O   UNL     1       8.239 -18.709   5.130  1.00  0.00    -0.545 OA
ATOM      9  O   UNL     1       6.915 -18.946   6.976  1.00  0.00    -0.545 OA
ENDBRANCH   1   7
BRANCH   4  10
ATOM     10  O   UNL     1      12.212 -19.048   9.029  1.00  0.00    -0.504 OA
ATOM     11  H   UNL     1      12.779 -18.774   9.823  1.00  0.00     0.293 HD
ENDBRANCH   4  10
BRANCH   6  12
ATOM     12  O   UNL     1      12.292 -16.260   9.468  1.00  0.00    -0.504 OA
ATOM     13  H   UNL     1      13.001 -16.832   9.912  1.00  0.00     0.293 HD
ENDBRANCH   6  12
TORSDOF 3
ENDMDL
MODEL 9
REMARK VINA RESULT:    -3.974      1.771      4.523
REMARK INTER + INTRA:          -4.482
REMARK INTER:                  -4.439
REMARK INTRA:                  -0.044
REMARK UNBOUND:                -0.044
REMARK SMILES O=C([O-])c1ccc(O)c(O)c1
REMARK SMILES IDX 4 1 11 2 5 3 9 4 6 5 7 6 2 7 1 8 3 9 10 10 8 12
REMARK H PARENT 10 11 8 13
REMARK Flexibility Score: inf
ROOT
ATOM      1  C   UNL     1      12.284 -17.243   7.518  1.00  0.00     0.001 A 
ATOM      2  C   UNL     1      11.391 -18.283   7.203  1.00  0.00     0.060 A 
ATOM      3  C   UNL     1      11.769 -15.974   7.831  1.00  0.00     0.014 A 
ATOM      4  C   UNL     1      10.009 -18.061   7.201  1.00  0.00     0.158 A 
ATOM      5  C   UNL     1      10.390 -15.750   7.828  1.00  0.00     0.051 A 
ATOM      6  C   UNL     1       9.505 -16.789   7.514  1.00  0.00     0.157 A 
ENDROOT
BRANCH   1   7
ATOM      7  C   UNL     1      13.745 -17.477   7.521  1.00  0.00     0.072 C 
ATOM      8  O   UNL     1      14.522 -16.666   8.094  1.00  0.00    -0.545 OA
ATOM      9  O   UNL     1      14.283 -18.594   6.891  1.00  0.00    -0.545 OA
ENDBRANCH   1   7
BRANCH   4  10
ATOM     10  O   UNL     1       9.155 -19.117   6.884  1.00  0.00    -0.504 OA
ATOM     11  H   UNL     1       9.003 -19.417   5.928  1.00  0.00     0.293 HD
ENDBRANCH   4  10
BRANCH   6  12
ATOM     12  O   UNL     1       8.129 -16.561   7.513  1.00  0.00    -0.504 OA
ATOM     13  H   UNL     1       7.652 -16.188   8.325  1.00  0.00     0.293 HD
ENDBRANCH   6  12
TORSDOF 3
ENDMDL
