MODEL 1
REMARK VINA RESULT:    -4.769      0.000      0.000
REMARK INTER + INTRA:          -8.815
REMARK INTER:                  -7.279
REMARK INTRA:                  -1.536
REMARK UNBOUND:                -1.536
REMARK SMILES CCCCCCCCCC=CC(=O)[O-]
REMARK SMILES IDX 7 1 8 2 9 3 10 4 11 5 12 6 13 7 14 8 6 9 5 10 4 11 3 12 2 13
REMARK SMILES IDX 1 14
REMARK H PARENT
REMARK Flexibility Score: inf
ROOT
ATOM      1  C   UNL     1      37.088   4.156   7.863  1.00  0.00     0.000 C 
ENDROOT
BRANCH   1   2
ATOM      2  C   UNL     1      37.290   4.122   6.338  1.00  0.00     0.004 C 
BRANCH   2   3
ATOM      3  C   UNL     1      37.427   2.694   5.787  1.00  0.00     0.027 C 
BRANCH   3   4
ATOM      4  C   UNL     1      38.000   1.760   6.820  1.00  0.00    -0.025 C 
ATOM      5  C   UNL     1      37.675   0.469   6.991  1.00  0.00     0.020 C 
BRANCH   5   6
ATOM      6  C   UNL     1      36.636  -0.280   6.256  1.00  0.00     0.064 C 
ATOM      7  O   UNL     1      35.463  -0.300   6.710  1.00  0.00    -0.545 OA
ATOM      8  O   UNL     1      36.902  -0.922   5.055  1.00  0.00    -0.545 OA
ENDBRANCH   5   6
ENDBRANCH   3   4
ENDBRANCH   2   3
ENDBRANCH   1   2
BRANCH   1   9
ATOM      9  C   UNL     1      35.622   4.295   8.319  1.00  0.00     0.000 C 
BRANCH   9  10
ATOM     10  C   UNL     1      34.825   2.977   8.376  1.00  0.00     0.000 C 
BRANCH  10  11
ATOM     11  C   UNL     1      33.645   2.883   7.393  1.00  0.00    -0.000 C 
BRANCH  11  12
ATOM     12  C   UNL     1      33.558   4.091   6.448  1.00  0.00    -0.000 C 
BRANCH  12  13
ATOM     13  C   UNL     1      33.364   3.639   4.996  1.00  0.00    -0.003 C 
ATOM     14  C   UNL     1      33.971   2.258   4.764  1.00  0.00     0.004 C 
ENDBRANCH  12  13
ENDBRANCH  11  12
ENDBRANCH  10  11
ENDBRANCH   9  10
ENDBRANCH   1   9
TORSDOF 9
ENDMDL
MODEL 2
REMARK VINA RESULT:    -4.712      2.484      5.294
REMARK INTER + INTRA:          -8.727
REMARK INTER:                  -7.428
REMARK INTRA:                  -1.299
REMARK UNBOUND:                -1.536
REMARK SMILES CCCCCCCCCC=CC(=O)[O-]
REMARK SMILES IDX 7 1 8 2 9 3 10 4 11 5 12 6 13 7 14 8 6 9 5 10 4 11 3 12 2 13
REMARK SMILES IDX 1 14
REMARK H PARENT
REMARK Flexibility Score: inf
ROOT
ATOM      1  C   UNL     1      34.630   0.225   3.127  1.00  0.00     0.000 C 
ENDROOT
BRANCH   1   2
ATOM      2  C   UNL     1      35.772   1.256   3.110  1.00  0.00     0.004 C 
BRANCH   2   3
ATOM      3  C   UNL     1      35.374   2.595   3.750  1.00  0.00     0.027 C 
BRANCH   3   4
ATOM      4  C   UNL     1      33.878   2.768   3.776  1.00  0.00    -0.025 C 
ATOM      5  C   UNL     1      33.171   3.428   4.707  1.00  0.00     0.020 C 
BRANCH   5   6
ATOM      6  C   UNL     1      33.703   4.052   5.934  1.00  0.00     0.064 C 
ATOM      7  O   UNL     1      34.316   5.147   5.846  1.00  0.00    -0.545 OA
ATOM      8  O   UNL     1      33.506   3.494   7.189  1.00  0.00    -0.545 OA
ENDBRANCH   5   6
ENDBRANCH   3   4
ENDBRANCH   2   3
ENDBRANCH   1   2
BRANCH   1   9
ATOM      9  C   UNL     1      34.943  -1.074   3.895  1.00  0.00     0.000 C 
BRANCH   9  10
ATOM     10  C   UNL     1      36.271  -1.071   4.677  1.00  0.00     0.000 C 
BRANCH  10  11
ATOM     11  C   UNL     1      36.156  -0.675   6.160  1.00  0.00    -0.000 C 
BRANCH  11  12
ATOM     12  C   UNL     1      37.171   0.403   6.570  1.00  0.00    -0.000 C 
BRANCH  12  13
ATOM     13  C   UNL     1      36.468   1.599   7.221  1.00  0.00    -0.003 C 
ATOM     14  C   UNL     1      37.231   2.895   6.964  1.00  0.00     0.004 C 
ENDBRANCH  12  13
ENDBRANCH  11  12
ENDBRANCH  10  11
ENDBRANCH   9  10
ENDBRANCH   1   9
TORSDOF 9
ENDMDL
MODEL 3
REMARK VINA RESULT:    -4.708      1.974      3.426
REMARK INTER + INTRA:          -8.720
REMARK INTER:                  -7.327
REMARK INTRA:                  -1.393
REMARK UNBOUND:                -1.536
REMARK SMILES CCCCCCCCCC=CC(=O)[O-]
REMARK SMILES IDX 7 1 8 2 9 3 10 4 11 5 12 6 13 7 14 8 6 9 5 10 4 11 3 12 2 13
REMARK SMILES IDX 1 14
REMARK H PARENT
REMARK Flexibility Score: inf
ROOT
ATOM      1  C   UNL     1      33.108   3.742   4.989  1.00  0.00     0.000 C 
ENDROOT
BRANCH   1   2
ATOM      2  C   UNL     1      33.475   2.949   3.722  1.00  0.00     0.004 C 
BRANCH   2   3
ATOM      3  C   UNL     1      34.664   1.999   3.938  1.00  0.00     0.027 C 
BRANCH   3   4
ATOM      4  C   UNL     1      34.444   0.680   3.244  1.00  0.00    -0.025 C 
ATOM      5  C   UNL     1      35.184  -0.430   3.397  1.00  0.00     0.020 C 
BRANCH   5   6
ATOM      6  C   UNL     1      36.407  -0.565   4.213  1.00  0.00     0.064 C 
ATOM      7  O   UNL     1      36.356  -1.222   5.284  1.00  0.00    -0.545 OA
ATOM      8  O   UNL     1      37.623  -0.030   3.811  1.00  0.00    -0.545 OA
ENDBRANCH   5   6
ENDBRANCH   3   4
ENDBRANCH   2   3
ENDBRANCH   1   2
BRANCH   1   9
ATOM      9  C   UNL     1      34.308   4.156   5.863  1.00  0.00     0.000 C 
BRANCH   9  10
ATOM     10  C   UNL     1      34.149   3.875   7.370  1.00  0.00     0.000 C 
BRANCH  10  11
ATOM     11  C   UNL     1      35.214   2.946   7.979  1.00  0.00    -0.000 C 
BRANCH  11  12
ATOM     12  C   UNL     1      35.080   1.492   7.504  1.00  0.00    -0.000 C 
BRANCH  12  13
ATOM     13  C   UNL     1      33.653   0.976   7.717  1.00  0.00    -0.003 C 
ATOM     14  C   UNL     1      33.356  -0.216   6.811  1.00  0.00     0.004 C 
ENDBRANCH  12  13
ENDBRANCH  11  12
ENDBRANCH  10  11
ENDBRANCH   9  10
ENDBRANCH   1   9
TORSDOF 9
ENDMDL
MODEL 4
REMARK VINA RESULT:    -4.706      2.649      4.413
REMARK INTER + INTRA:          -8.718
REMARK INTER:                  -7.234
REMARK INTRA:                  -1.484
REMARK UNBOUND:                -1.536
REMARK SMILES CCCCCCCCCC=CC(=O)[O-]
REMARK SMILES IDX 7 1 8 2 9 3 10 4 11 5 12 6 13 7 14 8 6 9 5 10 4 11 3 12 2 13
REMARK SMILES IDX 1 14
REMARK H PARENT
REMARK Flexibility Score: inf
ROOT
ATOM      1  C   UNL     1      37.482   0.597   6.876  1.00  0.00     0.000 C 
ENDROOT
BRANCH   1   2
ATOM      2  C   UNL     1      38.062   2.014   6.722  1.00  0.00     0.004 C 
BRANCH   2   3
ATOM      3  C   UNL     1      36.978   3.078   6.485  1.00  0.00     0.027 C 
BRANCH   3   4
ATOM      4  C   UNL     1      35.993   3.120   7.624  1.00  0.00    -0.025 C 
ATOM      5  C   UNL     1      34.823   3.778   7.637  1.00  0.00     0.020 C 
BRANCH   5   6
ATOM      6  C   UNL     1      34.297   4.657   6.573  1.00  0.00     0.064 C 
ATOM      7  O   UNL     1      33.504   4.177   5.723  1.00  0.00    -0.545 OA
ATOM      8  O   UNL     1      34.613   6.006   6.509  1.00  0.00    -0.545 OA
ENDBRANCH   5   6
ENDBRANCH   3   4
ENDBRANCH   2   3
ENDBRANCH   1   2
BRANCH   1   9
ATOM      9  C   UNL     1      37.289  -0.171   5.554  1.00  0.00     0.000 C 
BRANCH   9  10
ATOM     10  C   UNL     1      35.879  -0.755   5.335  1.00  0.00     0.000 C 
BRANCH  10  11
ATOM     11  C   UNL     1      34.859   0.214   4.713  1.00  0.00    -0.000 C 
BRANCH  11  12
ATOM     12  C   UNL     1      33.850   0.756   5.737  1.00  0.00    -0.000 C 
BRANCH  12  13
ATOM     13  C   UNL     1      33.535  -0.296   6.806  1.00  0.00    -0.003 C 
ATOM     14  C   UNL     1      33.433   0.338   8.190  1.00  0.00     0.004 C 
ENDBRANCH  12  13
ENDBRANCH  11  12
ENDBRANCH  10  11
ENDBRANCH   9  10
ENDBRANCH   1   9
TORSDOF 9
ENDMDL
MODEL 5
REMARK VINA RESULT:    -4.705     18.882     20.569
REMARK INTER + INTRA:          -8.716
REMARK INTER:                  -7.104
REMARK INTRA:                  -1.612
REMARK UNBOUND:                -1.536
REMARK SMILES CCCCCCCCCC=CC(=O)[O-]
REMARK SMILES IDX 7 1 8 2 9 3 10 4 11 5 12 6 13 7 14 8 6 9 5 10 4 11 3 12 2 13
REMARK SMILES IDX 1 14
REMARK H PARENT
REMARK Flexibility Score: inf
ROOT
ATOM      1  C   UNL     1      50.005   9.661  -7.344  1.00  0.00     0.000 C 
ENDROOT
BRANCH   1   2
ATOM      2  C   UNL     1      48.799   8.778  -7.711  1.00  0.00     0.004 C 
BRANCH   2   3
ATOM      3  C   UNL     1      47.678   9.563  -8.411  1.00  0.00     0.027 C 
BRANCH   3   4
ATOM      4  C   UNL     1      48.211  10.804  -9.077  1.00  0.00    -0.025 C 
ATOM      5  C   UNL     1      47.512  11.912  -9.368  1.00  0.00     0.020 C 
BRANCH   5   6
ATOM      6  C   UNL     1      46.063  12.114  -9.166  1.00  0.00     0.064 C 
ATOM      7  O   UNL     1      45.676  12.864  -8.234  1.00  0.00    -0.545 OA
ATOM      8  O   UNL     1      45.117  11.540 -10.003  1.00  0.00    -0.545 OA
ENDBRANCH   5   6
ENDBRANCH   3   4
ENDBRANCH   2   3
ENDBRANCH   1   2
BRANCH   1   9
ATOM      9  C   UNL     1      50.218   9.871  -5.832  1.00  0.00     0.000 C 
BRANCH   9  10
ATOM     10  C   UNL     1      50.059  11.324  -5.343  1.00  0.00     0.000 C 
BRANCH  10  11
ATOM     11  C   UNL     1      48.801  11.597  -4.500  1.00  0.00    -0.000 C 
BRANCH  11  12
ATOM     12  C   UNL     1      47.622  12.116  -5.337  1.00  0.00    -0.000 C 
BRANCH  12  13
ATOM     13  C   UNL     1      46.478  11.096  -5.363  1.00  0.00    -0.003 C 
ATOM     14  C   UNL     1      46.768   9.918  -4.437  1.00  0.00     0.004 C 
ENDBRANCH  12  13
ENDBRANCH  11  12
ENDBRANCH  10  11
ENDBRANCH   9  10
ENDBRANCH   1   9
TORSDOF 9
ENDMDL
MODEL 6
REMARK VINA RESULT:    -4.704     18.792     20.378
REMARK INTER + INTRA:          -8.715
REMARK INTER:                  -7.404
REMARK INTRA:                  -1.311
REMARK UNBOUND:                -1.536
REMARK SMILES CCCCCCCCCC=CC(=O)[O-]
REMARK SMILES IDX 7 1 8 2 9 3 10 4 11 5 12 6 13 7 14 8 6 9 5 10 4 11 3 12 2 13
REMARK SMILES IDX 1 14
REMARK H PARENT
REMARK Flexibility Score: inf
ROOT
ATOM      1  C   UNL     1      48.478  12.071  -4.808  1.00  0.00     0.000 C 
ENDROOT
BRANCH   1   2
ATOM      2  C   UNL     1      47.421  10.953  -4.822  1.00  0.00     0.004 C 
BRANCH   2   3
ATOM      3  C   UNL     1      46.201  11.297  -5.690  1.00  0.00     0.027 C 
BRANCH   3   4
ATOM      4  C   UNL     1      46.214  12.745  -6.105  1.00  0.00    -0.025 C 
ATOM      5  C   UNL     1      45.896  13.227  -7.317  1.00  0.00     0.020 C 
BRANCH   5   6
ATOM      6  C   UNL     1      45.546  12.435  -8.512  1.00  0.00     0.064 C 
ATOM      7  O   UNL     1      44.420  11.875  -8.565  1.00  0.00    -0.545 OA
ATOM      8  O   UNL     1      46.399  12.327  -9.601  1.00  0.00    -0.545 OA
ENDBRANCH   5   6
ENDBRANCH   3   4
ENDBRANCH   2   3
ENDBRANCH   1   2
BRANCH   1   9
ATOM      9  C   UNL     1      49.917  11.607  -5.105  1.00  0.00     0.000 C 
BRANCH   9  10
ATOM     10  C   UNL     1      50.057  10.130  -5.521  1.00  0.00     0.000 C 
BRANCH  10  11
ATOM     11  C   UNL     1      50.155   9.884  -7.037  1.00  0.00    -0.000 C 
BRANCH  11  12
ATOM     12  C   UNL     1      49.153   8.831  -7.537  1.00  0.00    -0.000 C 
BRANCH  12  13
ATOM     13  C   UNL     1      48.087   9.471  -8.433  1.00  0.00    -0.003 C 
ATOM     14  C   UNL     1      46.747   8.754  -8.293  1.00  0.00     0.004 C 
ENDBRANCH  12  13
ENDBRANCH  11  12
ENDBRANCH  10  11
ENDBRANCH   9  10
ENDBRANCH   1   9
TORSDOF 9
ENDMDL
MODEL 7
REMARK VINA RESULT:    -4.681      2.460      4.606
REMARK INTER + INTRA:          -8.680
REMARK INTER:                  -6.962
REMARK INTRA:                  -1.718
REMARK UNBOUND:                -1.536
REMARK SMILES CCCCCCCCCC=CC(=O)[O-]
REMARK SMILES IDX 7 1 8 2 9 3 10 4 11 5 12 6 13 7 14 8 6 9 5 10 4 11 3 12 2 13
REMARK SMILES IDX 1 14
REMARK H PARENT
REMARK Flexibility Score: inf
ROOT
ATOM      1  C   UNL     1      33.376   1.459   8.371  1.00  0.00     0.000 C 
ENDROOT
BRANCH   1   2
ATOM      2  C   UNL     1      34.641   2.314   8.565  1.00  0.00     0.004 C 
BRANCH   2   3
ATOM      3  C   UNL     1      34.928   3.232   7.366  1.00  0.00     0.027 C 
BRANCH   3   4
ATOM      4  C   UNL     1      33.698   3.433   6.521  1.00  0.00    -0.025 C 
ATOM      5  C   UNL     1      33.665   3.567   5.186  1.00  0.00     0.020 C 
BRANCH   5   6
ATOM      6  C   UNL     1      34.829   3.624   4.280  1.00  0.00     0.064 C 
ATOM      7  O   UNL     1      35.088   2.628   3.557  1.00  0.00    -0.545 OA
ATOM      8  O   UNL     1      35.618   4.759   4.165  1.00  0.00    -0.545 OA
ENDBRANCH   5   6
ENDBRANCH   3   4
ENDBRANCH   2   3
ENDBRANCH   1   2
BRANCH   1   9
ATOM      9  C   UNL     1      33.639  -0.011   7.992  1.00  0.00     0.000 C 
BRANCH   9  10
ATOM     10  C   UNL     1      33.272  -0.391   6.544  1.00  0.00     0.000 C 
BRANCH  10  11
ATOM     11  C   UNL     1      34.414  -0.252   5.522  1.00  0.00    -0.000 C 
BRANCH  11  12
ATOM     12  C   UNL     1      35.788  -0.609   6.110  1.00  0.00    -0.000 C 
BRANCH  12  13
ATOM     13  C   UNL     1      36.801   0.513   5.856  1.00  0.00    -0.003 C 
ATOM     14  C   UNL     1      37.786   0.639   7.015  1.00  0.00     0.004 C 
ENDBRANCH  12  13
ENDBRANCH  11  12
ENDBRANCH  10  11
ENDBRANCH   9  10
ENDBRANCH   1   9
TORSDOF 9
ENDMDL
MODEL 8
REMARK VINA RESULT:    -4.674     19.581     21.106
REMARK INTER + INTRA:          -8.670
REMARK INTER:                  -7.439
REMARK INTRA:                  -1.230
REMARK UNBOUND:                -1.536
REMARK SMILES CCCCCCCCCC=CC(=O)[O-]
REMARK SMILES IDX 7 1 8 2 9 3 10 4 11 5 12 6 13 7 14 8 6 9 5 10 4 11 3 12 2 13
REMARK SMILES IDX 1 14
REMARK H PARENT
REMARK Flexibility Score: inf
ROOT
ATOM      1  C   UNL     1      48.794   8.397  -8.097  1.00  0.00     0.000 C 
ENDROOT
BRANCH   1   2
ATOM      2  C   UNL     1      47.341   7.892  -8.082  1.00  0.00     0.004 C 
BRANCH   2   3
ATOM      3  C   UNL     1      46.314   9.028  -8.218  1.00  0.00     0.027 C 
BRANCH   3   4
ATOM      4  C   UNL     1      45.631   8.992  -9.560  1.00  0.00    -0.025 C 
ATOM      5  C   UNL     1      44.871   9.963 -10.090  1.00  0.00     0.020 C 
BRANCH   5   6
ATOM      6  C   UNL     1      44.484  11.230  -9.438  1.00  0.00     0.064 C 
ATOM      7  O   UNL     1      43.392  11.287  -8.817  1.00  0.00    -0.545 OA
ATOM      8  O   UNL     1      45.309  12.345  -9.448  1.00  0.00    -0.545 OA
ENDBRANCH   5   6
ENDBRANCH   3   4
ENDBRANCH   2   3
ENDBRANCH   1   2
BRANCH   1   9
ATOM      9  C   UNL     1      49.270   9.039  -6.779  1.00  0.00     0.000 C 
BRANCH   9  10
ATOM     10  C   UNL     1      50.272  10.200  -6.939  1.00  0.00     0.000 C 
BRANCH  10  11
ATOM     11  C   UNL     1      49.687  11.605  -6.714  1.00  0.00    -0.000 C 
BRANCH  11  12
ATOM     12  C   UNL     1      48.701  12.025  -7.815  1.00  0.00    -0.000 C 
BRANCH  12  13
ATOM     13  C   UNL     1      49.383  12.031  -9.187  1.00  0.00    -0.003 C 
ATOM     14  C   UNL     1      48.423  11.575 -10.282  1.00  0.00     0.004 C 
ENDBRANCH  12  13
ENDBRANCH  11  12
ENDBRANCH  10  11
ENDBRANCH   9  10
ENDBRANCH   1   9
TORSDOF 9
ENDMDL
MODEL 9
REMARK VINA RESULT:    -4.651      2.526      4.357
REMARK INTER + INTRA:          -8.634
REMARK INTER:                  -7.400
REMARK INTRA:                  -1.234
REMARK UNBOUND:                -1.536
REMARK SMILES CCCCCCCCCC=CC(=O)[O-]
REMARK SMILES IDX 7 1 8 2 9 3 10 4 11 5 12 6 13 7 14 8 6 9 5 10 4 11 3 12 2 13
REMARK SMILES IDX 1 14
REMARK H PARENT
REMARK Flexibility Score: inf
ROOT
ATOM      1  C   UNL     1      37.414   0.778   6.841  1.00  0.00     0.000 C 
ENDROOT
BRANCH   1   2
ATOM      2  C   UNL     1      36.523   1.969   7.233  1.00  0.00     0.004 C 
BRANCH   2   3
ATOM      3  C   UNL     1      37.181   3.327   6.939  1.00  0.00     0.027 C 
BRANCH   3   4
ATOM      4  C   UNL     1      36.798   4.357   7.970  1.00  0.00    -0.025 C 
ATOM      5  C   UNL     1      35.684   5.105   7.967  1.00  0.00     0.020 C 
BRANCH   5   6
ATOM      6  C   UNL     1      34.645   5.131   6.919  1.00  0.00     0.064 C 
ATOM      7  O   UNL     1      34.745   5.965   5.982  1.00  0.00    -0.545 OA
ATOM      8  O   UNL     1      33.588   4.232   6.907  1.00  0.00    -0.545 OA
ENDBRANCH   5   6
ENDBRANCH   3   4
ENDBRANCH   2   3
ENDBRANCH   1   2
BRANCH   1   9
ATOM      9  C   UNL     1      36.687  -0.354   6.088  1.00  0.00     0.000 C 
BRANCH   9  10
ATOM     10  C   UNL     1      35.173  -0.145   5.893  1.00  0.00     0.000 C 
BRANCH  10  11
ATOM     11  C   UNL     1      34.625  -0.570   4.519  1.00  0.00    -0.000 C 
BRANCH  11  12
ATOM     12  C   UNL     1      34.590   0.585   3.507  1.00  0.00    -0.000 C 
BRANCH  12  13
ATOM     13  C   UNL     1      34.278   1.914   4.204  1.00  0.00    -0.003 C 
ATOM     14  C   UNL     1      35.252   3.006   3.770  1.00  0.00     0.004 C 
ENDBRANCH  12  13
ENDBRANCH  11  12
ENDBRANCH  10  11
ENDBRANCH   9  10
ENDBRANCH   1   9
TORSDOF 9
ENDMDL
