MODEL 1
REMARK VINA RESULT:    -3.578      0.000      0.000
REMARK INTER + INTRA:          -7.368
REMARK INTER:                  -6.088
REMARK INTRA:                  -1.280
REMARK UNBOUND:                -1.280
REMARK SMILES CCCCCCCCCCCCCC(=O)[O-]
REMARK SMILES IDX 8 1 9 2 10 3 11 4 12 5 13 6 14 7 15 8 16 9 7 10 6 11 5 12
REMARK SMILES IDX 4 13 3 14 2 15 1 16
REMARK H PARENT
REMARK Flexibility Score: inf
ROOT
ATOM      1  C   UNL     1     -14.337 -73.517 -11.376  1.00  0.00     0.000 C 
ENDROOT
BRANCH   1   2
ATOM      2  C   UNL     1     -14.207 -73.454  -9.845  1.00  0.00     0.000 C 
BRANCH   2   3
ATOM      3  C   UNL     1     -13.004 -72.611  -9.390  1.00  0.00     0.000 C 
BRANCH   3   4
ATOM      4  C   UNL     1     -11.757 -73.461  -9.082  1.00  0.00     0.000 C 
BRANCH   4   5
ATOM      5  C   UNL     1     -10.592 -73.295 -10.075  1.00  0.00     0.006 C 
BRANCH   5   6
ATOM      6  C   UNL     1     -10.180 -71.830 -10.274  1.00  0.00     0.053 C 
BRANCH   6   7
ATOM      7  C   UNL     1      -9.112 -71.451  -9.299  1.00  0.00     0.041 C 
ATOM      8  O   UNL     1      -9.422 -71.010  -8.160  1.00  0.00    -0.550 OA
ATOM      9  O   UNL     1      -7.774 -71.537  -9.663  1.00  0.00    -0.550 OA
ENDBRANCH   6   7
ENDBRANCH   5   6
ENDBRANCH   4   5
ENDBRANCH   3   4
ENDBRANCH   2   3
ENDBRANCH   1   2
BRANCH   1  10
ATOM     10  C   UNL     1     -14.241 -74.953 -11.922  1.00  0.00     0.000 C 
BRANCH  10  11
ATOM     11  C   UNL     1     -13.571 -75.917 -10.930  1.00  0.00    -0.000 C 
BRANCH  11  12
ATOM     12  C   UNL     1     -14.266 -77.286 -10.875  1.00  0.00    -0.000 C 
BRANCH  12  13
ATOM     13  C   UNL     1     -14.120 -77.921  -9.484  1.00  0.00    -0.000 C 
BRANCH  13  14
ATOM     14  C   UNL     1     -13.595 -76.917  -8.435  1.00  0.00    -0.000 C 
BRANCH  14  15
ATOM     15  C   UNL     1     -14.206 -77.112  -7.037  1.00  0.00    -0.003 C 
ATOM     16  C   UNL     1     -15.647 -76.615  -6.936  1.00  0.00     0.004 C 
ENDBRANCH  14  15
ENDBRANCH  13  14
ENDBRANCH  12  13
ENDBRANCH  11  12
ENDBRANCH  10  11
ENDBRANCH   1  10
TORSDOF 12
ENDMDL
MODEL 2
REMARK VINA RESULT:    -3.543     10.676     13.055
REMARK INTER + INTRA:          -7.309
REMARK INTER:                  -6.040
REMARK INTRA:                  -1.269
REMARK UNBOUND:                -1.280
REMARK SMILES CCCCCCCCCCCCCC(=O)[O-]
REMARK SMILES IDX 8 1 9 2 10 3 11 4 12 5 13 6 14 7 15 8 16 9 7 10 6 11 5 12
REMARK SMILES IDX 4 13 3 14 2 15 1 16
REMARK H PARENT
REMARK Flexibility Score: inf
ROOT
ATOM      1  C   UNL     1      -4.374 -66.849  -3.969  1.00  0.00     0.000 C 
ENDROOT
BRANCH   1   2
ATOM      2  C   UNL     1      -4.131 -65.357  -3.684  1.00  0.00     0.000 C 
BRANCH   2   3
ATOM      3  C   UNL     1      -5.060 -64.443  -4.500  1.00  0.00     0.000 C 
BRANCH   3   4
ATOM      4  C   UNL     1      -4.320 -63.672  -5.610  1.00  0.00     0.000 C 
BRANCH   4   5
ATOM      5  C   UNL     1      -2.784 -63.728  -5.532  1.00  0.00     0.006 C 
BRANCH   5   6
ATOM      6  C   UNL     1      -2.134 -64.183  -6.846  1.00  0.00     0.053 C 
BRANCH   6   7
ATOM      7  C   UNL     1      -0.653 -64.311  -6.678  1.00  0.00     0.041 C 
ATOM      8  O   UNL     1      -0.085 -63.816  -5.669  1.00  0.00    -0.550 OA
ATOM      9  O   UNL     1       0.107 -64.934  -7.660  1.00  0.00    -0.550 OA
ENDBRANCH   6   7
ENDBRANCH   5   6
ENDBRANCH   4   5
ENDBRANCH   3   4
ENDBRANCH   2   3
ENDBRANCH   1   2
BRANCH   1  10
ATOM     10  C   UNL     1      -3.556 -67.365  -5.166  1.00  0.00     0.000 C 
BRANCH  10  11
ATOM     11  C   UNL     1      -4.444 -67.921  -6.291  1.00  0.00    -0.000 C 
BRANCH  11  12
ATOM     12  C   UNL     1      -4.706 -66.891  -7.400  1.00  0.00    -0.000 C 
BRANCH  12  13
ATOM     13  C   UNL     1      -5.195 -67.578  -8.684  1.00  0.00    -0.000 C 
BRANCH  13  14
ATOM     14  C   UNL     1      -4.441 -68.894  -8.966  1.00  0.00    -0.000 C 
BRANCH  14  15
ATOM     15  C   UNL     1      -3.748 -68.924 -10.339  1.00  0.00    -0.003 C 
ATOM     16  C   UNL     1      -4.045 -70.194 -11.134  1.00  0.00     0.004 C 
ENDBRANCH  14  15
ENDBRANCH  13  14
ENDBRANCH  12  13
ENDBRANCH  11  12
ENDBRANCH  10  11
ENDBRANCH   1  10
TORSDOF 12
ENDMDL
MODEL 3
REMARK VINA RESULT:    -3.495     11.570     13.743
REMARK INTER + INTRA:          -7.226
REMARK INTER:                  -5.605
REMARK INTRA:                  -1.621
REMARK UNBOUND:                -1.280
REMARK SMILES CCCCCCCCCCCCCC(=O)[O-]
REMARK SMILES IDX 8 1 9 2 10 3 11 4 12 5 13 6 14 7 15 8 16 9 7 10 6 11 5 12
REMARK SMILES IDX 4 13 3 14 2 15 1 16
REMARK H PARENT
REMARK Flexibility Score: inf
ROOT
ATOM      1  C   UNL     1      -4.216 -66.439  -3.888  1.00  0.00     0.000 C 
ENDROOT
BRANCH   1   2
ATOM      2  C   UNL     1      -4.645 -64.989  -4.166  1.00  0.00     0.000 C 
BRANCH   2   3
ATOM      3  C   UNL     1      -3.451 -64.024  -4.238  1.00  0.00     0.000 C 
BRANCH   3   4
ATOM      4  C   UNL     1      -3.321 -63.328  -5.606  1.00  0.00     0.000 C 
BRANCH   4   5
ATOM      5  C   UNL     1      -2.204 -63.874  -6.513  1.00  0.00     0.006 C 
BRANCH   5   6
ATOM      6  C   UNL     1      -0.805 -63.413  -6.084  1.00  0.00     0.053 C 
BRANCH   6   7
ATOM      7  C   UNL     1       0.229 -64.399  -6.527  1.00  0.00     0.041 C 
ATOM      8  O   UNL     1       0.158 -64.918  -7.672  1.00  0.00    -0.550 OA
ATOM      9  O   UNL     1       1.242 -64.782  -5.659  1.00  0.00    -0.550 OA
ENDBRANCH   6   7
ENDBRANCH   5   6
ENDBRANCH   4   5
ENDBRANCH   3   4
ENDBRANCH   2   3
ENDBRANCH   1   2
BRANCH   1  10
ATOM     10  C   UNL     1      -3.569 -67.113  -5.112  1.00  0.00     0.000 C 
BRANCH  10  11
ATOM     11  C   UNL     1      -4.576 -67.935  -5.933  1.00  0.00    -0.000 C 
BRANCH  11  12
ATOM     12  C   UNL     1      -4.554 -67.576  -7.426  1.00  0.00    -0.000 C 
BRANCH  12  13
ATOM     13  C   UNL     1      -4.788 -66.072  -7.633  1.00  0.00    -0.000 C 
BRANCH  13  14
ATOM     14  C   UNL     1      -6.288 -65.719  -7.714  1.00  0.00    -0.000 C 
BRANCH  14  15
ATOM     15  C   UNL     1      -6.557 -64.223  -7.949  1.00  0.00    -0.003 C 
ATOM     16  C   UNL     1      -6.962 -63.479  -6.678  1.00  0.00     0.004 C 
ENDBRANCH  14  15
ENDBRANCH  13  14
ENDBRANCH  12  13
ENDBRANCH  11  12
ENDBRANCH  10  11
ENDBRANCH   1  10
TORSDOF 12
ENDMDL
MODEL 4
REMARK VINA RESULT:    -3.482     12.374     14.244
REMARK INTER + INTRA:          -7.205
REMARK INTER:                  -5.152
REMARK INTRA:                  -2.053
REMARK UNBOUND:                -1.280
REMARK SMILES CCCCCCCCCCCCCC(=O)[O-]
REMARK SMILES IDX 8 1 9 2 10 3 11 4 12 5 13 6 14 7 15 8 16 9 7 10 6 11 5 12
REMARK SMILES IDX 4 13 3 14 2 15 1 16
REMARK H PARENT
REMARK Flexibility Score: inf
ROOT
ATOM      1  C   UNL     1      -5.896 -64.193  -6.043  1.00  0.00     0.000 C 
ENDROOT
BRANCH   1   2
ATOM      2  C   UNL     1      -5.539 -62.700  -6.134  1.00  0.00     0.000 C 
BRANCH   2   3
ATOM      3  C   UNL     1      -4.101 -62.466  -6.624  1.00  0.00     0.000 C 
BRANCH   3   4
ATOM      4  C   UNL     1      -3.127 -62.119  -5.483  1.00  0.00     0.000 C 
BRANCH   4   5
ATOM      5  C   UNL     1      -1.860 -62.991  -5.417  1.00  0.00     0.006 C 
BRANCH   5   6
ATOM      6  C   UNL     1      -1.612 -63.786  -6.706  1.00  0.00     0.053 C 
BRANCH   6   7
ATOM      7  C   UNL     1      -0.214 -64.317  -6.731  1.00  0.00     0.041 C 
ATOM      8  O   UNL     1       0.200 -64.961  -7.731  1.00  0.00    -0.550 OA
ATOM      9  O   UNL     1       0.616 -64.144  -5.631  1.00  0.00    -0.550 OA
ENDBRANCH   6   7
ENDBRANCH   5   6
ENDBRANCH   4   5
ENDBRANCH   3   4
ENDBRANCH   2   3
ENDBRANCH   1   2
BRANCH   1  10
ATOM     10  C   UNL     1      -5.256 -65.026  -7.169  1.00  0.00     0.000 C 
BRANCH  10  11
ATOM     11  C   UNL     1      -4.730 -66.382  -6.673  1.00  0.00    -0.000 C 
BRANCH  11  12
ATOM     12  C   UNL     1      -3.766 -66.244  -5.486  1.00  0.00    -0.000 C 
BRANCH  12  13
ATOM     13  C   UNL     1      -4.229 -67.101  -4.298  1.00  0.00    -0.000 C 
BRANCH  13  14
ATOM     14  C   UNL     1      -4.650 -66.242  -3.087  1.00  0.00    -0.000 C 
BRANCH  14  15
ATOM     15  C   UNL     1      -3.969 -64.863  -3.045  1.00  0.00    -0.003 C 
ATOM     16  C   UNL     1      -4.861 -63.771  -2.457  1.00  0.00     0.004 C 
ENDBRANCH  14  15
ENDBRANCH  13  14
ENDBRANCH  12  13
ENDBRANCH  11  12
ENDBRANCH  10  11
ENDBRANCH   1  10
TORSDOF 12
ENDMDL
MODEL 5
REMARK VINA RESULT:    -3.457      2.231      4.252
REMARK INTER + INTRA:          -7.161
REMARK INTER:                  -5.917
REMARK INTRA:                  -1.244
REMARK UNBOUND:                -1.280
REMARK SMILES CCCCCCCCCCCCCC(=O)[O-]
REMARK SMILES IDX 8 1 9 2 10 3 11 4 12 5 13 6 14 7 15 8 16 9 7 10 6 11 5 12
REMARK SMILES IDX 4 13 3 14 2 15 1 16
REMARK H PARENT
REMARK Flexibility Score: inf
ROOT
ATOM      1  C   UNL     1     -13.641 -76.822  -7.932  1.00  0.00     0.000 C 
ENDROOT
BRANCH   1   2
ATOM      2  C   UNL     1     -13.672 -77.089  -9.446  1.00  0.00     0.000 C 
BRANCH   2   3
ATOM      3  C   UNL     1     -13.732 -75.793 -10.272  1.00  0.00     0.000 C 
BRANCH   3   4
ATOM      4  C   UNL     1     -14.119 -74.562  -9.431  1.00  0.00     0.000 C 
BRANCH   4   5
ATOM      5  C   UNL     1     -13.369 -73.266  -9.786  1.00  0.00     0.006 C 
BRANCH   5   6
ATOM      6  C   UNL     1     -12.047 -73.110  -9.021  1.00  0.00     0.053 C 
BRANCH   6   7
ATOM      7  C   UNL     1     -10.886 -73.387  -9.923  1.00  0.00     0.041 C 
ATOM      8  O   UNL     1     -11.071 -73.569 -11.155  1.00  0.00    -0.550 OA
ATOM      9  O   UNL     1      -9.606 -73.494  -9.396  1.00  0.00    -0.550 OA
ENDBRANCH   6   7
ENDBRANCH   5   6
ENDBRANCH   4   5
ENDBRANCH   3   4
ENDBRANCH   2   3
ENDBRANCH   1   2
BRANCH   1  10
ATOM     10  C   UNL     1     -14.743 -77.583  -7.173  1.00  0.00     0.000 C 
BRANCH  10  11
ATOM     11  C   UNL     1     -15.660 -76.646  -6.370  1.00  0.00    -0.000 C 
BRANCH  11  12
ATOM     12  C   UNL     1     -16.763 -76.016  -7.234  1.00  0.00    -0.000 C 
BRANCH  12  13
ATOM     13  C   UNL     1     -17.829 -75.341  -6.357  1.00  0.00    -0.000 C 
BRANCH  13  14
ATOM     14  C   UNL     1     -17.718 -73.802  -6.384  1.00  0.00    -0.000 C 
BRANCH  14  15
ATOM     15  C   UNL     1     -16.988 -73.259  -7.625  1.00  0.00    -0.003 C 
ATOM     16  C   UNL     1     -17.790 -72.200  -8.378  1.00  0.00     0.004 C 
ENDBRANCH  14  15
ENDBRANCH  13  14
ENDBRANCH  12  13
ENDBRANCH  11  12
ENDBRANCH  10  11
ENDBRANCH   1  10
TORSDOF 12
ENDMDL
MODEL 6
REMARK VINA RESULT:    -3.448     14.416     16.855
REMARK INTER + INTRA:          -7.147
REMARK INTER:                  -5.413
REMARK INTRA:                  -1.734
REMARK UNBOUND:                -1.280
REMARK SMILES CCCCCCCCCCCCCC(=O)[O-]
REMARK SMILES IDX 8 1 9 2 10 3 11 4 12 5 13 6 14 7 15 8 16 9 7 10 6 11 5 12
REMARK SMILES IDX 4 13 3 14 2 15 1 16
REMARK H PARENT
REMARK Flexibility Score: inf
ROOT
ATOM      1  C   UNL     1      -7.496 -62.784  -1.391  1.00  0.00     0.000 C 
ENDROOT
BRANCH   1   2
ATOM      2  C   UNL     1      -6.071 -62.251  -1.167  1.00  0.00     0.000 C 
BRANCH   2   3
ATOM      3  C   UNL     1      -6.017 -61.140  -0.107  1.00  0.00     0.000 C 
BRANCH   3   4
ATOM      4  C   UNL     1      -7.309 -61.040   0.726  1.00  0.00     0.000 C 
BRANCH   4   5
ATOM      5  C   UNL     1      -8.056 -59.699   0.614  1.00  0.00     0.006 C 
BRANCH   5   6
ATOM      6  C   UNL     1      -8.663 -59.238   1.946  1.00  0.00     0.053 C 
BRANCH   6   7
ATOM      7  C   UNL     1     -10.156 -59.209   1.857  1.00  0.00     0.041 C 
ATOM      8  O   UNL     1     -10.853 -59.796   2.726  1.00  0.00    -0.550 OA
ATOM      9  O   UNL     1     -10.777 -58.575   0.789  1.00  0.00    -0.550 OA
ENDBRANCH   6   7
ENDBRANCH   5   6
ENDBRANCH   4   5
ENDBRANCH   3   4
ENDBRANCH   2   3
ENDBRANCH   1   2
BRANCH   1  10
ATOM     10  C   UNL     1      -7.532 -64.307  -1.617  1.00  0.00     0.000 C 
BRANCH  10  11
ATOM     11  C   UNL     1      -8.717 -64.981  -0.907  1.00  0.00    -0.000 C 
BRANCH  11  12
ATOM     12  C   UNL     1      -9.352 -64.083   0.164  1.00  0.00    -0.000 C 
BRANCH  12  13
ATOM     13  C   UNL     1      -9.220 -64.714   1.559  1.00  0.00    -0.000 C 
BRANCH  13  14
ATOM     14  C   UNL     1      -7.969 -64.211   2.311  1.00  0.00    -0.000 C 
BRANCH  14  15
ATOM     15  C   UNL     1      -6.800 -65.211   2.298  1.00  0.00    -0.003 C 
ATOM     16  C   UNL     1      -5.579 -64.697   1.537  1.00  0.00     0.004 C 
ENDBRANCH  14  15
ENDBRANCH  13  14
ENDBRANCH  12  13
ENDBRANCH  11  12
ENDBRANCH  10  11
ENDBRANCH   1  10
TORSDOF 12
ENDMDL
MODEL 7
REMARK VINA RESULT:    -3.425      2.786      4.393
REMARK INTER + INTRA:          -7.107
REMARK INTER:                  -5.649
REMARK INTRA:                  -1.459
REMARK UNBOUND:                -1.280
REMARK SMILES CCCCCCCCCCCCCC(=O)[O-]
REMARK SMILES IDX 8 1 9 2 10 3 11 4 12 5 13 6 14 7 15 8 16 9 7 10 6 11 5 12
REMARK SMILES IDX 4 13 3 14 2 15 1 16
REMARK H PARENT
REMARK Flexibility Score: inf
ROOT
ATOM      1  C   UNL     1     -17.006 -72.412  -7.480  1.00  0.00     0.000 C 
ENDROOT
BRANCH   1   2
ATOM      2  C   UNL     1     -17.633 -72.474  -8.883  1.00  0.00     0.000 C 
BRANCH   2   3
ATOM      3  C   UNL     1     -16.696 -73.115  -9.919  1.00  0.00     0.000 C 
BRANCH   3   4
ATOM      4  C   UNL     1     -15.215 -73.068  -9.501  1.00  0.00     0.000 C 
BRANCH   4   5
ATOM      5  C   UNL     1     -14.242 -73.773 -10.463  1.00  0.00     0.006 C 
BRANCH   5   6
ATOM      6  C   UNL     1     -12.843 -73.970  -9.862  1.00  0.00     0.053 C 
BRANCH   6   7
ATOM      7  C   UNL     1     -11.800 -73.891 -10.931  1.00  0.00     0.041 C 
ATOM      8  O   UNL     1     -11.758 -74.762 -11.839  1.00  0.00    -0.550 OA
ATOM      9  O   UNL     1     -10.844 -72.885 -10.897  1.00  0.00    -0.550 OA
ENDBRANCH   6   7
ENDBRANCH   5   6
ENDBRANCH   4   5
ENDBRANCH   3   4
ENDBRANCH   2   3
ENDBRANCH   1   2
BRANCH   1  10
ATOM     10  C   UNL     1     -17.949 -72.941  -6.384  1.00  0.00     0.000 C 
BRANCH  10  11
ATOM     11  C   UNL     1     -17.367 -74.155  -5.641  1.00  0.00    -0.000 C 
BRANCH  11  12
ATOM     12  C   UNL     1     -17.615 -75.476  -6.383  1.00  0.00    -0.000 C 
BRANCH  12  13
ATOM     13  C   UNL     1     -16.294 -76.216  -6.643  1.00  0.00    -0.000 C 
BRANCH  13  14
ATOM     14  C   UNL     1     -15.942 -76.274  -8.145  1.00  0.00    -0.000 C 
BRANCH  14  15
ATOM     15  C   UNL     1     -14.754 -77.197  -8.464  1.00  0.00    -0.003 C 
ATOM     16  C   UNL     1     -13.491 -76.841  -7.681  1.00  0.00     0.004 C 
ENDBRANCH  14  15
ENDBRANCH  13  14
ENDBRANCH  12  13
ENDBRANCH  11  12
ENDBRANCH  10  11
ENDBRANCH   1  10
TORSDOF 12
ENDMDL
MODEL 8
REMARK VINA RESULT:    -3.387      3.463      6.222
REMARK INTER + INTRA:          -7.042
REMARK INTER:                  -5.669
REMARK INTRA:                  -1.373
REMARK UNBOUND:                -1.280
REMARK SMILES CCCCCCCCCCCCCC(=O)[O-]
REMARK SMILES IDX 8 1 9 2 10 3 11 4 12 5 13 6 14 7 15 8 16 9 7 10 6 11 5 12
REMARK SMILES IDX 4 13 3 14 2 15 1 16
REMARK H PARENT
REMARK Flexibility Score: inf
ROOT
ATOM      1  C   UNL     1     -14.001 -77.688  -8.306  1.00  0.00     0.000 C 
ENDROOT
BRANCH   1   2
ATOM      2  C   UNL     1     -14.713 -77.160  -7.049  1.00  0.00     0.000 C 
BRANCH   2   3
ATOM      3  C   UNL     1     -16.158 -76.719  -7.331  1.00  0.00     0.000 C 
BRANCH   3   4
ATOM      4  C   UNL     1     -16.649 -75.618  -6.373  1.00  0.00     0.000 C 
BRANCH   4   5
ATOM      5  C   UNL     1     -17.669 -74.635  -6.976  1.00  0.00     0.006 C 
BRANCH   5   6
ATOM      6  C   UNL     1     -17.922 -73.412  -6.084  1.00  0.00     0.053 C 
BRANCH   6   7
ATOM      7  C   UNL     1     -17.621 -72.151  -6.830  1.00  0.00     0.041 C 
ATOM      8  O   UNL     1     -17.946 -71.035  -6.344  1.00  0.00    -0.550 OA
ATOM      9  O   UNL     1     -17.026 -72.209  -8.083  1.00  0.00    -0.550 OA
ENDBRANCH   6   7
ENDBRANCH   5   6
ENDBRANCH   4   5
ENDBRANCH   3   4
ENDBRANCH   2   3
ENDBRANCH   1   2
BRANCH   1  10
ATOM     10  C   UNL     1     -13.447 -76.559  -9.193  1.00  0.00     0.000 C 
BRANCH  10  11
ATOM     11  C   UNL     1     -14.278 -76.350 -10.469  1.00  0.00    -0.000 C 
BRANCH  11  12
ATOM     12  C   UNL     1     -14.871 -74.936 -10.563  1.00  0.00    -0.000 C 
BRANCH  12  13
ATOM     13  C   UNL     1     -14.499 -74.101  -9.329  1.00  0.00    -0.000 C 
BRANCH  13  14
ATOM     14  C   UNL     1     -13.649 -72.866  -9.693  1.00  0.00    -0.000 C 
BRANCH  14  15
ATOM     15  C   UNL     1     -12.175 -72.986  -9.268  1.00  0.00    -0.003 C 
ATOM     16  C   UNL     1     -11.244 -73.340 -10.426  1.00  0.00     0.004 C 
ENDBRANCH  14  15
ENDBRANCH  13  14
ENDBRANCH  12  13
ENDBRANCH  11  12
ENDBRANCH  10  11
ENDBRANCH   1  10
TORSDOF 12
ENDMDL
MODEL 9
REMARK VINA RESULT:    -3.383     12.837     14.523
REMARK INTER + INTRA:          -7.035
REMARK INTER:                  -5.542
REMARK INTRA:                  -1.493
REMARK UNBOUND:                -1.280
REMARK SMILES CCCCCCCCCCCCCC(=O)[O-]
REMARK SMILES IDX 8 1 9 2 10 3 11 4 12 5 13 6 14 7 15 8 16 9 7 10 6 11 5 12
REMARK SMILES IDX 4 13 3 14 2 15 1 16
REMARK H PARENT
REMARK Flexibility Score: inf
ROOT
ATOM      1  C   UNL     1      -7.512 -64.263  -1.972  1.00  0.00     0.000 C 
ENDROOT
BRANCH   1   2
ATOM      2  C   UNL     1      -6.335 -63.277  -2.046  1.00  0.00     0.000 C 
BRANCH   2   3
ATOM      3  C   UNL     1      -5.050 -63.931  -2.578  1.00  0.00     0.000 C 
BRANCH   3   4
ATOM      4  C   UNL     1      -4.931 -65.418  -2.197  1.00  0.00     0.000 C 
BRANCH   4   5
ATOM      5  C   UNL     1      -4.615 -66.369  -3.366  1.00  0.00     0.006 C 
BRANCH   5   6
ATOM      6  C   UNL     1      -4.336 -65.629  -4.682  1.00  0.00     0.053 C 
BRANCH   6   7
ATOM      7  C   UNL     1      -3.574 -66.507  -5.623  1.00  0.00     0.041 C 
ATOM      8  O   UNL     1      -2.694 -67.293  -5.183  1.00  0.00    -0.550 OA
ATOM      9  O   UNL     1      -3.800 -66.422  -6.991  1.00  0.00    -0.550 OA
ENDBRANCH   6   7
ENDBRANCH   5   6
ENDBRANCH   4   5
ENDBRANCH   3   4
ENDBRANCH   2   3
ENDBRANCH   1   2
BRANCH   1  10
ATOM     10  C   UNL     1      -8.412 -64.023  -0.746  1.00  0.00     0.000 C 
BRANCH  10  11
ATOM     11  C   UNL     1      -8.813 -65.331  -0.044  1.00  0.00    -0.000 C 
BRANCH  11  12
ATOM     12  C   UNL     1      -9.044 -65.146   1.463  1.00  0.00    -0.000 C 
BRANCH  12  13
ATOM     13  C   UNL     1      -7.893 -64.354   2.102  1.00  0.00    -0.000 C 
BRANCH  13  14
ATOM     14  C   UNL     1      -6.678 -65.248   2.427  1.00  0.00    -0.000 C 
BRANCH  14  15
ATOM     15  C   UNL     1      -5.480 -65.023   1.489  1.00  0.00    -0.003 C 
ATOM     16  C   UNL     1      -5.026 -63.566   1.433  1.00  0.00     0.004 C 
ENDBRANCH  14  15
ENDBRANCH  13  14
ENDBRANCH  12  13
ENDBRANCH  11  12
ENDBRANCH  10  11
ENDBRANCH   1  10
TORSDOF 12
ENDMDL
