MODEL 1
REMARK VINA RESULT:     4.197      0.000      0.000
REMARK INTER + INTRA:           4.749
REMARK INTER:                   4.810
REMARK INTRA:                  -0.062
REMARK UNBOUND:                -0.062
REMARK SMILES C=C(C)[C@H]1CC[C@]2(C(=O)[O-])CC[C@@]3(C)[C@@H](CC[C@H]4[C@]5(C)CC[C@H](O)C(C)(C)[C@H]5CC[C@@]43C)[C@H]12
REMARK SMILES IDX 7 1 6 2 33 3 11 4 5 5 15 6 4 7 12 8 16 9 13 10 17 11 31 12
REMARK SMILES IDX 14 13 18 14 30 15 32 16 19 17 29 18 21 19 20 20 28 21 22 22
REMARK SMILES IDX 25 23 23 24 26 25 27 26 8 27 9 28 10 29 2 30 3 31 1 32 24 33
REMARK H PARENT 24 34
REMARK Flexibility Score: inf
ROOT
ATOM      1  C   UNL     1      50.659  22.908  -1.552  1.00  0.00     0.014 C 
ATOM      2  C   UNL     1      52.120  23.334  -1.300  1.00  0.00     0.014 C 
ATOM      3  C   UNL     1      49.920  23.364  -0.255  1.00  0.00     0.012 C 
ATOM      4  C   UNL     1      50.104  23.632  -2.834  1.00  0.00     0.014 C 
ATOM      5  C   UNL     1      52.081  24.593  -0.453  1.00  0.00     0.009 C 
ATOM      6  C   UNL     1      48.371  23.657  -0.362  1.00  0.00     0.000 C 
ATOM      7  C   UNL     1      50.709  24.614   0.232  1.00  0.00     0.018 C 
ATOM      8  C   UNL     1      48.635  24.118  -2.787  1.00  0.00     0.008 C 
ATOM      9  C   UNL     1      47.564  23.022   0.791  1.00  0.00     0.005 C 
ATOM     10  C   UNL     1      47.716  23.388  -1.760  1.00  0.00    -0.024 C 
ATOM     11  C   UNL     1      46.118  23.540   0.808  1.00  0.00     0.005 C 
ATOM     12  C   UNL     1      46.201  23.979  -1.760  1.00  0.00    -0.024 C 
ATOM     13  C   UNL     1      47.718  21.846  -2.092  1.00  0.00     0.012 C 
ATOM     14  C   UNL     1      45.406  23.305  -0.558  1.00  0.00     0.002 C 
ATOM     15  C   UNL     1      45.476  23.664  -3.115  1.00  0.00     0.008 C 
ATOM     16  C   UNL     1      46.198  25.543  -1.623  1.00  0.00     0.012 C 
ATOM     17  C   UNL     1      43.824  23.493  -0.527  1.00  0.00    -0.026 C 
ATOM     18  C   UNL     1      43.959  23.908  -3.089  1.00  0.00     0.005 C 
ATOM     19  C   UNL     1      43.229  22.479   0.529  1.00  0.00     0.010 C 
ATOM     20  C   UNL     1      43.420  24.940  -0.095  1.00  0.00     0.012 C 
ATOM     21  C   UNL     1      43.261  23.119  -1.953  1.00  0.00     0.003 C 
ATOM     22  C   UNL     1      41.881  21.834   0.160  1.00  0.00     0.033 C 
ATOM     23  C   UNL     1      41.674  23.069  -2.087  1.00  0.00    -0.006 C 
ATOM     24  C   UNL     1      41.006  22.753  -0.705  1.00  0.00     0.120 C 
ATOM     25  C   UNL     1      41.308  21.964  -3.119  1.00  0.00     0.014 C 
ATOM     26  C   UNL     1      41.068  24.396  -2.616  1.00  0.00     0.014 C 
ENDROOT
BRANCH   1  27
ATOM     27  C   UNL     1      50.691  21.390  -1.724  1.00  0.00     0.048 C 
ATOM     28  O   UNL     1      50.282  20.853  -2.787  1.00  0.00    -0.550 OA
ATOM     29  O   UNL     1      51.290  20.579  -0.762  1.00  0.00    -0.550 OA
ENDBRANCH   1  27
BRANCH   7  30
ATOM     30  C   UNL     1      50.794  24.686   1.752  1.00  0.00    -0.077 C 
ATOM     31  C   UNL     1      49.621  25.193   2.550  1.00  0.00     0.039 C 
ATOM     32  C   UNL     1      51.893  24.278   2.410  1.00  0.00     0.008 C 
ENDBRANCH   7  30
BRANCH  24  33
ATOM     33  O   UNL     1      39.704  22.230  -0.851  1.00  0.00    -0.393 OA
ATOM     34  H   UNL     1      39.099  22.961  -1.142  1.00  0.00     0.210 HD
ENDBRANCH  24  33
TORSDOF 3
ENDMDL
