MODEL 1
REMARK VINA RESULT:    -2.065      0.000      0.000
REMARK INTER + INTRA:          -2.065
REMARK INTER:                  -2.065
REMARK INTRA:                   0.000
REMARK UNBOUND:                 0.000
REMARK SMILES CC(=O)[O-]
REMARK SMILES IDX 1 1 2 2 3 3 4 4
REMARK H PARENT
REMARK Flexibility Score: inf
ROOT
ATOM      1  C   UNL     1     103.768  88.879  87.977  1.00  0.00     0.063 C 
ATOM      2  C   UNL     1     102.946  89.522  89.043  1.00  0.00     0.038 C 
ATOM      3  O   UNL     1     102.633  88.875  90.076  1.00  0.00    -0.550 OA
ATOM      4  O   UNL     1     102.479  90.820  88.875  1.00  0.00    -0.550 OA
ENDROOT
TORSDOF 0
ENDMDL
MODEL 2
REMARK VINA RESULT:    -1.844     15.670     16.258
REMARK INTER + INTRA:          -1.844
REMARK INTER:                  -1.844
REMARK INTRA:                   0.000
REMARK UNBOUND:                 0.000
REMARK SMILES CC(=O)[O-]
REMARK SMILES IDX 1 1 2 2 3 3 4 4
REMARK H PARENT
REMARK Flexibility Score: inf
ROOT
ATOM      1  C   UNL     1      92.226  99.276  93.183  1.00  0.00     0.063 C 
ATOM      2  C   UNL     1      90.822  99.575  92.777  1.00  0.00     0.038 C 
ATOM      3  O   UNL     1      90.374 100.748  92.870  1.00  0.00    -0.550 OA
ATOM      4  O   UNL     1      89.988  98.552  92.345  1.00  0.00    -0.550 OA
ENDROOT
TORSDOF 0
ENDMDL
MODEL 3
REMARK VINA RESULT:    -1.840     16.032     16.221
REMARK INTER + INTRA:          -1.840
REMARK INTER:                  -1.840
REMARK INTRA:                   0.000
REMARK UNBOUND:                 0.000
REMARK SMILES CC(=O)[O-]
REMARK SMILES IDX 1 1 2 2 3 3 4 4
REMARK H PARENT
REMARK Flexibility Score: inf
ROOT
ATOM      1  C   UNL     1      90.356  98.286  90.628  1.00  0.00     0.063 C 
ATOM      2  C   UNL     1      89.786  98.489  91.991  1.00  0.00     0.038 C 
ATOM      3  O   UNL     1      88.876  97.729  92.414  1.00  0.00    -0.550 OA
ATOM      4  O   UNL     1      90.219  99.549  92.777  1.00  0.00    -0.550 OA
ENDROOT
TORSDOF 0
ENDMDL
MODEL 4
REMARK VINA RESULT:    -1.838     10.165     10.712
REMARK INTER + INTRA:          -1.838
REMARK INTER:                  -1.838
REMARK INTRA:                   0.000
REMARK UNBOUND:                 0.000
REMARK SMILES CC(=O)[O-]
REMARK SMILES IDX 1 1 2 2 3 3 4 4
REMARK H PARENT
REMARK Flexibility Score: inf
ROOT
ATOM      1  C   UNL     1     105.723  98.671  93.152  1.00  0.00     0.063 C 
ATOM      2  C   UNL     1     107.132  98.387  92.754  1.00  0.00     0.038 C 
ATOM      3  O   UNL     1     107.872  99.320  92.345  1.00  0.00    -0.550 OA
ATOM      4  O   UNL     1     107.616  97.086  92.782  1.00  0.00    -0.550 OA
ENDROOT
TORSDOF 0
ENDMDL
MODEL 5
REMARK VINA RESULT:    -1.838     10.196     10.637
REMARK INTER + INTRA:          -1.838
REMARK INTER:                  -1.838
REMARK INTRA:                   0.000
REMARK UNBOUND:                 0.000
REMARK SMILES CC(=O)[O-]
REMARK SMILES IDX 1 1 2 2 3 3 4 4
REMARK H PARENT
REMARK Flexibility Score: inf
ROOT
ATOM      1  C   UNL     1     105.826  98.648  93.106  1.00  0.00     0.063 C 
ATOM      2  C   UNL     1     107.232  98.326  92.727  1.00  0.00     0.038 C 
ATOM      3  O   UNL     1     107.651  97.142  92.805  1.00  0.00    -0.550 OA
ATOM      4  O   UNL     1     108.099  99.340  92.339  1.00  0.00    -0.550 OA
ENDROOT
TORSDOF 0
ENDMDL
MODEL 6
REMARK VINA RESULT:    -1.822     10.445     10.751
REMARK INTER + INTRA:          -1.822
REMARK INTER:                  -1.822
REMARK INTRA:                   0.000
REMARK UNBOUND:                 0.000
REMARK SMILES CC(=O)[O-]
REMARK SMILES IDX 1 1 2 2 3 3 4 4
REMARK H PARENT
REMARK Flexibility Score: inf
ROOT
ATOM      1  C   UNL     1     108.349  99.413  92.076  1.00  0.00     0.063 C 
ATOM      2  C   UNL     1     107.705  98.259  92.769  1.00  0.00     0.038 C 
ATOM      3  O   UNL     1     108.288  97.144  92.812  1.00  0.00    -0.550 OA
ATOM      4  O   UNL     1     106.439  98.396  93.322  1.00  0.00    -0.550 OA
ENDROOT
TORSDOF 0
ENDMDL
MODEL 7
REMARK VINA RESULT:    -1.816     11.095     11.451
REMARK INTER + INTRA:          -1.816
REMARK INTER:                  -1.816
REMARK INTRA:                   0.000
REMARK UNBOUND:                 0.000
REMARK SMILES CC(=O)[O-]
REMARK SMILES IDX 1 1 2 2 3 3 4 4
REMARK H PARENT
REMARK Flexibility Score: inf
ROOT
ATOM      1  C   UNL     1     107.671  98.776  90.969  1.00  0.00     0.063 C 
ATOM      2  C   UNL     1     108.386  99.009  92.257  1.00  0.00     0.038 C 
ATOM      3  O   UNL     1     108.314  98.159  93.182  1.00  0.00    -0.550 OA
ATOM      4  O   UNL     1     109.088 100.190  92.461  1.00  0.00    -0.550 OA
ENDROOT
TORSDOF 0
ENDMDL
MODEL 8
REMARK VINA RESULT:    -1.797     16.649     17.152
REMARK INTER + INTRA:          -1.797
REMARK INTER:                  -1.797
REMARK INTRA:                   0.000
REMARK UNBOUND:                 0.000
REMARK SMILES CC(=O)[O-]
REMARK SMILES IDX 1 1 2 2 3 3 4 4
REMARK H PARENT
REMARK Flexibility Score: inf
ROOT
ATOM      1  C   UNL     1      89.840  98.654  91.854  1.00  0.00     0.063 C 
ATOM      2  C   UNL     1      89.811  99.928  92.629  1.00  0.00     0.038 C 
ATOM      3  O   UNL     1      88.876 100.152  93.442  1.00  0.00    -0.550 OA
ATOM      4  O   UNL     1      90.786 100.895  92.418  1.00  0.00    -0.550 OA
ENDROOT
TORSDOF 0
ENDMDL
MODEL 9
REMARK VINA RESULT:    -1.784     16.637     16.896
REMARK INTER + INTRA:          -1.784
REMARK INTER:                  -1.784
REMARK INTRA:                   0.000
REMARK UNBOUND:                 0.000
REMARK SMILES CC(=O)[O-]
REMARK SMILES IDX 1 1 2 2 3 3 4 4
REMARK H PARENT
REMARK Flexibility Score: inf
ROOT
ATOM      1  C   UNL     1      89.947 100.068  93.171  1.00  0.00     0.063 C 
ATOM      2  C   UNL     1      89.597  99.084  92.106  1.00  0.00     0.038 C 
ATOM      3  O   UNL     1      89.904  99.314  90.908  1.00  0.00    -0.550 OA
ATOM      4  O   UNL     1      88.884  97.935  92.426  1.00  0.00    -0.550 OA
ENDROOT
TORSDOF 0
ENDMDL
