MODEL 1
REMARK VINA RESULT:    -2.294      0.000      0.000
REMARK INTER + INTRA:          -3.631
REMARK INTER:                  -3.233
REMARK INTRA:                  -0.397
REMARK UNBOUND:                -0.397
REMARK SMILES CCCCCCCCC=O
REMARK SMILES IDX 5 1 4 2 3 3 2 4 1 5 6 6 7 7 8 8 9 9 10 10
REMARK H PARENT
REMARK Flexibility Score: inf
ROOT
ATOM      1  C   UNL     1     115.002 122.363 108.358  1.00  0.00     0.000 C 
ENDROOT
BRANCH   1   2
ATOM      2  C   UNL     1     116.524 122.220 108.480  1.00  0.00    -0.000 C 
BRANCH   2   3
ATOM      3  C   UNL     1     117.208 123.592 108.471  1.00  0.00    -0.000 C 
BRANCH   3   4
ATOM      4  C   UNL     1     116.318 124.645 107.800  1.00  0.00    -0.003 C 
ATOM      5  C   UNL     1     116.903 126.046 107.963  1.00  0.00     0.004 C 
ENDBRANCH   3   4
ENDBRANCH   2   3
ENDBRANCH   1   2
BRANCH   1   6
ATOM      6  C   UNL     1     114.282 121.500 109.400  1.00  0.00     0.000 C 
BRANCH   6   7
ATOM      7  C   UNL     1     112.870 122.030 109.675  1.00  0.00     0.008 C 
BRANCH   7   8
ATOM      8  C   UNL     1     112.599 123.312 108.881  1.00  0.00     0.072 C 
BRANCH   8   9
ATOM      9  C   UNL     1     111.609 124.185 109.592  1.00  0.00     0.224 C 
ATOM     10  O   UNL     1     110.553 123.722 109.994  1.00  0.00    -0.303 OA
ENDBRANCH   8   9
ENDBRANCH   7   8
ENDBRANCH   6   7
ENDBRANCH   1   6
TORSDOF 7
ENDMDL
MODEL 2
REMARK VINA RESULT:    -2.286     13.943     15.620
REMARK INTER + INTRA:          -3.619
REMARK INTER:                  -3.137
REMARK INTRA:                  -0.482
REMARK UNBOUND:                -0.397
REMARK SMILES CCCCCCCCC=O
REMARK SMILES IDX 5 1 4 2 3 3 2 4 1 5 6 6 7 7 8 8 9 9 10 10
REMARK H PARENT
REMARK Flexibility Score: inf
ROOT
ATOM      1  C   UNL     1     115.030 109.562 107.107  1.00  0.00     0.000 C 
ENDROOT
BRANCH   1   2
ATOM      2  C   UNL     1     114.420 108.165 106.936  1.00  0.00    -0.000 C 
BRANCH   2   3
ATOM      3  C   UNL     1     114.471 107.378 108.251  1.00  0.00    -0.000 C 
BRANCH   3   4
ATOM      4  C   UNL     1     115.105 105.997 108.040  1.00  0.00    -0.003 C 
ATOM      5  C   UNL     1     116.593 106.117 107.722  1.00  0.00     0.004 C 
ENDBRANCH   3   4
ENDBRANCH   2   3
ENDBRANCH   1   2
BRANCH   1   6
ATOM      6  C   UNL     1     115.693 109.709 108.481  1.00  0.00     0.000 C 
BRANCH   6   7
ATOM      7  C   UNL     1     117.139 110.202 108.346  1.00  0.00     0.008 C 
BRANCH   7   8
ATOM      8  C   UNL     1     117.803 110.341 109.719  1.00  0.00     0.072 C 
BRANCH   8   9
ATOM      9  C   UNL     1     119.229 109.881 109.675  1.00  0.00     0.224 C 
ATOM     10  O   UNL     1     119.661 109.297 108.693  1.00  0.00    -0.303 OA
ENDBRANCH   8   9
ENDBRANCH   7   8
ENDBRANCH   6   7
ENDBRANCH   1   6
TORSDOF 7
ENDMDL
MODEL 3
REMARK VINA RESULT:    -2.269      2.470      4.907
REMARK INTER + INTRA:          -3.595
REMARK INTER:                  -3.196
REMARK INTRA:                  -0.399
REMARK UNBOUND:                -0.397
REMARK SMILES CCCCCCCCC=O
REMARK SMILES IDX 5 1 4 2 3 3 2 4 1 5 6 6 7 7 8 8 9 9 10 10
REMARK H PARENT
REMARK Flexibility Score: inf
ROOT
ATOM      1  C   UNL     1     112.786 122.103 109.614  1.00  0.00     0.000 C 
ENDROOT
BRANCH   1   2
ATOM      2  C   UNL     1     112.542 122.720 108.231  1.00  0.00    -0.000 C 
BRANCH   2   3
ATOM      3  C   UNL     1     111.563 123.896 108.319  1.00  0.00    -0.000 C 
BRANCH   3   4
ATOM      4  C   UNL     1     111.314 124.297 109.778  1.00  0.00    -0.003 C 
ATOM      5  C   UNL     1     109.820 124.401 110.073  1.00  0.00     0.004 C 
ENDBRANCH   3   4
ENDBRANCH   2   3
ENDBRANCH   1   2
BRANCH   1   6
ATOM      6  C   UNL     1     114.230 121.604 109.747  1.00  0.00     0.000 C 
BRANCH   6   7
ATOM      7  C   UNL     1     114.943 121.611 108.390  1.00  0.00     0.008 C 
BRANCH   7   8
ATOM      8  C   UNL     1     116.387 122.104 108.529  1.00  0.00     0.072 C 
BRANCH   8   9
ATOM      9  C   UNL     1     116.507 123.538 108.109  1.00  0.00     0.224 C 
ATOM     10  O   UNL     1     117.494 124.191 108.411  1.00  0.00    -0.303 OA
ENDBRANCH   8   9
ENDBRANCH   7   8
ENDBRANCH   6   7
ENDBRANCH   1   6
TORSDOF 7
ENDMDL
MODEL 4
REMARK VINA RESULT:    -2.256      8.888     10.538
REMARK INTER + INTRA:          -3.576
REMARK INTER:                  -3.114
REMARK INTRA:                  -0.462
REMARK UNBOUND:                -0.397
REMARK SMILES CCCCCCCCC=O
REMARK SMILES IDX 5 1 4 2 3 3 2 4 1 5 6 6 7 7 8 8 9 9 10 10
REMARK H PARENT
REMARK Flexibility Score: inf
ROOT
ATOM      1  C   UNL     1     109.764 116.938 108.217  1.00  0.00     0.000 C 
ENDROOT
BRANCH   1   2
ATOM      2  C   UNL     1     109.313 117.329 106.804  1.00  0.00    -0.000 C 
BRANCH   2   3
ATOM      3  C   UNL     1     107.845 117.772 106.798  1.00  0.00    -0.000 C 
BRANCH   3   4
ATOM      4  C   UNL     1     107.208 117.584 108.180  1.00  0.00    -0.003 C 
ATOM      5  C   UNL     1     105.892 116.818 108.080  1.00  0.00     0.004 C 
ENDBRANCH   3   4
ENDBRANCH   2   3
ENDBRANCH   1   2
BRANCH   1   6
ATOM      6  C   UNL     1     110.373 115.531 108.231  1.00  0.00     0.000 C 
BRANCH   6   7
ATOM      7  C   UNL     1     109.312 114.467 107.929  1.00  0.00     0.008 C 
BRANCH   7   8
ATOM      8  C   UNL     1     109.834 113.063 108.249  1.00  0.00     0.072 C 
BRANCH   8   9
ATOM      9  C   UNL     1     109.496 112.673 109.657  1.00  0.00     0.224 C 
ATOM     10  O   UNL     1     108.377 112.271 109.936  1.00  0.00    -0.303 OA
ENDBRANCH   8   9
ENDBRANCH   7   8
ENDBRANCH   6   7
ENDBRANCH   1   6
TORSDOF 7
ENDMDL
MODEL 5
REMARK VINA RESULT:    -2.240      9.001     11.134
REMARK INTER + INTRA:          -3.554
REMARK INTER:                  -3.191
REMARK INTRA:                  -0.363
REMARK UNBOUND:                -0.397
REMARK SMILES CCCCCCCCC=O
REMARK SMILES IDX 5 1 4 2 3 3 2 4 1 5 6 6 7 7 8 8 9 9 10 10
REMARK H PARENT
REMARK Flexibility Score: inf
ROOT
ATOM      1  C   UNL     1     110.421 114.247 109.691  1.00  0.00     0.000 C 
ENDROOT
BRANCH   1   2
ATOM      2  C   UNL     1     110.049 112.773 109.480  1.00  0.00    -0.000 C 
BRANCH   2   3
ATOM      3  C   UNL     1     109.336 112.572 108.138  1.00  0.00    -0.000 C 
BRANCH   3   4
ATOM      4  C   UNL     1     108.143 111.620 108.287  1.00  0.00    -0.003 C 
ATOM      5  C   UNL     1     108.105 110.997 109.680  1.00  0.00     0.004 C 
ENDBRANCH   3   4
ENDBRANCH   2   3
ENDBRANCH   1   2
BRANCH   1   6
ATOM      6  C   UNL     1     110.203 115.058 108.408  1.00  0.00     0.000 C 
BRANCH   6   7
ATOM      7  C   UNL     1     109.561 116.415 108.717  1.00  0.00     0.008 C 
BRANCH   7   8
ATOM      8  C   UNL     1     108.576 116.822 107.616  1.00  0.00     0.072 C 
BRANCH   8   9
ATOM      9  C   UNL     1     107.404 117.559 108.189  1.00  0.00     0.224 C 
ATOM     10  O   UNL     1     106.305 117.030 108.240  1.00  0.00    -0.303 OA
ENDBRANCH   8   9
ENDBRANCH   7   8
ENDBRANCH   6   7
ENDBRANCH   1   6
TORSDOF 7
ENDMDL
MODEL 6
REMARK VINA RESULT:    -2.239     10.346     12.642
REMARK INTER + INTRA:          -3.553
REMARK INTER:                  -3.136
REMARK INTRA:                  -0.417
REMARK UNBOUND:                -0.397
REMARK SMILES CCCCCCCCC=O
REMARK SMILES IDX 5 1 4 2 3 3 2 4 1 5 6 6 7 7 8 8 9 9 10 10
REMARK H PARENT
REMARK Flexibility Score: inf
ROOT
ATOM      1  C   UNL     1     109.222 112.406 108.323  1.00  0.00     0.000 C 
ENDROOT
BRANCH   1   2
ATOM      2  C   UNL     1     107.792 111.916 108.581  1.00  0.00    -0.000 C 
BRANCH   2   3
ATOM      3  C   UNL     1     107.644 111.376 110.008  1.00  0.00    -0.000 C 
BRANCH   3   4
ATOM      4  C   UNL     1     107.513 109.848 110.007  1.00  0.00    -0.003 C 
ATOM      5  C   UNL     1     106.879 109.350 108.711  1.00  0.00     0.004 C 
ENDBRANCH   3   4
ENDBRANCH   2   3
ENDBRANCH   1   2
BRANCH   1   6
ATOM      6  C   UNL     1     109.964 112.658 109.640  1.00  0.00     0.000 C 
BRANCH   6   7
ATOM      7  C   UNL     1     110.352 114.135 109.781  1.00  0.00     0.008 C 
BRANCH   7   8
ATOM      8  C   UNL     1     110.386 114.827 108.414  1.00  0.00     0.072 C 
BRANCH   8   9
ATOM      9  C   UNL     1     109.584 116.093 108.433  1.00  0.00     0.224 C 
ATOM     10  O   UNL     1     110.142 117.179 108.438  1.00  0.00    -0.303 OA
ENDBRANCH   8   9
ENDBRANCH   7   8
ENDBRANCH   6   7
ENDBRANCH   1   6
TORSDOF 7
ENDMDL
MODEL 7
REMARK VINA RESULT:    -2.234     11.036     12.729
REMARK INTER + INTRA:          -3.546
REMARK INTER:                  -2.933
REMARK INTRA:                  -0.613
REMARK UNBOUND:                -0.397
REMARK SMILES CCCCCCCCC=O
REMARK SMILES IDX 5 1 4 2 3 3 2 4 1 5 6 6 7 7 8 8 9 9 10 10
REMARK H PARENT
REMARK Flexibility Score: inf
ROOT
ATOM      1  C   UNL     1     109.002 112.234 107.442  1.00  0.00     0.000 C 
ENDROOT
BRANCH   1   2
ATOM      2  C   UNL     1     110.164 113.235 107.459  1.00  0.00    -0.000 C 
BRANCH   2   3
ATOM      3  C   UNL     1     109.897 114.370 108.454  1.00  0.00    -0.000 C 
BRANCH   3   4
ATOM      4  C   UNL     1     110.531 114.066 109.817  1.00  0.00    -0.003 C 
ATOM      5  C   UNL     1     111.768 113.185 109.666  1.00  0.00     0.004 C 
ENDBRANCH   3   4
ENDBRANCH   2   3
ENDBRANCH   1   2
BRANCH   1   6
ATOM      6  C   UNL     1     107.720 112.868 107.994  1.00  0.00     0.000 C 
BRANCH   6   7
ATOM      7  C   UNL     1     107.147 112.037 109.149  1.00  0.00     0.008 C 
BRANCH   7   8
ATOM      8  C   UNL     1     108.189 111.050 109.686  1.00  0.00     0.072 C 
BRANCH   8   9
ATOM      9  C   UNL     1     107.565 109.721 109.986  1.00  0.00     0.224 C 
ATOM     10  O   UNL     1     106.982 109.100 109.112  1.00  0.00    -0.303 OA
ENDBRANCH   8   9
ENDBRANCH   7   8
ENDBRANCH   6   7
ENDBRANCH   1   6
TORSDOF 7
ENDMDL
MODEL 8
REMARK VINA RESULT:    -2.228     14.290     15.885
REMARK INTER + INTRA:          -3.538
REMARK INTER:                  -3.186
REMARK INTRA:                  -0.352
REMARK UNBOUND:                -0.397
REMARK SMILES CCCCCCCCC=O
REMARK SMILES IDX 5 1 4 2 3 3 2 4 1 5 6 6 7 7 8 8 9 9 10 10
REMARK H PARENT
REMARK Flexibility Score: inf
ROOT
ATOM      1  C   UNL     1     117.832 110.495 109.134  1.00  0.00     0.000 C 
ENDROOT
BRANCH   1   2
ATOM      2  C   UNL     1     117.556 109.882 107.755  1.00  0.00    -0.000 C 
BRANCH   2   3
ATOM      3  C   UNL     1     116.070 109.983 107.394  1.00  0.00    -0.000 C 
BRANCH   3   4
ATOM      4  C   UNL     1     115.189 109.492 108.550  1.00  0.00    -0.003 C 
ATOM      5  C   UNL     1     114.745 108.049 108.330  1.00  0.00     0.004 C 
ENDBRANCH   3   4
ENDBRANCH   2   3
ENDBRANCH   1   2
BRANCH   1   6
ATOM      6  C   UNL     1     119.167 109.999 109.700  1.00  0.00     0.000 C 
BRANCH   6   7
ATOM      7  C   UNL     1     119.695 108.803 108.899  1.00  0.00     0.008 C 
BRANCH   7   8
ATOM      8  C   UNL     1     120.245 107.718 109.830  1.00  0.00     0.072 C 
BRANCH   8   9
ATOM      9  C   UNL     1     121.725 107.870 110.017  1.00  0.00     0.224 C 
ATOM     10  O   UNL     1     122.400 106.928 110.400  1.00  0.00    -0.303 OA
ENDBRANCH   8   9
ENDBRANCH   7   8
ENDBRANCH   6   7
ENDBRANCH   1   6
TORSDOF 7
ENDMDL
MODEL 9
REMARK VINA RESULT:    -2.210      9.465     11.263
REMARK INTER + INTRA:          -3.512
REMARK INTER:                  -2.992
REMARK INTRA:                  -0.521
REMARK UNBOUND:                -0.397
REMARK SMILES CCCCCCCCC=O
REMARK SMILES IDX 5 1 4 2 3 3 2 4 1 5 6 6 7 7 8 8 9 9 10 10
REMARK H PARENT
REMARK Flexibility Score: inf
ROOT
ATOM      1  C   UNL     1     122.353 114.956 108.237  1.00  0.00     0.000 C 
ENDROOT
BRANCH   1   2
ATOM      2  C   UNL     1     122.779 114.458 106.850  1.00  0.00    -0.000 C 
BRANCH   2   3
ATOM      3  C   UNL     1     124.304 114.340 106.753  1.00  0.00    -0.000 C 
BRANCH   3   4
ATOM      4  C   UNL     1     124.955 114.469 108.135  1.00  0.00    -0.003 C 
ATOM      5  C   UNL     1     126.125 115.449 108.104  1.00  0.00     0.004 C 
ENDBRANCH   3   4
ENDBRANCH   2   3
ENDBRANCH   1   2
BRANCH   1   6
ATOM      6  C   UNL     1     121.578 116.275 108.134  1.00  0.00     0.000 C 
BRANCH   6   7
ATOM      7  C   UNL     1     122.532 117.476 108.145  1.00  0.00     0.008 C 
BRANCH   7   8
ATOM      8  C   UNL     1     122.206 118.427 109.301  1.00  0.00     0.072 C 
BRANCH   8   9
ATOM      9  C   UNL     1     120.751 118.358 109.658  1.00  0.00     0.224 C 
ATOM     10  O   UNL     1     120.133 119.375 109.933  1.00  0.00    -0.303 OA
ENDBRANCH   8   9
ENDBRANCH   7   8
ENDBRANCH   6   7
ENDBRANCH   1   6
TORSDOF 7
ENDMDL
