MODEL 1
REMARK VINA RESULT:    -5.027      0.000      0.000
REMARK INTER + INTRA:          -6.223
REMARK INTER:                  -6.203
REMARK INTRA:                  -0.020
REMARK UNBOUND:                -0.020
REMARK SMILES O=c1c(O)c(-c2cc(O)c(O)c(O)c2)oc2cc(O)cc(O)c12
REMARK SMILES IDX 5 1 3 2 2 3 1 4 23 5 21 6 20 7 18 8 17 9 16 10 15 11 6 12
REMARK SMILES IDX 7 13 8 14 14 15 10 16 12 17 9 18 11 20 13 22 4 24 22 26
REMARK SMILES IDX 19 28
REMARK H PARENT 9 19 11 21 13 23 4 25 22 27 19 29
REMARK Flexibility Score: inf
ROOT
ATOM      1  C   UNL     1     175.542 161.485 168.266  1.00  0.00     0.180 A 
ATOM      2  C   UNL     1     176.791 161.895 167.767  1.00  0.00     0.208 A 
ATOM      3  C   UNL     1     176.982 161.955 166.378  1.00  0.00     0.238 A 
ATOM      4  O   UNL     1     178.125 162.250 165.939  1.00  0.00    -0.285 OA
ATOM      5  C   UNL     1     175.908 161.657 165.504  1.00  0.00     0.111 A 
ATOM      6  C   UNL     1     175.976 161.728 164.079  1.00  0.00     0.134 A 
ATOM      7  C   UNL     1     174.880 161.308 163.314  1.00  0.00     0.093 A 
ATOM      8  C   UNL     1     173.698 160.881 163.922  1.00  0.00     0.123 A 
ATOM      9  C   UNL     1     173.603 160.861 165.311  1.00  0.00     0.094 A 
ATOM     10  C   UNL     1     174.691 161.237 166.102  1.00  0.00     0.146 A 
ATOM     11  O   UNL     1     174.564 161.181 167.422  1.00  0.00    -0.452 OA
ENDROOT
BRANCH   1  12
ATOM     12  C   UNL     1     175.268 161.384 169.718  1.00  0.00     0.029 A 
ATOM     13  C   UNL     1     174.699 160.227 170.277  1.00  0.00     0.062 A 
ATOM     14  C   UNL     1     174.425 160.160 171.650  1.00  0.00     0.162 A 
ATOM     15  C   UNL     1     175.527 162.486 170.547  1.00  0.00     0.062 A 
ATOM     16  C   UNL     1     174.709 161.260 172.476  1.00  0.00     0.200 A 
ATOM     17  C   UNL     1     175.258 162.427 171.918  1.00  0.00     0.162 A 
BRANCH  14  18
ATOM     18  O   UNL     1     173.866 159.004 172.195  1.00  0.00    -0.504 OA
ATOM     19  H   UNL     1     173.033 158.582 171.801  1.00  0.00     0.293 HD
ENDBRANCH  14  18
BRANCH  16  20
ATOM     20  O   UNL     1     174.448 161.209 173.846  1.00  0.00    -0.502 OA
ATOM     21  H   UNL     1     174.395 160.333 174.352  1.00  0.00     0.293 HD
ENDBRANCH  16  20
BRANCH  17  22
ATOM     22  O   UNL     1     175.544 163.539 172.710  1.00  0.00    -0.504 OA
ATOM     23  H   UNL     1     175.133 164.447 172.533  1.00  0.00     0.293 HD
ENDBRANCH  17  22
ENDBRANCH   1  12
BRANCH   2  24
ATOM     24  O   UNL     1     177.814 162.258 168.647  1.00  0.00    -0.502 OA
ATOM     25  H   UNL     1     178.668 161.720 168.738  1.00  0.00     0.293 HD
ENDBRANCH   2  24
BRANCH   6  26
ATOM     26  O   UNL     1     177.076 162.222 163.372  1.00  0.00    -0.507 OA
ATOM     27  H   UNL     1     178.006 161.832 163.401  1.00  0.00     0.293 HD
ENDBRANCH   6  26
BRANCH   8  28
ATOM     28  O   UNL     1     172.608 160.482 163.152  1.00  0.00    -0.508 OA
ATOM     29  H   UNL     1     172.058 159.667 163.395  1.00  0.00     0.293 HD
ENDBRANCH   8  28
TORSDOF 7
ENDMDL
MODEL 2
REMARK VINA RESULT:    -5.021      1.265      7.426
REMARK INTER + INTRA:          -6.215
REMARK INTER:                  -6.206
REMARK INTRA:                  -0.009
REMARK UNBOUND:                -0.020
REMARK SMILES O=c1c(O)c(-c2cc(O)c(O)c(O)c2)oc2cc(O)cc(O)c12
REMARK SMILES IDX 5 1 3 2 2 3 1 4 23 5 21 6 20 7 18 8 17 9 16 10 15 11 6 12
REMARK SMILES IDX 7 13 8 14 14 15 10 16 12 17 9 18 11 20 13 22 4 24 22 26
REMARK SMILES IDX 19 28
REMARK H PARENT 9 19 11 21 13 23 4 25 22 27 19 29
REMARK Flexibility Score: inf
ROOT
ATOM      1  C   UNL     1     174.500 160.455 167.738  1.00  0.00     0.180 A 
ATOM      2  C   UNL     1     174.089 159.207 168.239  1.00  0.00     0.208 A 
ATOM      3  C   UNL     1     174.032 159.017 169.629  1.00  0.00     0.238 A 
ATOM      4  O   UNL     1     173.736 157.875 170.070  1.00  0.00    -0.285 OA
ATOM      5  C   UNL     1     174.334 160.091 170.501  1.00  0.00     0.111 A 
ATOM      6  C   UNL     1     174.267 160.024 171.926  1.00  0.00     0.134 A 
ATOM      7  C   UNL     1     174.690 161.120 172.689  1.00  0.00     0.093 A 
ATOM      8  C   UNL     1     175.117 162.302 172.079  1.00  0.00     0.123 A 
ATOM      9  C   UNL     1     175.134 162.396 170.690  1.00  0.00     0.094 A 
ATOM     10  C   UNL     1     174.755 161.307 169.901  1.00  0.00     0.146 A 
ATOM     11  O   UNL     1     174.808 161.433 168.580  1.00  0.00    -0.452 OA
ENDROOT
BRANCH   1  12
ATOM     12  C   UNL     1     174.597 160.727 166.286  1.00  0.00     0.029 A 
ATOM     13  C   UNL     1     175.747 161.309 165.726  1.00  0.00     0.062 A 
ATOM     14  C   UNL     1     175.811 161.582 164.352  1.00  0.00     0.162 A 
ATOM     15  C   UNL     1     173.499 160.453 165.458  1.00  0.00     0.062 A 
ATOM     16  C   UNL     1     174.714 161.282 163.527  1.00  0.00     0.200 A 
ATOM     17  C   UNL     1     173.554 160.720 164.086  1.00  0.00     0.162 A 
BRANCH  14  18
ATOM     18  O   UNL     1     176.959 162.154 163.806  1.00  0.00    -0.504 OA
ATOM     19  H   UNL     1     177.294 161.896 162.885  1.00  0.00     0.293 HD
ENDBRANCH  14  18
BRANCH  16  20
ATOM     20  O   UNL     1     174.762 161.542 162.156  1.00  0.00    -0.502 OA
ATOM     21  H   UNL     1     173.943 161.469 161.564  1.00  0.00     0.293 HD
ENDBRANCH  16  20
BRANCH  17  22
ATOM     22  O   UNL     1     172.446 160.419 163.294  1.00  0.00    -0.504 OA
ATOM     23  H   UNL     1     172.065 161.078 162.628  1.00  0.00     0.293 HD
ENDBRANCH  17  22
ENDBRANCH   1  12
BRANCH   2  24
ATOM     24  O   UNL     1     173.722 158.183 167.362  1.00  0.00    -0.502 OA
ATOM     25  H   UNL     1     172.859 158.204 166.832  1.00  0.00     0.293 HD
ENDBRANCH   2  24
BRANCH   6  26
ATOM     26  O   UNL     1     173.772 158.926 172.636  1.00  0.00    -0.507 OA
ATOM     27  H   UNL     1     173.000 158.956 173.284  1.00  0.00     0.293 HD
ENDBRANCH   6  26
BRANCH   8  28
ATOM     28  O   UNL     1     175.520 163.392 172.847  1.00  0.00    -0.508 OA
ATOM     29  H   UNL     1     176.120 164.114 172.467  1.00  0.00     0.293 HD
ENDBRANCH   8  28
TORSDOF 7
ENDMDL
MODEL 3
REMARK VINA RESULT:    -5.011     18.883     20.790
REMARK INTER + INTRA:          -6.202
REMARK INTER:                  -6.182
REMARK INTRA:                  -0.020
REMARK UNBOUND:                -0.020
REMARK SMILES O=c1c(O)c(-c2cc(O)c(O)c(O)c2)oc2cc(O)cc(O)c12
REMARK SMILES IDX 5 1 3 2 2 3 1 4 23 5 21 6 20 7 18 8 17 9 16 10 15 11 6 12
REMARK SMILES IDX 7 13 8 14 14 15 10 16 12 17 9 18 11 20 13 22 4 24 22 26
REMARK SMILES IDX 19 28
REMARK H PARENT 9 19 11 21 13 23 4 25 22 27 19 29
REMARK Flexibility Score: inf
ROOT
ATOM      1  C   UNL     1     161.478 175.543 167.731  1.00  0.00     0.180 A 
ATOM      2  C   UNL     1     161.888 176.791 168.231  1.00  0.00     0.208 A 
ATOM      3  C   UNL     1     161.945 176.983 169.620  1.00  0.00     0.238 A 
ATOM      4  O   UNL     1     162.241 178.125 170.060  1.00  0.00    -0.285 OA
ATOM      5  C   UNL     1     161.643 175.909 170.493  1.00  0.00     0.111 A 
ATOM      6  C   UNL     1     161.711 175.978 171.919  1.00  0.00     0.134 A 
ATOM      7  C   UNL     1     161.287 174.883 172.683  1.00  0.00     0.093 A 
ATOM      8  C   UNL     1     160.860 173.700 172.074  1.00  0.00     0.123 A 
ATOM      9  C   UNL     1     160.843 173.605 170.685  1.00  0.00     0.094 A 
ATOM     10  C   UNL     1     161.223 174.693 169.894  1.00  0.00     0.146 A 
ATOM     11  O   UNL     1     161.170 174.566 168.574  1.00  0.00    -0.452 OA
ENDROOT
BRANCH   1  12
ATOM     12  C   UNL     1     161.380 175.269 166.279  1.00  0.00     0.029 A 
ATOM     13  C   UNL     1     160.225 174.700 165.717  1.00  0.00     0.062 A 
ATOM     14  C   UNL     1     160.160 174.426 164.344  1.00  0.00     0.162 A 
ATOM     15  C   UNL     1     162.484 175.528 165.453  1.00  0.00     0.062 A 
ATOM     16  C   UNL     1     161.263 174.710 163.521  1.00  0.00     0.200 A 
ATOM     17  C   UNL     1     162.428 175.259 164.081  1.00  0.00     0.162 A 
BRANCH  14  18
ATOM     18  O   UNL     1     159.006 173.867 163.796  1.00  0.00    -0.504 OA
ATOM     19  H   UNL     1     158.809 173.923 162.804  1.00  0.00     0.293 HD
ENDBRANCH  14  18
BRANCH  16  20
ATOM     20  O   UNL     1     161.214 174.449 162.150  1.00  0.00    -0.502 OA
ATOM     21  H   UNL     1     161.933 173.914 161.678  1.00  0.00     0.293 HD
ENDBRANCH  16  20
BRANCH  17  22
ATOM     22  O   UNL     1     163.542 175.544 163.292  1.00  0.00    -0.504 OA
ATOM     23  H   UNL     1     163.459 175.816 162.321  1.00  0.00     0.293 HD
ENDBRANCH  17  22
ENDBRANCH   1  12
BRANCH   2  24
ATOM     24  O   UNL     1     162.255 177.814 167.352  1.00  0.00    -0.502 OA
ATOM     25  H   UNL     1     162.595 178.712 167.675  1.00  0.00     0.293 HD
ENDBRANCH   2  24
BRANCH   6  26
ATOM     26  O   UNL     1     162.205 177.077 172.627  1.00  0.00    -0.507 OA
ATOM     27  H   UNL     1     162.780 177.807 172.235  1.00  0.00     0.293 HD
ENDBRANCH   6  26
BRANCH   8  28
ATOM     28  O   UNL     1     160.457 172.611 172.842  1.00  0.00    -0.508 OA
ATOM     29  H   UNL     1     159.924 171.848 172.442  1.00  0.00     0.293 HD
ENDBRANCH   8  28
TORSDOF 7
ENDMDL
MODEL 4
REMARK VINA RESULT:    -5.008     18.867     19.899
REMARK INTER + INTRA:          -6.199
REMARK INTER:                  -6.164
REMARK INTRA:                  -0.036
REMARK UNBOUND:                -0.020
REMARK SMILES O=c1c(O)c(-c2cc(O)c(O)c(O)c2)oc2cc(O)cc(O)c12
REMARK SMILES IDX 5 1 3 2 2 3 1 4 23 5 21 6 20 7 18 8 17 9 16 10 15 11 6 12
REMARK SMILES IDX 7 13 8 14 14 15 10 16 12 17 9 18 11 20 13 22 4 24 22 26
REMARK SMILES IDX 19 28
REMARK H PARENT 9 19 11 21 13 23 4 25 22 27 19 29
REMARK Flexibility Score: inf
ROOT
ATOM      1  C   UNL     1     160.472 174.524 168.270  1.00  0.00     0.180 A 
ATOM      2  C   UNL     1     159.216 174.131 167.773  1.00  0.00     0.208 A 
ATOM      3  C   UNL     1     159.023 174.068 166.384  1.00  0.00     0.238 A 
ATOM      4  O   UNL     1     157.875 173.788 165.948  1.00  0.00    -0.285 OA
ATOM      5  C   UNL     1     160.100 174.345 165.508  1.00  0.00     0.111 A 
ATOM      6  C   UNL     1     160.030 174.268 164.084  1.00  0.00     0.134 A 
ATOM      7  C   UNL     1     161.131 174.667 163.316  1.00  0.00     0.093 A 
ATOM      8  C   UNL     1     162.321 175.079 163.921  1.00  0.00     0.123 A 
ATOM      9  C   UNL     1     162.417 175.104 165.310  1.00  0.00     0.094 A 
ATOM     10  C   UNL     1     161.324 174.749 166.104  1.00  0.00     0.146 A 
ATOM     11  O   UNL     1     161.453 174.809 167.424  1.00  0.00    -0.452 OA
ENDROOT
BRANCH   1  12
ATOM     12  C   UNL     1     160.748 174.628 169.720  1.00  0.00     0.029 A 
ATOM     13  C   UNL     1     161.316 175.786 170.277  1.00  0.00     0.062 A 
ATOM     14  C   UNL     1     161.593 175.856 171.649  1.00  0.00     0.162 A 
ATOM     15  C   UNL     1     160.493 173.527 170.551  1.00  0.00     0.062 A 
ATOM     16  C   UNL     1     161.312 174.756 172.477  1.00  0.00     0.200 A 
ATOM     17  C   UNL     1     160.764 173.587 171.922  1.00  0.00     0.162 A 
BRANCH  14  18
ATOM     18  O   UNL     1     162.151 177.013 172.191  1.00  0.00    -0.504 OA
ATOM     19  H   UNL     1     161.797 177.420 173.049  1.00  0.00     0.293 HD
ENDBRANCH  14  18
BRANCH  16  20
ATOM     20  O   UNL     1     161.576 174.810 173.847  1.00  0.00    -0.502 OA
ATOM     21  H   UNL     1     162.128 175.551 174.261  1.00  0.00     0.293 HD
ENDBRANCH  16  20
BRANCH  17  22
ATOM     22  O   UNL     1     160.482 172.476 172.716  1.00  0.00    -0.504 OA
ATOM     23  H   UNL     1     160.440 171.539 172.336  1.00  0.00     0.293 HD
ENDBRANCH  17  22
ENDBRANCH   1  12
BRANCH   2  24
ATOM     24  O   UNL     1     158.188 173.788 168.655  1.00  0.00    -0.502 OA
ATOM     25  H   UNL     1     157.226 173.687 168.355  1.00  0.00     0.293 HD
ENDBRANCH   2  24
BRANCH   6  26
ATOM     26  O   UNL     1     158.922 173.788 163.380  1.00  0.00    -0.507 OA
ATOM     27  H   UNL     1     157.994 174.182 163.422  1.00  0.00     0.293 HD
ENDBRANCH   6  26
BRANCH   8  28
ATOM     28  O   UNL     1     163.416 175.457 163.149  1.00  0.00    -0.508 OA
ATOM     29  H   UNL     1     163.453 175.273 162.153  1.00  0.00     0.293 HD
ENDBRANCH   8  28
TORSDOF 7
ENDMDL
MODEL 5
REMARK VINA RESULT:    -4.996     13.146     14.095
REMARK INTER + INTRA:          -6.183
REMARK INTER:                  -6.153
REMARK INTRA:                  -0.030
REMARK UNBOUND:                -0.020
REMARK SMILES O=c1c(O)c(-c2cc(O)c(O)c(O)c2)oc2cc(O)cc(O)c12
REMARK SMILES IDX 5 1 3 2 2 3 1 4 23 5 21 6 20 7 18 8 17 9 16 10 15 11 6 12
REMARK SMILES IDX 7 13 8 14 14 15 10 16 12 17 9 18 11 20 13 22 4 24 22 26
REMARK SMILES IDX 19 28
REMARK H PARENT 9 19 11 21 13 23 4 25 22 27 19 29
REMARK Flexibility Score: inf
ROOT
ATOM      1  C   UNL     1     161.465 160.482 168.259  1.00  0.00     0.180 A 
ATOM      2  C   UNL     1     161.864 159.226 167.769  1.00  0.00     0.208 A 
ATOM      3  C   UNL     1     161.918 159.024 166.381  1.00  0.00     0.238 A 
ATOM      4  O   UNL     1     162.203 157.875 165.950  1.00  0.00    -0.285 OA
ATOM      5  C   UNL     1     161.625 160.093 165.499  1.00  0.00     0.111 A 
ATOM      6  C   UNL     1     161.691 160.012 164.074  1.00  0.00     0.134 A 
ATOM      7  C   UNL     1     161.277 161.105 163.302  1.00  0.00     0.093 A 
ATOM      8  C   UNL     1     160.861 162.296 163.902  1.00  0.00     0.123 A 
ATOM      9  C   UNL     1     160.846 162.402 165.290  1.00  0.00     0.094 A 
ATOM     10  C   UNL     1     161.216 161.317 166.089  1.00  0.00     0.146 A 
ATOM     11  O   UNL     1     161.165 161.456 167.408  1.00  0.00    -0.452 OA
ENDROOT
BRANCH   1  12
ATOM     12  C   UNL     1     161.370 160.768 169.708  1.00  0.00     0.029 A 
ATOM     13  C   UNL     1     160.215 161.339 170.269  1.00  0.00     0.062 A 
ATOM     14  C   UNL     1     160.154 161.625 171.639  1.00  0.00     0.162 A 
ATOM     15  C   UNL     1     162.477 160.520 170.534  1.00  0.00     0.062 A 
ATOM     16  C   UNL     1     161.260 161.351 172.462  1.00  0.00     0.200 A 
ATOM     17  C   UNL     1     162.425 160.800 171.903  1.00  0.00     0.162 A 
BRANCH  14  18
ATOM     18  O   UNL     1     159.000 162.186 172.186  1.00  0.00    -0.504 OA
ATOM     19  H   UNL     1     158.392 161.656 172.800  1.00  0.00     0.293 HD
ENDBRANCH  14  18
BRANCH  16  20
ATOM     20  O   UNL     1     161.214 161.624 173.831  1.00  0.00    -0.502 OA
ATOM     21  H   UNL     1     161.801 161.137 174.497  1.00  0.00     0.293 HD
ENDBRANCH  16  20
BRANCH  17  22
ATOM     22  O   UNL     1     163.541 160.524 172.692  1.00  0.00    -0.504 OA
ATOM     23  H   UNL     1     163.813 161.115 173.467  1.00  0.00     0.293 HD
ENDBRANCH  17  22
ENDBRANCH   1  12
BRANCH   2  24
ATOM     24  O   UNL     1     162.221 158.207 168.655  1.00  0.00    -0.502 OA
ATOM     25  H   UNL     1     162.116 158.298 169.658  1.00  0.00     0.293 HD
ENDBRANCH   2  24
BRANCH   6  26
ATOM     26  O   UNL     1     162.175 158.903 163.375  1.00  0.00    -0.507 OA
ATOM     27  H   UNL     1     162.994 158.903 162.786  1.00  0.00     0.293 HD
ENDBRANCH   6  26
BRANCH   8  28
ATOM     28  O   UNL     1     160.468 163.383 163.125  1.00  0.00    -0.508 OA
ATOM     29  H   UNL     1     159.615 163.893 163.321  1.00  0.00     0.293 HD
ENDBRANCH   8  28
TORSDOF 7
ENDMDL
MODEL 6
REMARK VINA RESULT:    -4.995     12.362     14.866
REMARK INTER + INTRA:          -6.183
REMARK INTER:                  -6.142
REMARK INTRA:                  -0.041
REMARK UNBOUND:                -0.020
REMARK SMILES O=c1c(O)c(-c2cc(O)c(O)c(O)c2)oc2cc(O)cc(O)c12
REMARK SMILES IDX 5 1 3 2 2 3 1 4 23 5 21 6 20 7 18 8 17 9 16 10 15 11 6 12
REMARK SMILES IDX 7 13 8 14 14 15 10 16 12 17 9 18 11 20 13 22 4 24 22 26
REMARK SMILES IDX 19 28
REMARK H PARENT 9 19 11 21 13 23 4 25 22 27 19 29
REMARK Flexibility Score: inf
ROOT
ATOM      1  C   UNL     1     175.556 174.521 167.793  1.00  0.00     0.180 A 
ATOM      2  C   UNL     1     176.807 174.136 168.307  1.00  0.00     0.208 A 
ATOM      3  C   UNL     1     176.982 174.076 169.699  1.00  0.00     0.238 A 
ATOM      4  O   UNL     1     178.125 173.804 170.152  1.00  0.00    -0.285 OA
ATOM      5  C   UNL     1     175.891 174.349 170.560  1.00  0.00     0.111 A 
ATOM      6  C   UNL     1     175.943 174.276 171.985  1.00  0.00     0.134 A 
ATOM      7  C   UNL     1     174.829 174.670 172.738  1.00  0.00     0.093 A 
ATOM      8  C   UNL     1     173.645 175.074 172.116  1.00  0.00     0.123 A 
ATOM      9  C   UNL     1     173.567 175.096 170.725  1.00  0.00     0.094 A 
ATOM     10  C   UNL     1     174.673 174.745 169.947  1.00  0.00     0.146 A 
ATOM     11  O   UNL     1     174.561 174.802 168.626  1.00  0.00    -0.452 OA
ENDROOT
BRANCH   1  12
ATOM     12  C   UNL     1     175.299 174.620 166.339  1.00  0.00     0.029 A 
ATOM     13  C   UNL     1     174.740 175.778 165.771  1.00  0.00     0.062 A 
ATOM     14  C   UNL     1     174.481 175.843 164.396  1.00  0.00     0.162 A 
ATOM     15  C   UNL     1     175.563 173.516 165.515  1.00  0.00     0.062 A 
ATOM     16  C   UNL     1     174.770 174.741 163.575  1.00  0.00     0.200 A 
ATOM     17  C   UNL     1     175.309 173.573 164.141  1.00  0.00     0.162 A 
BRANCH  14  18
ATOM     18  O   UNL     1     173.932 177.000 163.842  1.00  0.00    -0.504 OA
ATOM     19  H   UNL     1     173.884 177.867 164.365  1.00  0.00     0.293 HD
ENDBRANCH  14  18
BRANCH  16  20
ATOM     20  O   UNL     1     174.524 174.790 162.201  1.00  0.00    -0.502 OA
ATOM     21  H   UNL     1     173.804 175.382 161.804  1.00  0.00     0.293 HD
ENDBRANCH  16  20
BRANCH  17  22
ATOM     22  O   UNL     1     175.599 172.459 163.354  1.00  0.00    -0.504 OA
ATOM     23  H   UNL     1     176.548 172.201 163.113  1.00  0.00     0.293 HD
ENDBRANCH  17  22
ENDBRANCH   1  12
BRANCH   2  24
ATOM     24  O   UNL     1     177.849 173.797 167.440  1.00  0.00    -0.502 OA
ATOM     25  H   UNL     1     178.068 174.343 166.616  1.00  0.00     0.293 HD
ENDBRANCH   2  24
BRANCH   6  26
ATOM     26  O   UNL     1     177.044 173.803 172.705  1.00  0.00    -0.507 OA
ATOM     27  H   UNL     1     177.278 174.073 173.648  1.00  0.00     0.293 HD
ENDBRANCH   6  26
BRANCH   8  28
ATOM     28  O   UNL     1     172.537 175.448 172.872  1.00  0.00    -0.508 OA
ATOM     29  H   UNL     1     172.383 176.411 173.146  1.00  0.00     0.293 HD
ENDBRANCH   8  28
TORSDOF 7
ENDMDL
MODEL 7
REMARK VINA RESULT:    -4.968     13.258     16.286
REMARK INTER + INTRA:          -6.149
REMARK INTER:                  -6.083
REMARK INTRA:                  -0.066
REMARK UNBOUND:                -0.020
REMARK SMILES O=c1c(O)c(-c2cc(O)c(O)c(O)c2)oc2cc(O)cc(O)c12
REMARK SMILES IDX 5 1 3 2 2 3 1 4 23 5 21 6 20 7 18 8 17 9 16 10 15 11 6 12
REMARK SMILES IDX 7 13 8 14 14 15 10 16 12 17 9 18 11 20 13 22 4 24 22 26
REMARK SMILES IDX 19 28
REMARK H PARENT 9 19 11 21 13 23 4 25 22 27 19 29
REMARK Flexibility Score: inf
ROOT
ATOM      1  C   UNL     1     160.486 161.441 167.611  1.00  0.00     0.180 A 
ATOM      2  C   UNL     1     159.229 161.838 168.100  1.00  0.00     0.208 A 
ATOM      3  C   UNL     1     159.025 161.894 169.487  1.00  0.00     0.238 A 
ATOM      4  O   UNL     1     157.875 162.178 169.916  1.00  0.00    -0.285 OA
ATOM      5  C   UNL     1     160.094 161.606 170.370  1.00  0.00     0.111 A 
ATOM      6  C   UNL     1     160.012 161.675 171.795  1.00  0.00     0.134 A 
ATOM      7  C   UNL     1     161.105 161.265 172.569  1.00  0.00     0.093 A 
ATOM      8  C   UNL     1     162.297 160.850 171.972  1.00  0.00     0.123 A 
ATOM      9  C   UNL     1     162.405 160.832 170.583  1.00  0.00     0.094 A 
ATOM     10  C   UNL     1     161.320 161.198 169.783  1.00  0.00     0.146 A 
ATOM     11  O   UNL     1     161.460 161.145 168.463  1.00  0.00    -0.452 OA
ENDROOT
BRANCH   1  12
ATOM     12  C   UNL     1     160.774 161.344 166.162  1.00  0.00     0.029 A 
ATOM     13  C   UNL     1     161.295 160.169 165.596  1.00  0.00     0.062 A 
ATOM     14  C   UNL     1     161.584 160.105 164.226  1.00  0.00     0.162 A 
ATOM     15  C   UNL     1     160.579 162.467 165.344  1.00  0.00     0.062 A 
ATOM     16  C   UNL     1     161.363 161.228 163.410  1.00  0.00     0.200 A 
ATOM     17  C   UNL     1     160.863 162.413 163.976  1.00  0.00     0.162 A 
BRANCH  14  18
ATOM     18  O   UNL     1     162.094 158.931 163.673  1.00  0.00    -0.504 OA
ATOM     19  H   UNL     1     163.071 158.681 163.768  1.00  0.00     0.293 HD
ENDBRANCH  14  18
BRANCH  16  20
ATOM     20  O   UNL     1     161.639 161.180 162.042  1.00  0.00    -0.502 OA
ATOM     21  H   UNL     1     161.425 160.368 161.477  1.00  0.00     0.293 HD
ENDBRANCH  16  20
BRANCH  17  22
ATOM     22  O   UNL     1     160.641 163.546 163.195  1.00  0.00    -0.504 OA
ATOM     23  H   UNL     1     161.333 163.897 162.545  1.00  0.00     0.293 HD
ENDBRANCH  17  22
ENDBRANCH   1  12
BRANCH   2  24
ATOM     24  O   UNL     1     158.210 162.192 167.211  1.00  0.00    -0.502 OA
ATOM     25  H   UNL     1     157.726 163.080 167.265  1.00  0.00     0.293 HD
ENDBRANCH   2  24
BRANCH   6  26
ATOM     26  O   UNL     1     158.901 162.157 172.493  1.00  0.00    -0.507 OA
ATOM     27  H   UNL     1     158.893 162.989 173.063  1.00  0.00     0.293 HD
ENDBRANCH   6  26
BRANCH   8  28
ATOM     28  O   UNL     1     163.384 160.461 172.750  1.00  0.00    -0.508 OA
ATOM     29  H   UNL     1     163.259 160.055 173.670  1.00  0.00     0.293 HD
ENDBRANCH   8  28
TORSDOF 7
ENDMDL
MODEL 8
REMARK VINA RESULT:    -4.953     13.075     14.029
REMARK INTER + INTRA:          -6.131
REMARK INTER:                  -6.065
REMARK INTRA:                  -0.066
REMARK UNBOUND:                -0.020
REMARK SMILES O=c1c(O)c(-c2cc(O)c(O)c(O)c2)oc2cc(O)cc(O)c12
REMARK SMILES IDX 5 1 3 2 2 3 1 4 23 5 21 6 20 7 18 8 17 9 16 10 15 11 6 12
REMARK SMILES IDX 7 13 8 14 14 15 10 16 12 17 9 18 11 20 13 22 4 24 22 26
REMARK SMILES IDX 19 28
REMARK H PARENT 9 19 11 21 13 23 4 25 22 27 19 29
REMARK Flexibility Score: inf
ROOT
ATOM      1  C   UNL     1     174.572 175.499 168.408  1.00  0.00     0.180 A 
ATOM      2  C   UNL     1     174.204 176.765 167.919  1.00  0.00     0.208 A 
ATOM      3  C   UNL     1     174.151 176.969 166.531  1.00  0.00     0.238 A 
ATOM      4  O   UNL     1     173.893 178.124 166.101  1.00  0.00    -0.285 OA
ATOM      5  C   UNL     1     174.413 175.893 165.648  1.00  0.00     0.111 A 
ATOM      6  C   UNL     1     174.345 175.975 164.224  1.00  0.00     0.134 A 
ATOM      7  C   UNL     1     174.728 174.873 163.450  1.00  0.00     0.093 A 
ATOM      8  C   UNL     1     175.116 173.671 164.048  1.00  0.00     0.123 A 
ATOM      9  C   UNL     1     175.133 173.564 165.437  1.00  0.00     0.094 A 
ATOM     10  C   UNL     1     174.793 174.658 166.237  1.00  0.00     0.146 A 
ATOM     11  O   UNL     1     174.845 174.518 167.556  1.00  0.00    -0.452 OA
ENDROOT
BRANCH   1  12
ATOM     12  C   UNL     1     174.664 175.210 169.857  1.00  0.00     0.029 A 
ATOM     13  C   UNL     1     175.828 174.662 170.422  1.00  0.00     0.062 A 
ATOM     14  C   UNL     1     175.887 174.373 171.792  1.00  0.00     0.162 A 
ATOM     15  C   UNL     1     173.547 175.432 170.676  1.00  0.00     0.062 A 
ATOM     16  C   UNL     1     174.771 174.621 172.609  1.00  0.00     0.200 A 
ATOM     17  C   UNL     1     173.597 175.149 172.045  1.00  0.00     0.162 A 
BRANCH  14  18
ATOM     18  O   UNL     1     177.049 173.836 172.344  1.00  0.00    -0.504 OA
ATOM     19  H   UNL     1     177.669 173.244 171.803  1.00  0.00     0.293 HD
ENDBRANCH  14  18
BRANCH  16  20
ATOM     20  O   UNL     1     174.814 174.345 173.977  1.00  0.00    -0.502 OA
ATOM     21  H   UNL     1     175.489 174.779 174.594  1.00  0.00     0.293 HD
ENDBRANCH  16  20
BRANCH  17  22
ATOM     22  O   UNL     1     172.470 175.398 172.827  1.00  0.00    -0.504 OA
ATOM     23  H   UNL     1     171.632 174.834 172.760  1.00  0.00     0.293 HD
ENDBRANCH  17  22
ENDBRANCH   1  12
BRANCH   2  24
ATOM     24  O   UNL     1     173.875 177.792 168.807  1.00  0.00    -0.502 OA
ATOM     25  H   UNL     1     173.570 178.705 168.492  1.00  0.00     0.293 HD
ENDBRANCH   2  24
BRANCH   6  26
ATOM     26  O   UNL     1     173.887 177.096 163.526  1.00  0.00    -0.507 OA
ATOM     27  H   UNL     1     173.186 177.740 163.860  1.00  0.00     0.293 HD
ENDBRANCH   6  26
BRANCH   8  28
ATOM     28  O   UNL     1     175.479 172.575 163.270  1.00  0.00    -0.508 OA
ATOM     29  H   UNL     1     176.114 171.866 163.616  1.00  0.00     0.293 HD
ENDBRANCH   8  28
TORSDOF 7
ENDMDL
MODEL 9
REMARK VINA RESULT:    -4.677      1.269      7.044
REMARK INTER + INTRA:          -5.791
REMARK INTER:                  -5.572
REMARK INTRA:                  -0.219
REMARK UNBOUND:                -0.020
REMARK SMILES O=c1c(O)c(-c2cc(O)c(O)c(O)c2)oc2cc(O)cc(O)c12
REMARK SMILES IDX 5 1 3 2 2 3 1 4 23 5 21 6 20 7 18 8 17 9 16 10 15 11 6 12
REMARK SMILES IDX 7 13 8 14 14 15 10 16 12 17 9 18 11 20 13 22 4 24 22 26
REMARK SMILES IDX 19 28
REMARK H PARENT 9 19 11 21 13 23 4 25 22 27 19 29
REMARK Flexibility Score: inf
ROOT
ATOM      1  C   UNL     1     174.823 161.818 167.781  1.00  0.00     0.180 A 
ATOM      2  C   UNL     1     175.150 163.026 168.424  1.00  0.00     0.208 A 
ATOM      3  C   UNL     1     175.128 163.077 169.826  1.00  0.00     0.238 A 
ATOM      4  O   UNL     1     175.348 164.181 170.392  1.00  0.00    -0.285 OA
ATOM      5  C   UNL     1     174.834 161.910 170.571  1.00  0.00     0.111 A 
ATOM      6  C   UNL     1     174.827 161.836 171.998  1.00  0.00     0.134 A 
ATOM      7  C   UNL     1     174.418 160.652 172.626  1.00  0.00     0.093 A 
ATOM      8  C   UNL     1     174.078 159.521 171.881  1.00  0.00     0.123 A 
ATOM      9  C   UNL     1     174.134 159.566 170.490  1.00  0.00     0.094 A 
ATOM     10  C   UNL     1     174.501 160.744 169.833  1.00  0.00     0.146 A 
ATOM     11  O   UNL     1     174.520 160.749 168.505  1.00  0.00    -0.452 OA
ENDROOT
BRANCH   1  12
ATOM     12  C   UNL     1     174.811 161.689 166.306  1.00  0.00     0.029 A 
ATOM     13  C   UNL     1     175.991 161.792 165.552  1.00  0.00     0.062 A 
ATOM     14  C   UNL     1     175.956 161.691 164.154  1.00  0.00     0.162 A 
ATOM     15  C   UNL     1     173.588 161.520 165.639  1.00  0.00     0.062 A 
ATOM     16  C   UNL     1     174.729 161.498 163.497  1.00  0.00     0.200 A 
ATOM     17  C   UNL     1     173.542 161.417 164.245  1.00  0.00     0.162 A 
BRANCH  14  18
ATOM     18  O   UNL     1     177.135 161.788 163.416  1.00  0.00    -0.504 OA
ATOM     19  H   UNL     1     177.138 161.696 162.407  1.00  0.00     0.293 HD
ENDBRANCH  14  18
BRANCH  16  20
ATOM     20  O   UNL     1     174.675 161.391 162.106  1.00  0.00    -0.502 OA
ATOM     21  H   UNL     1     174.443 162.178 161.513  1.00  0.00     0.293 HD
ENDBRANCH  16  20
BRANCH  17  22
ATOM     22  O   UNL     1     172.309 161.234 163.622  1.00  0.00    -0.504 OA
ATOM     23  H   UNL     1     171.542 161.885 163.741  1.00  0.00     0.293 HD
ENDBRANCH  17  22
ENDBRANCH   1  12
BRANCH   2  24
ATOM     24  O   UNL     1     175.511 164.147 167.672  1.00  0.00    -0.502 OA
ATOM     25  H   UNL     1     176.345 164.170 167.098  1.00  0.00     0.293 HD
ENDBRANCH   2  24
BRANCH   6  26
ATOM     26  O   UNL     1     175.233 162.877 172.837  1.00  0.00    -0.507 OA
ATOM     27  H   UNL     1     175.075 163.858 172.661  1.00  0.00     0.293 HD
ENDBRANCH   6  26
BRANCH   8  28
ATOM     28  O   UNL     1     173.689 158.344 172.514  1.00  0.00    -0.508 OA
ATOM     29  H   UNL     1     173.685 158.261 173.524  1.00  0.00     0.293 HD
ENDBRANCH   8  28
TORSDOF 7
ENDMDL
