MODEL 1
REMARK VINA RESULT:    -3.923      0.000      0.000
REMARK INTER + INTRA:          -4.601
REMARK INTER:                  -4.496
REMARK INTRA:                  -0.105
REMARK UNBOUND:                -0.105
REMARK SMILES C=Cc1ccc(O)c(OC)c1
REMARK SMILES IDX 8 1 6 2 5 3 4 4 3 5 11 6 9 7 10 8 7 9 2 11 1 12
REMARK H PARENT 7 10
REMARK Flexibility Score: inf
ROOT
ATOM      1  C   UNL     1     166.345 166.163 166.041  1.00  0.00     0.161 A 
ATOM      2  C   UNL     1     166.444 166.032 167.437  1.00  0.00     0.157 A 
ATOM      3  C   UNL     1     165.522 165.246 168.133  1.00  0.00     0.051 A 
ATOM      4  C   UNL     1     164.495 164.593 167.453  1.00  0.00     0.012 A 
ATOM      5  C   UNL     1     164.364 164.721 166.062  1.00  0.00    -0.022 A 
ATOM      6  C   UNL     1     165.303 165.500 165.358  1.00  0.00     0.058 A 
ENDROOT
BRANCH   1   7
ATOM      7  O   UNL     1     167.293 166.951 165.367  1.00  0.00    -0.493 OA
ATOM      8  C   UNL     1     167.052 168.266 164.875  1.00  0.00     0.278 C 
ENDBRANCH   1   7
BRANCH   2   9
ATOM      9  O   UNL     1     167.457 166.673 168.151  1.00  0.00    -0.504 OA
ATOM     10  H   UNL     1     168.059 166.178 168.797  1.00  0.00     0.293 HD
ENDBRANCH   2   9
BRANCH   5  11
ATOM     11  C   UNL     1     163.257 163.999 165.386  1.00  0.00     0.000 C 
ATOM     12  C   UNL     1     161.963 164.226 165.617  1.00  0.00     0.009 C 
ENDBRANCH   5  11
TORSDOF 3
ENDMDL
MODEL 2
REMARK VINA RESULT:    -3.920      2.238      4.273
REMARK INTER + INTRA:          -4.599
REMARK INTER:                  -4.510
REMARK INTRA:                  -0.089
REMARK UNBOUND:                -0.105
REMARK SMILES C=Cc1ccc(O)c(OC)c1
REMARK SMILES IDX 8 1 6 2 5 3 4 4 3 5 11 6 9 7 10 8 7 9 2 11 1 12
REMARK H PARENT 7 10
REMARK Flexibility Score: inf
ROOT
ATOM      1  C   UNL     1     165.135 164.910 165.627  1.00  0.00     0.161 A 
ATOM      2  C   UNL     1     164.921 165.183 166.989  1.00  0.00     0.157 A 
ATOM      3  C   UNL     1     165.774 166.055 167.670  1.00  0.00     0.051 A 
ATOM      4  C   UNL     1     166.846 166.655 167.010  1.00  0.00     0.012 A 
ATOM      5  C   UNL     1     167.092 166.386 165.655  1.00  0.00    -0.022 A 
ATOM      6  C   UNL     1     166.222 165.519 164.963  1.00  0.00     0.058 A 
ENDROOT
BRANCH   1   7
ATOM      7  O   UNL     1     164.255 164.038 164.966  1.00  0.00    -0.493 OA
ATOM      8  C   UNL     1     164.427 162.627 164.876  1.00  0.00     0.278 C 
ENDBRANCH   1   7
BRANCH   2   9
ATOM      9  O   UNL     1     163.860 164.600 167.683  1.00  0.00    -0.504 OA
ATOM     10  H   UNL     1     163.354 165.092 168.409  1.00  0.00     0.293 HD
ENDBRANCH   2   9
BRANCH   5  11
ATOM     11  C   UNL     1     168.242 167.055 164.998  1.00  0.00     0.000 C 
ATOM     12  C   UNL     1     169.520 166.778 165.260  1.00  0.00     0.009 C 
ENDBRANCH   5  11
TORSDOF 3
ENDMDL
MODEL 3
REMARK VINA RESULT:    -3.593      2.086      4.464
REMARK INTER + INTRA:          -4.223
REMARK INTER:                  -4.153
REMARK INTRA:                  -0.070
REMARK UNBOUND:                -0.105
REMARK SMILES C=Cc1ccc(O)c(OC)c1
REMARK SMILES IDX 8 1 6 2 5 3 4 4 3 5 11 6 9 7 10 8 7 9 2 11 1 12
REMARK H PARENT 7 10
REMARK Flexibility Score: inf
ROOT
ATOM      1  C   UNL     1     165.691 165.734 167.618  1.00  0.00     0.161 A 
ATOM      2  C   UNL     1     164.831 165.200 166.643  1.00  0.00     0.157 A 
ATOM      3  C   UNL     1     165.146 165.327 165.287  1.00  0.00     0.051 A 
ATOM      4  C   UNL     1     166.308 165.987 164.890  1.00  0.00     0.012 A 
ATOM      5  C   UNL     1     167.175 166.543 165.843  1.00  0.00    -0.022 A 
ATOM      6  C   UNL     1     166.866 166.401 167.211  1.00  0.00     0.058 A 
ENDROOT
BRANCH   1   7
ATOM      7  O   UNL     1     165.354 165.582 168.973  1.00  0.00    -0.493 OA
ATOM      8  C   UNL     1     166.099 166.122 170.059  1.00  0.00     0.278 C 
ENDBRANCH   1   7
BRANCH   2   9
ATOM      9  O   UNL     1     163.659 164.535 167.002  1.00  0.00    -0.504 OA
ATOM     10  H   UNL     1     163.518 164.148 167.927  1.00  0.00     0.293 HD
ENDBRANCH   2   9
BRANCH   5  11
ATOM     11  C   UNL     1     168.402 167.229 165.368  1.00  0.00     0.000 C 
ATOM     12  C   UNL     1     169.640 166.876 165.714  1.00  0.00     0.009 C 
ENDBRANCH   5  11
TORSDOF 3
ENDMDL
MODEL 4
REMARK VINA RESULT:    -3.580      2.738      4.349
REMARK INTER + INTRA:          -4.209
REMARK INTER:                  -4.139
REMARK INTRA:                  -0.070
REMARK UNBOUND:                -0.105
REMARK SMILES C=Cc1ccc(O)c(OC)c1
REMARK SMILES IDX 8 1 6 2 5 3 4 4 3 5 11 6 9 7 10 8 7 9 2 11 1 12
REMARK H PARENT 7 10
REMARK Flexibility Score: inf
ROOT
ATOM      1  C   UNL     1     169.267 166.825 167.612  1.00  0.00     0.161 A 
ATOM      2  C   UNL     1     170.285 166.829 166.642  1.00  0.00     0.157 A 
ATOM      3  C   UNL     1     169.959 166.740 165.286  1.00  0.00     0.051 A 
ATOM      4  C   UNL     1     168.628 166.640 164.884  1.00  0.00     0.012 A 
ATOM      5  C   UNL     1     167.594 166.617 165.833  1.00  0.00    -0.022 A 
ATOM      6  C   UNL     1     167.921 166.723 167.199  1.00  0.00     0.058 A 
ENDROOT
BRANCH   1   7
ATOM      7  O   UNL     1     169.624 166.927 168.966  1.00  0.00    -0.493 OA
ATOM      8  C   UNL     1     168.702 166.898 170.052  1.00  0.00     0.278 C 
ENDBRANCH   1   7
BRANCH   2   9
ATOM      9  O   UNL     1     171.627 166.926 167.007  1.00  0.00    -0.504 OA
ATOM     10  H   UNL     1     172.371 166.983 166.322  1.00  0.00     0.293 HD
ENDBRANCH   2   9
BRANCH   5  11
ATOM     11  C   UNL     1     166.194 166.516 165.351  1.00  0.00     0.000 C 
ATOM     12  C   UNL     1     165.387 165.485 165.603  1.00  0.00     0.009 C 
ENDBRANCH   5  11
TORSDOF 3
ENDMDL
MODEL 5
REMARK VINA RESULT:    -3.553      1.044      2.841
REMARK INTER + INTRA:          -4.178
REMARK INTER:                  -4.106
REMARK INTRA:                  -0.072
REMARK UNBOUND:                -0.105
REMARK SMILES C=Cc1ccc(O)c(OC)c1
REMARK SMILES IDX 8 1 6 2 5 3 4 4 3 5 11 6 9 7 10 8 7 9 2 11 1 12
REMARK H PARENT 7 10
REMARK Flexibility Score: inf
ROOT
ATOM      1  C   UNL     1     165.595 165.325 167.697  1.00  0.00     0.161 A 
ATOM      2  C   UNL     1     166.457 166.072 166.874  1.00  0.00     0.157 A 
ATOM      3  C   UNL     1     166.215 166.154 165.500  1.00  0.00     0.051 A 
ATOM      4  C   UNL     1     165.125 165.493 164.933  1.00  0.00     0.012 A 
ATOM      5  C   UNL     1     164.261 164.727 165.730  1.00  0.00    -0.022 A 
ATOM      6  C   UNL     1     164.495 164.658 167.118  1.00  0.00     0.058 A 
ENDROOT
BRANCH   1   7
ATOM      7  O   UNL     1     165.857 165.270 169.075  1.00  0.00    -0.493 OA
ATOM      8  C   UNL     1     165.205 164.394 169.990  1.00  0.00     0.278 C 
ENDBRANCH   1   7
BRANCH   2   9
ATOM      9  O   UNL     1     167.557 166.744 167.405  1.00  0.00    -0.504 OA
ATOM     10  H   UNL     1     168.507 166.426 167.260  1.00  0.00     0.293 HD
ENDBRANCH   2   9
BRANCH   5  11
ATOM     11  C   UNL     1     163.113 164.050 165.078  1.00  0.00     0.000 C 
ATOM     12  C   UNL     1     161.841 164.424 165.222  1.00  0.00     0.009 C 
ENDBRANCH   5  11
TORSDOF 3
ENDMDL
MODEL 6
REMARK VINA RESULT:    -3.553      1.139      2.628
REMARK INTER + INTRA:          -4.178
REMARK INTER:                  -4.078
REMARK INTRA:                  -0.100
REMARK UNBOUND:                -0.105
REMARK SMILES C=Cc1ccc(O)c(OC)c1
REMARK SMILES IDX 8 1 6 2 5 3 4 4 3 5 11 6 9 7 10 8 7 9 2 11 1 12
REMARK H PARENT 7 10
REMARK Flexibility Score: inf
ROOT
ATOM      1  C   UNL     1     166.928 166.371 167.289  1.00  0.00     0.161 A 
ATOM      2  C   UNL     1     167.386 166.746 166.014  1.00  0.00     0.157 A 
ATOM      3  C   UNL     1     166.661 166.383 164.875  1.00  0.00     0.051 A 
ATOM      4  C   UNL     1     165.484 165.645 164.993  1.00  0.00     0.012 A 
ATOM      5  C   UNL     1     165.014 165.244 166.253  1.00  0.00    -0.022 A 
ATOM      6  C   UNL     1     165.737 165.623 167.402  1.00  0.00     0.058 A 
ENDROOT
BRANCH   1   7
ATOM      7  O   UNL     1     167.672 166.759 168.415  1.00  0.00    -0.493 OA
ATOM      8  C   UNL     1     167.118 167.031 169.699  1.00  0.00     0.278 C 
ENDBRANCH   1   7
BRANCH   2   9
ATOM      9  O   UNL     1     168.560 167.483 165.858  1.00  0.00    -0.504 OA
ATOM     10  H   UNL     1     169.060 167.877 166.645  1.00  0.00     0.293 HD
ENDBRANCH   2   9
BRANCH   5  11
ATOM     11  C   UNL     1     163.753 164.465 166.322  1.00  0.00     0.000 C 
ATOM     12  C   UNL     1     163.068 164.052 165.255  1.00  0.00     0.009 C 
ENDBRANCH   5  11
TORSDOF 3
ENDMDL
MODEL 7
REMARK VINA RESULT:    -3.437      1.823      3.486
REMARK INTER + INTRA:          -4.044
REMARK INTER:                  -3.972
REMARK INTRA:                  -0.072
REMARK UNBOUND:                -0.105
REMARK SMILES C=Cc1ccc(O)c(OC)c1
REMARK SMILES IDX 8 1 6 2 5 3 4 4 3 5 11 6 9 7 10 8 7 9 2 11 1 12
REMARK H PARENT 7 10
REMARK Flexibility Score: inf
ROOT
ATOM      1  C   UNL     1     166.102 166.047 166.123  1.00  0.00     0.161 A 
ATOM      2  C   UNL     1     165.284 164.904 166.072  1.00  0.00     0.157 A 
ATOM      3  C   UNL     1     164.659 164.440 167.233  1.00  0.00     0.051 A 
ATOM      4  C   UNL     1     164.844 165.099 168.448  1.00  0.00     0.012 A 
ATOM      5  C   UNL     1     165.669 166.232 168.528  1.00  0.00    -0.022 A 
ATOM      6  C   UNL     1     166.287 166.709 167.355  1.00  0.00     0.058 A 
ENDROOT
BRANCH   1   7
ATOM      7  O   UNL     1     166.709 166.496 164.939  1.00  0.00    -0.493 OA
ATOM      8  C   UNL     1     167.962 167.171 164.875  1.00  0.00     0.278 C 
ENDBRANCH   1   7
BRANCH   2   9
ATOM      9  O   UNL     1     165.078 164.218 164.876  1.00  0.00    -0.504 OA
ATOM     10  H   UNL     1     165.834 163.776 164.368  1.00  0.00     0.293 HD
ENDBRANCH   2   9
BRANCH   5  11
ATOM     11  C   UNL     1     165.826 166.899 169.844  1.00  0.00     0.000 C 
ATOM     12  C   UNL     1     165.643 168.204 170.049  1.00  0.00     0.009 C 
ENDBRANCH   5  11
TORSDOF 3
ENDMDL
MODEL 8
REMARK VINA RESULT:    -3.418      1.730      3.468
REMARK INTER + INTRA:          -4.024
REMARK INTER:                  -3.955
REMARK INTRA:                  -0.068
REMARK UNBOUND:                -0.105
REMARK SMILES C=Cc1ccc(O)c(OC)c1
REMARK SMILES IDX 8 1 6 2 5 3 4 4 3 5 11 6 9 7 10 8 7 9 2 11 1 12
REMARK H PARENT 7 10
REMARK Flexibility Score: inf
ROOT
ATOM      1  C   UNL     1     165.255 164.896 166.152  1.00  0.00     0.161 A 
ATOM      2  C   UNL     1     166.043 166.059 166.093  1.00  0.00     0.157 A 
ATOM      3  C   UNL     1     166.328 166.772 167.261  1.00  0.00     0.051 A 
ATOM      4  C   UNL     1     165.831 166.340 168.490  1.00  0.00     0.012 A 
ATOM      5  C   UNL     1     165.028 165.192 168.574  1.00  0.00    -0.022 A 
ATOM      6  C   UNL     1     164.754 164.465 167.399  1.00  0.00     0.058 A 
ENDROOT
BRANCH   1   7
ATOM      7  O   UNL     1     164.994 164.196 164.963  1.00  0.00    -0.493 OA
ATOM      8  C   UNL     1     164.233 162.995 164.881  1.00  0.00     0.278 C 
ENDBRANCH   1   7
BRANCH   2   9
ATOM      9  O   UNL     1     166.555 166.521 164.881  1.00  0.00    -0.504 OA
ATOM     10  H   UNL     1     166.592 165.940 164.052  1.00  0.00     0.293 HD
ENDBRANCH   2   9
BRANCH   5  11
ATOM     11  C   UNL     1     164.531 164.774 169.908  1.00  0.00     0.000 C 
ATOM     12  C   UNL     1     163.271 164.416 170.160  1.00  0.00     0.009 C 
ENDBRANCH   5  11
TORSDOF 3
ENDMDL
