MODEL 1
REMARK VINA RESULT:    -4.341      0.000      0.000
REMARK INTER + INTRA:          -9.747
REMARK INTER:                  -7.641
REMARK INTRA:                  -2.107
REMARK UNBOUND:                -2.107
REMARK SMILES CCCCCCCCCCCCCCC(=O)[O-]
REMARK SMILES IDX 9 1 10 2 11 3 12 4 13 5 14 6 15 7 16 8 17 9 8 10 7 11 6 12
REMARK SMILES IDX 5 13 4 14 3 15 2 16 1 17
REMARK H PARENT
REMARK Flexibility Score: inf
ROOT
ATOM      1  C   UNL     1      15.348 -34.752  20.514  1.00  0.00     0.000 C 
ENDROOT
BRANCH   1   2
ATOM      2  C   UNL     1      14.808 -33.522  21.263  1.00  0.00     0.000 C 
BRANCH   2   3
ATOM      3  C   UNL     1      15.858 -32.413  21.433  1.00  0.00     0.000 C 
BRANCH   3   4
ATOM      4  C   UNL     1      15.619 -31.574  22.707  1.00  0.00     0.000 C 
BRANCH   4   5
ATOM      5  C   UNL     1      14.248 -31.823  23.359  1.00  0.00     0.006 C 
BRANCH   5   6
ATOM      6  C   UNL     1      13.512 -30.527  23.716  1.00  0.00     0.053 C 
BRANCH   6   7
ATOM      7  C   UNL     1      12.483 -30.207  22.679  1.00  0.00     0.041 C 
ATOM      8  O   UNL     1      12.403 -30.899  21.631  1.00  0.00    -0.550 OA
ATOM      9  O   UNL     1      11.579 -29.174  22.893  1.00  0.00    -0.550 OA
ENDBRANCH   6   7
ENDBRANCH   5   6
ENDBRANCH   4   5
ENDBRANCH   3   4
ENDBRANCH   2   3
ENDBRANCH   1   2
BRANCH   1  10
ATOM     10  C   UNL     1      16.328 -34.400  19.375  1.00  0.00     0.000 C 
BRANCH  10  11
ATOM     11  C   UNL     1      17.657 -35.168  19.493  1.00  0.00    -0.000 C 
BRANCH  11  12
ATOM     12  C   UNL     1      17.527 -36.445  20.337  1.00  0.00    -0.000 C 
BRANCH  12  13
ATOM     13  C   UNL     1      18.369 -36.388  21.625  1.00  0.00    -0.000 C 
BRANCH  13  14
ATOM     14  C   UNL     1      18.977 -34.997  21.874  1.00  0.00    -0.000 C 
BRANCH  14  15
ATOM     15  C   UNL     1      18.466 -34.357  23.177  1.00  0.00    -0.000 C 
BRANCH  15  16
ATOM     16  C   UNL     1      17.282 -35.124  23.785  1.00  0.00    -0.003 C 
ATOM     17  C   UNL     1      16.582 -34.347  24.900  1.00  0.00     0.004 C 
ENDBRANCH  15  16
ENDBRANCH  14  15
ENDBRANCH  13  14
ENDBRANCH  12  13
ENDBRANCH  11  12
ENDBRANCH  10  11
ENDBRANCH   1  10
TORSDOF 13
ENDMDL
MODEL 2
REMARK VINA RESULT:    -4.330      1.710      3.259
REMARK INTER + INTRA:          -9.727
REMARK INTER:                  -7.670
REMARK INTRA:                  -2.057
REMARK UNBOUND:                -2.107
REMARK SMILES CCCCCCCCCCCCCCC(=O)[O-]
REMARK SMILES IDX 9 1 10 2 11 3 12 4 13 5 14 6 15 7 16 8 17 9 8 10 7 11 6 12
REMARK SMILES IDX 5 13 4 14 3 15 2 16 1 17
REMARK H PARENT
REMARK Flexibility Score: inf
ROOT
ATOM      1  C   UNL     1      17.845 -34.070  19.454  1.00  0.00     0.000 C 
ENDROOT
BRANCH   1   2
ATOM      2  C   UNL     1      16.567 -34.923  19.388  1.00  0.00     0.000 C 
BRANCH   2   3
ATOM      3  C   UNL     1      15.594 -34.637  20.543  1.00  0.00     0.000 C 
BRANCH   3   4
ATOM      4  C   UNL     1      14.484 -33.644  20.138  1.00  0.00     0.000 C 
BRANCH   4   5
ATOM      5  C   UNL     1      14.299 -32.488  21.136  1.00  0.00     0.006 C 
BRANCH   5   6
ATOM      6  C   UNL     1      13.170 -31.531  20.739  1.00  0.00     0.053 C 
BRANCH   6   7
ATOM      7  C   UNL     1      12.729 -30.723  21.918  1.00  0.00     0.041 C 
ATOM      8  O   UNL     1      11.504 -30.523  22.127  1.00  0.00    -0.550 OA
ATOM      9  O   UNL     1      13.670 -30.231  22.814  1.00  0.00    -0.550 OA
ENDBRANCH   6   7
ENDBRANCH   5   6
ENDBRANCH   4   5
ENDBRANCH   3   4
ENDBRANCH   2   3
ENDBRANCH   1   2
BRANCH   1  10
ATOM     10  C   UNL     1      18.341 -33.809  20.892  1.00  0.00     0.000 C 
BRANCH  10  11
ATOM     11  C   UNL     1      18.798 -32.353  21.095  1.00  0.00    -0.000 C 
BRANCH  11  12
ATOM     12  C   UNL     1      17.803 -31.337  20.514  1.00  0.00    -0.000 C 
BRANCH  12  13
ATOM     13  C   UNL     1      17.218 -30.404  21.589  1.00  0.00    -0.000 C 
BRANCH  13  14
ATOM     14  C   UNL     1      17.757 -30.710  22.997  1.00  0.00    -0.000 C 
BRANCH  14  15
ATOM     15  C   UNL     1      16.687 -31.325  23.916  1.00  0.00    -0.000 C 
BRANCH  15  16
ATOM     16  C   UNL     1      17.035 -32.757  24.348  1.00  0.00    -0.003 C 
ATOM     17  C   UNL     1      15.830 -33.697  24.312  1.00  0.00     0.004 C 
ENDBRANCH  15  16
ENDBRANCH  14  15
ENDBRANCH  13  14
ENDBRANCH  12  13
ENDBRANCH  11  12
ENDBRANCH  10  11
ENDBRANCH   1  10
TORSDOF 13
ENDMDL
MODEL 3
REMARK VINA RESULT:    -4.315      1.559      3.689
REMARK INTER + INTRA:          -9.701
REMARK INTER:                  -7.740
REMARK INTRA:                  -1.961
REMARK UNBOUND:                -2.107
REMARK SMILES CCCCCCCCCCCCCCC(=O)[O-]
REMARK SMILES IDX 9 1 10 2 11 3 12 4 13 5 14 6 15 7 16 8 17 9 8 10 7 11 6 12
REMARK SMILES IDX 5 13 4 14 3 15 2 16 1 17
REMARK H PARENT
REMARK Flexibility Score: inf
ROOT
ATOM      1  C   UNL     1      17.937 -31.727  23.326  1.00  0.00     0.000 C 
ENDROOT
BRANCH   1   2
ATOM      2  C   UNL     1      18.225 -31.917  21.827  1.00  0.00     0.000 C 
BRANCH   2   3
ATOM      3  C   UNL     1      17.642 -30.791  20.957  1.00  0.00     0.000 C 
BRANCH   3   4
ATOM      4  C   UNL     1      16.867 -29.750  21.793  1.00  0.00     0.000 C 
BRANCH   4   5
ATOM      5  C   UNL     1      15.339 -29.879  21.672  1.00  0.00     0.006 C 
BRANCH   5   6
ATOM      6  C   UNL     1      14.635 -29.937  23.032  1.00  0.00     0.053 C 
BRANCH   6   7
ATOM      7  C   UNL     1      13.157 -30.079  22.850  1.00  0.00     0.041 C 
ATOM      8  O   UNL     1      12.364 -29.389  23.543  1.00  0.00    -0.550 OA
ATOM      9  O   UNL     1      12.655 -30.938  21.881  1.00  0.00    -0.550 OA
ENDBRANCH   6   7
ENDBRANCH   5   6
ENDBRANCH   4   5
ENDBRANCH   3   4
ENDBRANCH   2   3
ENDBRANCH   1   2
BRANCH   1  10
ATOM     10  C   UNL     1      17.080 -32.854  23.939  1.00  0.00     0.000 C 
BRANCH  10  11
ATOM     11  C   UNL     1      16.589 -33.854  22.877  1.00  0.00    -0.000 C 
BRANCH  11  12
ATOM     12  C   UNL     1      15.130 -33.607  22.463  1.00  0.00    -0.000 C 
BRANCH  12  13
ATOM     13  C   UNL     1      14.968 -33.459  20.940  1.00  0.00    -0.000 C 
BRANCH  13  14
ATOM     14  C   UNL     1      15.106 -34.797  20.195  1.00  0.00    -0.000 C 
BRANCH  14  15
ATOM     15  C   UNL     1      16.439 -34.913  19.435  1.00  0.00    -0.000 C 
BRANCH  15  16
ATOM     16  C   UNL     1      16.954 -36.358  19.369  1.00  0.00    -0.003 C 
ATOM     17  C   UNL     1      17.644 -36.803  20.658  1.00  0.00     0.004 C 
ENDBRANCH  15  16
ENDBRANCH  14  15
ENDBRANCH  13  14
ENDBRANCH  12  13
ENDBRANCH  11  12
ENDBRANCH  10  11
ENDBRANCH   1  10
TORSDOF 13
ENDMDL
MODEL 4
REMARK VINA RESULT:    -4.285      1.872      2.840
REMARK INTER + INTRA:          -9.648
REMARK INTER:                  -7.229
REMARK INTRA:                  -2.419
REMARK UNBOUND:                -2.107
REMARK SMILES CCCCCCCCCCCCCCC(=O)[O-]
REMARK SMILES IDX 9 1 10 2 11 3 12 4 13 5 14 6 15 7 16 8 17 9 8 10 7 11 6 12
REMARK SMILES IDX 5 13 4 14 3 15 2 16 1 17
REMARK H PARENT
REMARK Flexibility Score: inf
ROOT
ATOM      1  C   UNL     1      18.674 -32.240  20.955  1.00  0.00     0.000 C 
ENDROOT
BRANCH   1   2
ATOM      2  C   UNL     1      17.569 -31.193  20.732  1.00  0.00     0.000 C 
BRANCH   2   3
ATOM      3  C   UNL     1      17.822 -29.882  21.493  1.00  0.00     0.000 C 
BRANCH   3   4
ATOM      4  C   UNL     1      16.537 -29.041  21.649  1.00  0.00     0.000 C 
BRANCH   4   5
ATOM      5  C   UNL     1      15.270 -29.889  21.860  1.00  0.00     0.006 C 
BRANCH   5   6
ATOM      6  C   UNL     1      14.727 -29.807  23.291  1.00  0.00     0.053 C 
BRANCH   6   7
ATOM      7  C   UNL     1      13.243 -29.993  23.300  1.00  0.00     0.041 C 
ATOM      8  O   UNL     1      12.516 -29.253  24.012  1.00  0.00    -0.550 OA
ATOM      9  O   UNL     1      12.659 -30.953  22.482  1.00  0.00    -0.550 OA
ENDBRANCH   6   7
ENDBRANCH   5   6
ENDBRANCH   4   5
ENDBRANCH   3   4
ENDBRANCH   2   3
ENDBRANCH   1   2
BRANCH   1  10
ATOM     10  C   UNL     1      18.289 -33.656  20.478  1.00  0.00     0.000 C 
BRANCH  10  11
ATOM     11  C   UNL     1      16.807 -33.751  20.076  1.00  0.00    -0.000 C 
BRANCH  11  12
ATOM     12  C   UNL     1      15.972 -34.552  21.086  1.00  0.00    -0.000 C 
BRANCH  12  13
ATOM     13  C   UNL     1      14.988 -33.666  21.871  1.00  0.00    -0.000 C 
BRANCH  13  14
ATOM     14  C   UNL     1      15.454 -33.394  23.311  1.00  0.00    -0.000 C 
BRANCH  14  15
ATOM     15  C   UNL     1      16.632 -34.292  23.728  1.00  0.00    -0.000 C 
BRANCH  15  16
ATOM     16  C   UNL     1      17.770 -33.501  24.390  1.00  0.00    -0.003 C 
ATOM     17  C   UNL     1      17.463 -32.008  24.511  1.00  0.00     0.004 C 
ENDBRANCH  15  16
ENDBRANCH  14  15
ENDBRANCH  13  14
ENDBRANCH  12  13
ENDBRANCH  11  12
ENDBRANCH  10  11
ENDBRANCH   1  10
TORSDOF 13
ENDMDL
MODEL 5
REMARK VINA RESULT:    -4.250      3.226      5.026
REMARK INTER + INTRA:          -9.587
REMARK INTER:                  -7.239
REMARK INTRA:                  -2.348
REMARK UNBOUND:                -2.107
REMARK SMILES CCCCCCCCCCCCCCC(=O)[O-]
REMARK SMILES IDX 9 1 10 2 11 3 12 4 13 5 14 6 15 7 16 8 17 9 8 10 7 11 6 12
REMARK SMILES IDX 5 13 4 14 3 15 2 16 1 17
REMARK H PARENT
REMARK Flexibility Score: inf
ROOT
ATOM      1  C   UNL     1      18.304 -32.763  20.665  1.00  0.00     0.000 C 
ENDROOT
BRANCH   1   2
ATOM      2  C   UNL     1      17.771 -31.331  20.833  1.00  0.00     0.000 C 
BRANCH   2   3
ATOM      3  C   UNL     1      17.249 -31.046  22.251  1.00  0.00     0.000 C 
BRANCH   3   4
ATOM      4  C   UNL     1      17.823 -32.031  23.291  1.00  0.00     0.000 C 
BRANCH   4   5
ATOM      5  C   UNL     1      16.777 -32.538  24.299  1.00  0.00     0.006 C 
BRANCH   5   6
ATOM      6  C   UNL     1      16.488 -34.037  24.156  1.00  0.00     0.053 C 
BRANCH   6   7
ATOM      7  C   UNL     1      17.699 -34.840  24.510  1.00  0.00     0.041 C 
ATOM      8  O   UNL     1      18.206 -34.747  25.658  1.00  0.00    -0.550 OA
ATOM      9  O   UNL     1      18.238 -35.728  23.588  1.00  0.00    -0.550 OA
ENDBRANCH   6   7
ENDBRANCH   5   6
ENDBRANCH   4   5
ENDBRANCH   3   4
ENDBRANCH   2   3
ENDBRANCH   1   2
BRANCH   1  10
ATOM     10  C   UNL     1      17.475 -33.621  19.686  1.00  0.00     0.000 C 
BRANCH  10  11
ATOM     11  C   UNL     1      16.777 -34.798  20.391  1.00  0.00    -0.000 C 
BRANCH  11  12
ATOM     12  C   UNL     1      15.246 -34.672  20.375  1.00  0.00    -0.000 C 
BRANCH  12  13
ATOM     13  C   UNL     1      14.740 -33.526  21.269  1.00  0.00    -0.000 C 
BRANCH  13  14
ATOM     14  C   UNL     1      13.865 -32.519  20.504  1.00  0.00    -0.000 C 
BRANCH  14  15
ATOM     15  C   UNL     1      13.603 -31.235  21.309  1.00  0.00    -0.000 C 
BRANCH  15  16
ATOM     16  C   UNL     1      13.543 -31.492  22.822  1.00  0.00    -0.003 C 
ATOM     17  C   UNL     1      13.726 -30.219  23.649  1.00  0.00     0.004 C 
ENDBRANCH  15  16
ENDBRANCH  14  15
ENDBRANCH  13  14
ENDBRANCH  12  13
ENDBRANCH  11  12
ENDBRANCH  10  11
ENDBRANCH   1  10
TORSDOF 13
ENDMDL
MODEL 6
REMARK VINA RESULT:    -4.248      1.435      2.834
REMARK INTER + INTRA:          -9.584
REMARK INTER:                  -7.456
REMARK INTRA:                  -2.128
REMARK UNBOUND:                -2.107
REMARK SMILES CCCCCCCCCCCCCCC(=O)[O-]
REMARK SMILES IDX 9 1 10 2 11 3 12 4 13 5 14 6 15 7 16 8 17 9 8 10 7 11 6 12
REMARK SMILES IDX 5 13 4 14 3 15 2 16 1 17
REMARK H PARENT
REMARK Flexibility Score: inf
ROOT
ATOM      1  C   UNL     1      17.611 -35.222  19.666  1.00  0.00     0.000 C 
ENDROOT
BRANCH   1   2
ATOM      2  C   UNL     1      16.348 -34.403  19.354  1.00  0.00     0.000 C 
BRANCH   2   3
ATOM      3  C   UNL     1      15.184 -34.706  20.312  1.00  0.00     0.000 C 
BRANCH   3   4
ATOM      4  C   UNL     1      14.844 -33.503  21.216  1.00  0.00     0.000 C 
BRANCH   4   5
ATOM      5  C   UNL     1      13.862 -32.509  20.573  1.00  0.00     0.006 C 
BRANCH   5   6
ATOM      6  C   UNL     1      13.928 -31.112  21.201  1.00  0.00     0.053 C 
BRANCH   6   7
ATOM      7  C   UNL     1      12.851 -30.947  22.225  1.00  0.00     0.041 C 
ATOM      8  O   UNL     1      13.076 -31.226  23.431  1.00  0.00    -0.550 OA
ATOM      9  O   UNL     1      11.612 -30.436  21.855  1.00  0.00    -0.550 OA
ENDBRANCH   6   7
ENDBRANCH   5   6
ENDBRANCH   4   5
ENDBRANCH   3   4
ENDBRANCH   2   3
ENDBRANCH   1   2
BRANCH   1  10
ATOM     10  C   UNL     1      17.462 -36.145  20.895  1.00  0.00     0.000 C 
BRANCH  10  11
ATOM     11  C   UNL     1      18.655 -36.024  21.860  1.00  0.00    -0.000 C 
BRANCH  11  12
ATOM     12  C   UNL     1      18.215 -35.829  23.319  1.00  0.00    -0.000 C 
BRANCH  12  13
ATOM     13  C   UNL     1      17.279 -34.619  23.495  1.00  0.00    -0.000 C 
BRANCH  13  14
ATOM     14  C   UNL     1      18.016 -33.366  23.996  1.00  0.00    -0.000 C 
BRANCH  14  15
ATOM     15  C   UNL     1      17.749 -32.134  23.114  1.00  0.00    -0.000 C 
BRANCH  15  16
ATOM     16  C   UNL     1      18.498 -32.197  21.774  1.00  0.00    -0.003 C 
ATOM     17  C   UNL     1      17.857 -31.324  20.695  1.00  0.00     0.004 C 
ENDBRANCH  15  16
ENDBRANCH  14  15
ENDBRANCH  13  14
ENDBRANCH  12  13
ENDBRANCH  11  12
ENDBRANCH  10  11
ENDBRANCH   1  10
TORSDOF 13
ENDMDL
MODEL 7
REMARK VINA RESULT:    -4.224      3.157      5.076
REMARK INTER + INTRA:          -9.541
REMARK INTER:                  -7.288
REMARK INTRA:                  -2.253
REMARK UNBOUND:                -2.107
REMARK SMILES CCCCCCCCCCCCCCC(=O)[O-]
REMARK SMILES IDX 9 1 10 2 11 3 12 4 13 5 14 6 15 7 16 8 17 9 8 10 7 11 6 12
REMARK SMILES IDX 5 13 4 14 3 15 2 16 1 17
REMARK H PARENT
REMARK Flexibility Score: inf
ROOT
ATOM      1  C   UNL     1      14.647 -30.479  22.604  1.00  0.00     0.000 C 
ENDROOT
BRANCH   1   2
ATOM      2  C   UNL     1      13.444 -31.085  21.863  1.00  0.00     0.000 C 
BRANCH   2   3
ATOM      3  C   UNL     1      13.854 -31.983  20.684  1.00  0.00     0.000 C 
BRANCH   3   4
ATOM      4  C   UNL     1      14.577 -33.264  21.153  1.00  0.00     0.000 C 
BRANCH   4   5
ATOM      5  C   UNL     1      15.270 -34.030  20.013  1.00  0.00     0.006 C 
BRANCH   5   6
ATOM      6  C   UNL     1      16.155 -35.176  20.515  1.00  0.00     0.053 C 
BRANCH   6   7
ATOM      7  C   UNL     1      17.141 -35.575  19.464  1.00  0.00     0.041 C 
ATOM      8  O   UNL     1      17.970 -34.737  19.022  1.00  0.00    -0.550 OA
ATOM      9  O   UNL     1      17.178 -36.887  19.007  1.00  0.00    -0.550 OA
ENDBRANCH   6   7
ENDBRANCH   5   6
ENDBRANCH   4   5
ENDBRANCH   3   4
ENDBRANCH   2   3
ENDBRANCH   1   2
BRANCH   1  10
ATOM     10  C   UNL     1      15.590 -29.666  21.692  1.00  0.00     0.000 C 
BRANCH  10  11
ATOM     11  C   UNL     1      17.071 -30.013  21.928  1.00  0.00    -0.000 C 
BRANCH  11  12
ATOM     12  C   UNL     1      17.630 -30.970  20.865  1.00  0.00    -0.000 C 
BRANCH  12  13
ATOM     13  C   UNL     1      18.185 -32.270  21.475  1.00  0.00    -0.000 C 
BRANCH  13  14
ATOM     14  C   UNL     1      17.868 -32.403  22.974  1.00  0.00    -0.000 C 
BRANCH  14  15
ATOM     15  C   UNL     1      18.230 -33.790  23.532  1.00  0.00    -0.000 C 
BRANCH  15  16
ATOM     16  C   UNL     1      17.031 -34.490  24.191  1.00  0.00    -0.003 C 
ATOM     17  C   UNL     1      15.820 -33.572  24.348  1.00  0.00     0.004 C 
ENDBRANCH  15  16
ENDBRANCH  14  15
ENDBRANCH  13  14
ENDBRANCH  12  13
ENDBRANCH  11  12
ENDBRANCH  10  11
ENDBRANCH   1  10
TORSDOF 13
ENDMDL
MODEL 8
REMARK VINA RESULT:    -4.217      1.545      3.388
REMARK INTER + INTRA:          -9.529
REMARK INTER:                  -7.731
REMARK INTRA:                  -1.798
REMARK UNBOUND:                -2.107
REMARK SMILES CCCCCCCCCCCCCCC(=O)[O-]
REMARK SMILES IDX 9 1 10 2 11 3 12 4 13 5 14 6 15 7 16 8 17 9 8 10 7 11 6 12
REMARK SMILES IDX 5 13 4 14 3 15 2 16 1 17
REMARK H PARENT
REMARK Flexibility Score: inf
ROOT
ATOM      1  C   UNL     1      18.139 -30.863  21.652  1.00  0.00     0.000 C 
ENDROOT
BRANCH   1   2
ATOM      2  C   UNL     1      16.740 -30.455  21.162  1.00  0.00     0.000 C 
BRANCH   2   3
ATOM      3  C   UNL     1      16.071 -29.403  22.062  1.00  0.00     0.000 C 
BRANCH   3   4
ATOM      4  C   UNL     1      15.759 -29.954  23.470  1.00  0.00     0.000 C 
BRANCH   4   5
ATOM      5  C   UNL     1      14.742 -31.108  23.466  1.00  0.00     0.006 C 
BRANCH   5   6
ATOM      6  C   UNL     1      13.307 -30.641  23.732  1.00  0.00     0.053 C 
BRANCH   6   7
ATOM      7  C   UNL     1      12.554 -30.506  22.446  1.00  0.00     0.041 C 
ATOM      8  O   UNL     1      11.565 -29.731  22.369  1.00  0.00    -0.550 OA
ATOM      9  O   UNL     1      12.975 -31.200  21.318  1.00  0.00    -0.550 OA
ENDBRANCH   6   7
ENDBRANCH   5   6
ENDBRANCH   4   5
ENDBRANCH   3   4
ENDBRANCH   2   3
ENDBRANCH   1   2
BRANCH   1  10
ATOM     10  C   UNL     1      18.673 -32.153  20.995  1.00  0.00     0.000 C 
BRANCH  10  11
ATOM     11  C   UNL     1      18.821 -33.303  22.008  1.00  0.00    -0.000 C 
BRANCH  11  12
ATOM     12  C   UNL     1      17.583 -33.464  22.903  1.00  0.00    -0.000 C 
BRANCH  12  13
ATOM     13  C   UNL     1      16.632 -34.566  22.399  1.00  0.00    -0.000 C 
BRANCH  13  14
ATOM     14  C   UNL     1      15.466 -34.007  21.568  1.00  0.00    -0.000 C 
BRANCH  14  15
ATOM     15  C   UNL     1      15.290 -34.745  20.229  1.00  0.00    -0.000 C 
BRANCH  15  16
ATOM     16  C   UNL     1      16.627 -34.989  19.512  1.00  0.00    -0.003 C 
ATOM     17  C   UNL     1      16.966 -36.473  19.377  1.00  0.00     0.004 C 
ENDBRANCH  15  16
ENDBRANCH  14  15
ENDBRANCH  13  14
ENDBRANCH  12  13
ENDBRANCH  11  12
ENDBRANCH  10  11
ENDBRANCH   1  10
TORSDOF 13
ENDMDL
MODEL 9
REMARK VINA RESULT:    -4.214      2.484      4.180
REMARK INTER + INTRA:          -9.524
REMARK INTER:                  -7.323
REMARK INTRA:                  -2.201
REMARK UNBOUND:                -2.107
REMARK SMILES CCCCCCCCCCCCCCC(=O)[O-]
REMARK SMILES IDX 9 1 10 2 11 3 12 4 13 5 14 6 15 7 16 8 17 9 8 10 7 11 6 12
REMARK SMILES IDX 5 13 4 14 3 15 2 16 1 17
REMARK H PARENT
REMARK Flexibility Score: inf
ROOT
ATOM      1  C   UNL     1      15.526 -34.946  20.433  1.00  0.00     0.000 C 
ENDROOT
BRANCH   1   2
ATOM      2  C   UNL     1      16.595 -35.242  19.367  1.00  0.00     0.000 C 
BRANCH   2   3
ATOM      3  C   UNL     1      17.794 -34.283  19.437  1.00  0.00     0.000 C 
BRANCH   3   4
ATOM      4  C   UNL     1      18.341 -34.137  20.873  1.00  0.00     0.000 C 
BRANCH   4   5
ATOM      5  C   UNL     1      18.681 -32.686  21.257  1.00  0.00     0.006 C 
BRANCH   5   6
ATOM      6  C   UNL     1      17.871 -31.653  20.465  1.00  0.00     0.053 C 
BRANCH   6   7
ATOM      7  C   UNL     1      17.916 -30.321  21.144  1.00  0.00     0.041 C 
ATOM      8  O   UNL     1      19.009 -29.710  21.267  1.00  0.00    -0.550 OA
ATOM      9  O   UNL     1      16.742 -29.732  21.598  1.00  0.00    -0.550 OA
ENDBRANCH   6   7
ENDBRANCH   5   6
ENDBRANCH   4   5
ENDBRANCH   3   4
ENDBRANCH   2   3
ENDBRANCH   1   2
BRANCH   1  10
ATOM     10  C   UNL     1      14.667 -33.703  20.119  1.00  0.00     0.000 C 
BRANCH  10  11
ATOM     11  C   UNL     1      14.520 -32.775  21.338  1.00  0.00    -0.000 C 
BRANCH  11  12
ATOM     12  C   UNL     1      15.016 -33.426  22.638  1.00  0.00    -0.000 C 
BRANCH  12  13
ATOM     13  C   UNL     1      15.666 -32.409  23.595  1.00  0.00    -0.000 C 
BRANCH  13  14
ATOM     14  C   UNL     1      16.798 -33.024  24.433  1.00  0.00    -0.000 C 
BRANCH  14  15
ATOM     15  C   UNL     1      16.903 -34.549  24.254  1.00  0.00    -0.000 C 
BRANCH  15  16
ATOM     16  C   UNL     1      17.761 -35.211  25.342  1.00  0.00    -0.003 C 
ATOM     17  C   UNL     1      16.980 -36.223  26.180  1.00  0.00     0.004 C 
ENDBRANCH  15  16
ENDBRANCH  14  15
ENDBRANCH  13  14
ENDBRANCH  12  13
ENDBRANCH  11  12
ENDBRANCH  10  11
ENDBRANCH   1  10
TORSDOF 13
ENDMDL
