MODEL 1
REMARK VINA RESULT:    -6.678      0.000      0.000
REMARK INTER + INTRA:          -8.167
REMARK INTER:                  -7.849
REMARK INTRA:                  -0.318
REMARK UNBOUND:                -0.318
REMARK SMILES O=c1cc(-c2ccc(O)c(O)c2)oc2cc(O)cc(O)c12
REMARK SMILES IDX 4 1 3 2 2 3 1 4 21 5 19 6 18 7 16 8 15 9 14 10 13 11 5 12
REMARK SMILES IDX 6 13 7 14 8 15 12 16 10 17 9 18 11 20 20 22 17 24
REMARK H PARENT 9 19 11 21 20 23 17 25
REMARK Flexibility Score: inf
ROOT
ATOM      1  C   UNL     1      11.041  -7.123  -9.254  1.00  0.00     0.138 A 
ATOM      2  C   UNL     1      10.318  -8.321  -9.330  1.00  0.00     0.100 A 
ATOM      3  C   UNL     1       9.279  -8.559  -8.429  1.00  0.00     0.197 A 
ATOM      4  O   UNL     1       8.689  -9.669  -8.482  1.00  0.00    -0.289 OA
ATOM      5  C   UNL     1       8.943  -7.577  -7.468  1.00  0.00     0.107 A 
ATOM      6  C   UNL     1       7.877  -7.692  -6.527  1.00  0.00     0.134 A 
ATOM      7  C   UNL     1       7.712  -6.706  -5.546  1.00  0.00     0.093 A 
ATOM      8  C   UNL     1       8.537  -5.578  -5.512  1.00  0.00     0.123 A 
ATOM      9  C   UNL     1       9.547  -5.430  -6.461  1.00  0.00     0.094 A 
ATOM     10  C   UNL     1       9.757  -6.414  -7.430  1.00  0.00     0.146 A 
ATOM     11  O   UNL     1      10.741  -6.240  -8.307  1.00  0.00    -0.456 OA
ENDROOT
BRANCH   1  12
ATOM     12  C   UNL     1      12.155  -6.819 -10.188  1.00  0.00     0.021 A 
ATOM     13  C   UNL     1      12.500  -7.692 -11.237  1.00  0.00     0.016 A 
ATOM     14  C   UNL     1      13.547  -7.376 -12.108  1.00  0.00     0.051 A 
ATOM     15  C   UNL     1      14.260  -6.181 -11.950  1.00  0.00     0.157 A 
ATOM     16  C   UNL     1      12.868  -5.615 -10.046  1.00  0.00     0.062 A 
ATOM     17  C   UNL     1      13.919  -5.299 -10.919  1.00  0.00     0.158 A 
BRANCH  15  18
ATOM     18  O   UNL     1      15.305  -5.863 -12.815  1.00  0.00    -0.504 OA
ATOM     19  H   UNL     1      15.133  -5.454 -13.726  1.00  0.00     0.293 HD
ENDBRANCH  15  18
BRANCH  17  20
ATOM     20  O   UNL     1      14.628  -4.108 -10.768  1.00  0.00    -0.504 OA
ATOM     21  H   UNL     1      15.067  -3.649 -11.557  1.00  0.00     0.293 HD
ENDBRANCH  17  20
ENDBRANCH   1  12
BRANCH   6  22
ATOM     22  O   UNL     1       6.944  -8.734  -6.526  1.00  0.00    -0.507 OA
ATOM     23  H   UNL     1       7.061  -9.613  -6.045  1.00  0.00     0.293 HD
ENDBRANCH   6  22
BRANCH   8  24
ATOM     24  O   UNL     1       8.356  -4.594  -4.543  1.00  0.00    -0.508 OA
ATOM     25  H   UNL     1       8.820  -4.644  -3.643  1.00  0.00     0.293 HD
ENDBRANCH   8  24
TORSDOF 5
ENDMDL
MODEL 2
REMARK VINA RESULT:    -6.416     10.132     14.106
REMARK INTER + INTRA:          -7.859
REMARK INTER:                  -7.546
REMARK INTRA:                  -0.313
REMARK UNBOUND:                -0.318
REMARK SMILES O=c1cc(-c2ccc(O)c(O)c2)oc2cc(O)cc(O)c12
REMARK SMILES IDX 4 1 3 2 2 3 1 4 21 5 19 6 18 7 16 8 15 9 14 10 13 11 5 12
REMARK SMILES IDX 6 13 7 14 8 15 12 16 10 17 9 18 11 20 20 22 17 24
REMARK H PARENT 9 19 11 21 20 23 17 25
REMARK Flexibility Score: inf
ROOT
ATOM      1  C   UNL     1      19.416  -1.088 -18.381  1.00  0.00     0.138 A 
ATOM      2  C   UNL     1      19.040  -0.362 -17.242  1.00  0.00     0.100 A 
ATOM      3  C   UNL     1      18.386  -1.011 -16.194  1.00  0.00     0.197 A 
ATOM      4  O   UNL     1      18.006  -0.320 -15.213  1.00  0.00    -0.289 OA
ATOM      5  C   UNL     1      18.136  -2.401 -16.274  1.00  0.00     0.107 A 
ATOM      6  C   UNL     1      17.514  -3.175 -15.250  1.00  0.00     0.134 A 
ATOM      7  C   UNL     1      17.213  -4.522 -15.489  1.00  0.00     0.093 A 
ATOM      8  C   UNL     1      17.567  -5.137 -16.693  1.00  0.00     0.123 A 
ATOM      9  C   UNL     1      18.223  -4.403 -17.678  1.00  0.00     0.094 A 
ATOM     10  C   UNL     1      18.506  -3.049 -17.483  1.00  0.00     0.146 A 
ATOM     11  O   UNL     1      19.121  -2.382 -18.454  1.00  0.00    -0.456 OA
ENDROOT
BRANCH   1  12
ATOM     12  C   UNL     1      20.115  -0.448 -19.524  1.00  0.00     0.021 A 
ATOM     13  C   UNL     1      20.823   0.760 -19.375  1.00  0.00     0.016 A 
ATOM     14  C   UNL     1      21.481   1.335 -20.467  1.00  0.00     0.051 A 
ATOM     15  C   UNL     1      21.449   0.710 -21.719  1.00  0.00     0.157 A 
ATOM     16  C   UNL     1      20.100  -1.074 -20.783  1.00  0.00     0.062 A 
ATOM     17  C   UNL     1      20.758  -0.496 -21.877  1.00  0.00     0.158 A 
BRANCH  15  18
ATOM     18  O   UNL     1      22.102   1.282 -22.810  1.00  0.00    -0.504 OA
ATOM     19  H   UNL     1      22.203   2.287 -22.899  1.00  0.00     0.293 HD
ENDBRANCH  15  18
BRANCH  17  20
ATOM     20  O   UNL     1      20.732  -1.117 -23.125  1.00  0.00    -0.504 OA
ATOM     21  H   UNL     1      20.408  -2.071 -23.236  1.00  0.00     0.293 HD
ENDBRANCH  17  20
ENDBRANCH   1  12
BRANCH   6  22
ATOM     22  O   UNL     1      17.196  -2.681 -13.981  1.00  0.00    -0.507 OA
ATOM     23  H   UNL     1      17.718  -2.873 -13.140  1.00  0.00     0.293 HD
ENDBRANCH   6  22
BRANCH   8  24
ATOM     24  O   UNL     1      17.278  -6.481 -16.915  1.00  0.00    -0.508 OA
ATOM     25  H   UNL     1      17.242  -7.149 -16.154  1.00  0.00     0.293 HD
ENDBRANCH   8  24
TORSDOF 5
ENDMDL
MODEL 3
REMARK VINA RESULT:    -6.269      9.734     13.250
REMARK INTER + INTRA:          -7.687
REMARK INTER:                  -7.424
REMARK INTRA:                  -0.262
REMARK UNBOUND:                -0.318
REMARK SMILES O=c1cc(-c2ccc(O)c(O)c2)oc2cc(O)cc(O)c12
REMARK SMILES IDX 4 1 3 2 2 3 1 4 21 5 19 6 18 7 16 8 15 9 14 10 13 11 5 12
REMARK SMILES IDX 6 13 7 14 8 15 12 16 10 17 9 18 11 20 20 22 17 24
REMARK H PARENT 9 19 11 21 20 23 17 25
REMARK Flexibility Score: inf
ROOT
ATOM      1  C   UNL     1      17.903  -3.964 -16.764  1.00  0.00     0.138 A 
ATOM      2  C   UNL     1      17.750  -3.006 -15.752  1.00  0.00     0.100 A 
ATOM      3  C   UNL     1      18.208  -1.705 -15.959  1.00  0.00     0.197 A 
ATOM      4  O   UNL     1      18.113  -0.883 -15.010  1.00  0.00    -0.289 OA
ATOM      5  C   UNL     1      18.795  -1.354 -17.198  1.00  0.00     0.107 A 
ATOM      6  C   UNL     1      19.260  -0.048 -17.537  1.00  0.00     0.134 A 
ATOM      7  C   UNL     1      19.929   0.153 -18.750  1.00  0.00     0.093 A 
ATOM      8  C   UNL     1      20.095  -0.891 -19.664  1.00  0.00     0.123 A 
ATOM      9  C   UNL     1      19.595  -2.157 -19.366  1.00  0.00     0.094 A 
ATOM     10  C   UNL     1      18.954  -2.397 -18.149  1.00  0.00     0.146 A 
ATOM     11  O   UNL     1      18.506  -3.623 -17.898  1.00  0.00    -0.456 OA
ENDROOT
BRANCH   1  12
ATOM     12  C   UNL     1      17.432  -5.363 -16.597  1.00  0.00     0.021 A 
ATOM     13  C   UNL     1      18.321  -6.410 -16.286  1.00  0.00     0.016 A 
ATOM     14  C   UNL     1      17.850  -7.716 -16.126  1.00  0.00     0.051 A 
ATOM     15  C   UNL     1      16.485  -7.996 -16.264  1.00  0.00     0.157 A 
ATOM     16  C   UNL     1      16.062  -5.652 -16.721  1.00  0.00     0.062 A 
ATOM     17  C   UNL     1      15.590  -6.962 -16.560  1.00  0.00     0.158 A 
BRANCH  15  18
ATOM     18  O   UNL     1      16.011  -9.297 -16.106  1.00  0.00    -0.504 OA
ATOM     19  H   UNL     1      16.622 -10.100 -16.214  1.00  0.00     0.293 HD
ENDBRANCH  15  18
BRANCH  17  20
ATOM     20  O   UNL     1      14.231  -7.244 -16.693  1.00  0.00    -0.504 OA
ATOM     21  H   UNL     1      13.773  -7.935 -16.110  1.00  0.00     0.293 HD
ENDBRANCH  17  20
ENDBRANCH   1  12
BRANCH   6  22
ATOM     22  O   UNL     1      19.071   1.081 -16.734  1.00  0.00    -0.507 OA
ATOM     23  H   UNL     1      19.519   1.973 -16.879  1.00  0.00     0.293 HD
ENDBRANCH   6  22
BRANCH   8  24
ATOM     24  O   UNL     1      20.748  -0.678 -20.876  1.00  0.00    -0.508 OA
ATOM     25  H   UNL     1      21.758  -0.637 -20.933  1.00  0.00     0.293 HD
ENDBRANCH   8  24
TORSDOF 5
ENDMDL
MODEL 4
REMARK VINA RESULT:    -6.240      8.560     12.404
REMARK INTER + INTRA:          -7.653
REMARK INTER:                  -7.389
REMARK INTRA:                  -0.264
REMARK UNBOUND:                -0.318
REMARK SMILES O=c1cc(-c2ccc(O)c(O)c2)oc2cc(O)cc(O)c12
REMARK SMILES IDX 4 1 3 2 2 3 1 4 21 5 19 6 18 7 16 8 15 9 14 10 13 11 5 12
REMARK SMILES IDX 6 13 7 14 8 15 12 16 10 17 9 18 11 20 20 22 17 24
REMARK H PARENT 9 19 11 21 20 23 17 25
REMARK Flexibility Score: inf
ROOT
ATOM      1  C   UNL     1      18.464  -1.463 -16.990  1.00  0.00     0.138 A 
ATOM      2  C   UNL     1      17.762  -0.662 -16.079  1.00  0.00     0.100 A 
ATOM      3  C   UNL     1      17.056  -1.261 -15.035  1.00  0.00     0.197 A 
ATOM      4  O   UNL     1      16.385  -0.520 -14.270  1.00  0.00    -0.289 OA
ATOM      5  C   UNL     1      17.081  -2.667 -14.884  1.00  0.00     0.107 A 
ATOM      6  C   UNL     1      16.434  -3.384 -13.833  1.00  0.00     0.134 A 
ATOM      7  C   UNL     1      16.431  -4.784 -13.853  1.00  0.00     0.093 A 
ATOM      8  C   UNL     1      17.105  -5.493 -14.852  1.00  0.00     0.123 A 
ATOM      9  C   UNL     1      17.786  -4.801 -15.851  1.00  0.00     0.094 A 
ATOM     10  C   UNL     1      17.778  -3.405 -15.878  1.00  0.00     0.146 A 
ATOM     11  O   UNL     1      18.427  -2.785 -16.858  1.00  0.00    -0.456 OA
ENDROOT
BRANCH   1  12
ATOM     12  C   UNL     1      19.232  -0.879 -18.119  1.00  0.00     0.021 A 
ATOM     13  C   UNL     1      18.802  -1.013 -19.453  1.00  0.00     0.016 A 
ATOM     14  C   UNL     1      19.539  -0.444 -20.496  1.00  0.00     0.051 A 
ATOM     15  C   UNL     1      20.711   0.273 -20.223  1.00  0.00     0.157 A 
ATOM     16  C   UNL     1      20.403  -0.146 -17.854  1.00  0.00     0.062 A 
ATOM     17  C   UNL     1      21.142   0.422 -18.901  1.00  0.00     0.158 A 
BRANCH  15  18
ATOM     18  O   UNL     1      21.449   0.839 -21.261  1.00  0.00    -0.504 OA
ATOM     19  H   UNL     1      22.295   0.403 -21.609  1.00  0.00     0.293 HD
ENDBRANCH  15  18
BRANCH  17  20
ATOM     20  O   UNL     1      22.307   1.140 -18.633  1.00  0.00    -0.504 OA
ATOM     21  H   UNL     1      23.206   0.849 -19.001  1.00  0.00     0.293 HD
ENDBRANCH  17  20
ENDBRANCH   1  12
BRANCH   6  22
ATOM     22  O   UNL     1      15.806  -2.774 -12.743  1.00  0.00    -0.507 OA
ATOM     23  H   UNL     1      15.935  -1.813 -12.466  1.00  0.00     0.293 HD
ENDBRANCH   6  22
BRANCH   8  24
ATOM     24  O   UNL     1      17.110  -6.886 -14.854  1.00  0.00    -0.508 OA
ATOM     25  H   UNL     1      17.154  -7.414 -15.717  1.00  0.00     0.293 HD
ENDBRANCH   8  24
TORSDOF 5
ENDMDL
MODEL 5
REMARK VINA RESULT:    -6.171      3.474      4.142
REMARK INTER + INTRA:          -7.572
REMARK INTER:                  -7.279
REMARK INTRA:                  -0.293
REMARK UNBOUND:                -0.318
REMARK SMILES O=c1cc(-c2ccc(O)c(O)c2)oc2cc(O)cc(O)c12
REMARK SMILES IDX 4 1 3 2 2 3 1 4 21 5 19 6 18 7 16 8 15 9 14 10 13 11 5 12
REMARK SMILES IDX 6 13 7 14 8 15 12 16 10 17 9 18 11 20 20 22 17 24
REMARK H PARENT 9 19 11 21 20 23 17 25
REMARK Flexibility Score: inf
ROOT
ATOM      1  C   UNL     1      10.074  -6.827 -10.370  1.00  0.00     0.138 A 
ATOM      2  C   UNL     1       9.602  -6.884  -9.051  1.00  0.00     0.100 A 
ATOM      3  C   UNL     1       8.541  -6.066  -8.662  1.00  0.00     0.197 A 
ATOM      4  O   UNL     1       8.180  -6.094  -7.457  1.00  0.00    -0.289 OA
ATOM      5  C   UNL     1       7.929  -5.210  -9.608  1.00  0.00     0.107 A 
ATOM      6  C   UNL     1       6.814  -4.363  -9.335  1.00  0.00     0.134 A 
ATOM      7  C   UNL     1       6.367  -3.472 -10.319  1.00  0.00     0.093 A 
ATOM      8  C   UNL     1       6.956  -3.443 -11.586  1.00  0.00     0.123 A 
ATOM      9  C   UNL     1       8.010  -4.305 -11.879  1.00  0.00     0.094 A 
ATOM     10  C   UNL     1       8.500  -5.180 -10.908  1.00  0.00     0.146 A 
ATOM     11  O   UNL     1       9.517  -5.975 -11.224  1.00  0.00    -0.456 OA
ENDROOT
BRANCH   1  12
ATOM     12  C   UNL     1      11.199  -7.676 -10.838  1.00  0.00     0.021 A 
ATOM     13  C   UNL     1      11.261  -9.052 -10.541  1.00  0.00     0.016 A 
ATOM     14  C   UNL     1      12.327  -9.829 -11.003  1.00  0.00     0.051 A 
ATOM     15  C   UNL     1      13.342  -9.249 -11.773  1.00  0.00     0.157 A 
ATOM     16  C   UNL     1      12.217  -7.106 -11.623  1.00  0.00     0.062 A 
ATOM     17  C   UNL     1      13.286  -7.886 -12.084  1.00  0.00     0.158 A 
BRANCH  15  18
ATOM     18  O   UNL     1      14.408 -10.021 -12.234  1.00  0.00    -0.504 OA
ATOM     19  H   UNL     1      14.281 -10.989 -12.506  1.00  0.00     0.293 HD
ENDBRANCH  15  18
BRANCH  17  20
ATOM     20  O   UNL     1      14.297  -7.313 -12.855  1.00  0.00    -0.504 OA
ATOM     21  H   UNL     1      15.149  -7.817 -13.072  1.00  0.00     0.293 HD
ENDBRANCH  17  20
ENDBRANCH   1  12
BRANCH   6  22
ATOM     22  O   UNL     1       6.100  -4.373  -8.133  1.00  0.00    -0.507 OA
ATOM     23  H   UNL     1       6.068  -3.610  -7.474  1.00  0.00     0.293 HD
ENDBRANCH   6  22
BRANCH   8  24
ATOM     24  O   UNL     1       6.493  -2.565 -12.564  1.00  0.00    -0.508 OA
ATOM     25  H   UNL     1       6.714  -2.699 -13.544  1.00  0.00     0.293 HD
ENDBRANCH   8  24
TORSDOF 5
ENDMDL
MODEL 6
REMARK VINA RESULT:    -6.119      1.487      6.938
REMARK INTER + INTRA:          -7.510
REMARK INTER:                  -7.204
REMARK INTRA:                  -0.306
REMARK UNBOUND:                -0.318
REMARK SMILES O=c1cc(-c2ccc(O)c(O)c2)oc2cc(O)cc(O)c12
REMARK SMILES IDX 4 1 3 2 2 3 1 4 21 5 19 6 18 7 16 8 15 9 14 10 13 11 5 12
REMARK SMILES IDX 6 13 7 14 8 15 12 16 10 17 9 18 11 20 20 22 17 24
REMARK H PARENT 9 19 11 21 20 23 17 25
REMARK Flexibility Score: inf
ROOT
ATOM      1  C   UNL     1      11.531  -6.990  -9.761  1.00  0.00     0.138 A 
ATOM      2  C   UNL     1      11.517  -7.844 -10.872  1.00  0.00     0.100 A 
ATOM      3  C   UNL     1      12.495  -7.712 -11.858  1.00  0.00     0.197 A 
ATOM      4  O   UNL     1      12.420  -8.452 -12.873  1.00  0.00    -0.289 OA
ATOM      5  C   UNL     1      13.512  -6.739 -11.713  1.00  0.00     0.107 A 
ATOM      6  C   UNL     1      14.585  -6.540 -12.633  1.00  0.00     0.134 A 
ATOM      7  C   UNL     1      15.466  -5.469 -12.445  1.00  0.00     0.093 A 
ATOM      8  C   UNL     1      15.351  -4.626 -11.336  1.00  0.00     0.123 A 
ATOM      9  C   UNL     1      14.340  -4.845 -10.403  1.00  0.00     0.094 A 
ATOM     10  C   UNL     1      13.424  -5.884 -10.582  1.00  0.00     0.146 A 
ATOM     11  O   UNL     1      12.466  -6.049  -9.676  1.00  0.00    -0.456 OA
ENDROOT
BRANCH   1  12
ATOM     12  C   UNL     1      10.515  -7.088  -8.683  1.00  0.00     0.021 A 
ATOM     13  C   UNL     1       9.927  -8.319  -8.331  1.00  0.00     0.016 A 
ATOM     14  C   UNL     1       8.979  -8.383  -7.305  1.00  0.00     0.051 A 
ATOM     15  C   UNL     1       8.611  -7.225  -6.609  1.00  0.00     0.157 A 
ATOM     16  C   UNL     1      10.148  -5.934  -7.969  1.00  0.00     0.062 A 
ATOM     17  C   UNL     1       9.198  -5.999  -6.941  1.00  0.00     0.158 A 
BRANCH  15  18
ATOM     18  O   UNL     1       7.666  -7.287  -5.587  1.00  0.00    -0.504 OA
ATOM     19  H   UNL     1       7.337  -8.173  -5.222  1.00  0.00     0.293 HD
ENDBRANCH  15  18
BRANCH  17  20
ATOM     20  O   UNL     1       8.832  -4.849  -6.244  1.00  0.00    -0.504 OA
ATOM     21  H   UNL     1       9.112  -3.927  -6.558  1.00  0.00     0.293 HD
ENDBRANCH  17  20
ENDBRANCH   1  12
BRANCH   6  22
ATOM     22  O   UNL     1      14.841  -7.375 -13.726  1.00  0.00    -0.507 OA
ATOM     23  H   UNL     1      14.786  -8.382 -13.707  1.00  0.00     0.293 HD
ENDBRANCH   6  22
BRANCH   8  24
ATOM     24  O   UNL     1      16.243  -3.573 -11.149  1.00  0.00    -0.508 OA
ATOM     25  H   UNL     1      16.463  -3.223 -10.224  1.00  0.00     0.293 HD
ENDBRANCH   8  24
TORSDOF 5
ENDMDL
MODEL 7
REMARK VINA RESULT:    -5.999      1.923      1.975
REMARK INTER + INTRA:          -7.369
REMARK INTER:                  -7.094
REMARK INTRA:                  -0.275
REMARK UNBOUND:                -0.318
REMARK SMILES O=c1cc(-c2ccc(O)c(O)c2)oc2cc(O)cc(O)c12
REMARK SMILES IDX 4 1 3 2 2 3 1 4 21 5 19 6 18 7 16 8 15 9 14 10 13 11 5 12
REMARK SMILES IDX 6 13 7 14 8 15 12 16 10 17 9 18 11 20 20 22 17 24
REMARK H PARENT 9 19 11 21 20 23 17 25
REMARK Flexibility Score: inf
ROOT
ATOM      1  C   UNL     1      11.174  -6.597  -9.818  1.00  0.00     0.138 A 
ATOM      2  C   UNL     1      10.969  -7.657  -8.925  1.00  0.00     0.100 A 
ATOM      3  C   UNL     1       9.775  -7.736  -8.208  1.00  0.00     0.197 A 
ATOM      4  O   UNL     1       9.645  -8.664  -7.368  1.00  0.00    -0.289 OA
ATOM      5  C   UNL     1       8.767  -6.764  -8.413  1.00  0.00     0.107 A 
ATOM      6  C   UNL     1       7.493  -6.766  -7.769  1.00  0.00     0.134 A 
ATOM      7  C   UNL     1       6.621  -5.687  -7.962  1.00  0.00     0.093 A 
ATOM      8  C   UNL     1       6.952  -4.637  -8.823  1.00  0.00     0.123 A 
ATOM      9  C   UNL     1       8.171  -4.654  -9.498  1.00  0.00     0.094 A 
ATOM     10  C   UNL     1       9.076  -5.698  -9.299  1.00  0.00     0.146 A 
ATOM     11  O   UNL     1      10.234  -5.667  -9.951  1.00  0.00    -0.456 OA
ENDROOT
BRANCH   1  12
ATOM     12  C   UNL     1      12.426  -6.466 -10.607  1.00  0.00     0.021 A 
ATOM     13  C   UNL     1      12.791  -7.418 -11.578  1.00  0.00     0.016 A 
ATOM     14  C   UNL     1      13.970  -7.264 -12.313  1.00  0.00     0.051 A 
ATOM     15  C   UNL     1      14.798  -6.156 -12.096  1.00  0.00     0.157 A 
ATOM     16  C   UNL     1      13.257  -5.350 -10.406  1.00  0.00     0.062 A 
ATOM     17  C   UNL     1      14.440  -5.197 -11.142  1.00  0.00     0.158 A 
BRANCH  15  18
ATOM     18  O   UNL     1      15.975  -6.001 -12.826  1.00  0.00    -0.504 OA
ATOM     19  H   UNL     1      16.885  -6.050 -12.381  1.00  0.00     0.293 HD
ENDBRANCH  15  18
BRANCH  17  20
ATOM     20  O   UNL     1      15.264  -4.092 -10.932  1.00  0.00    -0.504 OA
ATOM     21  H   UNL     1      16.274  -4.178 -10.928  1.00  0.00     0.293 HD
ENDBRANCH  17  20
ENDBRANCH   1  12
BRANCH   6  22
ATOM     22  O   UNL     1       7.030  -7.806  -6.957  1.00  0.00    -0.507 OA
ATOM     23  H   UNL     1       6.838  -8.743  -7.275  1.00  0.00     0.293 HD
ENDBRANCH   6  22
BRANCH   8  24
ATOM     24  O   UNL     1       6.071  -3.577  -9.020  1.00  0.00    -0.508 OA
ATOM     25  H   UNL     1       5.831  -3.253  -9.950  1.00  0.00     0.293 HD
ENDBRANCH   8  24
TORSDOF 5
ENDMDL
MODEL 8
REMARK VINA RESULT:    -5.988      9.558     13.221
REMARK INTER + INTRA:          -7.356
REMARK INTER:                  -7.041
REMARK INTRA:                  -0.315
REMARK UNBOUND:                -0.318
REMARK SMILES O=c1cc(-c2ccc(O)c(O)c2)oc2cc(O)cc(O)c12
REMARK SMILES IDX 4 1 3 2 2 3 1 4 21 5 19 6 18 7 16 8 15 9 14 10 13 11 5 12
REMARK SMILES IDX 6 13 7 14 8 15 12 16 10 17 9 18 11 20 20 22 17 24
REMARK H PARENT 9 19 11 21 20 23 17 25
REMARK Flexibility Score: inf
ROOT
ATOM      1  C   UNL     1      19.157  -1.629 -18.176  1.00  0.00     0.138 A 
ATOM      2  C   UNL     1      18.882  -3.002 -18.244  1.00  0.00     0.100 A 
ATOM      3  C   UNL     1      18.208  -3.625 -17.194  1.00  0.00     0.197 A 
ATOM      4  O   UNL     1      18.031  -4.870 -17.256  1.00  0.00    -0.289 OA
ATOM      5  C   UNL     1      17.778  -2.862 -16.083  1.00  0.00     0.107 A 
ATOM      6  C   UNL     1      17.047  -3.381 -14.973  1.00  0.00     0.134 A 
ATOM      7  C   UNL     1      16.777  -2.555 -13.876  1.00  0.00     0.093 A 
ATOM      8  C   UNL     1      17.160  -1.210 -13.875  1.00  0.00     0.123 A 
ATOM      9  C   UNL     1      17.826  -0.680 -14.977  1.00  0.00     0.094 A 
ATOM     10  C   UNL     1      18.140  -1.488 -16.072  1.00  0.00     0.146 A 
ATOM     11  O   UNL     1      18.790  -0.946 -17.096  1.00  0.00    -0.456 OA
ENDROOT
BRANCH   1  12
ATOM     12  C   UNL     1      19.870  -0.916 -19.266  1.00  0.00     0.021 A 
ATOM     13  C   UNL     1      19.997  -1.472 -20.554  1.00  0.00     0.016 A 
ATOM     14  C   UNL     1      20.665  -0.774 -21.564  1.00  0.00     0.051 A 
ATOM     15  C   UNL     1      21.208   0.491 -21.308  1.00  0.00     0.157 A 
ATOM     16  C   UNL     1      20.407   0.360 -19.022  1.00  0.00     0.062 A 
ATOM     17  C   UNL     1      21.078   1.059 -20.035  1.00  0.00     0.158 A 
BRANCH  15  18
ATOM     18  O   UNL     1      21.877   1.189 -22.312  1.00  0.00    -0.504 OA
ATOM     19  H   UNL     1      22.810   1.556 -22.171  1.00  0.00     0.293 HD
ENDBRANCH  15  18
BRANCH  17  20
ATOM     20  O   UNL     1      21.617   2.320 -19.785  1.00  0.00    -0.504 OA
ATOM     21  H   UNL     1      21.255   2.915 -19.049  1.00  0.00     0.293 HD
ENDBRANCH  17  20
ENDBRANCH   1  12
BRANCH   6  22
ATOM     22  O   UNL     1      16.545  -4.685 -14.910  1.00  0.00    -0.507 OA
ATOM     23  H   UNL     1      16.146  -5.111 -14.087  1.00  0.00     0.293 HD
ENDBRANCH   6  22
BRANCH   8  24
ATOM     24  O   UNL     1      16.873  -0.391 -12.785  1.00  0.00    -0.508 OA
ATOM     25  H   UNL     1      15.919  -0.202 -12.501  1.00  0.00     0.293 HD
ENDBRANCH   8  24
TORSDOF 5
ENDMDL
MODEL 9
REMARK VINA RESULT:    -5.902      2.132      3.083
REMARK INTER + INTRA:          -7.255
REMARK INTER:                  -6.968
REMARK INTRA:                  -0.288
REMARK UNBOUND:                -0.318
REMARK SMILES O=c1cc(-c2ccc(O)c(O)c2)oc2cc(O)cc(O)c12
REMARK SMILES IDX 4 1 3 2 2 3 1 4 21 5 19 6 18 7 16 8 15 9 14 10 13 11 5 12
REMARK SMILES IDX 6 13 7 14 8 15 12 16 10 17 9 18 11 20 20 22 17 24
REMARK H PARENT 9 19 11 21 20 23 17 25
REMARK Flexibility Score: inf
ROOT
ATOM      1  C   UNL     1      11.026  -7.325 -10.398  1.00  0.00     0.138 A 
ATOM      2  C   UNL     1      10.456  -6.165 -10.940  1.00  0.00     0.100 A 
ATOM      3  C   UNL     1       9.443  -5.504 -10.246  1.00  0.00     0.197 A 
ATOM      4  O   UNL     1       8.908  -4.501 -10.787  1.00  0.00    -0.289 OA
ATOM      5  C   UNL     1       9.020  -5.991  -8.987  1.00  0.00     0.107 A 
ATOM      6  C   UNL     1       8.025  -5.376  -8.170  1.00  0.00     0.134 A 
ATOM      7  C   UNL     1       7.606  -6.012  -6.995  1.00  0.00     0.093 A 
ATOM      8  C   UNL     1       8.190  -7.211  -6.577  1.00  0.00     0.123 A 
ATOM      9  C   UNL     1       9.201  -7.791  -7.340  1.00  0.00     0.094 A 
ATOM     10  C   UNL     1       9.617  -7.197  -8.534  1.00  0.00     0.146 A 
ATOM     11  O   UNL     1      10.574  -7.792  -9.239  1.00  0.00    -0.456 OA
ENDROOT
BRANCH   1  12
ATOM     12  C   UNL     1      12.109  -8.067 -11.094  1.00  0.00     0.021 A 
ATOM     13  C   UNL     1      12.300  -9.449 -10.900  1.00  0.00     0.016 A 
ATOM     14  C   UNL     1      13.320 -10.125 -11.575  1.00  0.00     0.051 A 
ATOM     15  C   UNL     1      14.159  -9.435 -12.459  1.00  0.00     0.157 A 
ATOM     16  C   UNL     1      12.948  -7.387 -11.993  1.00  0.00     0.062 A 
ATOM     17  C   UNL     1      13.972  -8.065 -12.669  1.00  0.00     0.158 A 
BRANCH  15  18
ATOM     18  O   UNL     1      15.179 -10.106 -13.132  1.00  0.00    -0.504 OA
ATOM     19  H   UNL     1      15.048 -11.044 -13.493  1.00  0.00     0.293 HD
ENDBRANCH  15  18
BRANCH  17  20
ATOM     20  O   UNL     1      14.807  -7.382 -13.552  1.00  0.00    -0.504 OA
ATOM     21  H   UNL     1      15.809  -7.532 -13.558  1.00  0.00     0.293 HD
ENDBRANCH  17  20
ENDBRANCH   1  12
BRANCH   6  22
ATOM     22  O   UNL     1       7.438  -4.138  -8.452  1.00  0.00    -0.507 OA
ATOM     23  H   UNL     1       7.225  -3.798  -9.378  1.00  0.00     0.293 HD
ENDBRANCH   6  22
BRANCH   8  24
ATOM     24  O   UNL     1       7.778  -7.828  -5.398  1.00  0.00    -0.508 OA
ATOM     25  H   UNL     1       8.130  -8.738  -5.125  1.00  0.00     0.293 HD
ENDBRANCH   8  24
TORSDOF 5
ENDMDL
