MODEL 1
REMARK VINA RESULT:    -6.706      0.000      0.000
REMARK INTER + INTRA:          -6.706
REMARK INTER:                  -6.706
REMARK INTRA:                   0.000
REMARK UNBOUND:                 0.000
REMARK SMILES C[C@H]1CCC=C2CC[C@H]3[C@H](C3(C)C)[C@@]21C
REMARK SMILES IDX 1 1 2 2 3 3 4 4 5 5 6 6 14 7 10 8 9 9 11 10 12 11 13 12 8 13
REMARK SMILES IDX 7 14 15 15
REMARK H PARENT
REMARK Flexibility Score: inf
ROOT
ATOM      1  C   UNL     1      10.378  32.738  26.140  1.00  0.00     0.008 C 
ATOM      2  C   UNL     1       9.812  32.393  24.748  1.00  0.00    -0.004 C 
ATOM      3  C   UNL     1       8.417  31.723  24.887  1.00  0.00     0.008 C 
ATOM      4  C   UNL     1       7.282  32.701  24.621  1.00  0.00     0.027 C 
ATOM      5  C   UNL     1       7.432  33.265  23.242  1.00  0.00    -0.027 C 
ATOM      6  C   UNL     1       8.642  33.631  22.774  1.00  0.00    -0.068 C 
ATOM      7  C   UNL     1       9.876  33.584  23.683  1.00  0.00    -0.005 C 
ATOM      8  C   UNL     1      11.212  33.466  22.872  1.00  0.00     0.009 C 
ATOM      9  C   UNL     1      11.192  33.618  21.334  1.00  0.00    -0.000 C 
ATOM     10  C   UNL     1      11.539  32.257  21.970  1.00  0.00    -0.028 C 
ATOM     11  C   UNL     1      10.559  31.078  21.809  1.00  0.00     0.012 C 
ATOM     12  C   UNL     1      13.025  31.887  21.890  1.00  0.00     0.012 C 
ATOM     13  C   UNL     1       9.847  33.728  20.590  1.00  0.00     0.009 C 
ATOM     14  C   UNL     1       8.736  34.325  21.439  1.00  0.00     0.031 C 
ATOM     15  C   UNL     1       9.915  34.973  24.380  1.00  0.00     0.017 C 
ENDROOT
TORSDOF 0
ENDMDL
MODEL 2
REMARK VINA RESULT:    -6.098      0.879      4.004
REMARK INTER + INTRA:          -6.098
REMARK INTER:                  -6.098
REMARK INTRA:                   0.000
REMARK UNBOUND:                 0.000
REMARK SMILES C[C@H]1CCC=C2CC[C@H]3[C@H](C3(C)C)[C@@]21C
REMARK SMILES IDX 1 1 2 2 3 3 4 4 5 5 6 6 14 7 10 8 9 9 11 10 12 11 13 12 8 13
REMARK SMILES IDX 7 14 15 15
REMARK H PARENT
REMARK Flexibility Score: inf
ROOT
ATOM      1  C   UNL     1      12.263  31.274  21.974  1.00  0.00     0.008 C 
ATOM      2  C   UNL     1      11.344  32.479  22.254  1.00  0.00    -0.004 C 
ATOM      3  C   UNL     1      11.656  33.635  21.264  1.00  0.00     0.008 C 
ATOM      4  C   UNL     1      10.653  33.696  20.120  1.00  0.00     0.027 C 
ATOM      5  C   UNL     1       9.277  33.876  20.682  1.00  0.00    -0.027 C 
ATOM      6  C   UNL     1       8.881  33.188  21.772  1.00  0.00    -0.068 C 
ATOM      7  C   UNL     1       9.791  32.122  22.392  1.00  0.00    -0.005 C 
ATOM      8  C   UNL     1       9.464  31.864  23.904  1.00  0.00     0.009 C 
ATOM      9  C   UNL     1       8.204  32.498  24.535  1.00  0.00    -0.000 C 
ATOM     10  C   UNL     1       9.605  32.953  24.988  1.00  0.00    -0.028 C 
ATOM     11  C   UNL     1      10.081  34.379  24.647  1.00  0.00     0.012 C 
ATOM     12  C   UNL     1      10.015  32.443  26.375  1.00  0.00     0.012 C 
ATOM     13  C   UNL     1       7.361  33.502  23.727  1.00  0.00     0.009 C 
ATOM     14  C   UNL     1       7.446  33.288  22.224  1.00  0.00     0.031 C 
ATOM     15  C   UNL     1       9.437  30.806  21.644  1.00  0.00     0.017 C 
ENDROOT
TORSDOF 0
ENDMDL
MODEL 3
REMARK VINA RESULT:    -6.033      2.716      4.826
REMARK INTER + INTRA:          -6.033
REMARK INTER:                  -6.033
REMARK INTRA:                   0.000
REMARK UNBOUND:                 0.000
REMARK SMILES C[C@H]1CCC=C2CC[C@H]3[C@H](C3(C)C)[C@@]21C
REMARK SMILES IDX 1 1 2 2 3 3 4 4 5 5 6 6 14 7 10 8 9 9 11 10 12 11 13 12 8 13
REMARK SMILES IDX 7 14 15 15
REMARK H PARENT
REMARK Flexibility Score: inf
ROOT
ATOM      1  C   UNL     1       9.947  31.222  21.537  1.00  0.00     0.008 C 
ATOM      2  C   UNL     1      11.236  31.501  20.739  1.00  0.00    -0.004 C 
ATOM      3  C   UNL     1      10.897  32.215  19.402  1.00  0.00     0.008 C 
ATOM      4  C   UNL     1      11.142  33.716  19.476  1.00  0.00     0.027 C 
ATOM      5  C   UNL     1      12.576  33.964  19.826  1.00  0.00    -0.027 C 
ATOM      6  C   UNL     1      13.195  33.223  20.767  1.00  0.00    -0.068 C 
ATOM      7  C   UNL     1      12.412  32.186  21.581  1.00  0.00    -0.005 C 
ATOM      8  C   UNL     1      13.336  31.062  22.164  1.00  0.00     0.009 C 
ATOM      9  C   UNL     1      14.872  31.203  22.064  1.00  0.00    -0.000 C 
ATOM     10  C   UNL     1      14.147  30.098  21.271  1.00  0.00    -0.028 C 
ATOM     11  C   UNL     1      14.096  30.182  19.733  1.00  0.00     0.012 C 
ATOM     12  C   UNL     1      14.337  28.687  21.842  1.00  0.00     0.012 C 
ATOM     13  C   UNL     1      15.487  32.364  21.257  1.00  0.00     0.009 C 
ATOM     14  C   UNL     1      14.593  33.592  21.193  1.00  0.00     0.031 C 
ATOM     15  C   UNL     1      11.859  32.969  22.804  1.00  0.00     0.017 C 
ENDROOT
TORSDOF 0
ENDMDL
MODEL 4
REMARK VINA RESULT:    -5.863      1.477      4.435
REMARK INTER + INTRA:          -5.863
REMARK INTER:                  -5.863
REMARK INTRA:                   0.000
REMARK UNBOUND:                 0.000
REMARK SMILES C[C@H]1CCC=C2CC[C@H]3[C@H](C3(C)C)[C@@]21C
REMARK SMILES IDX 1 1 2 2 3 3 4 4 5 5 6 6 14 7 10 8 9 9 11 10 12 11 13 12 8 13
REMARK SMILES IDX 7 14 15 15
REMARK H PARENT
REMARK Flexibility Score: inf
ROOT
ATOM      1  C   UNL     1      13.738  33.493  21.629  1.00  0.00     0.008 C 
ATOM      2  C   UNL     1      12.227  33.493  21.326  1.00  0.00    -0.004 C 
ATOM      3  C   UNL     1      11.977  33.862  19.838  1.00  0.00     0.008 C 
ATOM      4  C   UNL     1      11.701  32.634  18.981  1.00  0.00     0.027 C 
ATOM      5  C   UNL     1      10.508  31.912  19.526  1.00  0.00    -0.027 C 
ATOM      6  C   UNL     1      10.348  31.747  20.854  1.00  0.00    -0.068 C 
ATOM      7  C   UNL     1      11.441  32.195  21.832  1.00  0.00    -0.005 C 
ATOM      8  C   UNL     1      10.880  32.472  23.269  1.00  0.00     0.009 C 
ATOM      9  C   UNL     1       9.422  32.087  23.612  1.00  0.00    -0.000 C 
ATOM     10  C   UNL     1       9.837  33.571  23.563  1.00  0.00    -0.028 C 
ATOM     11  C   UNL     1       9.276  34.475  22.447  1.00  0.00     0.012 C 
ATOM     12  C   UNL     1       9.960  34.235  24.941  1.00  0.00     0.012 C 
ATOM     13  C   UNL     1       8.481  31.580  22.503  1.00  0.00     0.009 C 
ATOM     14  C   UNL     1       9.211  30.895  21.358  1.00  0.00     0.031 C 
ATOM     15  C   UNL     1      12.387  30.969  21.966  1.00  0.00     0.017 C 
ENDROOT
TORSDOF 0
ENDMDL
MODEL 5
REMARK VINA RESULT:    -5.863      1.237      2.008
REMARK INTER + INTRA:          -5.863
REMARK INTER:                  -5.863
REMARK INTRA:                   0.000
REMARK UNBOUND:                 0.000
REMARK SMILES C[C@H]1CCC=C2CC[C@H]3[C@H](C3(C)C)[C@@]21C
REMARK SMILES IDX 1 1 2 2 3 3 4 4 5 5 6 6 14 7 10 8 9 9 11 10 12 11 13 12 8 13
REMARK SMILES IDX 7 14 15 15
REMARK H PARENT
REMARK Flexibility Score: inf
ROOT
ATOM      1  C   UNL     1       9.611  35.061  24.332  1.00  0.00     0.008 C 
ATOM      2  C   UNL     1       9.889  33.622  23.853  1.00  0.00    -0.004 C 
ATOM      3  C   UNL     1       9.248  32.598  24.829  1.00  0.00     0.008 C 
ATOM      4  C   UNL     1       7.930  32.049  24.300  1.00  0.00     0.027 C 
ATOM      5  C   UNL     1       8.166  31.398  22.973  1.00  0.00    -0.027 C 
ATOM      6  C   UNL     1       8.972  31.969  22.057  1.00  0.00    -0.068 C 
ATOM      7  C   UNL     1       9.575  33.356  22.307  1.00  0.00    -0.005 C 
ATOM      8  C   UNL     1      10.882  33.599  21.477  1.00  0.00     0.009 C 
ATOM      9  C   UNL     1      11.301  32.582  20.391  1.00  0.00    -0.000 C 
ATOM     10  C   UNL     1      12.160  32.750  21.660  1.00  0.00    -0.028 C 
ATOM     11  C   UNL     1      12.227  31.599  22.683  1.00  0.00     0.012 C 
ATOM     12  C   UNL     1      13.478  33.500  21.433  1.00  0.00     0.012 C 
ATOM     13  C   UNL     1      10.524  31.261  20.234  1.00  0.00     0.009 C 
ATOM     14  C   UNL     1       9.074  31.358  20.682  1.00  0.00     0.031 C 
ATOM     15  C   UNL     1       8.522  34.358  21.757  1.00  0.00     0.017 C 
ENDROOT
TORSDOF 0
ENDMDL
MODEL 6
REMARK VINA RESULT:    -5.854      3.533      5.772
REMARK INTER + INTRA:          -5.854
REMARK INTER:                  -5.854
REMARK INTRA:                   0.000
REMARK UNBOUND:                 0.000
REMARK SMILES C[C@H]1CCC=C2CC[C@H]3[C@H](C3(C)C)[C@@]21C
REMARK SMILES IDX 1 1 2 2 3 3 4 4 5 5 6 6 14 7 10 8 9 9 11 10 12 11 13 12 8 13
REMARK SMILES IDX 7 14 15 15
REMARK H PARENT
REMARK Flexibility Score: inf
ROOT
ATOM      1  C   UNL     1      14.901  29.046  19.003  1.00  0.00     0.008 C 
ATOM      2  C   UNL     1      13.859  30.148  19.280  1.00  0.00    -0.004 C 
ATOM      3  C   UNL     1      12.474  29.731  18.714  1.00  0.00     0.008 C 
ATOM      4  C   UNL     1      11.548  29.196  19.799  1.00  0.00     0.027 C 
ATOM      5  C   UNL     1      11.365  30.245  20.850  1.00  0.00    -0.027 C 
ATOM      6  C   UNL     1      12.409  30.980  21.282  1.00  0.00    -0.068 C 
ATOM      7  C   UNL     1      13.830  30.680  20.788  1.00  0.00    -0.005 C 
ATOM      8  C   UNL     1      14.777  31.923  20.904  1.00  0.00     0.009 C 
ATOM      9  C   UNL     1      14.298  33.187  21.654  1.00  0.00    -0.000 C 
ATOM     10  C   UNL     1      14.533  33.237  20.131  1.00  0.00    -0.028 C 
ATOM     11  C   UNL     1      13.326  33.409  19.187  1.00  0.00     0.012 C 
ATOM     12  C   UNL     1      15.800  33.994  19.715  1.00  0.00     0.012 C 
ATOM     13  C   UNL     1      12.841  33.282  22.148  1.00  0.00     0.009 C 
ATOM     14  C   UNL     1      12.215  31.927  22.439  1.00  0.00     0.031 C 
ATOM     15  C   UNL     1      14.385  29.620  21.781  1.00  0.00     0.017 C 
ENDROOT
TORSDOF 0
ENDMDL
MODEL 7
REMARK VINA RESULT:    -5.663      2.945      5.624
REMARK INTER + INTRA:          -5.663
REMARK INTER:                  -5.663
REMARK INTRA:                   0.000
REMARK UNBOUND:                 0.000
REMARK SMILES C[C@H]1CCC=C2CC[C@H]3[C@H](C3(C)C)[C@@]21C
REMARK SMILES IDX 1 1 2 2 3 3 4 4 5 5 6 6 14 7 10 8 9 9 11 10 12 11 13 12 8 13
REMARK SMILES IDX 7 14 15 15
REMARK H PARENT
REMARK Flexibility Score: inf
ROOT
ATOM      1  C   UNL     1      14.463  28.659  21.678  1.00  0.00     0.008 C 
ATOM      2  C   UNL     1      14.030  30.097  22.025  1.00  0.00    -0.004 C 
ATOM      3  C   UNL     1      14.958  30.688  23.122  1.00  0.00     0.008 C 
ATOM      4  C   UNL     1      16.015  31.616  22.540  1.00  0.00     0.027 C 
ATOM      5  C   UNL     1      15.340  32.730  21.802  1.00  0.00    -0.027 C 
ATOM      6  C   UNL     1      14.274  32.489  21.013  1.00  0.00    -0.068 C 
ATOM      7  C   UNL     1      13.800  31.052  20.762  1.00  0.00    -0.005 C 
ATOM      8  C   UNL     1      12.290  30.985  20.347  1.00  0.00     0.009 C 
ATOM      9  C   UNL     1      11.522  32.289  20.033  1.00  0.00    -0.000 C 
ATOM     10  C   UNL     1      11.145  31.452  21.272  1.00  0.00    -0.028 C 
ATOM     11  C   UNL     1      11.422  32.021  22.678  1.00  0.00     0.012 C 
ATOM     12  C   UNL     1       9.833  30.673  21.129  1.00  0.00     0.012 C 
ATOM     13  C   UNL     1      12.192  33.655  20.280  1.00  0.00     0.009 C 
ATOM     14  C   UNL     1      13.708  33.609  20.177  1.00  0.00     0.031 C 
ATOM     15  C   UNL     1      14.610  30.571  19.526  1.00  0.00     0.017 C 
ENDROOT
TORSDOF 0
ENDMDL
MODEL 8
REMARK VINA RESULT:    -5.643      3.518      6.295
REMARK INTER + INTRA:          -5.643
REMARK INTER:                  -5.643
REMARK INTRA:                   0.000
REMARK UNBOUND:                 0.000
REMARK SMILES C[C@H]1CCC=C2CC[C@H]3[C@H](C3(C)C)[C@@]21C
REMARK SMILES IDX 1 1 2 2 3 3 4 4 5 5 6 6 14 7 10 8 9 9 11 10 12 11 13 12 8 13
REMARK SMILES IDX 7 14 15 15
REMARK H PARENT
REMARK Flexibility Score: inf
ROOT
ATOM      1  C   UNL     1      12.843  29.252  18.168  1.00  0.00     0.008 C 
ATOM      2  C   UNL     1      12.844  29.868  19.581  1.00  0.00    -0.004 C 
ATOM      3  C   UNL     1      12.611  28.764  20.649  1.00  0.00     0.008 C 
ATOM      4  C   UNL     1      13.908  28.328  21.316  1.00  0.00     0.027 C 
ATOM      5  C   UNL     1      14.555  29.517  21.956  1.00  0.00    -0.027 C 
ATOM      6  C   UNL     1      14.593  30.707  21.324  1.00  0.00    -0.068 C 
ATOM      7  C   UNL     1      14.076  30.842  19.887  1.00  0.00    -0.005 C 
ATOM      8  C   UNL     1      13.656  32.311  19.539  1.00  0.00     0.009 C 
ATOM      9  C   UNL     1      13.982  33.457  20.525  1.00  0.00    -0.000 C 
ATOM     10  C   UNL     1      12.516  33.053  20.270  1.00  0.00    -0.028 C 
ATOM     11  C   UNL     1      11.711  32.384  21.401  1.00  0.00     0.012 C 
ATOM     12  C   UNL     1      11.730  34.049  19.409  1.00  0.00     0.012 C 
ATOM     13  C   UNL     1      14.573  33.133  21.911  1.00  0.00     0.009 C 
ATOM     14  C   UNL     1      15.375  31.841  21.937  1.00  0.00     0.031 C 
ATOM     15  C   UNL     1      15.300  30.517  18.987  1.00  0.00     0.017 C 
ENDROOT
TORSDOF 0
ENDMDL
MODEL 9
REMARK VINA RESULT:    -5.577      1.704      3.898
REMARK INTER + INTRA:          -5.577
REMARK INTER:                  -5.577
REMARK INTRA:                   0.000
REMARK UNBOUND:                 0.000
REMARK SMILES C[C@H]1CCC=C2CC[C@H]3[C@H](C3(C)C)[C@@]21C
REMARK SMILES IDX 1 1 2 2 3 3 4 4 5 5 6 6 14 7 10 8 9 9 11 10 12 11 13 12 8 13
REMARK SMILES IDX 7 14 15 15
REMARK H PARENT
REMARK Flexibility Score: inf
ROOT
ATOM      1  C   UNL     1       9.271  30.990  18.884  1.00  0.00     0.008 C 
ATOM      2  C   UNL     1       9.847  32.207  19.634  1.00  0.00    -0.004 C 
ATOM      3  C   UNL     1       9.412  33.524  18.936  1.00  0.00     0.008 C 
ATOM      4  C   UNL     1       8.245  34.193  19.648  1.00  0.00     0.027 C 
ATOM      5  C   UNL     1       8.634  34.482  21.065  1.00  0.00    -0.027 C 
ATOM      6  C   UNL     1       9.322  33.578  21.790  1.00  0.00    -0.068 C 
ATOM      7  C   UNL     1       9.623  32.187  21.218  1.00  0.00    -0.005 C 
ATOM      8  C   UNL     1      10.868  31.519  21.896  1.00  0.00     0.009 C 
ATOM      9  C   UNL     1      11.507  32.173  23.142  1.00  0.00    -0.000 C 
ATOM     10  C   UNL     1      12.289  32.119  21.815  1.00  0.00    -0.028 C 
ATOM     11  C   UNL     1      12.572  33.428  21.053  1.00  0.00     0.012 C 
ATOM     12  C   UNL     1      13.429  31.093  21.798  1.00  0.00     0.012 C 
ATOM     13  C   UNL     1      11.020  33.555  23.620  1.00  0.00     0.009 C 
ATOM     14  C   UNL     1       9.573  33.844  23.252  1.00  0.00     0.031 C 
ATOM     15  C   UNL     1       8.397  31.317  21.612  1.00  0.00     0.017 C 
ENDROOT
TORSDOF 0
ENDMDL
