MODEL 1
REMARK VINA RESULT:    -2.325      0.000      0.000
REMARK INTER + INTRA:          -2.325
REMARK INTER:                  -2.325
REMARK INTRA:                   0.000
REMARK UNBOUND:                 0.000
REMARK SMILES CC(=O)[O-]
REMARK SMILES IDX 1 1 2 2 3 3 4 4
REMARK H PARENT
REMARK Flexibility Score: inf
ROOT
ATOM      1  C   UNL     1     139.385 136.824 130.850  1.00  0.00     0.063 C 
ATOM      2  C   UNL     1     140.119 135.541 130.651  1.00  0.00     0.038 C 
ATOM      3  O   UNL     1     140.142 134.996 129.517  1.00  0.00    -0.550 OA
ATOM      4  O   UNL     1     140.824 134.972 131.703  1.00  0.00    -0.550 OA
ENDROOT
TORSDOF 0
ENDMDL
MODEL 2
REMARK VINA RESULT:    -2.317      0.187      1.629
REMARK INTER + INTRA:          -2.317
REMARK INTER:                  -2.317
REMARK INTRA:                   0.000
REMARK UNBOUND:                 0.000
REMARK SMILES CC(=O)[O-]
REMARK SMILES IDX 1 1 2 2 3 3 4 4
REMARK H PARENT
REMARK Flexibility Score: inf
ROOT
ATOM      1  C   UNL     1     139.511 136.808 130.840  1.00  0.00     0.063 C 
ATOM      2  C   UNL     1     140.174 135.501 130.570  1.00  0.00     0.038 C 
ATOM      3  O   UNL     1     140.831 134.926 131.477  1.00  0.00    -0.550 OA
ATOM      4  O   UNL     1     140.024 134.887 129.334  1.00  0.00    -0.550 OA
ENDROOT
TORSDOF 0
ENDMDL
MODEL 3
REMARK VINA RESULT:    -2.246      1.401      1.961
REMARK INTER + INTRA:          -2.246
REMARK INTER:                  -2.246
REMARK INTRA:                   0.000
REMARK UNBOUND:                 0.000
REMARK SMILES CC(=O)[O-]
REMARK SMILES IDX 1 1 2 2 3 3 4 4
REMARK H PARENT
REMARK Flexibility Score: inf
ROOT
ATOM      1  C   UNL     1     139.603 134.958 129.373  1.00  0.00     0.063 C 
ATOM      2  C   UNL     1     140.018 135.570 130.668  1.00  0.00     0.038 C 
ATOM      3  O   UNL     1     140.795 134.950 131.440  1.00  0.00    -0.550 OA
ATOM      4  O   UNL     1     139.591 136.849 131.002  1.00  0.00    -0.550 OA
ENDROOT
TORSDOF 0
ENDMDL
MODEL 4
REMARK VINA RESULT:    -2.224      3.034      3.429
REMARK INTER + INTRA:          -2.224
REMARK INTER:                  -2.224
REMARK INTRA:                   0.000
REMARK UNBOUND:                 0.000
REMARK SMILES CC(=O)[O-]
REMARK SMILES IDX 1 1 2 2 3 3 4 4
REMARK H PARENT
REMARK Flexibility Score: inf
ROOT
ATOM      1  C   UNL     1     136.779 138.797 130.296  1.00  0.00     0.063 C 
ATOM      2  C   UNL     1     137.720 137.654 130.474  1.00  0.00     0.038 C 
ATOM      3  O   UNL     1     137.290 136.535 130.858  1.00  0.00    -0.550 OA
ATOM      4  O   UNL     1     139.065 137.807 130.165  1.00  0.00    -0.550 OA
ENDROOT
TORSDOF 0
ENDMDL
MODEL 5
REMARK VINA RESULT:    -2.183      2.142      2.406
REMARK INTER + INTRA:          -2.183
REMARK INTER:                  -2.183
REMARK INTRA:                   0.000
REMARK UNBOUND:                 0.000
REMARK SMILES CC(=O)[O-]
REMARK SMILES IDX 1 1 2 2 3 3 4 4
REMARK H PARENT
REMARK Flexibility Score: inf
ROOT
ATOM      1  C   UNL     1     140.314 135.385 130.440  1.00  0.00     0.063 C 
ATOM      2  C   UNL     1     139.216 136.392 130.510  1.00  0.00     0.038 C 
ATOM      3  O   UNL     1     139.467 137.613 130.337  1.00  0.00    -0.550 OA
ATOM      4  O   UNL     1     137.905 135.980 130.712  1.00  0.00    -0.550 OA
ENDROOT
TORSDOF 0
ENDMDL
MODEL 6
REMARK VINA RESULT:    -2.179      1.776      2.218
REMARK INTER + INTRA:          -2.179
REMARK INTER:                  -2.179
REMARK INTRA:                   0.000
REMARK UNBOUND:                 0.000
REMARK SMILES CC(=O)[O-]
REMARK SMILES IDX 1 1 2 2 3 3 4 4
REMARK H PARENT
REMARK Flexibility Score: inf
ROOT
ATOM      1  C   UNL     1     141.412 134.633 132.507  1.00  0.00     0.063 C 
ATOM      2  C   UNL     1     140.548 134.568 131.293  1.00  0.00     0.038 C 
ATOM      3  O   UNL     1     140.039 133.474 130.937  1.00  0.00    -0.550 OA
ATOM      4  O   UNL     1     140.259 135.726 130.583  1.00  0.00    -0.550 OA
ENDROOT
TORSDOF 0
ENDMDL
MODEL 7
REMARK VINA RESULT:    -2.101      1.890      2.350
REMARK INTER + INTRA:          -2.101
REMARK INTER:                  -2.101
REMARK INTRA:                   0.000
REMARK UNBOUND:                 0.000
REMARK SMILES CC(=O)[O-]
REMARK SMILES IDX 1 1 2 2 3 3 4 4
REMARK H PARENT
REMARK Flexibility Score: inf
ROOT
ATOM      1  C   UNL     1     140.209 135.305 130.087  1.00  0.00     0.063 C 
ATOM      2  C   UNL     1     139.408 134.129 130.535  1.00  0.00     0.038 C 
ATOM      3  O   UNL     1     139.980 133.139 131.061  1.00  0.00    -0.550 OA
ATOM      4  O   UNL     1     138.024 134.146 130.421  1.00  0.00    -0.550 OA
ENDROOT
TORSDOF 0
ENDMDL
MODEL 8
REMARK VINA RESULT:    -2.044      5.900      6.218
REMARK INTER + INTRA:          -2.044
REMARK INTER:                  -2.044
REMARK INTRA:                   0.000
REMARK UNBOUND:                 0.000
REMARK SMILES CC(=O)[O-]
REMARK SMILES IDX 1 1 2 2 3 3 4 4
REMARK H PARENT
REMARK Flexibility Score: inf
ROOT
ATOM      1  C   UNL     1     138.531 130.488 128.691  1.00  0.00     0.063 C 
ATOM      2  C   UNL     1     137.350 131.177 128.096  1.00  0.00     0.038 C 
ATOM      3  O   UNL     1     136.449 131.644 128.841  1.00  0.00    -0.550 OA
ATOM      4  O   UNL     1     137.268 131.354 126.721  1.00  0.00    -0.550 OA
ENDROOT
TORSDOF 0
ENDMDL
MODEL 9
REMARK VINA RESULT:    -2.019      5.672      5.786
REMARK INTER + INTRA:          -2.019
REMARK INTER:                  -2.019
REMARK INTRA:                   0.000
REMARK UNBOUND:                 0.000
REMARK SMILES CC(=O)[O-]
REMARK SMILES IDX 1 1 2 2 3 3 4 4
REMARK H PARENT
REMARK Flexibility Score: inf
ROOT
ATOM      1  C   UNL     1     134.376 133.875 129.501  1.00  0.00     0.063 C 
ATOM      2  C   UNL     1     135.061 133.128 130.595  1.00  0.00     0.038 C 
ATOM      3  O   UNL     1     134.386 132.484 131.440  1.00  0.00    -0.550 OA
ATOM      4  O   UNL     1     136.448 133.097 130.653  1.00  0.00    -0.550 OA
ENDROOT
TORSDOF 0
ENDMDL
