MODEL 1
REMARK VINA RESULT:    -4.362      0.000      0.000
REMARK INTER + INTRA:         -15.692
REMARK INTER:                 -11.502
REMARK INTRA:                  -4.190
REMARK UNBOUND:                -4.190
REMARK SMILES CCCCCCCCCCCCCCCCCCCCCCCCCCCCCC(=O)[O-]
REMARK SMILES IDX 16 1 17 2 18 3 19 4 20 5 21 6 22 7 23 8 24 9 25 10 26 11
REMARK SMILES IDX 27 12 28 13 29 14 30 15 31 16 32 17 15 18 14 19 13 20 12 21
REMARK SMILES IDX 11 22 10 23 9 24 8 25 7 26 6 27 5 28 4 29 3 30 2 31 1 32
REMARK H PARENT
REMARK Flexibility Score: inf
ROOT
ATOM      1  C   UNL     1       9.485  13.739 161.781  1.00  0.00     0.000 C 
ENDROOT
BRANCH   1   2
ATOM      2  C   UNL     1      10.496  12.786 161.105  1.00  0.00     0.000 C 
BRANCH   2   3
ATOM      3  C   UNL     1      11.598  12.280 162.050  1.00  0.00     0.000 C 
BRANCH   3   4
ATOM      4  C   UNL     1      11.194  12.357 163.531  1.00  0.00     0.000 C 
BRANCH   4   5
ATOM      5  C   UNL     1      11.923  13.473 164.290  1.00  0.00     0.000 C 
BRANCH   5   6
ATOM      6  C   UNL     1      11.161  13.928 165.550  1.00  0.00     0.000 C 
BRANCH   6   7
ATOM      7  C   UNL     1      11.394  15.414 165.867  1.00  0.00     0.000 C 
BRANCH   7   8
ATOM      8  C   UNL     1      10.077  16.204 165.959  1.00  0.00     0.000 C 
BRANCH   8   9
ATOM      9  C   UNL     1       9.917  17.224 164.817  1.00  0.00     0.000 C 
BRANCH   9  10
ATOM     10  C   UNL     1       8.846  18.308 165.060  1.00  0.00     0.000 C 
BRANCH  10  11
ATOM     11  C   UNL     1       7.918  18.052 166.264  1.00  0.00     0.000 C 
BRANCH  11  12
ATOM     12  C   UNL     1       6.557  17.422 165.917  1.00  0.00     0.000 C 
BRANCH  12  13
ATOM     13  C   UNL     1       5.863  16.784 167.134  1.00  0.00     0.006 C 
BRANCH  13  14
ATOM     14  C   UNL     1       6.626  17.052 168.439  1.00  0.00     0.053 C 
BRANCH  14  15
ATOM     15  C   UNL     1       7.072  15.779 169.092  1.00  0.00     0.041 C 
ATOM     16  O   UNL     1       7.846  14.992 168.485  1.00  0.00    -0.550 OA
ATOM     17  O   UNL     1       6.668  15.484 170.388  1.00  0.00    -0.550 OA
ENDBRANCH  14  15
ENDBRANCH  13  14
ENDBRANCH  12  13
ENDBRANCH  11  12
ENDBRANCH  10  11
ENDBRANCH   9  10
ENDBRANCH   8   9
ENDBRANCH   7   8
ENDBRANCH   6   7
ENDBRANCH   5   6
ENDBRANCH   4   5
ENDBRANCH   3   4
ENDBRANCH   2   3
ENDBRANCH   1   2
BRANCH   1  18
ATOM     18  C   UNL     1       9.917  15.218 161.751  1.00  0.00     0.000 C 
BRANCH  18  19
ATOM     19  C   UNL     1      10.185  15.738 160.319  1.00  0.00     0.000 C 
BRANCH  19  20
ATOM     20  C   UNL     1      11.500  16.540 160.225  1.00  0.00     0.000 C 
BRANCH  20  21
ATOM     21  C   UNL     1      11.312  17.895 159.527  1.00  0.00     0.000 C 
BRANCH  21  22
ATOM     22  C   UNL     1      11.282  19.083 160.507  1.00  0.00     0.000 C 
BRANCH  22  23
ATOM     23  C   UNL     1      11.399  18.622 161.972  1.00  0.00     0.000 C 
BRANCH  23  24
ATOM     24  C   UNL     1      12.717  19.063 162.637  1.00  0.00    -0.000 C 
BRANCH  24  25
ATOM     25  C   UNL     1      13.209  18.053 163.692  1.00  0.00    -0.000 C 
BRANCH  25  26
ATOM     26  C   UNL     1      13.108  16.600 163.205  1.00  0.00    -0.000 C 
BRANCH  26  27
ATOM     27  C   UNL     1      14.473  16.006 162.815  1.00  0.00    -0.000 C 
BRANCH  27  28
ATOM     28  C   UNL     1      14.337  14.686 162.038  1.00  0.00    -0.000 C 
BRANCH  28  29
ATOM     29  C   UNL     1      15.034  13.511 162.748  1.00  0.00    -0.000 C 
BRANCH  29  30
ATOM     30  C   UNL     1      16.430  13.876 163.274  1.00  0.00    -0.000 C 
BRANCH  30  31
ATOM     31  C   UNL     1      17.529  13.684 162.218  1.00  0.00    -0.003 C 
ATOM     32  C   UNL     1      18.727  14.586 162.497  1.00  0.00     0.004 C 
ENDBRANCH  30  31
ENDBRANCH  29  30
ENDBRANCH  28  29
ENDBRANCH  27  28
ENDBRANCH  26  27
ENDBRANCH  25  26
ENDBRANCH  24  25
ENDBRANCH  23  24
ENDBRANCH  22  23
ENDBRANCH  21  22
ENDBRANCH  20  21
ENDBRANCH  19  20
ENDBRANCH  18  19
ENDBRANCH   1  18
TORSDOF 28
ENDMDL
MODEL 2
REMARK VINA RESULT:    -3.736      3.352      8.078
REMARK INTER + INTRA:         -14.041
REMARK INTER:                  -9.667
REMARK INTRA:                  -4.374
REMARK UNBOUND:                -4.190
REMARK SMILES CCCCCCCCCCCCCCCCCCCCCCCCCCCCCC(=O)[O-]
REMARK SMILES IDX 16 1 17 2 18 3 19 4 20 5 21 6 22 7 23 8 24 9 25 10 26 11
REMARK SMILES IDX 27 12 28 13 29 14 30 15 31 16 32 17 15 18 14 19 13 20 12 21
REMARK SMILES IDX 11 22 10 23 9 24 8 25 7 26 6 27 5 28 4 29 3 30 2 31 1 32
REMARK H PARENT
REMARK Flexibility Score: inf
ROOT
ATOM      1  C   UNL     1      11.729  12.501 162.041  1.00  0.00     0.000 C 
ENDROOT
BRANCH   1   2
ATOM      2  C   UNL     1      11.143  13.523 161.042  1.00  0.00     0.000 C 
BRANCH   2   3
ATOM      3  C   UNL     1       9.830  14.169 161.514  1.00  0.00     0.000 C 
BRANCH   3   4
ATOM      4  C   UNL     1       9.784  15.683 161.251  1.00  0.00     0.000 C 
BRANCH   4   5
ATOM      5  C   UNL     1      10.424  16.075 159.913  1.00  0.00     0.000 C 
BRANCH   5   6
ATOM      6  C   UNL     1      11.553  17.110 160.079  1.00  0.00     0.000 C 
BRANCH   6   7
ATOM      7  C   UNL     1      11.055  18.418 160.716  1.00  0.00     0.000 C 
BRANCH   7   8
ATOM      8  C   UNL     1      11.587  18.608 162.147  1.00  0.00     0.000 C 
BRANCH   8   9
ATOM      9  C   UNL     1      12.104  17.297 162.766  1.00  0.00     0.000 C 
BRANCH   9  10
ATOM     10  C   UNL     1      13.387  17.439 163.610  1.00  0.00     0.000 C 
BRANCH  10  11
ATOM     11  C   UNL     1      14.414  16.301 163.437  1.00  0.00     0.000 C 
BRANCH  11  12
ATOM     12  C   UNL     1      14.066  15.269 162.350  1.00  0.00     0.000 C 
BRANCH  12  13
ATOM     13  C   UNL     1      14.744  13.906 162.579  1.00  0.00     0.006 C 
BRANCH  13  14
ATOM     14  C   UNL     1      16.082  14.043 163.319  1.00  0.00     0.053 C 
BRANCH  14  15
ATOM     15  C   UNL     1      17.239  14.089 162.369  1.00  0.00     0.041 C 
ATOM     16  O   UNL     1      18.404  14.308 162.798  1.00  0.00    -0.550 OA
ATOM     17  O   UNL     1      17.038  13.847 161.016  1.00  0.00    -0.550 OA
ENDBRANCH  14  15
ENDBRANCH  13  14
ENDBRANCH  12  13
ENDBRANCH  11  12
ENDBRANCH  10  11
ENDBRANCH   9  10
ENDBRANCH   8   9
ENDBRANCH   7   8
ENDBRANCH   6   7
ENDBRANCH   5   6
ENDBRANCH   4   5
ENDBRANCH   3   4
ENDBRANCH   2   3
ENDBRANCH   1   2
BRANCH   1  18
ATOM     18  C   UNL     1      10.890  12.341 163.324  1.00  0.00     0.000 C 
BRANCH  18  19
ATOM     19  C   UNL     1      11.559  12.976 164.564  1.00  0.00     0.000 C 
BRANCH  19  20
ATOM     20  C   UNL     1      11.303  14.496 164.654  1.00  0.00     0.000 C 
BRANCH  20  21
ATOM     21  C   UNL     1      10.785  14.923 166.034  1.00  0.00     0.000 C 
BRANCH  21  22
ATOM     22  C   UNL     1      10.393  16.411 166.101  1.00  0.00     0.000 C 
BRANCH  22  23
ATOM     23  C   UNL     1       9.494  16.822 164.919  1.00  0.00     0.000 C 
BRANCH  23  24
ATOM     24  C   UNL     1       9.231  18.339 164.864  1.00  0.00    -0.000 C 
BRANCH  24  25
ATOM     25  C   UNL     1       8.292  18.814 165.990  1.00  0.00    -0.000 C 
BRANCH  25  26
ATOM     26  C   UNL     1       6.876  19.122 165.483  1.00  0.00    -0.000 C 
BRANCH  26  27
ATOM     27  C   UNL     1       5.782  18.711 166.484  1.00  0.00    -0.000 C 
BRANCH  27  28
ATOM     28  C   UNL     1       4.976  17.493 166.003  1.00  0.00    -0.000 C 
BRANCH  28  29
ATOM     29  C   UNL     1       5.807  16.197 166.010  1.00  0.00    -0.000 C 
BRANCH  29  30
ATOM     30  C   UNL     1       5.864  15.533 167.394  1.00  0.00    -0.000 C 
BRANCH  30  31
ATOM     31  C   UNL     1       7.178  15.822 168.136  1.00  0.00    -0.003 C 
ATOM     32  C   UNL     1       7.087  15.414 169.603  1.00  0.00     0.004 C 
ENDBRANCH  30  31
ENDBRANCH  29  30
ENDBRANCH  28  29
ENDBRANCH  27  28
ENDBRANCH  26  27
ENDBRANCH  25  26
ENDBRANCH  24  25
ENDBRANCH  23  24
ENDBRANCH  22  23
ENDBRANCH  21  22
ENDBRANCH  20  21
ENDBRANCH  19  20
ENDBRANCH  18  19
ENDBRANCH   1  18
TORSDOF 28
ENDMDL
MODEL 3
REMARK VINA RESULT:    -3.646      2.580      5.551
REMARK INTER + INTRA:         -13.804
REMARK INTER:                  -9.870
REMARK INTRA:                  -3.935
REMARK UNBOUND:                -4.190
REMARK SMILES CCCCCCCCCCCCCCCCCCCCCCCCCCCCCC(=O)[O-]
REMARK SMILES IDX 16 1 17 2 18 3 19 4 20 5 21 6 22 7 23 8 24 9 25 10 26 11
REMARK SMILES IDX 27 12 28 13 29 14 30 15 31 16 32 17 15 18 14 19 13 20 12 21
REMARK SMILES IDX 11 22 10 23 9 24 8 25 7 26 6 27 5 28 4 29 3 30 2 31 1 32
REMARK H PARENT
REMARK Flexibility Score: inf
ROOT
ATOM      1  C   UNL     1       8.143  18.181 165.199  1.00  0.00     0.000 C 
ENDROOT
BRANCH   1   2
ATOM      2  C   UNL     1       6.886  19.013 165.536  1.00  0.00     0.000 C 
BRANCH   2   3
ATOM      3  C   UNL     1       6.278  18.691 166.911  1.00  0.00     0.000 C 
BRANCH   3   4
ATOM      4  C   UNL     1       5.194  17.603 166.841  1.00  0.00     0.000 C 
BRANCH   4   5
ATOM      5  C   UNL     1       5.676  16.248 167.378  1.00  0.00     0.000 C 
BRANCH   5   6
ATOM      6  C   UNL     1       6.754  16.394 168.469  1.00  0.00     0.000 C 
BRANCH   6   7
ATOM      7  C   UNL     1       7.954  15.464 168.229  1.00  0.00     0.000 C 
BRANCH   7   8
ATOM      8  C   UNL     1       8.893  15.995 167.132  1.00  0.00     0.000 C 
BRANCH   8   9
ATOM      9  C   UNL     1      10.180  15.161 166.997  1.00  0.00     0.000 C 
BRANCH   9  10
ATOM     10  C   UNL     1      11.087  15.554 165.814  1.00  0.00     0.000 C 
BRANCH  10  11
ATOM     11  C   UNL     1      11.172  14.511 164.680  1.00  0.00     0.000 C 
BRANCH  11  12
ATOM     12  C   UNL     1      10.605  14.973 163.326  1.00  0.00     0.000 C 
BRANCH  12  13
ATOM     13  C   UNL     1       9.905  13.841 162.553  1.00  0.00     0.006 C 
BRANCH  13  14
ATOM     14  C   UNL     1      10.719  12.539 162.571  1.00  0.00     0.053 C 
BRANCH  14  15
ATOM     15  C   UNL     1      10.215  11.556 161.560  1.00  0.00     0.041 C 
ATOM     16  O   UNL     1       9.629  10.504 161.934  1.00  0.00    -0.550 OA
ATOM     17  O   UNL     1      10.352  11.821 160.203  1.00  0.00    -0.550 OA
ENDBRANCH  14  15
ENDBRANCH  13  14
ENDBRANCH  12  13
ENDBRANCH  11  12
ENDBRANCH  10  11
ENDBRANCH   9  10
ENDBRANCH   8   9
ENDBRANCH   7   8
ENDBRANCH   6   7
ENDBRANCH   5   6
ENDBRANCH   4   5
ENDBRANCH   3   4
ENDBRANCH   2   3
ENDBRANCH   1   2
BRANCH   1  18
ATOM     18  C   UNL     1       9.386  19.038 164.889  1.00  0.00     0.000 C 
BRANCH  18  19
ATOM     19  C   UNL     1       9.835  18.933 163.413  1.00  0.00     0.000 C 
BRANCH  19  20
ATOM     20  C   UNL     1      11.334  18.591 163.280  1.00  0.00     0.000 C 
BRANCH  20  21
ATOM     21  C   UNL     1      11.752  18.344 161.823  1.00  0.00     0.000 C 
BRANCH  21  22
ATOM     22  C   UNL     1      10.746  17.480 161.041  1.00  0.00     0.000 C 
BRANCH  22  23
ATOM     23  C   UNL     1      11.203  17.236 159.590  1.00  0.00     0.000 C 
BRANCH  23  24
ATOM     24  C   UNL     1      12.450  16.336 159.497  1.00  0.00    -0.000 C 
BRANCH  24  25
ATOM     25  C   UNL     1      12.252  14.983 160.207  1.00  0.00    -0.000 C 
BRANCH  25  26
ATOM     26  C   UNL     1      13.448  14.606 161.094  1.00  0.00    -0.000 C 
BRANCH  26  27
ATOM     27  C   UNL     1      13.794  15.695 162.123  1.00  0.00    -0.000 C 
BRANCH  27  28
ATOM     28  C   UNL     1      14.529  15.131 163.349  1.00  0.00    -0.000 C 
BRANCH  28  29
ATOM     29  C   UNL     1      14.818  13.624 163.221  1.00  0.00    -0.000 C 
BRANCH  29  30
ATOM     30  C   UNL     1      16.318  13.310 163.120  1.00  0.00    -0.000 C 
BRANCH  30  31
ATOM     31  C   UNL     1      17.077  14.326 162.252  1.00  0.00    -0.003 C 
ATOM     32  C   UNL     1      18.578  14.267 162.517  1.00  0.00     0.004 C 
ENDBRANCH  30  31
ENDBRANCH  29  30
ENDBRANCH  28  29
ENDBRANCH  27  28
ENDBRANCH  26  27
ENDBRANCH  25  26
ENDBRANCH  24  25
ENDBRANCH  23  24
ENDBRANCH  22  23
ENDBRANCH  21  22
ENDBRANCH  20  21
ENDBRANCH  19  20
ENDBRANCH  18  19
ENDBRANCH   1  18
TORSDOF 28
ENDMDL
MODEL 4
REMARK VINA RESULT:    -3.266      3.362      7.454
REMARK INTER + INTRA:         -12.801
REMARK INTER:                  -9.332
REMARK INTRA:                  -3.469
REMARK UNBOUND:                -4.190
REMARK SMILES CCCCCCCCCCCCCCCCCCCCCCCCCCCCCC(=O)[O-]
REMARK SMILES IDX 16 1 17 2 18 3 19 4 20 5 21 6 22 7 23 8 24 9 25 10 26 11
REMARK SMILES IDX 27 12 28 13 29 14 30 15 31 16 32 17 15 18 14 19 13 20 12 21
REMARK SMILES IDX 11 22 10 23 9 24 8 25 7 26 6 27 5 28 4 29 3 30 2 31 1 32
REMARK H PARENT
REMARK Flexibility Score: inf
ROOT
ATOM      1  C   UNL     1      11.366  14.912 160.574  1.00  0.00     0.000 C 
ENDROOT
BRANCH   1   2
ATOM      2  C   UNL     1      10.122  15.301 161.405  1.00  0.00     0.000 C 
BRANCH   2   3
ATOM      3  C   UNL     1       9.453  14.112 162.113  1.00  0.00     0.000 C 
BRANCH   3   4
ATOM      4  C   UNL     1      10.118  12.768 161.776  1.00  0.00     0.000 C 
BRANCH   4   5
ATOM      5  C   UNL     1      10.781  12.110 162.993  1.00  0.00     0.000 C 
BRANCH   5   6
ATOM      6  C   UNL     1      11.718  13.072 163.749  1.00  0.00     0.000 C 
BRANCH   6   7
ATOM      7  C   UNL     1      11.252  13.324 165.192  1.00  0.00     0.000 C 
BRANCH   7   8
ATOM      8  C   UNL     1      11.554  14.759 165.660  1.00  0.00     0.000 C 
BRANCH   8   9
ATOM      9  C   UNL     1      11.939  15.692 164.498  1.00  0.00     0.000 C 
BRANCH   9  10
ATOM     10  C   UNL     1      13.456  15.863 164.277  1.00  0.00     0.000 C 
BRANCH  10  11
ATOM     11  C   UNL     1      13.875  16.176 162.826  1.00  0.00     0.000 C 
BRANCH  11  12
ATOM     12  C   UNL     1      14.716  15.085 162.140  1.00  0.00     0.000 C 
BRANCH  12  13
ATOM     13  C   UNL     1      15.034  13.900 163.070  1.00  0.00     0.006 C 
BRANCH  13  14
ATOM     14  C   UNL     1      16.491  13.921 163.555  1.00  0.00     0.053 C 
BRANCH  14  15
ATOM     15  C   UNL     1      17.452  14.045 162.413  1.00  0.00     0.041 C 
ATOM     16  O   UNL     1      17.031  14.045 161.225  1.00  0.00    -0.550 OA
ATOM     17  O   UNL     1      18.810  14.205 162.661  1.00  0.00    -0.550 OA
ENDBRANCH  14  15
ENDBRANCH  13  14
ENDBRANCH  12  13
ENDBRANCH  11  12
ENDBRANCH  10  11
ENDBRANCH   9  10
ENDBRANCH   8   9
ENDBRANCH   7   8
ENDBRANCH   6   7
ENDBRANCH   5   6
ENDBRANCH   4   5
ENDBRANCH   3   4
ENDBRANCH   2   3
ENDBRANCH   1   2
BRANCH   1  18
ATOM     18  C   UNL     1      11.993  16.094 159.811  1.00  0.00     0.000 C 
BRANCH  18  19
ATOM     19  C   UNL     1      10.960  17.179 159.428  1.00  0.00     0.000 C 
BRANCH  19  20
ATOM     20  C   UNL     1      11.568  18.597 159.438  1.00  0.00     0.000 C 
BRANCH  20  21
ATOM     21  C   UNL     1      11.807  19.124 160.861  1.00  0.00     0.000 C 
BRANCH  21  22
ATOM     22  C   UNL     1      10.577  18.975 161.776  1.00  0.00     0.000 C 
BRANCH  22  23
ATOM     23  C   UNL     1      10.979  18.710 163.240  1.00  0.00     0.000 C 
BRANCH  23  24
ATOM     24  C   UNL     1       9.853  19.036 164.240  1.00  0.00    -0.000 C 
BRANCH  24  25
ATOM     25  C   UNL     1       9.043  17.787 164.640  1.00  0.00    -0.000 C 
BRANCH  25  26
ATOM     26  C   UNL     1       8.905  17.642 166.162  1.00  0.00    -0.000 C 
BRANCH  26  27
ATOM     27  C   UNL     1       7.693  18.404 166.726  1.00  0.00    -0.000 C 
BRANCH  27  28
ATOM     28  C   UNL     1       6.371  17.973 166.069  1.00  0.00    -0.000 C 
BRANCH  28  29
ATOM     29  C   UNL     1       6.116  16.459 166.197  1.00  0.00    -0.000 C 
BRANCH  29  30
ATOM     30  C   UNL     1       5.832  16.023 167.641  1.00  0.00    -0.000 C 
BRANCH  30  31
ATOM     31  C   UNL     1       7.102  15.583 168.386  1.00  0.00    -0.003 C 
ATOM     32  C   UNL     1       6.895  15.612 169.897  1.00  0.00     0.004 C 
ENDBRANCH  30  31
ENDBRANCH  29  30
ENDBRANCH  28  29
ENDBRANCH  27  28
ENDBRANCH  26  27
ENDBRANCH  25  26
ENDBRANCH  24  25
ENDBRANCH  23  24
ENDBRANCH  22  23
ENDBRANCH  21  22
ENDBRANCH  20  21
ENDBRANCH  19  20
ENDBRANCH  18  19
ENDBRANCH   1  18
TORSDOF 28
ENDMDL
MODEL 5
REMARK VINA RESULT:    -3.122      2.719      7.749
REMARK INTER + INTRA:         -12.422
REMARK INTER:                  -8.997
REMARK INTRA:                  -3.425
REMARK UNBOUND:                -4.190
REMARK SMILES CCCCCCCCCCCCCCCCCCCCCCCCCCCCCC(=O)[O-]
REMARK SMILES IDX 16 1 17 2 18 3 19 4 20 5 21 6 22 7 23 8 24 9 25 10 26 11
REMARK SMILES IDX 27 12 28 13 29 14 30 15 31 16 32 17 15 18 14 19 13 20 12 21
REMARK SMILES IDX 11 22 10 23 9 24 8 25 7 26 6 27 5 28 4 29 3 30 2 31 1 32
REMARK H PARENT
REMARK Flexibility Score: inf
ROOT
ATOM      1  C   UNL     1      13.416  13.752 163.939  1.00  0.00     0.000 C 
ENDROOT
BRANCH   1   2
ATOM      2  C   UNL     1      14.589  14.539 163.313  1.00  0.00     0.000 C 
BRANCH   2   3
ATOM      3  C   UNL     1      14.157  15.827 162.593  1.00  0.00     0.000 C 
BRANCH   3   4
ATOM      4  C   UNL     1      13.858  16.980 163.565  1.00  0.00     0.000 C 
BRANCH   4   5
ATOM      5  C   UNL     1      13.091  18.132 162.903  1.00  0.00     0.000 C 
BRANCH   5   6
ATOM      6  C   UNL     1      11.576  18.070 163.179  1.00  0.00     0.000 C 
BRANCH   6   7
ATOM      7  C   UNL     1      10.755  18.772 162.084  1.00  0.00     0.000 C 
BRANCH   7   8
ATOM      8  C   UNL     1      11.504  18.830 160.742  1.00  0.00     0.000 C 
BRANCH   8   9
ATOM      9  C   UNL     1      11.069  17.718 159.771  1.00  0.00     0.000 C 
BRANCH   9  10
ATOM     10  C   UNL     1      11.282  16.281 160.292  1.00  0.00     0.000 C 
BRANCH  10  11
ATOM     11  C   UNL     1       9.990  15.479 160.545  1.00  0.00     0.000 C 
BRANCH  11  12
ATOM     12  C   UNL     1      10.067  14.467 161.702  1.00  0.00     0.000 C 
BRANCH  12  13
ATOM     13  C   UNL     1      11.171  13.414 161.505  1.00  0.00     0.006 C 
BRANCH  13  14
ATOM     14  C   UNL     1      10.819  12.076 162.172  1.00  0.00     0.053 C 
BRANCH  14  15
ATOM     15  C   UNL     1      10.019  11.196 161.260  1.00  0.00     0.041 C 
ATOM     16  O   UNL     1      10.052  11.376 160.014  1.00  0.00    -0.550 OA
ATOM     17  O   UNL     1       9.272  10.149 161.785  1.00  0.00    -0.550 OA
ENDBRANCH  14  15
ENDBRANCH  13  14
ENDBRANCH  12  13
ENDBRANCH  11  12
ENDBRANCH  10  11
ENDBRANCH   9  10
ENDBRANCH   8   9
ENDBRANCH   7   8
ENDBRANCH   6   7
ENDBRANCH   5   6
ENDBRANCH   4   5
ENDBRANCH   3   4
ENDBRANCH   2   3
ENDBRANCH   1   2
BRANCH   1  18
ATOM     18  C   UNL     1      12.305  14.652 164.513  1.00  0.00     0.000 C 
BRANCH  18  19
ATOM     19  C   UNL     1      11.278  13.871 165.365  1.00  0.00     0.000 C 
BRANCH  19  20
ATOM     20  C   UNL     1      10.721  14.715 166.531  1.00  0.00     0.000 C 
BRANCH  20  21
ATOM     21  C   UNL     1      10.532  16.191 166.149  1.00  0.00     0.000 C 
BRANCH  21  22
ATOM     22  C   UNL     1       9.072  16.549 165.816  1.00  0.00     0.000 C 
BRANCH  22  23
ATOM     23  C   UNL     1       8.960  17.919 165.121  1.00  0.00     0.000 C 
BRANCH  23  24
ATOM     24  C   UNL     1       8.461  19.031 166.064  1.00  0.00    -0.000 C 
BRANCH  24  25
ATOM     25  C   UNL     1       7.701  18.471 167.282  1.00  0.00    -0.000 C 
BRANCH  25  26
ATOM     26  C   UNL     1       6.323  19.124 167.464  1.00  0.00    -0.000 C 
BRANCH  26  27
ATOM     27  C   UNL     1       5.162  18.154 167.185  1.00  0.00    -0.000 C 
BRANCH  27  28
ATOM     28  C   UNL     1       5.323  17.416 165.846  1.00  0.00    -0.000 C 
BRANCH  28  29
ATOM     29  C   UNL     1       5.270  15.885 166.006  1.00  0.00    -0.000 C 
BRANCH  29  30
ATOM     30  C   UNL     1       5.401  15.434 167.468  1.00  0.00    -0.000 C 
BRANCH  30  31
ATOM     31  C   UNL     1       6.865  15.266 167.905  1.00  0.00    -0.003 C 
ATOM     32  C   UNL     1       7.077  15.765 169.331  1.00  0.00     0.004 C 
ENDBRANCH  30  31
ENDBRANCH  29  30
ENDBRANCH  28  29
ENDBRANCH  27  28
ENDBRANCH  26  27
ENDBRANCH  25  26
ENDBRANCH  24  25
ENDBRANCH  23  24
ENDBRANCH  22  23
ENDBRANCH  21  22
ENDBRANCH  20  21
ENDBRANCH  19  20
ENDBRANCH  18  19
ENDBRANCH   1  18
TORSDOF 28
ENDMDL
MODEL 6
REMARK VINA RESULT:    -3.115      1.365      3.586
REMARK INTER + INTRA:         -12.404
REMARK INTER:                  -9.939
REMARK INTRA:                  -2.466
REMARK UNBOUND:                -4.190
REMARK SMILES CCCCCCCCCCCCCCCCCCCCCCCCCCCCCC(=O)[O-]
REMARK SMILES IDX 16 1 17 2 18 3 19 4 20 5 21 6 22 7 23 8 24 9 25 10 26 11
REMARK SMILES IDX 27 12 28 13 29 14 30 15 31 16 32 17 15 18 14 19 13 20 12 21
REMARK SMILES IDX 11 22 10 23 9 24 8 25 7 26 6 27 5 28 4 29 3 30 2 31 1 32
REMARK H PARENT
REMARK Flexibility Score: inf
ROOT
ATOM      1  C   UNL     1      11.569  16.566 160.020  1.00  0.00     0.000 C 
ENDROOT
BRANCH   1   2
ATOM      2  C   UNL     1      10.163  15.939 160.159  1.00  0.00     0.000 C 
BRANCH   2   3
ATOM      3  C   UNL     1      10.151  14.609 160.929  1.00  0.00     0.000 C 
BRANCH   3   4
ATOM      4  C   UNL     1       9.426  14.712 162.281  1.00  0.00     0.000 C 
BRANCH   4   5
ATOM      5  C   UNL     1      10.171  15.597 163.290  1.00  0.00     0.000 C 
BRANCH   5   6
ATOM      6  C   UNL     1      10.650  14.810 164.526  1.00  0.00     0.000 C 
BRANCH   6   7
ATOM      7  C   UNL     1      10.949  15.729 165.721  1.00  0.00     0.000 C 
BRANCH   7   8
ATOM      8  C   UNL     1       9.691  16.459 166.224  1.00  0.00     0.000 C 
BRANCH   8   9
ATOM      9  C   UNL     1       9.105  17.422 165.176  1.00  0.00     0.000 C 
BRANCH   9  10
ATOM     10  C   UNL     1       8.584  18.759 165.743  1.00  0.00     0.000 C 
BRANCH  10  11
ATOM     11  C   UNL     1       7.158  18.711 166.326  1.00  0.00     0.000 C 
BRANCH  11  12
ATOM     12  C   UNL     1       6.330  17.478 165.924  1.00  0.00     0.000 C 
BRANCH  12  13
ATOM     13  C   UNL     1       5.847  16.659 167.134  1.00  0.00     0.006 C 
BRANCH  13  14
ATOM     14  C   UNL     1       6.679  16.943 168.393  1.00  0.00     0.053 C 
BRANCH  14  15
ATOM     15  C   UNL     1       7.034  15.682 169.120  1.00  0.00     0.041 C 
ATOM     16  O   UNL     1       7.729  14.797 168.553  1.00  0.00    -0.550 OA
ATOM     17  O   UNL     1       6.633  15.504 170.438  1.00  0.00    -0.550 OA
ENDBRANCH  14  15
ENDBRANCH  13  14
ENDBRANCH  12  13
ENDBRANCH  11  12
ENDBRANCH  10  11
ENDBRANCH   9  10
ENDBRANCH   8   9
ENDBRANCH   7   8
ENDBRANCH   6   7
ENDBRANCH   5   6
ENDBRANCH   4   5
ENDBRANCH   3   4
ENDBRANCH   2   3
ENDBRANCH   1   2
BRANCH   1  18
ATOM     18  C   UNL     1      11.575  17.902 159.253  1.00  0.00     0.000 C 
BRANCH  18  19
ATOM     19  C   UNL     1      11.783  19.125 160.177  1.00  0.00     0.000 C 
BRANCH  19  20
ATOM     20  C   UNL     1      10.811  19.124 161.376  1.00  0.00     0.000 C 
BRANCH  20  21
ATOM     21  C   UNL     1      11.545  19.125 162.725  1.00  0.00     0.000 C 
BRANCH  21  22
ATOM     22  C   UNL     1      12.042  17.729 163.146  1.00  0.00     0.000 C 
BRANCH  22  23
ATOM     23  C   UNL     1      13.505  17.762 163.629  1.00  0.00     0.000 C 
BRANCH  23  24
ATOM     24  C   UNL     1      14.297  16.501 163.232  1.00  0.00    -0.000 C 
BRANCH  24  25
ATOM     25  C   UNL     1      13.505  15.588 162.276  1.00  0.00    -0.000 C 
BRANCH  25  26
ATOM     26  C   UNL     1      14.334  14.390 161.790  1.00  0.00    -0.000 C 
BRANCH  26  27
ATOM     27  C   UNL     1      14.088  13.118 162.621  1.00  0.00    -0.000 C 
BRANCH  27  28
ATOM     28  C   UNL     1      12.594  12.871 162.886  1.00  0.00    -0.000 C 
BRANCH  28  29
ATOM     29  C   UNL     1      11.937  12.005 161.794  1.00  0.00    -0.000 C 
BRANCH  29  30
ATOM     30  C   UNL     1      10.604  11.389 162.244  1.00  0.00    -0.000 C 
BRANCH  30  31
ATOM     31  C   UNL     1       9.890  10.635 161.111  1.00  0.00    -0.003 C 
ATOM     32  C   UNL     1       9.096   9.449 161.651  1.00  0.00     0.004 C 
ENDBRANCH  30  31
ENDBRANCH  29  30
ENDBRANCH  28  29
ENDBRANCH  27  28
ENDBRANCH  26  27
ENDBRANCH  25  26
ENDBRANCH  24  25
ENDBRANCH  23  24
ENDBRANCH  22  23
ENDBRANCH  21  22
ENDBRANCH  20  21
ENDBRANCH  19  20
ENDBRANCH  18  19
ENDBRANCH   1  18
TORSDOF 28
ENDMDL
MODEL 7
REMARK VINA RESULT:    -3.002      0.986      1.986
REMARK INTER + INTRA:         -12.107
REMARK INTER:                  -9.797
REMARK INTRA:                  -2.310
REMARK UNBOUND:                -4.190
REMARK SMILES CCCCCCCCCCCCCCCCCCCCCCCCCCCCCC(=O)[O-]
REMARK SMILES IDX 16 1 17 2 18 3 19 4 20 5 21 6 22 7 23 8 24 9 25 10 26 11
REMARK SMILES IDX 27 12 28 13 29 14 30 15 31 16 32 17 15 18 14 19 13 20 12 21
REMARK SMILES IDX 11 22 10 23 9 24 8 25 7 26 6 27 5 28 4 29 3 30 2 31 1 32
REMARK H PARENT
REMARK Flexibility Score: inf
ROOT
ATOM      1  C   UNL     1       9.997  13.101 161.356  1.00  0.00     0.000 C 
ENDROOT
BRANCH   1   2
ATOM      2  C   UNL     1      10.611  12.153 162.411  1.00  0.00     0.000 C 
BRANCH   2   3
ATOM      3  C   UNL     1      11.880  12.707 163.078  1.00  0.00     0.000 C 
BRANCH   3   4
ATOM      4  C   UNL     1      11.605  13.327 164.458  1.00  0.00     0.000 C 
BRANCH   4   5
ATOM      5  C   UNL     1      12.588  14.450 164.813  1.00  0.00     0.000 C 
BRANCH   5   6
ATOM      6  C   UNL     1      11.934  15.566 165.651  1.00  0.00     0.000 C 
BRANCH   6   7
ATOM      7  C   UNL     1      10.467  15.255 165.991  1.00  0.00     0.000 C 
BRANCH   7   8
ATOM      8  C   UNL     1       9.718  16.489 166.524  1.00  0.00     0.000 C 
BRANCH   8   9
ATOM      9  C   UNL     1       9.247  17.428 165.399  1.00  0.00     0.000 C 
BRANCH   9  10
ATOM     10  C   UNL     1       7.945  18.199 165.700  1.00  0.00     0.000 C 
BRANCH  10  11
ATOM     11  C   UNL     1       7.794  18.684 167.156  1.00  0.00     0.000 C 
BRANCH  11  12
ATOM     12  C   UNL     1       6.590  18.100 167.916  1.00  0.00     0.000 C 
BRANCH  12  13
ATOM     13  C   UNL     1       5.821  17.045 167.100  1.00  0.00     0.006 C 
BRANCH  13  14
ATOM     14  C   UNL     1       5.747  15.694 167.826  1.00  0.00     0.053 C 
BRANCH  14  15
ATOM     15  C   UNL     1       6.801  15.576 168.885  1.00  0.00     0.041 C 
ATOM     16  O   UNL     1       6.508  15.768 170.095  1.00  0.00    -0.550 OA
ATOM     17  O   UNL     1       8.096  15.211 168.539  1.00  0.00    -0.550 OA
ENDBRANCH  14  15
ENDBRANCH  13  14
ENDBRANCH  12  13
ENDBRANCH  11  12
ENDBRANCH  10  11
ENDBRANCH   9  10
ENDBRANCH   8   9
ENDBRANCH   7   8
ENDBRANCH   6   7
ENDBRANCH   5   6
ENDBRANCH   4   5
ENDBRANCH   3   4
ENDBRANCH   2   3
ENDBRANCH   1   2
BRANCH   1  18
ATOM     18  C   UNL     1       9.360  14.367 161.961  1.00  0.00     0.000 C 
BRANCH  18  19
ATOM     19  C   UNL     1      10.082  15.666 161.534  1.00  0.00     0.000 C 
BRANCH  19  20
ATOM     20  C   UNL     1      10.425  16.568 162.738  1.00  0.00     0.000 C 
BRANCH  20  21
ATOM     21  C   UNL     1      11.723  17.360 162.527  1.00  0.00     0.000 C 
BRANCH  21  22
ATOM     22  C   UNL     1      11.484  18.788 162.002  1.00  0.00     0.000 C 
BRANCH  22  23
ATOM     23  C   UNL     1      10.883  18.786 160.583  1.00  0.00     0.000 C 
BRANCH  23  24
ATOM     24  C   UNL     1      11.874  18.288 159.513  1.00  0.00    -0.000 C 
BRANCH  24  25
ATOM     25  C   UNL     1      11.610  16.826 159.103  1.00  0.00    -0.000 C 
BRANCH  25  26
ATOM     26  C   UNL     1      12.869  15.953 159.202  1.00  0.00    -0.000 C 
BRANCH  26  27
ATOM     27  C   UNL     1      12.871  15.048 160.447  1.00  0.00    -0.000 C 
BRANCH  27  28
ATOM     28  C   UNL     1      14.291  14.647 160.878  1.00  0.00    -0.000 C 
BRANCH  28  29
ATOM     29  C   UNL     1      14.544  14.897 162.377  1.00  0.00    -0.000 C 
BRANCH  29  30
ATOM     30  C   UNL     1      15.789  14.166 162.901  1.00  0.00    -0.000 C 
BRANCH  30  31
ATOM     31  C   UNL     1      17.072  14.581 162.165  1.00  0.00    -0.003 C 
ATOM     32  C   UNL     1      18.261  13.732 162.605  1.00  0.00     0.004 C 
ENDBRANCH  30  31
ENDBRANCH  29  30
ENDBRANCH  28  29
ENDBRANCH  27  28
ENDBRANCH  26  27
ENDBRANCH  25  26
ENDBRANCH  24  25
ENDBRANCH  23  24
ENDBRANCH  22  23
ENDBRANCH  21  22
ENDBRANCH  20  21
ENDBRANCH  19  20
ENDBRANCH  18  19
ENDBRANCH   1  18
TORSDOF 28
ENDMDL
MODEL 8
REMARK VINA RESULT:    -2.907      3.546      8.199
REMARK INTER + INTRA:         -11.855
REMARK INTER:                  -9.185
REMARK INTRA:                  -2.670
REMARK UNBOUND:                -4.190
REMARK SMILES CCCCCCCCCCCCCCCCCCCCCCCCCCCCCC(=O)[O-]
REMARK SMILES IDX 16 1 17 2 18 3 19 4 20 5 21 6 22 7 23 8 24 9 25 10 26 11
REMARK SMILES IDX 27 12 28 13 29 14 30 15 31 16 32 17 15 18 14 19 13 20 12 21
REMARK SMILES IDX 11 22 10 23 9 24 8 25 7 26 6 27 5 28 4 29 3 30 2 31 1 32
REMARK H PARENT
REMARK Flexibility Score: inf
ROOT
ATOM      1  C   UNL     1      11.262  13.050 165.080  1.00  0.00     0.000 C 
ENDROOT
BRANCH   1   2
ATOM      2  C   UNL     1      11.923  12.713 163.725  1.00  0.00     0.000 C 
BRANCH   2   3
ATOM      3  C   UNL     1      11.069  11.802 162.828  1.00  0.00     0.000 C 
BRANCH   3   4
ATOM      4  C   UNL     1      10.802  12.412 161.442  1.00  0.00     0.000 C 
BRANCH   4   5
ATOM      5  C   UNL     1       9.512  13.242 161.396  1.00  0.00     0.000 C 
BRANCH   5   6
ATOM      6  C   UNL     1       9.747  14.721 161.762  1.00  0.00     0.000 C 
BRANCH   6   7
ATOM      7  C   UNL     1       9.775  15.630 160.523  1.00  0.00     0.000 C 
BRANCH   7   8
ATOM      8  C   UNL     1      10.978  16.590 160.533  1.00  0.00     0.000 C 
BRANCH   8   9
ATOM      9  C   UNL     1      12.242  15.963 159.918  1.00  0.00     0.000 C 
BRANCH   9  10
ATOM     10  C   UNL     1      12.761  14.705 160.645  1.00  0.00     0.000 C 
BRANCH  10  11
ATOM     11  C   UNL     1      14.129  14.868 161.339  1.00  0.00     0.000 C 
BRANCH  11  12
ATOM     12  C   UNL     1      14.264  14.146 162.691  1.00  0.00     0.000 C 
BRANCH  12  13
ATOM     13  C   UNL     1      15.677  14.258 163.292  1.00  0.00     0.006 C 
BRANCH  13  14
ATOM     14  C   UNL     1      16.734  14.578 162.226  1.00  0.00     0.053 C 
BRANCH  14  15
ATOM     15  C   UNL     1      18.022  13.860 162.489  1.00  0.00     0.041 C 
ATOM     16  O   UNL     1      18.056  12.600 162.500  1.00  0.00    -0.550 OA
ATOM     17  O   UNL     1      19.194  14.581 162.679  1.00  0.00    -0.550 OA
ENDBRANCH  14  15
ENDBRANCH  13  14
ENDBRANCH  12  13
ENDBRANCH  11  12
ENDBRANCH  10  11
ENDBRANCH   9  10
ENDBRANCH   8   9
ENDBRANCH   7   8
ENDBRANCH   6   7
ENDBRANCH   5   6
ENDBRANCH   4   5
ENDBRANCH   3   4
ENDBRANCH   2   3
ENDBRANCH   1   2
BRANCH   1  18
ATOM     18  C   UNL     1      11.210  14.560 165.382  1.00  0.00     0.000 C 
BRANCH  18  19
ATOM     19  C   UNL     1      11.188  15.430 164.104  1.00  0.00     0.000 C 
BRANCH  19  20
ATOM     20  C   UNL     1      11.516  16.909 164.396  1.00  0.00     0.000 C 
BRANCH  20  21
ATOM     21  C   UNL     1      10.404  17.860 163.929  1.00  0.00     0.000 C 
BRANCH  21  22
ATOM     22  C   UNL     1       9.130  17.772 164.791  1.00  0.00     0.000 C 
BRANCH  22  23
ATOM     23  C   UNL     1       8.783  19.125 165.442  1.00  0.00     0.000 C 
BRANCH  23  24
ATOM     24  C   UNL     1       8.259  18.980 166.884  1.00  0.00    -0.000 C 
BRANCH  24  25
ATOM     25  C   UNL     1       6.727  19.124 166.969  1.00  0.00    -0.000 C 
BRANCH  25  26
ATOM     26  C   UNL     1       6.021  18.652 165.690  1.00  0.00    -0.000 C 
BRANCH  26  27
ATOM     27  C   UNL     1       5.552  17.189 165.775  1.00  0.00    -0.000 C 
BRANCH  27  28
ATOM     28  C   UNL     1       5.049  16.814 167.179  1.00  0.00    -0.000 C 
BRANCH  28  29
ATOM     29  C   UNL     1       5.637  15.481 167.678  1.00  0.00    -0.000 C 
BRANCH  29  30
ATOM     30  C   UNL     1       6.332  15.610 169.041  1.00  0.00    -0.000 C 
BRANCH  30  31
ATOM     31  C   UNL     1       7.823  15.243 168.982  1.00  0.00    -0.003 C 
ATOM     32  C   UNL     1       8.453  15.703 167.671  1.00  0.00     0.004 C 
ENDBRANCH  30  31
ENDBRANCH  29  30
ENDBRANCH  28  29
ENDBRANCH  27  28
ENDBRANCH  26  27
ENDBRANCH  25  26
ENDBRANCH  24  25
ENDBRANCH  23  24
ENDBRANCH  22  23
ENDBRANCH  21  22
ENDBRANCH  20  21
ENDBRANCH  19  20
ENDBRANCH  18  19
ENDBRANCH   1  18
TORSDOF 28
ENDMDL
