MODEL 1
REMARK VINA RESULT:    -6.134      0.000      0.000
REMARK INTER + INTRA:          -6.706
REMARK INTER:                  -6.672
REMARK INTRA:                  -0.035
REMARK UNBOUND:                -0.035
REMARK SMILES C=C(C)[C@H]1CC[C@]2(C)CC[C@]3(C)[C@@H](CC[C@H]4[C@]5(C)CC[C@H](O)C(C)(C)[C@H]5CC[C@@]43C)[C@H]12
REMARK SMILES IDX 4 1 5 2 6 3 7 4 31 5 13 6 14 7 15 8 16 9 17 10 19 11 20 12
REMARK SMILES IDX 21 13 23 14 26 15 27 16 28 17 29 18 11 19 10 20 9 21 12 22
REMARK SMILES IDX 30 23 24 24 25 25 18 26 8 27 2 28 3 29 1 30 22 31
REMARK H PARENT 22 32
REMARK Flexibility Score: inf
ROOT
ATOM      1  C   UNL     1       8.246   0.049   1.105  1.00  0.00     0.018 C 
ATOM      2  C   UNL     1       8.132  -1.422   1.487  1.00  0.00     0.009 C 
ATOM      3  C   UNL     1       7.382  -2.105   0.343  1.00  0.00     0.008 C 
ATOM      4  C   UNL     1       6.760  -0.998  -0.562  1.00  0.00    -0.029 C 
ATOM      5  C   UNL     1       7.025   0.321   0.214  1.00  0.00     0.006 C 
ATOM      6  C   UNL     1       7.087   1.659  -0.615  1.00  0.00    -0.000 C 
ATOM      7  C   UNL     1       5.644   2.222  -0.690  1.00  0.00     0.005 C 
ATOM      8  C   UNL     1       5.536   3.531  -1.445  1.00  0.00     0.005 C 
ATOM      9  C   UNL     1       6.030   3.341  -2.894  1.00  0.00     0.002 C 
ATOM     10  C   UNL     1       5.549   4.482  -3.910  1.00  0.00    -0.026 C 
ATOM     11  C   UNL     1       3.983   4.457  -4.004  1.00  0.00     0.010 C 
ATOM     12  C   UNL     1       3.404   5.291  -5.162  1.00  0.00     0.033 C 
ATOM     13  C   UNL     1       3.981   4.885  -6.525  1.00  0.00     0.120 C 
ATOM     14  C   UNL     1       5.542   4.935  -6.556  1.00  0.00    -0.006 C 
ATOM     15  C   UNL     1       6.106   4.106  -5.335  1.00  0.00     0.003 C 
ATOM     16  C   UNL     1       7.642   3.932  -5.307  1.00  0.00     0.005 C 
ATOM     17  C   UNL     1       8.022   2.764  -4.387  1.00  0.00     0.008 C 
ATOM     18  C   UNL     1       7.568   2.943  -2.897  1.00  0.00    -0.024 C 
ATOM     19  C   UNL     1       7.812   1.576  -2.028  1.00  0.00    -0.024 C 
ATOM     20  C   UNL     1       7.291   0.292  -2.761  1.00  0.00     0.008 C 
ATOM     21  C   UNL     1       7.435  -1.017  -1.958  1.00  0.00     0.007 C 
ATOM     22  C   UNL     1       9.357   1.402  -1.812  1.00  0.00     0.012 C 
ATOM     23  C   UNL     1       8.446   4.092  -2.290  1.00  0.00     0.012 C 
ATOM     24  C   UNL     1       6.032   6.406  -6.580  1.00  0.00     0.014 C 
ATOM     25  C   UNL     1       6.003   4.299  -7.899  1.00  0.00     0.014 C 
ATOM     26  C   UNL     1       5.978   5.908  -3.426  1.00  0.00     0.012 C 
ATOM     27  C   UNL     1       5.244  -1.287  -0.730  1.00  0.00     0.011 C 
ENDROOT
BRANCH   1  28
ATOM     28  C   UNL     1       8.342   0.980   2.312  1.00  0.00    -0.077 C 
ATOM     29  C   UNL     1       7.491   2.221   2.435  1.00  0.00     0.039 C 
ATOM     30  C   UNL     1       9.229   0.720   3.286  1.00  0.00     0.008 C 
ENDBRANCH   1  28
BRANCH  13  31
ATOM     31  O   UNL     1       3.531   3.588  -6.841  1.00  0.00    -0.393 OA
ATOM     32  H   UNL     1       2.557   3.563  -6.656  1.00  0.00     0.210 HD
ENDBRANCH  13  31
TORSDOF 2
ENDMDL
MODEL 2
REMARK VINA RESULT:    -5.721      2.565      4.516
REMARK INTER + INTRA:          -6.258
REMARK INTER:                  -5.802
REMARK INTRA:                  -0.456
REMARK UNBOUND:                -0.035
REMARK SMILES C=C(C)[C@H]1CC[C@]2(C)CC[C@]3(C)[C@@H](CC[C@H]4[C@]5(C)CC[C@H](O)C(C)(C)[C@H]5CC[C@@]43C)[C@H]12
REMARK SMILES IDX 4 1 5 2 6 3 7 4 31 5 13 6 14 7 15 8 16 9 17 10 19 11 20 12
REMARK SMILES IDX 21 13 23 14 26 15 27 16 28 17 29 18 11 19 10 20 9 21 12 22
REMARK SMILES IDX 30 23 24 24 25 25 18 26 8 27 2 28 3 29 1 30 22 31
REMARK H PARENT 22 32
REMARK Flexibility Score: inf
ROOT
ATOM      1  C   UNL     1       8.771   2.759  -2.122  1.00  0.00     0.018 C 
ATOM      2  C   UNL     1       9.176   2.303  -0.725  1.00  0.00     0.009 C 
ATOM      3  C   UNL     1       7.901   1.787  -0.055  1.00  0.00     0.008 C 
ATOM      4  C   UNL     1       6.682   2.233  -0.919  1.00  0.00    -0.029 C 
ATOM      5  C   UNL     1       7.298   3.175  -1.990  1.00  0.00     0.006 C 
ATOM      6  C   UNL     1       6.525   3.340  -3.352  1.00  0.00    -0.000 C 
ATOM      7  C   UNL     1       5.527   4.514  -3.177  1.00  0.00     0.005 C 
ATOM      8  C   UNL     1       4.712   4.817  -4.418  1.00  0.00     0.005 C 
ATOM      9  C   UNL     1       3.893   3.573  -4.821  1.00  0.00     0.002 C 
ATOM     10  C   UNL     1       2.667   3.883  -5.804  1.00  0.00    -0.026 C 
ATOM     11  C   UNL     1       1.649   4.826  -5.074  1.00  0.00     0.010 C 
ATOM     12  C   UNL     1       0.289   4.961  -5.782  1.00  0.00     0.033 C 
ATOM     13  C   UNL     1      -0.388   3.604  -6.020  1.00  0.00     0.120 C 
ATOM     14  C   UNL     1       0.526   2.605  -6.799  1.00  0.00    -0.006 C 
ATOM     15  C   UNL     1       1.926   2.518  -6.073  1.00  0.00     0.003 C 
ATOM     16  C   UNL     1       2.898   1.455  -6.635  1.00  0.00     0.005 C 
ATOM     17  C   UNL     1       3.989   1.143  -5.603  1.00  0.00     0.008 C 
ATOM     18  C   UNL     1       4.868   2.378  -5.200  1.00  0.00    -0.024 C 
ATOM     19  C   UNL     1       5.861   2.023  -3.946  1.00  0.00    -0.024 C 
ATOM     20  C   UNL     1       5.120   1.289  -2.776  1.00  0.00     0.008 C 
ATOM     21  C   UNL     1       5.993   0.990  -1.540  1.00  0.00     0.007 C 
ATOM     22  C   UNL     1       6.986   1.062  -4.469  1.00  0.00     0.012 C 
ATOM     23  C   UNL     1       5.741   2.742  -6.450  1.00  0.00     0.012 C 
ATOM     24  C   UNL     1       0.630   3.022  -8.288  1.00  0.00     0.014 C 
ATOM     25  C   UNL     1      -0.178   1.217  -6.782  1.00  0.00     0.014 C 
ATOM     26  C   UNL     1       3.140   4.605  -7.110  1.00  0.00     0.012 C 
ATOM     27  C   UNL     1       5.667   2.968  -0.003  1.00  0.00     0.011 C 
ENDROOT
BRANCH   1  28
ATOM     28  C   UNL     1       9.669   3.859  -2.682  1.00  0.00    -0.077 C 
ATOM     29  C   UNL     1      10.119   3.869  -4.124  1.00  0.00     0.039 C 
ATOM     30  C   UNL     1      10.110   4.836  -1.873  1.00  0.00     0.008 C 
ENDBRANCH   1  28
BRANCH  13  31
ATOM     31  O   UNL     1      -0.756   3.056  -4.776  1.00  0.00    -0.393 OA
ATOM     32  H   UNL     1      -0.373   3.642  -4.073  1.00  0.00     0.210 HD
ENDBRANCH  13  31
TORSDOF 2
ENDMDL
MODEL 3
REMARK VINA RESULT:    -5.402     10.171     13.603
REMARK INTER + INTRA:          -5.911
REMARK INTER:                  -5.452
REMARK INTRA:                  -0.459
REMARK UNBOUND:                -0.035
REMARK SMILES C=C(C)[C@H]1CC[C@]2(C)CC[C@]3(C)[C@@H](CC[C@H]4[C@]5(C)CC[C@H](O)C(C)(C)[C@H]5CC[C@@]43C)[C@H]12
REMARK SMILES IDX 4 1 5 2 6 3 7 4 31 5 13 6 14 7 15 8 16 9 17 10 19 11 20 12
REMARK SMILES IDX 21 13 23 14 26 15 27 16 28 17 29 18 11 19 10 20 9 21 12 22
REMARK SMILES IDX 30 23 24 24 25 25 18 26 8 27 2 28 3 29 1 30 22 31
REMARK H PARENT 22 32
REMARK Flexibility Score: inf
ROOT
ATOM      1  C   UNL     1      -6.764  -1.513  -8.054  1.00  0.00     0.018 C 
ATOM      2  C   UNL     1      -7.321  -0.130  -8.373  1.00  0.00     0.009 C 
ATOM      3  C   UNL     1      -6.126   0.825  -8.370  1.00  0.00     0.008 C 
ATOM      4  C   UNL     1      -4.912   0.085  -7.730  1.00  0.00    -0.029 C 
ATOM      5  C   UNL     1      -5.513  -1.248  -7.203  1.00  0.00     0.006 C 
ATOM      6  C   UNL     1      -4.541  -2.476  -7.042  1.00  0.00    -0.000 C 
ATOM      7  C   UNL     1      -3.943  -2.407  -5.613  1.00  0.00     0.005 C 
ATOM      8  C   UNL     1      -2.993  -3.543  -5.290  1.00  0.00     0.005 C 
ATOM      9  C   UNL     1      -1.813  -3.534  -6.283  1.00  0.00     0.002 C 
ATOM     10  C   UNL     1      -0.532  -4.359  -5.789  1.00  0.00    -0.026 C 
ATOM     11  C   UNL     1       0.028  -3.702  -4.479  1.00  0.00     0.010 C 
ATOM     12  C   UNL     1       1.424  -4.204  -4.065  1.00  0.00     0.033 C 
ATOM     13  C   UNL     1       2.466  -4.033  -5.179  1.00  0.00     0.120 C 
ATOM     14  C   UNL     1       2.028  -4.708  -6.518  1.00  0.00    -0.006 C 
ATOM     15  C   UNL     1       0.579  -4.207  -6.897  1.00  0.00     0.003 C 
ATOM     16  C   UNL     1       0.059  -4.668  -8.278  1.00  0.00     0.005 C 
ATOM     17  C   UNL     1      -1.105  -3.775  -8.726  1.00  0.00     0.008 C 
ATOM     18  C   UNL     1      -2.340  -3.791  -7.758  1.00  0.00    -0.024 C 
ATOM     19  C   UNL     1      -3.447  -2.660  -8.181  1.00  0.00    -0.024 C 
ATOM     20  C   UNL     1      -2.803  -1.258  -8.460  1.00  0.00     0.008 C 
ATOM     21  C   UNL     1      -3.808  -0.137  -8.797  1.00  0.00     0.007 C 
ATOM     22  C   UNL     1      -4.146  -3.129  -9.506  1.00  0.00     0.012 C 
ATOM     23  C   UNL     1      -2.995  -5.210  -7.881  1.00  0.00     0.012 C 
ATOM     24  C   UNL     1       2.135  -6.250  -6.402  1.00  0.00     0.014 C 
ATOM     25  C   UNL     1       3.050  -4.281  -7.612  1.00  0.00     0.014 C 
ATOM     26  C   UNL     1      -0.890  -5.848  -5.464  1.00  0.00     0.012 C 
ATOM     27  C   UNL     1      -4.340   0.965  -6.587  1.00  0.00     0.011 C 
ENDROOT
BRANCH   1  28
ATOM     28  C   UNL     1      -7.780  -2.431  -7.378  1.00  0.00    -0.077 C 
ATOM     29  C   UNL     1      -8.186  -3.755  -7.980  1.00  0.00     0.039 C 
ATOM     30  C   UNL     1      -8.363  -2.049  -6.231  1.00  0.00     0.008 C 
ENDBRANCH   1  28
BRANCH  13  31
ATOM     31  O   UNL     1       2.693  -2.658  -5.381  1.00  0.00    -0.393 OA
ATOM     32  H   UNL     1       3.221  -2.332  -4.607  1.00  0.00     0.210 HD
ENDBRANCH  13  31
TORSDOF 2
ENDMDL
MODEL 4
REMARK VINA RESULT:    -5.322      8.802     11.559
REMARK INTER + INTRA:          -5.824
REMARK INTER:                  -5.370
REMARK INTRA:                  -0.453
REMARK UNBOUND:                -0.035
REMARK SMILES C=C(C)[C@H]1CC[C@]2(C)CC[C@]3(C)[C@@H](CC[C@H]4[C@]5(C)CC[C@H](O)C(C)(C)[C@H]5CC[C@@]43C)[C@H]12
REMARK SMILES IDX 4 1 5 2 6 3 7 4 31 5 13 6 14 7 15 8 16 9 17 10 19 11 20 12
REMARK SMILES IDX 21 13 23 14 26 15 27 16 28 17 29 18 11 19 10 20 9 21 12 22
REMARK SMILES IDX 30 23 24 24 25 25 18 26 8 27 2 28 3 29 1 30 22 31
REMARK H PARENT 22 32
REMARK Flexibility Score: inf
ROOT
ATOM      1  C   UNL     1      -2.415  -5.534  -7.763  1.00  0.00     0.018 C 
ATOM      2  C   UNL     1      -2.180  -6.763  -6.894  1.00  0.00     0.009 C 
ATOM      3  C   UNL     1      -1.852  -6.242  -5.493  1.00  0.00     0.008 C 
ATOM      4  C   UNL     1      -1.566  -4.713  -5.597  1.00  0.00    -0.029 C 
ATOM      5  C   UNL     1      -1.560  -4.429  -7.125  1.00  0.00     0.006 C 
ATOM      6  C   UNL     1      -1.894  -2.965  -7.599  1.00  0.00    -0.000 C 
ATOM      7  C   UNL     1      -0.559  -2.178  -7.645  1.00  0.00     0.005 C 
ATOM      8  C   UNL     1      -0.708  -0.743  -8.107  1.00  0.00     0.005 C 
ATOM      9  C   UNL     1      -1.657   0.016  -7.156  1.00  0.00     0.002 C 
ATOM     10  C   UNL     1      -1.541   1.611  -7.246  1.00  0.00    -0.026 C 
ATOM     11  C   UNL     1      -0.095   2.045  -6.817  1.00  0.00     0.010 C 
ATOM     12  C   UNL     1       0.065   3.556  -6.567  1.00  0.00     0.033 C 
ATOM     13  C   UNL     1      -0.932   4.090  -5.529  1.00  0.00     0.120 C 
ATOM     14  C   UNL     1      -2.414   3.761  -5.896  1.00  0.00    -0.006 C 
ATOM     15  C   UNL     1      -2.540   2.213  -6.186  1.00  0.00     0.003 C 
ATOM     16  C   UNL     1      -3.979   1.699  -6.419  1.00  0.00     0.005 C 
ATOM     17  C   UNL     1      -4.031   0.178  -6.226  1.00  0.00     0.008 C 
ATOM     18  C   UNL     1      -3.107  -0.628  -7.205  1.00  0.00    -0.024 C 
ATOM     19  C   UNL     1      -3.048  -2.215  -6.802  1.00  0.00    -0.024 C 
ATOM     20  C   UNL     1      -2.800  -2.442  -5.271  1.00  0.00     0.008 C 
ATOM     21  C   UNL     1      -2.667  -3.919  -4.846  1.00  0.00     0.007 C 
ATOM     22  C   UNL     1      -4.433  -2.863  -7.156  1.00  0.00     0.012 C 
ATOM     23  C   UNL     1      -3.734  -0.493  -8.635  1.00  0.00     0.012 C 
ATOM     24  C   UNL     1      -2.885   4.648  -7.077  1.00  0.00     0.014 C 
ATOM     25  C   UNL     1      -3.296   4.155  -4.675  1.00  0.00     0.014 C 
ATOM     26  C   UNL     1      -1.786   2.130  -8.702  1.00  0.00     0.012 C 
ATOM     27  C   UNL     1      -0.193  -4.417  -4.938  1.00  0.00     0.011 C 
ENDROOT
BRANCH   1  28
ATOM     28  C   UNL     1      -2.104  -5.770  -9.240  1.00  0.00    -0.077 C 
ATOM     29  C   UNL     1      -0.688  -5.855  -9.756  1.00  0.00     0.039 C 
ATOM     30  C   UNL     1      -3.110  -5.873 -10.124  1.00  0.00     0.008 C 
ENDBRANCH   1  28
BRANCH  13  31
ATOM     31  O   UNL     1      -0.612   3.546  -4.271  1.00  0.00    -0.393 OA
ATOM     32  H   UNL     1       0.305   3.173  -4.337  1.00  0.00     0.210 HD
ENDBRANCH  13  31
TORSDOF 2
ENDMDL
MODEL 5
REMARK VINA RESULT:    -5.305      3.677      6.539
REMARK INTER + INTRA:          -5.804
REMARK INTER:                  -5.340
REMARK INTRA:                  -0.465
REMARK UNBOUND:                -0.035
REMARK SMILES C=C(C)[C@H]1CC[C@]2(C)CC[C@]3(C)[C@@H](CC[C@H]4[C@]5(C)CC[C@H](O)C(C)(C)[C@H]5CC[C@@]43C)[C@H]12
REMARK SMILES IDX 4 1 5 2 6 3 7 4 31 5 13 6 14 7 15 8 16 9 17 10 19 11 20 12
REMARK SMILES IDX 21 13 23 14 26 15 27 16 28 17 29 18 11 19 10 20 9 21 12 22
REMARK SMILES IDX 30 23 24 24 25 25 18 26 8 27 2 28 3 29 1 30 22 31
REMARK H PARENT 22 32
REMARK Flexibility Score: inf
ROOT
ATOM      1  C   UNL     1       5.121  -6.503  -2.694  1.00  0.00     0.018 C 
ATOM      2  C   UNL     1       3.896  -7.405  -2.604  1.00  0.00     0.009 C 
ATOM      3  C   UNL     1       2.725  -6.502  -2.215  1.00  0.00     0.008 C 
ATOM      4  C   UNL     1       3.301  -5.128  -1.752  1.00  0.00    -0.029 C 
ATOM      5  C   UNL     1       4.838  -5.354  -1.714  1.00  0.00     0.006 C 
ATOM      6  C   UNL     1       5.768  -4.093  -1.875  1.00  0.00    -0.000 C 
ATOM      7  C   UNL     1       6.014  -3.517  -0.456  1.00  0.00     0.005 C 
ATOM      8  C   UNL     1       6.916  -2.300  -0.436  1.00  0.00     0.005 C 
ATOM      9  C   UNL     1       6.293  -1.174  -1.287  1.00  0.00     0.002 C 
ATOM     10  C   UNL     1       6.883   0.283  -0.985  1.00  0.00    -0.026 C 
ATOM     11  C   UNL     1       6.563   0.668   0.502  1.00  0.00     0.010 C 
ATOM     12  C   UNL     1       6.804   2.151   0.840  1.00  0.00     0.033 C 
ATOM     13  C   UNL     1       6.028   3.098  -0.086  1.00  0.00     0.120 C 
ATOM     14  C   UNL     1       6.325   2.837  -1.597  1.00  0.00    -0.006 C 
ATOM     15  C   UNL     1       6.109   1.302  -1.905  1.00  0.00     0.003 C 
ATOM     16  C   UNL     1       6.217   0.905  -3.395  1.00  0.00     0.005 C 
ATOM     17  C   UNL     1       5.550  -0.458  -3.625  1.00  0.00     0.008 C 
ATOM     18  C   UNL     1       6.186  -1.634  -2.804  1.00  0.00    -0.024 C 
ATOM     19  C   UNL     1       5.295  -3.003  -2.931  1.00  0.00    -0.024 C 
ATOM     20  C   UNL     1       3.763  -2.751  -2.709  1.00  0.00     0.008 C 
ATOM     21  C   UNL     1       2.884  -4.018  -2.751  1.00  0.00     0.007 C 
ATOM     22  C   UNL     1       5.474  -3.571  -4.383  1.00  0.00     0.012 C 
ATOM     23  C   UNL     1       7.607  -1.896  -3.412  1.00  0.00     0.012 C 
ATOM     24  C   UNL     1       7.743   3.344  -1.962  1.00  0.00     0.014 C 
ATOM     25  C   UNL     1       5.327   3.699  -2.425  1.00  0.00     0.014 C 
ATOM     26  C   UNL     1       8.437   0.330  -1.169  1.00  0.00     0.012 C 
ATOM     27  C   UNL     1       2.721  -4.793  -0.352  1.00  0.00     0.011 C 
ENDROOT
BRANCH   1  28
ATOM     28  C   UNL     1       6.432  -7.235  -2.415  1.00  0.00    -0.077 C 
ATOM     29  C   UNL     1       7.638  -7.087  -3.312  1.00  0.00     0.039 C 
ATOM     30  C   UNL     1       6.521  -8.066  -1.365  1.00  0.00     0.008 C 
ENDBRANCH   1  28
BRANCH  13  31
ATOM     31  O   UNL     1       4.651   2.956   0.169  1.00  0.00    -0.393 OA
ATOM     32  H   UNL     1       4.505   2.026   0.483  1.00  0.00     0.210 HD
ENDBRANCH  13  31
TORSDOF 2
ENDMDL
MODEL 6
REMARK VINA RESULT:    -5.301      1.875      4.155
REMARK INTER + INTRA:          -5.800
REMARK INTER:                  -5.369
REMARK INTRA:                  -0.431
REMARK UNBOUND:                -0.035
REMARK SMILES C=C(C)[C@H]1CC[C@]2(C)CC[C@]3(C)[C@@H](CC[C@H]4[C@]5(C)CC[C@H](O)C(C)(C)[C@H]5CC[C@@]43C)[C@H]12
REMARK SMILES IDX 4 1 5 2 6 3 7 4 31 5 13 6 14 7 15 8 16 9 17 10 19 11 20 12
REMARK SMILES IDX 21 13 23 14 26 15 27 16 28 17 29 18 11 19 10 20 9 21 12 22
REMARK SMILES IDX 30 23 24 24 25 25 18 26 8 27 2 28 3 29 1 30 22 31
REMARK H PARENT 22 32
REMARK Flexibility Score: inf
ROOT
ATOM      1  C   UNL     1       6.973   0.489  -1.126  1.00  0.00     0.018 C 
ATOM      2  C   UNL     1       8.126   0.047  -0.233  1.00  0.00     0.009 C 
ATOM      3  C   UNL     1       9.274   1.021  -0.501  1.00  0.00     0.008 C 
ATOM      4  C   UNL     1       8.931   1.839  -1.783  1.00  0.00    -0.029 C 
ATOM      5  C   UNL     1       7.644   1.163  -2.332  1.00  0.00     0.006 C 
ATOM      6  C   UNL     1       6.686   2.033  -3.231  1.00  0.00    -0.000 C 
ATOM      7  C   UNL     1       7.161   1.875  -4.699  1.00  0.00     0.005 C 
ATOM      8  C   UNL     1       6.322   2.641  -5.701  1.00  0.00     0.005 C 
ATOM      9  C   UNL     1       6.355   4.146  -5.367  1.00  0.00     0.002 C 
ATOM     10  C   UNL     1       5.913   5.099  -6.577  1.00  0.00    -0.026 C 
ATOM     11  C   UNL     1       6.921   4.920  -7.766  1.00  0.00     0.010 C 
ATOM     12  C   UNL     1       6.795   5.985  -8.870  1.00  0.00     0.033 C 
ATOM     13  C   UNL     1       6.932   7.415  -8.326  1.00  0.00     0.120 C 
ATOM     14  C   UNL     1       5.925   7.717  -7.171  1.00  0.00    -0.006 C 
ATOM     15  C   UNL     1       6.048   6.587  -6.074  1.00  0.00     0.003 C 
ATOM     16  C   UNL     1       5.221   6.820  -4.789  1.00  0.00     0.005 C 
ATOM     17  C   UNL     1       5.761   5.943  -3.651  1.00  0.00     0.008 C 
ATOM     18  C   UNL     1       5.705   4.403  -3.942  1.00  0.00    -0.024 C 
ATOM     19  C   UNL     1       6.489   3.546  -2.786  1.00  0.00    -0.024 C 
ATOM     20  C   UNL     1       7.901   4.137  -2.449  1.00  0.00     0.008 C 
ATOM     21  C   UNL     1       8.713   3.330  -1.415  1.00  0.00     0.007 C 
ATOM     22  C   UNL     1       5.631   3.596  -1.473  1.00  0.00     0.012 C 
ATOM     23  C   UNL     1       4.191   3.995  -3.935  1.00  0.00     0.012 C 
ATOM     24  C   UNL     1       4.490   7.872  -7.736  1.00  0.00     0.014 C 
ATOM     25  C   UNL     1       6.309   9.099  -6.568  1.00  0.00     0.014 C 
ATOM     26  C   UNL     1       4.482   4.743  -7.101  1.00  0.00     0.012 C 
ATOM     27  C   UNL     1      10.120   1.732  -2.775  1.00  0.00     0.011 C 
ENDROOT
BRANCH   1  28
ATOM     28  C   UNL     1       6.033  -0.653  -1.509  1.00  0.00    -0.077 C 
ATOM     29  C   UNL     1       6.314  -1.562  -2.681  1.00  0.00     0.039 C 
ATOM     30  C   UNL     1       4.901  -0.845  -0.813  1.00  0.00     0.008 C 
ENDBRANCH   1  28
BRANCH  13  31
ATOM     31  O   UNL     1       8.254   7.606  -7.880  1.00  0.00    -0.393 OA
ATOM     32  H   UNL     1       8.563   8.476  -8.242  1.00  0.00     0.210 HD
ENDBRANCH  13  31
TORSDOF 2
ENDMDL
MODEL 7
REMARK VINA RESULT:    -5.300      8.250     11.744
REMARK INTER + INTRA:          -5.800
REMARK INTER:                  -5.351
REMARK INTRA:                  -0.449
REMARK UNBOUND:                -0.035
REMARK SMILES C=C(C)[C@H]1CC[C@]2(C)CC[C@]3(C)[C@@H](CC[C@H]4[C@]5(C)CC[C@H](O)C(C)(C)[C@H]5CC[C@@]43C)[C@H]12
REMARK SMILES IDX 4 1 5 2 6 3 7 4 31 5 13 6 14 7 15 8 16 9 17 10 19 11 20 12
REMARK SMILES IDX 21 13 23 14 26 15 27 16 28 17 29 18 11 19 10 20 9 21 12 22
REMARK SMILES IDX 30 23 24 24 25 25 18 26 8 27 2 28 3 29 1 30 22 31
REMARK H PARENT 22 32
REMARK Flexibility Score: inf
ROOT
ATOM      1  C   UNL     1      -2.236  -4.908  -8.562  1.00  0.00     0.018 C 
ATOM      2  C   UNL     1      -3.576  -4.212  -8.774  1.00  0.00     0.009 C 
ATOM      3  C   UNL     1      -3.666  -3.121  -7.705  1.00  0.00     0.008 C 
ATOM      4  C   UNL     1      -2.543  -3.374  -6.653  1.00  0.00    -0.029 C 
ATOM      5  C   UNL     1      -1.940  -4.747  -7.064  1.00  0.00     0.006 C 
ATOM      6  C   UNL     1      -0.454  -5.051  -6.638  1.00  0.00    -0.000 C 
ATOM      7  C   UNL     1      -0.501  -5.710  -5.236  1.00  0.00     0.005 C 
ATOM      8  C   UNL     1       0.861  -6.086  -4.689  1.00  0.00     0.005 C 
ATOM      9  C   UNL     1       1.743  -4.826  -4.575  1.00  0.00     0.002 C 
ATOM     10  C   UNL     1       3.005  -4.992  -3.603  1.00  0.00    -0.026 C 
ATOM     11  C   UNL     1       2.497  -5.271  -2.145  1.00  0.00     0.010 C 
ATOM     12  C   UNL     1       3.583  -5.153  -1.061  1.00  0.00     0.033 C 
ATOM     13  C   UNL     1       4.287  -3.788  -1.079  1.00  0.00     0.120 C 
ATOM     14  C   UNL     1       4.886  -3.440  -2.479  1.00  0.00    -0.006 C 
ATOM     15  C   UNL     1       3.760  -3.609  -3.575  1.00  0.00     0.003 C 
ATOM     16  C   UNL     1       4.152  -3.157  -5.001  1.00  0.00     0.005 C 
ATOM     17  C   UNL     1       2.891  -2.929  -5.844  1.00  0.00     0.008 C 
ATOM     18  C   UNL     1       1.990  -4.202  -6.014  1.00  0.00    -0.024 C 
ATOM     19  C   UNL     1       0.566  -3.835  -6.736  1.00  0.00    -0.024 C 
ATOM     20  C   UNL     1      -0.125  -2.576  -6.108  1.00  0.00     0.008 C 
ATOM     21  C   UNL     1      -1.503  -2.225  -6.705  1.00  0.00     0.007 C 
ATOM     22  C   UNL     1       0.851  -3.513  -8.246  1.00  0.00     0.012 C 
ATOM     23  C   UNL     1       2.780  -5.199  -6.931  1.00  0.00     0.012 C 
ATOM     24  C   UNL     1       6.146  -4.300  -2.754  1.00  0.00     0.014 C 
ATOM     25  C   UNL     1       5.369  -1.962  -2.426  1.00  0.00     0.014 C 
ATOM     26  C   UNL     1       3.914  -6.192  -4.032  1.00  0.00     0.012 C 
ATOM     27  C   UNL     1      -3.184  -3.412  -5.240  1.00  0.00     0.011 C 
ENDROOT
BRANCH   1  28
ATOM     28  C   UNL     1      -2.230  -6.360  -9.034  1.00  0.00    -0.077 C 
ATOM     29  C   UNL     1      -1.023  -6.982  -9.694  1.00  0.00     0.039 C 
ATOM     30  C   UNL     1      -3.335  -7.110  -8.896  1.00  0.00     0.008 C 
ENDBRANCH   1  28
BRANCH  13  31
ATOM     31  O   UNL     1       3.367  -2.798  -0.685  1.00  0.00    -0.393 OA
ATOM     32  H   UNL     1       3.736  -2.361   0.126  1.00  0.00     0.210 HD
ENDBRANCH  13  31
TORSDOF 2
ENDMDL
MODEL 8
REMARK VINA RESULT:    -5.162      2.165      7.972
REMARK INTER + INTRA:          -5.650
REMARK INTER:                  -5.317
REMARK INTRA:                  -0.333
REMARK UNBOUND:                -0.035
REMARK SMILES C=C(C)[C@H]1CC[C@]2(C)CC[C@]3(C)[C@@H](CC[C@H]4[C@]5(C)CC[C@H](O)C(C)(C)[C@H]5CC[C@@]43C)[C@H]12
REMARK SMILES IDX 4 1 5 2 6 3 7 4 31 5 13 6 14 7 15 8 16 9 17 10 19 11 20 12
REMARK SMILES IDX 21 13 23 14 26 15 27 16 28 17 29 18 11 19 10 20 9 21 12 22
REMARK SMILES IDX 30 23 24 24 25 25 18 26 8 27 2 28 3 29 1 30 22 31
REMARK H PARENT 22 32
REMARK Flexibility Score: inf
ROOT
ATOM      1  C   UNL     1       5.496   7.255  -6.817  1.00  0.00     0.018 C 
ATOM      2  C   UNL     1       4.338   7.941  -7.532  1.00  0.00     0.009 C 
ATOM      3  C   UNL     1       3.109   7.060  -7.303  1.00  0.00     0.008 C 
ATOM      4  C   UNL     1       3.590   5.689  -6.736  1.00  0.00    -0.029 C 
ATOM      5  C   UNL     1       5.140   5.761  -6.833  1.00  0.00     0.006 C 
ATOM      6  C   UNL     1       5.977   4.863  -5.847  1.00  0.00    -0.000 C 
ATOM      7  C   UNL     1       6.192   3.493  -6.540  1.00  0.00     0.005 C 
ATOM      8  C   UNL     1       7.007   2.512  -5.721  1.00  0.00     0.005 C 
ATOM      9  C   UNL     1       6.300   2.241  -4.377  1.00  0.00     0.002 C 
ATOM     10  C   UNL     1       6.789   0.910  -3.633  1.00  0.00    -0.026 C 
ATOM     11  C   UNL     1       6.453  -0.332  -4.531  1.00  0.00     0.010 C 
ATOM     12  C   UNL     1       6.591  -1.688  -3.815  1.00  0.00     0.033 C 
ATOM     13  C   UNL     1       5.745  -1.768  -2.537  1.00  0.00     0.120 C 
ATOM     14  C   UNL     1       6.048  -0.603  -1.542  1.00  0.00    -0.006 C 
ATOM     15  C   UNL     1       5.938   0.772  -2.313  1.00  0.00     0.003 C 
ATOM     16  C   UNL     1       6.064   2.036  -1.432  1.00  0.00     0.005 C 
ATOM     17  C   UNL     1       5.493   3.252  -2.173  1.00  0.00     0.008 C 
ATOM     18  C   UNL     1       6.215   3.580  -3.526  1.00  0.00    -0.024 C 
ATOM     19  C   UNL     1       5.421   4.745  -4.362  1.00  0.00    -0.024 C 
ATOM     20  C   UNL     1       3.878   4.484  -4.445  1.00  0.00     0.008 C 
ATOM     21  C   UNL     1       3.089   5.516  -5.279  1.00  0.00     0.007 C 
ATOM     22  C   UNL     1       5.630   6.110  -3.616  1.00  0.00     0.012 C 
ATOM     23  C   UNL     1       7.646   4.105  -3.162  1.00  0.00     0.012 C 
ATOM     24  C   UNL     1       7.425  -0.820  -0.864  1.00  0.00     0.014 C 
ATOM     25  C   UNL     1       4.986  -0.671  -0.406  1.00  0.00     0.014 C 
ATOM     26  C   UNL     1       8.334   0.919  -3.383  1.00  0.00     0.012 C 
ATOM     27  C   UNL     1       2.998   4.554  -7.613  1.00  0.00     0.011 C 
ENDROOT
BRANCH   1  28
ATOM     28  C   UNL     1       6.857   7.566  -7.436  1.00  0.00    -0.077 C 
ATOM     29  C   UNL     1       7.554   6.600  -8.363  1.00  0.00     0.039 C 
ATOM     30  C   UNL     1       7.481   8.714  -7.129  1.00  0.00     0.008 C 
ENDBRANCH   1  28
BRANCH  13  31
ATOM     31  O   UNL     1       4.383  -1.759  -2.893  1.00  0.00    -0.393 OA
ATOM     32  H   UNL     1       4.233  -2.530  -3.500  1.00  0.00     0.210 HD
ENDBRANCH  13  31
TORSDOF 2
ENDMDL
MODEL 9
REMARK VINA RESULT:    -5.161      3.444      7.958
REMARK INTER + INTRA:          -5.649
REMARK INTER:                  -5.184
REMARK INTRA:                  -0.465
REMARK UNBOUND:                -0.035
REMARK SMILES C=C(C)[C@H]1CC[C@]2(C)CC[C@]3(C)[C@@H](CC[C@H]4[C@]5(C)CC[C@H](O)C(C)(C)[C@H]5CC[C@@]43C)[C@H]12
REMARK SMILES IDX 4 1 5 2 6 3 7 4 31 5 13 6 14 7 15 8 16 9 17 10 19 11 20 12
REMARK SMILES IDX 21 13 23 14 26 15 27 16 28 17 29 18 11 19 10 20 9 21 12 22
REMARK SMILES IDX 30 23 24 24 25 25 18 26 8 27 2 28 3 29 1 30 22 31
REMARK H PARENT 22 32
REMARK Flexibility Score: inf
ROOT
ATOM      1  C   UNL     1       8.510   2.188  -2.255  1.00  0.00     0.018 C 
ATOM      2  C   UNL     1       8.538   3.527  -1.527  1.00  0.00     0.009 C 
ATOM      3  C   UNL     1       7.625   3.372  -0.310  1.00  0.00     0.008 C 
ATOM      4  C   UNL     1       6.796   2.063  -0.485  1.00  0.00    -0.029 C 
ATOM      5  C   UNL     1       7.135   1.588  -1.925  1.00  0.00     0.006 C 
ATOM      6  C   UNL     1       6.981   0.054  -2.246  1.00  0.00    -0.000 C 
ATOM      7  C   UNL     1       5.523  -0.173  -2.725  1.00  0.00     0.005 C 
ATOM      8  C   UNL     1       5.217  -1.610  -3.096  1.00  0.00     0.005 C 
ATOM      9  C   UNL     1       5.447  -2.525  -1.876  1.00  0.00     0.002 C 
ATOM     10  C   UNL     1       4.735  -3.955  -1.981  1.00  0.00    -0.026 C 
ATOM     11  C   UNL     1       3.181  -3.751  -2.053  1.00  0.00     0.010 C 
ATOM     12  C   UNL     1       2.361  -5.039  -1.854  1.00  0.00     0.033 C 
ATOM     13  C   UNL     1       2.699  -5.754  -0.538  1.00  0.00     0.120 C 
ATOM     14  C   UNL     1       4.224  -6.061  -0.395  1.00  0.00    -0.006 C 
ATOM     15  C   UNL     1       5.040  -4.731  -0.643  1.00  0.00     0.003 C 
ATOM     16  C   UNL     1       6.562  -4.832  -0.390  1.00  0.00     0.005 C 
ATOM     17  C   UNL     1       7.158  -3.430  -0.207  1.00  0.00     0.008 C 
ATOM     18  C   UNL     1       6.976  -2.485  -1.446  1.00  0.00    -0.024 C 
ATOM     19  C   UNL     1       7.439  -0.952  -1.103  1.00  0.00    -0.024 C 
ATOM     20  C   UNL     1       6.855  -0.433   0.257  1.00  0.00     0.008 C 
ATOM     21  C   UNL     1       7.205   1.030   0.597  1.00  0.00     0.007 C 
ATOM     22  C   UNL     1       9.004  -0.928  -0.983  1.00  0.00     0.012 C 
ATOM     23  C   UNL     1       7.894  -3.048  -2.585  1.00  0.00     0.012 C 
ATOM     24  C   UNL     1       4.630  -7.218  -1.343  1.00  0.00     0.014 C 
ATOM     25  C   UNL     1       4.462  -6.578   1.053  1.00  0.00     0.014 C 
ATOM     26  C   UNL     1       5.177  -4.730  -3.267  1.00  0.00     0.012 C 
ATOM     27  C   UNL     1       5.290   2.401  -0.317  1.00  0.00     0.011 C 
ENDROOT
BRANCH   1  28
ATOM     28  C   UNL     1       8.780   2.311  -3.754  1.00  0.00    -0.077 C 
ATOM     29  C   UNL     1       9.761   1.413  -4.466  1.00  0.00     0.039 C 
ATOM     30  C   UNL     1       8.158   3.265  -4.466  1.00  0.00     0.008 C 
ENDBRANCH   1  28
BRANCH  13  31
ATOM     31  O   UNL     1       2.261  -4.957   0.537  1.00  0.00    -0.393 OA
ATOM     32  H   UNL     1       1.343  -5.254   0.768  1.00  0.00     0.210 HD
ENDBRANCH  13  31
TORSDOF 2
ENDMDL
