MODEL 1
REMARK VINA RESULT:    -6.279      0.000      0.000
REMARK INTER + INTRA:          -6.648
REMARK INTER:                  -6.830
REMARK INTRA:                   0.182
REMARK UNBOUND:                 0.182
REMARK SMILES Cc1ccc(C(C)C)c(O)c1
REMARK SMILES IDX 1 1 2 2 11 3 9 4 5 5 4 6 3 7 10 8 6 10 7 11 8 12
REMARK H PARENT 10 9
REMARK Flexibility Score: inf
ROOT
ATOM      1  C   UNL     1      11.234   6.094  -5.964  1.00  0.00     0.044 C 
ATOM      2  C   UNL     1      10.642   5.654  -4.658  1.00  0.00    -0.047 A 
ATOM      3  C   UNL     1      11.323   5.891  -3.459  1.00  0.00     0.049 A 
ATOM      4  C   UNL     1      10.762   5.530  -2.228  1.00  0.00     0.119 A 
ATOM      5  C   UNL     1       9.502   4.871  -2.189  1.00  0.00    -0.004 A 
ATOM      6  C   UNL     1       8.800   4.703  -3.402  1.00  0.00     0.008 A 
ATOM      7  C   UNL     1       9.366   5.085  -4.619  1.00  0.00     0.004 A 
ENDROOT
BRANCH   4   8
ATOM      8  O   UNL     1      11.478   5.862  -1.076  1.00  0.00    -0.508 OA
ATOM      9  H   UNL     1      11.156   5.682  -0.135  1.00  0.00     0.293 HD
ENDBRANCH   4   8
BRANCH   5  10
ATOM     10  C   UNL     1       8.876   4.424  -0.872  1.00  0.00     0.017 C 
ATOM     11  C   UNL     1       9.728   3.330  -0.224  1.00  0.00     0.012 C 
ATOM     12  C   UNL     1       8.638   5.581   0.113  1.00  0.00     0.012 C 
ENDBRANCH   5  10
TORSDOF 2
ENDMDL
MODEL 2
REMARK VINA RESULT:    -6.021      1.995      4.679
REMARK INTER + INTRA:          -6.368
REMARK INTER:                  -6.176
REMARK INTRA:                  -0.192
REMARK UNBOUND:                 0.182
REMARK SMILES Cc1ccc(C(C)C)c(O)c1
REMARK SMILES IDX 1 1 2 2 11 3 9 4 5 5 4 6 3 7 10 8 6 10 7 11 8 12
REMARK H PARENT 10 9
REMARK Flexibility Score: inf
ROOT
ATOM      1  C   UNL     1       8.418   5.113   0.126  1.00  0.00     0.044 C 
ATOM      2  C   UNL     1       8.787   5.410  -1.297  1.00  0.00    -0.047 A 
ATOM      3  C   UNL     1       8.652   4.424  -2.281  1.00  0.00     0.049 A 
ATOM      4  C   UNL     1       8.947   4.700  -3.622  1.00  0.00     0.119 A 
ATOM      5  C   UNL     1       9.434   5.985  -3.991  1.00  0.00    -0.004 A 
ATOM      6  C   UNL     1       9.497   6.985  -2.997  1.00  0.00     0.008 A 
ATOM      7  C   UNL     1       9.182   6.698  -1.668  1.00  0.00     0.004 A 
ENDROOT
BRANCH   4   8
ATOM      8  O   UNL     1       8.722   3.681  -4.550  1.00  0.00    -0.508 OA
ATOM      9  H   UNL     1       7.978   3.690  -5.234  1.00  0.00     0.293 HD
ENDBRANCH   4   8
BRANCH   5  10
ATOM     10  C   UNL     1       9.805   6.313  -5.434  1.00  0.00     0.017 C 
ATOM     11  C   UNL     1       9.503   7.783  -5.738  1.00  0.00     0.012 C 
ATOM     12  C   UNL     1      11.266   5.976  -5.778  1.00  0.00     0.012 C 
ENDBRANCH   5  10
TORSDOF 2
ENDMDL
MODEL 3
REMARK VINA RESULT:    -5.953      1.178      4.024
REMARK INTER + INTRA:          -6.294
REMARK INTER:                  -6.104
REMARK INTRA:                  -0.190
REMARK UNBOUND:                 0.182
REMARK SMILES Cc1ccc(C(C)C)c(O)c1
REMARK SMILES IDX 1 1 2 2 11 3 9 4 5 5 4 6 3 7 10 8 6 10 7 11 8 12
REMARK H PARENT 10 9
REMARK Flexibility Score: inf
ROOT
ATOM      1  C   UNL     1       8.483   4.123   0.278  1.00  0.00     0.044 C 
ATOM      2  C   UNL     1       9.067   4.769  -0.944  1.00  0.00    -0.047 A 
ATOM      3  C   UNL     1      10.428   5.089  -0.991  1.00  0.00     0.049 A 
ATOM      4  C   UNL     1      10.997   5.648  -2.141  1.00  0.00     0.119 A 
ATOM      5  C   UNL     1      10.179   5.939  -3.268  1.00  0.00    -0.004 A 
ATOM      6  C   UNL     1       8.823   5.547  -3.226  1.00  0.00     0.008 A 
ATOM      7  C   UNL     1       8.275   4.974  -2.078  1.00  0.00     0.004 A 
ENDROOT
BRANCH   4   8
ATOM      8  O   UNL     1      12.375   5.875  -2.129  1.00  0.00    -0.508 OA
ATOM      9  H   UNL     1      13.036   5.325  -1.598  1.00  0.00     0.293 HD
ENDBRANCH   4   8
BRANCH   5  10
ATOM     10  C   UNL     1      10.752   6.586  -4.525  1.00  0.00     0.017 C 
ATOM     11  C   UNL     1      11.250   5.510  -5.495  1.00  0.00     0.012 C 
ATOM     12  C   UNL     1       9.765   7.534  -5.226  1.00  0.00     0.012 C 
ENDBRANCH   5  10
TORSDOF 2
ENDMDL
MODEL 4
REMARK VINA RESULT:    -5.945      1.630      1.791
REMARK INTER + INTRA:          -6.285
REMARK INTER:                  -6.307
REMARK INTRA:                   0.022
REMARK UNBOUND:                 0.182
REMARK SMILES Cc1ccc(C(C)C)c(O)c1
REMARK SMILES IDX 1 1 2 2 11 3 9 4 5 5 4 6 3 7 10 8 6 10 7 11 8 12
REMARK H PARENT 10 9
REMARK Flexibility Score: inf
ROOT
ATOM      1  C   UNL     1      10.864   7.068  -6.254  1.00  0.00     0.044 C 
ATOM      2  C   UNL     1      10.465   6.291  -5.034  1.00  0.00    -0.047 A 
ATOM      3  C   UNL     1      10.815   4.942  -4.910  1.00  0.00     0.049 A 
ATOM      4  C   UNL     1      10.491   4.217  -3.757  1.00  0.00     0.119 A 
ATOM      5  C   UNL     1       9.757   4.840  -2.710  1.00  0.00    -0.004 A 
ATOM      6  C   UNL     1       9.474   6.219  -2.823  1.00  0.00     0.008 A 
ATOM      7  C   UNL     1       9.820   6.932  -3.972  1.00  0.00     0.004 A 
ENDROOT
BRANCH   4   8
ATOM      8  O   UNL     1      10.935   2.895  -3.687  1.00  0.00    -0.508 OA
ATOM      9  H   UNL     1      10.371   2.124  -3.357  1.00  0.00     0.293 HD
ENDBRANCH   4   8
BRANCH   5  10
ATOM     10  C   UNL     1       9.349   4.074  -1.455  1.00  0.00     0.017 C 
ATOM     11  C   UNL     1      10.592   3.637  -0.674  1.00  0.00     0.012 C 
ATOM     12  C   UNL     1       8.385   4.857  -0.550  1.00  0.00     0.012 C 
ENDBRANCH   5  10
TORSDOF 2
ENDMDL
MODEL 5
REMARK VINA RESULT:    -5.798      2.180      3.658
REMARK INTER + INTRA:          -6.125
REMARK INTER:                  -5.975
REMARK INTRA:                  -0.150
REMARK UNBOUND:                 0.182
REMARK SMILES Cc1ccc(C(C)C)c(O)c1
REMARK SMILES IDX 1 1 2 2 11 3 9 4 5 5 4 6 3 7 10 8 6 10 7 11 8 12
REMARK H PARENT 10 9
REMARK Flexibility Score: inf
ROOT
ATOM      1  C   UNL     1       7.171   8.563  -1.666  1.00  0.00     0.044 C 
ATOM      2  C   UNL     1       8.278   7.557  -1.776  1.00  0.00    -0.047 A 
ATOM      3  C   UNL     1       8.289   6.427  -0.952  1.00  0.00     0.049 A 
ATOM      4  C   UNL     1       9.289   5.454  -1.076  1.00  0.00     0.119 A 
ATOM      5  C   UNL     1      10.337   5.632  -2.020  1.00  0.00    -0.004 A 
ATOM      6  C   UNL     1      10.271   6.743  -2.889  1.00  0.00     0.008 A 
ATOM      7  C   UNL     1       9.258   7.693  -2.765  1.00  0.00     0.004 A 
ENDROOT
BRANCH   4   8
ATOM      8  O   UNL     1       9.189   4.325  -0.259  1.00  0.00    -0.508 OA
ATOM      9  H   UNL     1       8.852   3.426  -0.574  1.00  0.00     0.293 HD
ENDBRANCH   4   8
BRANCH   5  10
ATOM     10  C   UNL     1      11.468   4.616  -2.158  1.00  0.00     0.017 C 
ATOM     11  C   UNL     1      11.001   3.412  -2.980  1.00  0.00     0.012 C 
ATOM     12  C   UNL     1      12.754   5.214  -2.752  1.00  0.00     0.012 C 
ENDBRANCH   5  10
TORSDOF 2
ENDMDL
MODEL 6
REMARK VINA RESULT:    -5.699      1.406      4.312
REMARK INTER + INTRA:          -6.017
REMARK INTER:                  -5.828
REMARK INTRA:                  -0.189
REMARK UNBOUND:                 0.182
REMARK SMILES Cc1ccc(C(C)C)c(O)c1
REMARK SMILES IDX 1 1 2 2 11 3 9 4 5 5 4 6 3 7 10 8 6 10 7 11 8 12
REMARK H PARENT 10 9
REMARK Flexibility Score: inf
ROOT
ATOM      1  C   UNL     1       7.749   4.012   0.854  1.00  0.00     0.044 C 
ATOM      2  C   UNL     1       8.710   4.461  -0.207  1.00  0.00    -0.047 A 
ATOM      3  C   UNL     1       8.638   5.760  -0.721  1.00  0.00     0.049 A 
ATOM      4  C   UNL     1       9.558   6.209  -1.676  1.00  0.00     0.119 A 
ATOM      5  C   UNL     1      10.558   5.324  -2.168  1.00  0.00    -0.004 A 
ATOM      6  C   UNL     1      10.658   4.041  -1.587  1.00  0.00     0.008 A 
ATOM      7  C   UNL     1       9.743   3.616  -0.623  1.00  0.00     0.004 A 
ENDROOT
BRANCH   4   8
ATOM      8  O   UNL     1       9.456   7.539  -2.088  1.00  0.00    -0.508 OA
ATOM      9  H   UNL     1      10.135   8.006  -2.673  1.00  0.00     0.293 HD
ENDBRANCH   4   8
BRANCH   5  10
ATOM     10  C   UNL     1      11.553   5.761  -3.239  1.00  0.00     0.017 C 
ATOM     11  C   UNL     1      12.955   5.244  -2.902  1.00  0.00     0.012 C 
ATOM     12  C   UNL     1      11.145   5.338  -4.659  1.00  0.00     0.012 C 
ENDBRANCH   5  10
TORSDOF 2
ENDMDL
MODEL 7
REMARK VINA RESULT:    -5.690      2.149      3.373
REMARK INTER + INTRA:          -6.008
REMARK INTER:                  -5.846
REMARK INTRA:                  -0.161
REMARK UNBOUND:                 0.182
REMARK SMILES Cc1ccc(C(C)C)c(O)c1
REMARK SMILES IDX 1 1 2 2 11 3 9 4 5 5 4 6 3 7 10 8 6 10 7 11 8 12
REMARK H PARENT 10 9
REMARK Flexibility Score: inf
ROOT
ATOM      1  C   UNL     1       7.515   9.140  -1.650  1.00  0.00     0.044 C 
ATOM      2  C   UNL     1       8.271   7.847  -1.729  1.00  0.00    -0.047 A 
ATOM      3  C   UNL     1       9.381   7.729  -2.573  1.00  0.00     0.049 A 
ATOM      4  C   UNL     1      10.126   6.544  -2.622  1.00  0.00     0.119 A 
ATOM      5  C   UNL     1       9.729   5.425  -1.840  1.00  0.00    -0.004 A 
ATOM      6  C   UNL     1       8.650   5.586  -0.944  1.00  0.00     0.008 A 
ATOM      7  C   UNL     1       7.929   6.779  -0.894  1.00  0.00     0.004 A 
ENDROOT
BRANCH   4   8
ATOM      8  O   UNL     1      11.257   6.533  -3.442  1.00  0.00    -0.508 OA
ATOM      9  H   UNL     1      12.184   6.284  -3.126  1.00  0.00     0.293 HD
ENDBRANCH   4   8
BRANCH   5  10
ATOM     10  C   UNL     1      10.489   4.103  -1.896  1.00  0.00     0.017 C 
ATOM     11  C   UNL     1      10.197   3.270  -0.644  1.00  0.00     0.012 C 
ATOM     12  C   UNL     1      10.203   3.290  -3.169  1.00  0.00     0.012 C 
ENDBRANCH   5  10
TORSDOF 2
ENDMDL
MODEL 8
REMARK VINA RESULT:    -5.591      2.476      4.055
REMARK INTER + INTRA:          -5.900
REMARK INTER:                  -5.754
REMARK INTRA:                  -0.146
REMARK UNBOUND:                 0.182
REMARK SMILES Cc1ccc(C(C)C)c(O)c1
REMARK SMILES IDX 1 1 2 2 11 3 9 4 5 5 4 6 3 7 10 8 6 10 7 11 8 12
REMARK H PARENT 10 9
REMARK Flexibility Score: inf
ROOT
ATOM      1  C   UNL     1      10.089   3.253  -0.651  1.00  0.00     0.044 C 
ATOM      2  C   UNL     1       9.696   4.663  -0.979  1.00  0.00    -0.047 A 
ATOM      3  C   UNL     1      10.416   5.393  -1.931  1.00  0.00     0.049 A 
ATOM      4  C   UNL     1      10.033   6.692  -2.284  1.00  0.00     0.119 A 
ATOM      5  C   UNL     1       8.922   7.303  -1.639  1.00  0.00    -0.004 A 
ATOM      6  C   UNL     1       8.167   6.527  -0.733  1.00  0.00     0.008 A 
ATOM      7  C   UNL     1       8.553   5.227  -0.405  1.00  0.00     0.004 A 
ENDROOT
BRANCH   4   8
ATOM      8  O   UNL     1      10.766   7.326  -3.290  1.00  0.00    -0.508 OA
ATOM      9  H   UNL     1      11.711   7.666  -3.175  1.00  0.00     0.293 HD
ENDBRANCH   4   8
BRANCH   5  10
ATOM     10  C   UNL     1       8.497   8.732  -1.965  1.00  0.00     0.017 C 
ATOM     11  C   UNL     1       7.700   8.763  -3.272  1.00  0.00     0.012 C 
ATOM     12  C   UNL     1       7.706   9.405  -0.831  1.00  0.00     0.012 C 
ENDBRANCH   5  10
TORSDOF 2
ENDMDL
MODEL 9
REMARK VINA RESULT:    -5.576      1.837      2.255
REMARK INTER + INTRA:          -5.883
REMARK INTER:                  -5.732
REMARK INTRA:                  -0.151
REMARK UNBOUND:                 0.182
REMARK SMILES Cc1ccc(C(C)C)c(O)c1
REMARK SMILES IDX 1 1 2 2 11 3 9 4 5 5 4 6 3 7 10 8 6 10 7 11 8 12
REMARK H PARENT 10 9
REMARK Flexibility Score: inf
ROOT
ATOM      1  C   UNL     1      10.519   7.991  -6.641  1.00  0.00     0.044 C 
ATOM      2  C   UNL     1      10.389   7.074  -5.460  1.00  0.00    -0.047 A 
ATOM      3  C   UNL     1       9.479   7.365  -4.438  1.00  0.00     0.049 A 
ATOM      4  C   UNL     1       9.312   6.495  -3.354  1.00  0.00     0.119 A 
ATOM      5  C   UNL     1      10.106   5.318  -3.260  1.00  0.00    -0.004 A 
ATOM      6  C   UNL     1      10.968   5.007  -4.334  1.00  0.00     0.008 A 
ATOM      7  C   UNL     1      11.109   5.876  -5.416  1.00  0.00     0.004 A 
ENDROOT
BRANCH   4   8
ATOM      8  O   UNL     1       8.336   6.826  -2.411  1.00  0.00    -0.508 OA
ATOM      9  H   UNL     1       7.454   6.343  -2.313  1.00  0.00     0.293 HD
ENDBRANCH   4   8
BRANCH   5  10
ATOM     10  C   UNL     1       9.983   4.365  -2.074  1.00  0.00     0.017 C 
ATOM     11  C   UNL     1      10.576   2.998  -2.429  1.00  0.00     0.012 C 
ATOM     12  C   UNL     1      10.616   4.914  -0.785  1.00  0.00     0.012 C 
ENDBRANCH   5  10
TORSDOF 2
ENDMDL
