MODEL 1
REMARK VINA RESULT:    -3.499      0.000      0.000
REMARK INTER + INTRA:          -4.012
REMARK INTER:                  -3.806
REMARK INTRA:                  -0.206
REMARK UNBOUND:                -0.206
REMARK SMILES O=C([O-])c1ccccc1O
REMARK SMILES IDX 4 1 9 2 5 3 8 4 6 5 7 6 2 7 1 8 3 9 10 10
REMARK H PARENT 10 11
REMARK Flexibility Score: inf
ROOT
ATOM      1  C   UNL     1     -22.957   6.743 -47.237  1.00  0.00     0.039 A 
ATOM      2  C   UNL     1     -21.626   7.177 -47.030  1.00  0.00     0.124 A 
ATOM      3  C   UNL     1     -23.502   5.784 -46.360  1.00  0.00     0.014 A 
ATOM      4  C   UNL     1     -20.876   6.650 -45.968  1.00  0.00     0.047 A 
ATOM      5  C   UNL     1     -22.744   5.269 -45.306  1.00  0.00     0.001 A 
ATOM      6  C   UNL     1     -21.433   5.700 -45.110  1.00  0.00     0.004 A 
ENDROOT
BRANCH   1   7
ATOM      7  C   UNL     1     -23.788   7.274 -48.349  1.00  0.00     0.075 C 
ATOM      8  O   UNL     1     -23.506   6.991 -49.545  1.00  0.00    -0.545 OA
ATOM      9  O   UNL     1     -24.885   8.089 -48.100  1.00  0.00    -0.545 OA
ENDBRANCH   1   7
BRANCH   2  10
ATOM     10  O   UNL     1     -21.045   8.125 -47.872  1.00  0.00    -0.507 OA
ATOM     11  H   UNL     1     -20.089   8.437 -47.744  1.00  0.00     0.293 HD
ENDBRANCH   2  10
TORSDOF 2
ENDMDL
MODEL 2
REMARK VINA RESULT:    -2.024      2.341      3.999
REMARK INTER + INTRA:          -2.407
REMARK INTER:                  -2.205
REMARK INTRA:                  -0.202
REMARK UNBOUND:                -0.206
REMARK SMILES O=C([O-])c1ccccc1O
REMARK SMILES IDX 4 1 9 2 5 3 8 4 6 5 7 6 2 7 1 8 3 9 10 10
REMARK H PARENT 10 11
REMARK Flexibility Score: inf
ROOT
ATOM      1  C   UNL     1     -22.305   6.348 -46.635  1.00  0.00     0.039 A 
ATOM      2  C   UNL     1     -23.490   6.367 -47.408  1.00  0.00     0.124 A 
ATOM      3  C   UNL     1     -21.262   7.234 -46.972  1.00  0.00     0.014 A 
ATOM      4  C   UNL     1     -23.608   7.256 -48.487  1.00  0.00     0.047 A 
ATOM      5  C   UNL     1     -21.393   8.114 -48.049  1.00  0.00     0.001 A 
ATOM      6  C   UNL     1     -22.563   8.125 -48.806  1.00  0.00     0.004 A 
ENDROOT
BRANCH   1   7
ATOM      7  C   UNL     1     -22.137   5.424 -45.484  1.00  0.00     0.075 C 
ATOM      8  O   UNL     1     -23.146   4.974 -44.876  1.00  0.00    -0.545 OA
ATOM      9  O   UNL     1     -20.875   5.038 -45.051  1.00  0.00    -0.545 OA
ENDBRANCH   1   7
BRANCH   2  10
ATOM     10  O   UNL     1     -24.549   5.509 -47.111  1.00  0.00    -0.507 OA
ATOM     11  H   UNL     1     -24.492   4.512 -47.286  1.00  0.00     0.293 HD
ENDBRANCH   2  10
TORSDOF 2
ENDMDL
MODEL 3
REMARK VINA RESULT:    -1.993     18.609     19.271
REMARK INTER + INTRA:          -2.373
REMARK INTER:                  -2.151
REMARK INTRA:                  -0.223
REMARK UNBOUND:                -0.206
REMARK SMILES O=C([O-])c1ccccc1O
REMARK SMILES IDX 4 1 9 2 5 3 8 4 6 5 7 6 2 7 1 8 3 9 10 10
REMARK H PARENT 10 11
REMARK Flexibility Score: inf
ROOT
ATOM      1  C   UNL     1     -23.866 -11.597 -52.722  1.00  0.00     0.039 A 
ATOM      2  C   UNL     1     -23.123 -11.344 -51.545  1.00  0.00     0.124 A 
ATOM      3  C   UNL     1     -23.178 -11.989 -53.889  1.00  0.00     0.014 A 
ATOM      4  C   UNL     1     -21.726 -11.483 -51.556  1.00  0.00     0.047 A 
ATOM      5  C   UNL     1     -21.788 -12.124 -53.885  1.00  0.00     0.001 A 
ATOM      6  C   UNL     1     -21.063 -11.872 -52.721  1.00  0.00     0.004 A 
ENDROOT
BRANCH   1   7
ATOM      7  C   UNL     1     -25.346 -11.462 -52.756  1.00  0.00     0.075 C 
ATOM      8  O   UNL     1     -26.027 -12.125 -53.583  1.00  0.00    -0.545 OA
ATOM      9  O   UNL     1     -26.009 -10.606 -51.885  1.00  0.00    -0.545 OA
ENDBRANCH   1   7
BRANCH   2  10
ATOM     10  O   UNL     1     -23.761 -10.954 -50.368  1.00  0.00    -0.507 OA
ATOM     11  H   UNL     1     -24.589 -10.370 -50.379  1.00  0.00     0.293 HD
ENDBRANCH   2  10
TORSDOF 2
ENDMDL
MODEL 4
REMARK VINA RESULT:    -1.546     15.385     17.083
REMARK INTER + INTRA:          -1.887
REMARK INTER:                  -1.802
REMARK INTRA:                  -0.085
REMARK UNBOUND:                -0.206
REMARK SMILES O=C([O-])c1ccccc1O
REMARK SMILES IDX 4 1 9 2 5 3 8 4 6 5 7 6 2 7 1 8 3 9 10 10
REMARK H PARENT 10 11
REMARK Flexibility Score: inf
ROOT
ATOM      1  C   UNL     1     -37.725   6.756 -54.154  1.00  0.00     0.039 A 
ATOM      2  C   UNL     1     -38.392   7.254 -53.010  1.00  0.00     0.124 A 
ATOM      3  C   UNL     1     -38.416   5.879 -55.015  1.00  0.00     0.014 A 
ATOM      4  C   UNL     1     -39.717   6.871 -52.751  1.00  0.00     0.047 A 
ATOM      5  C   UNL     1     -39.734   5.506 -54.744  1.00  0.00     0.001 A 
ATOM      6  C   UNL     1     -40.384   6.000 -53.615  1.00  0.00     0.004 A 
ENDROOT
BRANCH   1   7
ATOM      7  C   UNL     1     -36.322   7.136 -54.468  1.00  0.00     0.075 C 
ATOM      8  O   UNL     1     -36.082   8.125 -55.210  1.00  0.00    -0.545 OA
ATOM      9  O   UNL     1     -35.252   6.414 -53.955  1.00  0.00    -0.545 OA
ENDBRANCH   1   7
BRANCH   2  10
ATOM     10  O   UNL     1     -37.749   8.125 -52.131  1.00  0.00    -0.507 OA
ATOM     11  H   UNL     1     -36.904   8.619 -52.393  1.00  0.00     0.293 HD
ENDBRANCH   2  10
TORSDOF 2
ENDMDL
MODEL 5
REMARK VINA RESULT:    -1.332     18.334     19.062
REMARK INTER + INTRA:          -1.655
REMARK INTER:                  -1.448
REMARK INTRA:                  -0.207
REMARK UNBOUND:                -0.206
REMARK SMILES O=C([O-])c1ccccc1O
REMARK SMILES IDX 4 1 9 2 5 3 8 4 6 5 7 6 2 7 1 8 3 9 10 10
REMARK H PARENT 10 11
REMARK Flexibility Score: inf
ROOT
ATOM      1  C   UNL     1     -23.594 -11.381 -52.270  1.00  0.00     0.039 A 
ATOM      2  C   UNL     1     -22.521 -11.750 -53.116  1.00  0.00     0.124 A 
ATOM      3  C   UNL     1     -23.313 -11.008 -50.940  1.00  0.00     0.014 A 
ATOM      4  C   UNL     1     -21.207 -11.742 -52.623  1.00  0.00     0.047 A 
ATOM      5  C   UNL     1     -22.000 -11.005 -50.463  1.00  0.00     0.001 A 
ATOM      6  C   UNL     1     -20.949 -11.371 -51.302  1.00  0.00     0.004 A 
ENDROOT
BRANCH   1   7
ATOM      7  C   UNL     1     -25.001 -11.375 -52.751  1.00  0.00     0.075 C 
ATOM      8  O   UNL     1     -25.352 -12.124 -53.701  1.00  0.00    -0.545 OA
ATOM      9  O   UNL     1     -25.954 -10.548 -52.169  1.00  0.00    -0.545 OA
ENDBRANCH   1   7
BRANCH   2  10
ATOM     10  O   UNL     1     -22.751 -12.125 -54.439  1.00  0.00    -0.507 OA
ATOM     11  H   UNL     1     -22.028 -12.554 -55.005  1.00  0.00     0.293 HD
ENDBRANCH   2  10
TORSDOF 2
ENDMDL
MODEL 6
REMARK VINA RESULT:    -0.780      1.869      3.371
REMARK INTER + INTRA:          -1.055
REMARK INTER:                  -0.971
REMARK INTRA:                  -0.084
REMARK UNBOUND:                -0.206
REMARK SMILES O=C([O-])c1ccccc1O
REMARK SMILES IDX 4 1 9 2 5 3 8 4 6 5 7 6 2 7 1 8 3 9 10 10
REMARK H PARENT 10 11
REMARK Flexibility Score: inf
ROOT
ATOM      1  C   UNL     1     -22.507   6.370 -46.787  1.00  0.00     0.039 A 
ATOM      2  C   UNL     1     -22.196   7.449 -47.649  1.00  0.00     0.124 A 
ATOM      3  C   UNL     1     -23.857   5.996 -46.628  1.00  0.00     0.014 A 
ATOM      4  C   UNL     1     -23.225   8.124 -48.324  1.00  0.00     0.047 A 
ATOM      5  C   UNL     1     -24.870   6.677 -47.307  1.00  0.00     0.001 A 
ATOM      6  C   UNL     1     -24.556   7.739 -48.153  1.00  0.00     0.004 A 
ENDROOT
BRANCH   1   7
ATOM      7  C   UNL     1     -21.450   5.627 -46.053  1.00  0.00     0.075 C 
ATOM      8  O   UNL     1     -21.028   4.523 -46.490  1.00  0.00    -0.545 OA
ATOM      9  O   UNL     1     -20.908   6.126 -44.875  1.00  0.00    -0.545 OA
ENDBRANCH   1   7
BRANCH   2  10
ATOM     10  O   UNL     1     -20.875   7.853 -47.838  1.00  0.00    -0.507 OA
ATOM     11  H   UNL     1     -20.488   8.653 -47.349  1.00  0.00     0.293 HD
ENDBRANCH   2  10
TORSDOF 2
ENDMDL
