MODEL 1
REMARK VINA RESULT:    -3.900      0.000      0.000
REMARK INTER + INTRA:          -8.512
REMARK INTER:                  -6.636
REMARK INTRA:                  -1.877
REMARK UNBOUND:                -1.877
REMARK SMILES CCCCCCCCCCCCCC(=O)[O-]
REMARK SMILES IDX 8 1 9 2 10 3 11 4 12 5 13 6 14 7 15 8 16 9 7 10 6 11 5 12
REMARK SMILES IDX 4 13 3 14 2 15 1 16
REMARK H PARENT
REMARK Flexibility Score: inf
ROOT
ATOM      1  C   UNL     1      10.509 -15.866  24.792  1.00  0.00     0.000 C 
ENDROOT
BRANCH   1   2
ATOM      2  C   UNL     1       9.752 -16.224  26.079  1.00  0.00     0.000 C 
BRANCH   2   3
ATOM      3  C   UNL     1      10.257 -17.523  26.730  1.00  0.00     0.000 C 
BRANCH   3   4
ATOM      4  C   UNL     1       9.266 -18.698  26.614  1.00  0.00     0.000 C 
BRANCH   4   5
ATOM      5  C   UNL     1       9.733 -19.755  25.598  1.00  0.00     0.006 C 
BRANCH   5   6
ATOM      6  C   UNL     1       9.057 -21.114  25.818  1.00  0.00     0.053 C 
BRANCH   6   7
ATOM      7  C   UNL     1       7.573 -21.033  25.628  1.00  0.00     0.041 C 
ATOM      8  O   UNL     1       7.085 -20.970  24.469  1.00  0.00    -0.550 OA
ATOM      9  O   UNL     1       6.728 -21.062  26.730  1.00  0.00    -0.550 OA
ENDBRANCH   6   7
ENDBRANCH   5   6
ENDBRANCH   4   5
ENDBRANCH   3   4
ENDBRANCH   2   3
ENDBRANCH   1   2
BRANCH   1  10
ATOM     10  C   UNL     1       9.824 -14.710  24.054  1.00  0.00     0.000 C 
BRANCH  10  11
ATOM     11  C   UNL     1       8.499 -14.333  24.731  1.00  0.00    -0.000 C 
BRANCH  11  12
ATOM     12  C   UNL     1       7.364 -14.065  23.726  1.00  0.00    -0.000 C 
BRANCH  12  13
ATOM     13  C   UNL     1       6.530 -15.300  23.341  1.00  0.00    -0.000 C 
BRANCH  13  14
ATOM     14  C   UNL     1       6.308 -16.264  24.517  1.00  0.00    -0.000 C 
BRANCH  14  15
ATOM     15  C   UNL     1       6.705 -17.694  24.137  1.00  0.00    -0.003 C 
ATOM     16  C   UNL     1       7.777 -17.699  23.050  1.00  0.00     0.004 C 
ENDBRANCH  14  15
ENDBRANCH  13  14
ENDBRANCH  12  13
ENDBRANCH  11  12
ENDBRANCH  10  11
ENDBRANCH   1  10
TORSDOF 12
ENDMDL
MODEL 2
REMARK VINA RESULT:    -3.899      2.119      4.386
REMARK INTER + INTRA:          -8.511
REMARK INTER:                  -6.719
REMARK INTRA:                  -1.792
REMARK UNBOUND:                -1.877
REMARK SMILES CCCCCCCCCCCCCC(=O)[O-]
REMARK SMILES IDX 8 1 9 2 10 3 11 4 12 5 13 6 14 7 15 8 16 9 7 10 6 11 5 12
REMARK SMILES IDX 4 13 3 14 2 15 1 16
REMARK H PARENT
REMARK Flexibility Score: inf
ROOT
ATOM      1  C   UNL     1       6.664 -16.765  24.693  1.00  0.00     0.000 C 
ENDROOT
BRANCH   1   2
ATOM      2  C   UNL     1       6.782 -17.963  23.739  1.00  0.00     0.000 C 
BRANCH   2   3
ATOM      3  C   UNL     1       8.169 -18.073  23.084  1.00  0.00     0.000 C 
BRANCH   3   4
ATOM      4  C   UNL     1       8.231 -17.474  21.664  1.00  0.00     0.000 C 
BRANCH   4   5
ATOM      5  C   UNL     1       8.586 -18.531  20.603  1.00  0.00     0.006 C 
BRANCH   5   6
ATOM      6  C   UNL     1       7.480 -19.581  20.434  1.00  0.00     0.053 C 
BRANCH   6   7
ATOM      7  C   UNL     1       7.983 -20.965  20.708  1.00  0.00     0.041 C 
ATOM      8  O   UNL     1       7.883 -21.459  21.862  1.00  0.00    -0.550 OA
ATOM      9  O   UNL     1       8.532 -21.722  19.681  1.00  0.00    -0.550 OA
ENDBRANCH   6   7
ENDBRANCH   5   6
ENDBRANCH   4   5
ENDBRANCH   3   4
ENDBRANCH   2   3
ENDBRANCH   1   2
BRANCH   1  10
ATOM     10  C   UNL     1       6.107 -15.536  23.966  1.00  0.00     0.000 C 
BRANCH  10  11
ATOM     11  C   UNL     1       7.165 -14.427  23.871  1.00  0.00    -0.000 C 
BRANCH  11  12
ATOM     12  C   UNL     1       8.316 -14.607  24.878  1.00  0.00    -0.000 C 
BRANCH  12  13
ATOM     13  C   UNL     1       9.717 -14.720  24.250  1.00  0.00    -0.000 C 
BRANCH  13  14
ATOM     14  C   UNL     1      10.517 -15.920  24.781  1.00  0.00    -0.000 C 
BRANCH  14  15
ATOM     15  C   UNL     1      10.132 -16.239  26.229  1.00  0.00    -0.003 C 
ATOM     16  C   UNL     1       9.883 -17.733  26.418  1.00  0.00     0.004 C 
ENDBRANCH  14  15
ENDBRANCH  13  14
ENDBRANCH  12  13
ENDBRANCH  11  12
ENDBRANCH  10  11
ENDBRANCH   1  10
TORSDOF 12
ENDMDL
MODEL 3
REMARK VINA RESULT:    -3.851      3.057      5.120
REMARK INTER + INTRA:          -8.430
REMARK INTER:                  -6.485
REMARK INTRA:                  -1.945
REMARK UNBOUND:                -1.877
REMARK SMILES CCCCCCCCCCCCCC(=O)[O-]
REMARK SMILES IDX 8 1 9 2 10 3 11 4 12 5 13 6 14 7 15 8 16 9 7 10 6 11 5 12
REMARK SMILES IDX 4 13 3 14 2 15 1 16
REMARK H PARENT
REMARK Flexibility Score: inf
ROOT
ATOM      1  C   UNL     1       7.225 -16.197  24.611  1.00  0.00     0.000 C 
ENDROOT
BRANCH   1   2
ATOM      2  C   UNL     1       7.448 -16.803  26.004  1.00  0.00     0.000 C 
BRANCH   2   3
ATOM      3  C   UNL     1       8.832 -16.470  26.587  1.00  0.00     0.000 C 
BRANCH   3   4
ATOM      4  C   UNL     1       9.958 -17.388  26.070  1.00  0.00     0.000 C 
BRANCH   4   5
ATOM      5  C   UNL     1      11.127 -16.590  25.466  1.00  0.00     0.006 C 
BRANCH   5   6
ATOM      6  C   UNL     1      10.921 -16.297  23.974  1.00  0.00     0.053 C 
BRANCH   6   7
ATOM      7  C   UNL     1      10.935 -14.826  23.691  1.00  0.00     0.041 C 
ATOM      8  O   UNL     1       9.949 -14.110  24.009  1.00  0.00    -0.550 OA
ATOM      9  O   UNL     1      12.051 -14.240  23.106  1.00  0.00    -0.550 OA
ENDBRANCH   6   7
ENDBRANCH   5   6
ENDBRANCH   4   5
ENDBRANCH   3   4
ENDBRANCH   2   3
ENDBRANCH   1   2
BRANCH   1  10
ATOM     10  C   UNL     1       6.637 -17.235  23.647  1.00  0.00     0.000 C 
BRANCH  10  11
ATOM     11  C   UNL     1       7.730 -18.172  23.116  1.00  0.00    -0.000 C 
BRANCH  11  12
ATOM     12  C   UNL     1       7.256 -19.631  22.977  1.00  0.00    -0.000 C 
BRANCH  12  13
ATOM     13  C   UNL     1       7.173 -20.417  24.298  1.00  0.00    -0.000 C 
BRANCH  13  14
ATOM     14  C   UNL     1       8.539 -20.591  24.979  1.00  0.00    -0.000 C 
BRANCH  14  15
ATOM     15  C   UNL     1       8.376 -20.824  26.484  1.00  0.00    -0.003 C 
ATOM     16  C   UNL     1       7.082 -20.203  27.003  1.00  0.00     0.004 C 
ENDBRANCH  14  15
ENDBRANCH  13  14
ENDBRANCH  12  13
ENDBRANCH  11  12
ENDBRANCH  10  11
ENDBRANCH   1  10
TORSDOF 12
ENDMDL
MODEL 4
REMARK VINA RESULT:    -3.846      2.029      3.829
REMARK INTER + INTRA:          -8.421
REMARK INTER:                  -6.526
REMARK INTRA:                  -1.895
REMARK UNBOUND:                -1.877
REMARK SMILES CCCCCCCCCCCCCC(=O)[O-]
REMARK SMILES IDX 8 1 9 2 10 3 11 4 12 5 13 6 14 7 15 8 16 9 7 10 6 11 5 12
REMARK SMILES IDX 4 13 3 14 2 15 1 16
REMARK H PARENT
REMARK Flexibility Score: inf
ROOT
ATOM      1  C   UNL     1       7.499 -14.606  23.818  1.00  0.00     0.000 C 
ENDROOT
BRANCH   1   2
ATOM      2  C   UNL     1       6.935 -16.018  23.605  1.00  0.00     0.000 C 
BRANCH   2   3
ATOM      3  C   UNL     1       7.528 -16.720  22.371  1.00  0.00     0.000 C 
BRANCH   3   4
ATOM      4  C   UNL     1       8.068 -18.134  22.665  1.00  0.00     0.000 C 
BRANCH   4   5
ATOM      5  C   UNL     1       6.945 -19.122  23.028  1.00  0.00     0.006 C 
BRANCH   5   6
ATOM      6  C   UNL     1       7.463 -20.555  23.199  1.00  0.00     0.053 C 
BRANCH   6   7
ATOM      7  C   UNL     1       8.069 -21.081  21.934  1.00  0.00     0.041 C 
ATOM      8  O   UNL     1       7.357 -21.244  20.909  1.00  0.00    -0.550 OA
ATOM      9  O   UNL     1       9.429 -21.359  21.878  1.00  0.00    -0.550 OA
ENDBRANCH   6   7
ENDBRANCH   5   6
ENDBRANCH   4   5
ENDBRANCH   3   4
ENDBRANCH   2   3
ENDBRANCH   1   2
BRANCH   1  10
ATOM     10  C   UNL     1       8.493 -14.581  24.986  1.00  0.00     0.000 C 
BRANCH  10  11
ATOM     11  C   UNL     1       9.901 -14.977  24.518  1.00  0.00    -0.000 C 
BRANCH  11  12
ATOM     12  C   UNL     1      10.493 -16.151  25.319  1.00  0.00    -0.000 C 
BRANCH  12  13
ATOM     13  C   UNL     1       9.610 -16.663  26.472  1.00  0.00    -0.000 C 
BRANCH  13  14
ATOM     14  C   UNL     1       9.118 -18.103  26.256  1.00  0.00    -0.000 C 
BRANCH  14  15
ATOM     15  C   UNL     1       7.609 -18.208  26.497  1.00  0.00    -0.003 C 
ATOM     16  C   UNL     1       7.203 -19.637  26.846  1.00  0.00     0.004 C 
ENDBRANCH  14  15
ENDBRANCH  13  14
ENDBRANCH  12  13
ENDBRANCH  11  12
ENDBRANCH  10  11
ENDBRANCH   1  10
TORSDOF 12
ENDMDL
MODEL 5
REMARK VINA RESULT:    -3.846      2.664      5.631
REMARK INTER + INTRA:          -8.421
REMARK INTER:                  -6.225
REMARK INTRA:                  -2.196
REMARK UNBOUND:                -1.877
REMARK SMILES CCCCCCCCCCCCCC(=O)[O-]
REMARK SMILES IDX 8 1 9 2 10 3 11 4 12 5 13 6 14 7 15 8 16 9 7 10 6 11 5 12
REMARK SMILES IDX 4 13 3 14 2 15 1 16
REMARK H PARENT
REMARK Flexibility Score: inf
ROOT
ATOM      1  C   UNL     1       8.393 -21.090  23.878  1.00  0.00     0.000 C 
ENDROOT
BRANCH   1   2
ATOM      2  C   UNL     1       8.694 -19.909  22.946  1.00  0.00     0.000 C 
BRANCH   2   3
ATOM      3  C   UNL     1       7.530 -18.907  22.854  1.00  0.00     0.000 C 
BRANCH   3   4
ATOM      4  C   UNL     1       7.936 -17.456  23.183  1.00  0.00     0.000 C 
BRANCH   4   5
ATOM      5  C   UNL     1       6.853 -16.718  23.989  1.00  0.00     0.006 C 
BRANCH   5   6
ATOM      6  C   UNL     1       7.064 -15.198  23.993  1.00  0.00     0.053 C 
BRANCH   6   7
ATOM      7  C   UNL     1       8.264 -14.807  24.801  1.00  0.00     0.041 C 
ATOM      8  O   UNL     1       9.277 -14.318  24.236  1.00  0.00    -0.550 OA
ATOM      9  O   UNL     1       8.249 -14.951  26.183  1.00  0.00    -0.550 OA
ENDBRANCH   6   7
ENDBRANCH   5   6
ENDBRANCH   4   5
ENDBRANCH   3   4
ENDBRANCH   2   3
ENDBRANCH   1   2
BRANCH   1  10
ATOM     10  C   UNL     1       7.167 -20.802  24.753  1.00  0.00     0.000 C 
BRANCH  10  11
ATOM     11  C   UNL     1       7.562 -20.693  26.233  1.00  0.00    -0.000 C 
BRANCH  11  12
ATOM     12  C   UNL     1       7.502 -19.249  26.767  1.00  0.00    -0.000 C 
BRANCH  12  13
ATOM     13  C   UNL     1       8.823 -18.466  26.672  1.00  0.00    -0.000 C 
BRANCH  13  14
ATOM     14  C   UNL     1      10.060 -19.345  26.915  1.00  0.00    -0.000 C 
BRANCH  14  15
ATOM     15  C   UNL     1      11.121 -19.109  25.835  1.00  0.00    -0.003 C 
ATOM     16  C   UNL     1      10.976 -17.724  25.211  1.00  0.00     0.004 C 
ENDBRANCH  14  15
ENDBRANCH  13  14
ENDBRANCH  12  13
ENDBRANCH  11  12
ENDBRANCH  10  11
ENDBRANCH   1  10
TORSDOF 12
ENDMDL
MODEL 6
REMARK VINA RESULT:    -3.826      2.277      3.712
REMARK INTER + INTRA:          -8.387
REMARK INTER:                  -7.391
REMARK INTRA:                  -0.995
REMARK UNBOUND:                -1.877
REMARK SMILES CCCCCCCCCCCCCC(=O)[O-]
REMARK SMILES IDX 8 1 9 2 10 3 11 4 12 5 13 6 14 7 15 8 16 9 7 10 6 11 5 12
REMARK SMILES IDX 4 13 3 14 2 15 1 16
REMARK H PARENT
REMARK Flexibility Score: inf
ROOT
ATOM      1  C   UNL     1       7.813 -18.227  26.138  1.00  0.00     0.000 C 
ENDROOT
BRANCH   1   2
ATOM      2  C   UNL     1       7.090 -19.307  26.956  1.00  0.00     0.000 C 
BRANCH   2   3
ATOM      3  C   UNL     1       7.260 -20.718  26.367  1.00  0.00     0.000 C 
BRANCH   3   4
ATOM      4  C   UNL     1       7.206 -20.754  24.826  1.00  0.00     0.000 C 
BRANCH   4   5
ATOM      5  C   UNL     1       8.465 -21.397  24.216  1.00  0.00     0.006 C 
BRANCH   5   6
ATOM      6  C   UNL     1       8.401 -21.461  22.685  1.00  0.00     0.053 C 
BRANCH   6   7
ATOM      7  C   UNL     1       9.218 -22.595  22.143  1.00  0.00     0.041 C 
ATOM      8  O   UNL     1       8.797 -23.269  21.167  1.00  0.00    -0.550 OA
ATOM      9  O   UNL     1      10.460 -22.884  22.695  1.00  0.00    -0.550 OA
ENDBRANCH   6   7
ENDBRANCH   5   6
ENDBRANCH   4   5
ENDBRANCH   3   4
ENDBRANCH   2   3
ENDBRANCH   1   2
BRANCH   1  10
ATOM     10  C   UNL     1       6.906 -17.012  25.908  1.00  0.00     0.000 C 
BRANCH  10  11
ATOM     11  C   UNL     1       6.475 -16.919  24.437  1.00  0.00    -0.000 C 
BRANCH  11  12
ATOM     12  C   UNL     1       5.971 -15.517  24.045  1.00  0.00    -0.000 C 
BRANCH  12  13
ATOM     13  C   UNL     1       6.979 -14.659  23.260  1.00  0.00    -0.000 C 
BRANCH  13  14
ATOM     14  C   UNL     1       8.378 -15.290  23.192  1.00  0.00    -0.000 C 
BRANCH  14  15
ATOM     15  C   UNL     1       9.341 -14.597  24.162  1.00  0.00    -0.003 C 
ATOM     16  C   UNL     1      10.520 -15.501  24.510  1.00  0.00     0.004 C 
ENDBRANCH  14  15
ENDBRANCH  13  14
ENDBRANCH  12  13
ENDBRANCH  11  12
ENDBRANCH  10  11
ENDBRANCH   1  10
TORSDOF 12
ENDMDL
MODEL 7
REMARK VINA RESULT:    -3.811      2.416      5.445
REMARK INTER + INTRA:          -8.361
REMARK INTER:                  -6.819
REMARK INTRA:                  -1.542
REMARK UNBOUND:                -1.877
REMARK SMILES CCCCCCCCCCCCCC(=O)[O-]
REMARK SMILES IDX 8 1 9 2 10 3 11 4 12 5 13 6 14 7 15 8 16 9 7 10 6 11 5 12
REMARK SMILES IDX 4 13 3 14 2 15 1 16
REMARK H PARENT
REMARK Flexibility Score: inf
ROOT
ATOM      1  C   UNL     1       7.670 -17.551  22.845  1.00  0.00     0.000 C 
ENDROOT
BRANCH   1   2
ATOM      2  C   UNL     1       6.688 -17.590  24.024  1.00  0.00     0.000 C 
BRANCH   2   3
ATOM      3  C   UNL     1       6.358 -16.192  24.576  1.00  0.00     0.000 C 
BRANCH   3   4
ATOM      4  C   UNL     1       7.121 -15.054  23.868  1.00  0.00     0.000 C 
BRANCH   4   5
ATOM      5  C   UNL     1       8.160 -14.391  24.790  1.00  0.00     0.006 C 
BRANCH   5   6
ATOM      6  C   UNL     1       9.600 -14.718  24.373  1.00  0.00     0.053 C 
BRANCH   6   7
ATOM      7  C   UNL     1      10.174 -15.834  25.191  1.00  0.00     0.041 C 
ATOM      8  O   UNL     1      11.309 -16.304  24.915  1.00  0.00    -0.550 OA
ATOM      9  O   UNL     1       9.469 -16.334  26.279  1.00  0.00    -0.550 OA
ENDBRANCH   6   7
ENDBRANCH   5   6
ENDBRANCH   4   5
ENDBRANCH   3   4
ENDBRANCH   2   3
ENDBRANCH   1   2
BRANCH   1  10
ATOM     10  C   UNL     1       7.560 -18.821  21.994  1.00  0.00     0.000 C 
BRANCH  10  11
ATOM     11  C   UNL     1       7.072 -20.007  22.838  1.00  0.00    -0.000 C 
BRANCH  11  12
ATOM     12  C   UNL     1       8.143 -21.100  23.016  1.00  0.00    -0.000 C 
BRANCH  12  13
ATOM     13  C   UNL     1       8.533 -21.396  24.476  1.00  0.00    -0.000 C 
BRANCH  13  14
ATOM     14  C   UNL     1       8.950 -20.137  25.252  1.00  0.00    -0.000 C 
BRANCH  14  15
ATOM     15  C   UNL     1       8.383 -20.157  26.675  1.00  0.00    -0.003 C 
ATOM     16  C   UNL     1       6.964 -20.718  26.696  1.00  0.00     0.004 C 
ENDBRANCH  14  15
ENDBRANCH  13  14
ENDBRANCH  12  13
ENDBRANCH  11  12
ENDBRANCH  10  11
ENDBRANCH   1  10
TORSDOF 12
ENDMDL
MODEL 8
REMARK VINA RESULT:    -3.798      2.381      3.037
REMARK INTER + INTRA:          -8.338
REMARK INTER:                  -6.379
REMARK INTRA:                  -1.959
REMARK UNBOUND:                -1.877
REMARK SMILES CCCCCCCCCCCCCC(=O)[O-]
REMARK SMILES IDX 8 1 9 2 10 3 11 4 12 5 13 6 14 7 15 8 16 9 7 10 6 11 5 12
REMARK SMILES IDX 4 13 3 14 2 15 1 16
REMARK H PARENT
REMARK Flexibility Score: inf
ROOT
ATOM      1  C   UNL     1       9.787 -14.718  24.195  1.00  0.00     0.000 C 
ENDROOT
BRANCH   1   2
ATOM      2  C   UNL     1      10.494 -15.916  24.844  1.00  0.00     0.000 C 
BRANCH   2   3
ATOM      3  C   UNL     1      10.032 -16.174  26.289  1.00  0.00     0.000 C 
BRANCH   3   4
ATOM      4  C   UNL     1      10.046 -17.664  26.685  1.00  0.00     0.000 C 
BRANCH   4   5
ATOM      5  C   UNL     1      11.118 -18.459  25.918  1.00  0.00     0.006 C 
BRANCH   5   6
ATOM      6  C   UNL     1      11.322 -19.866  26.494  1.00  0.00     0.053 C 
BRANCH   6   7
ATOM      7  C   UNL     1      11.913 -19.822  27.870  1.00  0.00     0.041 C 
ATOM      8  O   UNL     1      11.200 -20.078  28.875  1.00  0.00    -0.550 OA
ATOM      9  O   UNL     1      13.262 -19.532  28.039  1.00  0.00    -0.550 OA
ENDBRANCH   6   7
ENDBRANCH   5   6
ENDBRANCH   4   5
ENDBRANCH   3   4
ENDBRANCH   2   3
ENDBRANCH   1   2
BRANCH   1  10
ATOM     10  C   UNL     1       8.436 -14.447  24.866  1.00  0.00     0.000 C 
BRANCH  10  11
ATOM     11  C   UNL     1       7.318 -14.323  23.821  1.00  0.00    -0.000 C 
BRANCH  11  12
ATOM     12  C   UNL     1       6.343 -15.516  23.839  1.00  0.00    -0.000 C 
BRANCH  12  13
ATOM     13  C   UNL     1       6.566 -16.520  24.985  1.00  0.00    -0.000 C 
BRANCH  13  14
ATOM     14  C   UNL     1       7.010 -17.905  24.490  1.00  0.00    -0.000 C 
BRANCH  14  15
ATOM     15  C   UNL     1       7.578 -17.824  23.069  1.00  0.00    -0.003 C 
ATOM     16  C   UNL     1       8.843 -18.666  22.930  1.00  0.00     0.004 C 
ENDBRANCH  14  15
ENDBRANCH  13  14
ENDBRANCH  12  13
ENDBRANCH  11  12
ENDBRANCH  10  11
ENDBRANCH   1  10
TORSDOF 12
ENDMDL
MODEL 9
REMARK VINA RESULT:    -3.770      2.707      4.746
REMARK INTER + INTRA:          -8.291
REMARK INTER:                  -6.486
REMARK INTRA:                  -1.805
REMARK UNBOUND:                -1.877
REMARK SMILES CCCCCCCCCCCCCC(=O)[O-]
REMARK SMILES IDX 8 1 9 2 10 3 11 4 12 5 13 6 14 7 15 8 16 9 7 10 6 11 5 12
REMARK SMILES IDX 4 13 3 14 2 15 1 16
REMARK H PARENT
REMARK Flexibility Score: inf
ROOT
ATOM      1  C   UNL     1       7.470 -21.131  25.324  1.00  0.00     0.000 C 
ENDROOT
BRANCH   1   2
ATOM      2  C   UNL     1       7.737 -19.963  26.284  1.00  0.00     0.000 C 
BRANCH   2   3
ATOM      3  C   UNL     1       9.230 -19.783  26.608  1.00  0.00     0.000 C 
BRANCH   3   4
ATOM      4  C   UNL     1       9.650 -18.310  26.790  1.00  0.00     0.000 C 
BRANCH   4   5
ATOM      5  C   UNL     1      10.040 -17.648  25.457  1.00  0.00     0.006 C 
BRANCH   5   6
ATOM      6  C   UNL     1      10.325 -16.149  25.613  1.00  0.00     0.053 C 
BRANCH   6   7
ATOM      7  C   UNL     1      10.394 -15.456  24.286  1.00  0.00     0.041 C 
ATOM      8  O   UNL     1       9.748 -14.393  24.092  1.00  0.00    -0.550 OA
ATOM      9  O   UNL     1      11.198 -15.967  23.275  1.00  0.00    -0.550 OA
ENDBRANCH   6   7
ENDBRANCH   5   6
ENDBRANCH   4   5
ENDBRANCH   3   4
ENDBRANCH   2   3
ENDBRANCH   1   2
BRANCH   1  10
ATOM     10  C   UNL     1       7.974 -20.809  23.912  1.00  0.00     0.000 C 
BRANCH  10  11
ATOM     11  C   UNL     1       7.089 -19.749  23.241  1.00  0.00    -0.000 C 
BRANCH  11  12
ATOM     12  C   UNL     1       7.898 -18.694  22.464  1.00  0.00    -0.000 C 
BRANCH  12  13
ATOM     13  C   UNL     1       7.484 -17.234  22.725  1.00  0.00    -0.000 C 
BRANCH  13  14
ATOM     14  C   UNL     1       6.722 -17.055  24.047  1.00  0.00    -0.000 C 
BRANCH  14  15
ATOM     15  C   UNL     1       6.341 -15.587  24.266  1.00  0.00    -0.003 C 
ATOM     16  C   UNL     1       6.375 -14.806  22.955  1.00  0.00     0.004 C 
ENDBRANCH  14  15
ENDBRANCH  13  14
ENDBRANCH  12  13
ENDBRANCH  11  12
ENDBRANCH  10  11
ENDBRANCH   1  10
TORSDOF 12
ENDMDL
