MODEL 1
REMARK VINA RESULT:    -2.888      0.000      0.000
REMARK INTER + INTRA:          -3.967
REMARK INTER:                  -3.732
REMARK INTRA:                  -0.235
REMARK UNBOUND:                -0.235
REMARK SMILES CCCCCCC(=O)[O-]
REMARK SMILES IDX 5 1 6 2 7 3 8 4 9 5 4 6 3 7 2 8 1 9
REMARK H PARENT
REMARK Flexibility Score: inf
ROOT
ATOM      1  C   UNL     1      19.749 -12.622  -1.091  1.00  0.00     0.006 C 
ENDROOT
BRANCH   1   2
ATOM      2  C   UNL     1      19.571 -13.576  -2.275  1.00  0.00     0.053 C 
BRANCH   2   3
ATOM      3  C   UNL     1      19.086 -14.911  -1.805  1.00  0.00     0.041 C 
ATOM      4  O   UNL     1      19.909 -15.820  -1.522  1.00  0.00    -0.550 OA
ATOM      5  O   UNL     1      17.723 -15.168  -1.727  1.00  0.00    -0.550 OA
ENDBRANCH   2   3
ENDBRANCH   1   2
BRANCH   1   6
ATOM      6  C   UNL     1      21.005 -11.755  -1.268  1.00  0.00     0.000 C 
BRANCH   6   7
ATOM      7  C   UNL     1      20.679 -10.279  -1.556  1.00  0.00    -0.000 C 
BRANCH   7   8
ATOM      8  C   UNL     1      19.177  -9.942  -1.590  1.00  0.00    -0.003 C 
ATOM      9  C   UNL     1      18.689  -9.523  -2.976  1.00  0.00     0.004 C 
ENDBRANCH   7   8
ENDBRANCH   6   7
ENDBRANCH   1   6
TORSDOF 5
ENDMDL
MODEL 2
REMARK VINA RESULT:    -2.884     15.028     15.807
REMARK INTER + INTRA:          -3.962
REMARK INTER:                  -3.750
REMARK INTRA:                  -0.212
REMARK UNBOUND:                -0.235
REMARK SMILES CCCCCCC(=O)[O-]
REMARK SMILES IDX 5 1 6 2 7 3 8 4 9 5 4 6 3 7 2 8 1 9
REMARK H PARENT
REMARK Flexibility Score: inf
ROOT
ATOM      1  C   UNL     1      18.727 -15.477  13.182  1.00  0.00     0.006 C 
ENDROOT
BRANCH   1   2
ATOM      2  C   UNL     1      17.789 -16.195  14.156  1.00  0.00     0.053 C 
BRANCH   2   3
ATOM      3  C   UNL     1      18.100 -15.806  15.567  1.00  0.00     0.041 C 
ATOM      4  O   UNL     1      19.291 -15.797  15.973  1.00  0.00    -0.550 OA
ATOM      5  O   UNL     1      17.069 -15.502  16.448  1.00  0.00    -0.550 OA
ENDBRANCH   2   3
ENDBRANCH   1   2
BRANCH   1   6
ATOM      6  C   UNL     1      19.308 -16.460  12.154  1.00  0.00     0.000 C 
BRANCH   6   7
ATOM      7  C   UNL     1      18.237 -17.359  11.512  1.00  0.00    -0.000 C 
BRANCH   7   8
ATOM      8  C   UNL     1      18.072 -17.183   9.991  1.00  0.00    -0.003 C 
ATOM      9  C   UNL     1      18.587 -15.837   9.486  1.00  0.00     0.004 C 
ENDBRANCH   7   8
ENDBRANCH   6   7
ENDBRANCH   1   6
TORSDOF 5
ENDMDL
MODEL 3
REMARK VINA RESULT:    -2.832     14.522     15.392
REMARK INTER + INTRA:          -3.895
REMARK INTER:                  -3.607
REMARK INTRA:                  -0.288
REMARK UNBOUND:                -0.235
REMARK SMILES CCCCCCC(=O)[O-]
REMARK SMILES IDX 5 1 6 2 7 3 8 4 9 5 4 6 3 7 2 8 1 9
REMARK H PARENT
REMARK Flexibility Score: inf
ROOT
ATOM      1  C   UNL     1      17.878 -16.151  13.548  1.00  0.00     0.006 C 
ENDROOT
BRANCH   1   2
ATOM      2  C   UNL     1      19.120 -15.324  13.201  1.00  0.00     0.053 C 
BRANCH   2   3
ATOM      3  C   UNL     1      20.068 -15.293  14.357  1.00  0.00     0.041 C 
ATOM      4  O   UNL     1      21.274 -14.977  14.179  1.00  0.00    -0.550 OA
ATOM      5  O   UNL     1      19.634 -15.663  15.624  1.00  0.00    -0.550 OA
ENDBRANCH   2   3
ENDBRANCH   1   2
BRANCH   1   6
ATOM      6  C   UNL     1      17.760 -17.376  12.628  1.00  0.00     0.000 C 
BRANCH   6   7
ATOM      7  C   UNL     1      18.790 -17.370  11.484  1.00  0.00    -0.000 C 
BRANCH   7   8
ATOM      8  C   UNL     1      18.198 -17.146  10.081  1.00  0.00    -0.003 C 
ATOM      9  C   UNL     1      18.556 -15.783   9.491  1.00  0.00     0.004 C 
ENDBRANCH   7   8
ENDBRANCH   6   7
ENDBRANCH   1   6
TORSDOF 5
ENDMDL
MODEL 4
REMARK VINA RESULT:    -2.803     13.896     14.747
REMARK INTER + INTRA:          -3.857
REMARK INTER:                  -3.499
REMARK INTRA:                  -0.358
REMARK UNBOUND:                -0.235
REMARK SMILES CCCCCCC(=O)[O-]
REMARK SMILES IDX 5 1 6 2 7 3 8 4 9 5 4 6 3 7 2 8 1 9
REMARK H PARENT
REMARK Flexibility Score: inf
ROOT
ATOM      1  C   UNL     1      17.846 -18.064  12.332  1.00  0.00     0.006 C 
ENDROOT
BRANCH   1   2
ATOM      2  C   UNL     1      17.768 -17.805  10.825  1.00  0.00     0.053 C 
BRANCH   2   3
ATOM      3  C   UNL     1      18.909 -16.946  10.380  1.00  0.00     0.041 C 
ATOM      4  O   UNL     1      20.093 -17.280  10.645  1.00  0.00    -0.550 OA
ATOM      5  O   UNL     1      18.663 -15.750   9.718  1.00  0.00    -0.550 OA
ENDBRANCH   2   3
ENDBRANCH   1   2
BRANCH   1   6
ATOM      6  C   UNL     1      17.093 -16.979  13.116  1.00  0.00     0.000 C 
BRANCH   6   7
ATOM      7  C   UNL     1      17.991 -16.227  14.115  1.00  0.00    -0.000 C 
BRANCH   7   8
ATOM      8  C   UNL     1      18.993 -15.250  13.475  1.00  0.00    -0.003 C 
ATOM      9  C   UNL     1      20.440 -15.525  13.884  1.00  0.00     0.004 C 
ENDBRANCH   7   8
ENDBRANCH   6   7
ENDBRANCH   1   6
TORSDOF 5
ENDMDL
MODEL 5
REMARK VINA RESULT:    -2.768      2.532      4.254
REMARK INTER + INTRA:          -3.812
REMARK INTER:                  -3.508
REMARK INTRA:                  -0.304
REMARK UNBOUND:                -0.235
REMARK SMILES CCCCCCC(=O)[O-]
REMARK SMILES IDX 5 1 6 2 7 3 8 4 9 5 4 6 3 7 2 8 1 9
REMARK H PARENT
REMARK Flexibility Score: inf
ROOT
ATOM      1  C   UNL     1      20.345 -11.752  -0.961  1.00  0.00     0.006 C 
ENDROOT
BRANCH   1   2
ATOM      2  C   UNL     1      20.221 -10.404  -1.677  1.00  0.00     0.053 C 
BRANCH   2   3
ATOM      3  C   UNL     1      18.904 -10.301  -2.377  1.00  0.00     0.041 C 
ATOM      4  O   UNL     1      18.480  -9.182  -2.767  1.00  0.00    -0.550 OA
ATOM      5  O   UNL     1      18.119 -11.434  -2.553  1.00  0.00    -0.550 OA
ENDBRANCH   2   3
ENDBRANCH   1   2
BRANCH   1   6
ATOM      6  C   UNL     1      21.228 -12.720  -1.762  1.00  0.00     0.000 C 
BRANCH   6   7
ATOM      7  C   UNL     1      20.489 -14.006  -2.175  1.00  0.00    -0.000 C 
BRANCH   7   8
ATOM      8  C   UNL     1      19.362 -14.439  -1.220  1.00  0.00    -0.003 C 
ATOM      9  C   UNL     1      18.125 -14.959  -1.951  1.00  0.00     0.004 C 
ENDBRANCH   7   8
ENDBRANCH   6   7
ENDBRANCH   1   6
TORSDOF 5
ENDMDL
MODEL 6
REMARK VINA RESULT:    -2.717     14.765     15.574
REMARK INTER + INTRA:          -3.747
REMARK INTER:                  -3.642
REMARK INTRA:                  -0.105
REMARK UNBOUND:                -0.235
REMARK SMILES CCCCCCC(=O)[O-]
REMARK SMILES IDX 5 1 6 2 7 3 8 4 9 5 4 6 3 7 2 8 1 9
REMARK H PARENT
REMARK Flexibility Score: inf
ROOT
ATOM      1  C   UNL     1      19.090 -15.857  12.629  1.00  0.00     0.006 C 
ENDROOT
BRANCH   1   2
ATOM      2  C   UNL     1      19.370 -17.006  11.656  1.00  0.00     0.053 C 
BRANCH   2   3
ATOM      3  C   UNL     1      18.654 -16.783  10.362  1.00  0.00     0.041 C 
ATOM      4  O   UNL     1      18.773 -15.688   9.753  1.00  0.00    -0.550 OA
ATOM      5  O   UNL     1      17.814 -17.766   9.853  1.00  0.00    -0.550 OA
ENDBRANCH   2   3
ENDBRANCH   1   2
BRANCH   1   6
ATOM      6  C   UNL     1      17.957 -16.223  13.600  1.00  0.00     0.000 C 
BRANCH   6   7
ATOM      7  C   UNL     1      18.287 -15.881  15.064  1.00  0.00    -0.000 C 
BRANCH   7   8
ATOM      8  C   UNL     1      17.167 -16.199  16.071  1.00  0.00    -0.003 C 
ATOM      9  C   UNL     1      16.981 -15.108  17.124  1.00  0.00     0.004 C 
ENDBRANCH   7   8
ENDBRANCH   6   7
ENDBRANCH   1   6
TORSDOF 5
ENDMDL
MODEL 7
REMARK VINA RESULT:    -2.667      1.403      2.343
REMARK INTER + INTRA:          -3.682
REMARK INTER:                  -3.299
REMARK INTRA:                  -0.383
REMARK UNBOUND:                -0.235
REMARK SMILES CCCCCCC(=O)[O-]
REMARK SMILES IDX 5 1 6 2 7 3 8 4 9 5 4 6 3 7 2 8 1 9
REMARK H PARENT
REMARK Flexibility Score: inf
ROOT
ATOM      1  C   UNL     1      19.106 -11.728  -3.060  1.00  0.00     0.006 C 
ENDROOT
BRANCH   1   2
ATOM      2  C   UNL     1      18.398 -12.965  -2.501  1.00  0.00     0.053 C 
BRANCH   2   3
ATOM      3  C   UNL     1      19.392 -13.927  -1.932  1.00  0.00     0.041 C 
ATOM      4  O   UNL     1      20.556 -13.990  -2.408  1.00  0.00    -0.550 OA
ATOM      5  O   UNL     1      19.019 -14.790  -0.909  1.00  0.00    -0.550 OA
ENDBRANCH   2   3
ENDBRANCH   1   2
BRANCH   1   6
ATOM      6  C   UNL     1      18.961 -10.534  -2.106  1.00  0.00     0.000 C 
BRANCH   6   7
ATOM      7  C   UNL     1      20.263 -10.207  -1.352  1.00  0.00    -0.000 C 
BRANCH   7   8
ATOM      8  C   UNL     1      21.554 -10.616  -2.084  1.00  0.00    -0.003 C 
ATOM      9  C   UNL     1      22.553 -11.334  -1.178  1.00  0.00     0.004 C 
ENDBRANCH   7   8
ENDBRANCH   6   7
ENDBRANCH   1   6
TORSDOF 5
ENDMDL
MODEL 8
REMARK VINA RESULT:    -2.579     14.516     15.853
REMARK INTER + INTRA:          -3.568
REMARK INTER:                  -3.345
REMARK INTRA:                  -0.222
REMARK UNBOUND:                -0.235
REMARK SMILES CCCCCCC(=O)[O-]
REMARK SMILES IDX 5 1 6 2 7 3 8 4 9 5 4 6 3 7 2 8 1 9
REMARK H PARENT
REMARK Flexibility Score: inf
ROOT
ATOM      1  C   UNL     1      11.624   0.094  -2.459  1.00  0.00     0.006 C 
ENDROOT
BRANCH   1   2
ATOM      2  C   UNL     1      11.243   1.068  -1.340  1.00  0.00     0.053 C 
BRANCH   2   3
ATOM      3  C   UNL     1       9.944   1.740  -1.650  1.00  0.00     0.041 C 
ATOM      4  O   UNL     1       9.638   2.010  -2.841  1.00  0.00    -0.550 OA
ATOM      5  O   UNL     1       9.091   2.116  -0.620  1.00  0.00    -0.550 OA
ENDBRANCH   2   3
ENDBRANCH   1   2
BRANCH   1   6
ATOM      6  C   UNL     1      13.063   0.342  -2.935  1.00  0.00     0.000 C 
BRANCH   6   7
ATOM      7  C   UNL     1      14.057  -0.714  -2.418  1.00  0.00    -0.000 C 
BRANCH   7   8
ATOM      8  C   UNL     1      15.255  -0.147  -1.635  1.00  0.00    -0.003 C 
ATOM      9  C   UNL     1      15.595   1.292  -2.022  1.00  0.00     0.004 C 
ENDBRANCH   7   8
ENDBRANCH   6   7
ENDBRANCH   1   6
TORSDOF 5
ENDMDL
MODEL 9
REMARK VINA RESULT:    -2.555      2.780      4.417
REMARK INTER + INTRA:          -3.537
REMARK INTER:                  -3.272
REMARK INTRA:                  -0.266
REMARK UNBOUND:                -0.235
REMARK SMILES CCCCCCC(=O)[O-]
REMARK SMILES IDX 5 1 6 2 7 3 8 4 9 5 4 6 3 7 2 8 1 9
REMARK H PARENT
REMARK Flexibility Score: inf
ROOT
ATOM      1  C   UNL     1      19.926 -10.809  -1.254  1.00  0.00     0.006 C 
ENDROOT
BRANCH   1   2
ATOM      2  C   UNL     1      21.032 -10.269  -2.165  1.00  0.00     0.053 C 
BRANCH   2   3
ATOM      3  C   UNL     1      22.289 -11.061  -1.991  1.00  0.00     0.041 C 
ATOM      4  O   UNL     1      23.125 -11.137  -2.928  1.00  0.00    -0.550 OA
ATOM      5  O   UNL     1      22.515 -11.757  -0.809  1.00  0.00    -0.550 OA
ENDBRANCH   2   3
ENDBRANCH   1   2
BRANCH   1   6
ATOM      6  C   UNL     1      18.708 -11.257  -2.075  1.00  0.00     0.000 C 
BRANCH   6   7
ATOM      7  C   UNL     1      18.675 -12.776  -2.321  1.00  0.00    -0.000 C 
BRANCH   7   8
ATOM      8  C   UNL     1      19.499 -13.611  -1.324  1.00  0.00    -0.003 C 
ATOM      9  C   UNL     1      18.947 -15.021  -1.124  1.00  0.00     0.004 C 
ENDBRANCH   7   8
ENDBRANCH   6   7
ENDBRANCH   1   6
TORSDOF 5
ENDMDL
