MODEL 1
REMARK VINA RESULT:    -5.183      0.000      0.000
REMARK INTER + INTRA:          -5.757
REMARK INTER:                  -5.637
REMARK INTRA:                  -0.120
REMARK UNBOUND:                -0.120
REMARK SMILES O=C([O-])c1ccccc1O
REMARK SMILES IDX 4 1 9 2 5 3 8 4 6 5 7 6 2 7 1 8 3 9 10 10
REMARK H PARENT 10 11
REMARK Flexibility Score: inf
ROOT
ATOM      1  C   UNL     1     -33.262  -3.411 -19.510  1.00  0.00     0.039 A 
ATOM      2  C   UNL     1     -32.485  -2.677 -20.439  1.00  0.00     0.124 A 
ATOM      3  C   UNL     1     -32.683  -3.773 -18.277  1.00  0.00     0.014 A 
ATOM      4  C   UNL     1     -31.165  -2.324 -20.121  1.00  0.00     0.047 A 
ATOM      5  C   UNL     1     -31.367  -3.415 -17.975  1.00  0.00     0.001 A 
ATOM      6  C   UNL     1     -30.610  -2.692 -18.896  1.00  0.00     0.004 A 
ENDROOT
BRANCH   1   7
ATOM      7  C   UNL     1     -34.664  -3.806 -19.804  1.00  0.00     0.075 C 
ATOM      8  O   UNL     1     -35.602  -2.977 -19.660  1.00  0.00    -0.545 OA
ATOM      9  O   UNL     1     -34.972  -5.089 -20.243  1.00  0.00    -0.545 OA
ENDBRANCH   1   7
BRANCH   2  10
ATOM     10  O   UNL     1     -33.016  -2.298 -21.671  1.00  0.00    -0.507 OA
ATOM     11  H   UNL     1     -33.787  -2.801 -22.097  1.00  0.00     0.293 HD
ENDBRANCH   2  10
TORSDOF 2
ENDMDL
MODEL 2
REMARK VINA RESULT:    -5.090      1.386      2.227
REMARK INTER + INTRA:          -5.657
REMARK INTER:                  -5.410
REMARK INTRA:                  -0.247
REMARK UNBOUND:                -0.120
REMARK SMILES O=C([O-])c1ccccc1O
REMARK SMILES IDX 4 1 9 2 5 3 8 4 6 5 7 6 2 7 1 8 3 9 10 10
REMARK H PARENT 10 11
REMARK Flexibility Score: inf
ROOT
ATOM      1  C   UNL     1     -33.302  -3.374 -19.553  1.00  0.00     0.039 A 
ATOM      2  C   UNL     1     -32.396  -3.301 -18.467  1.00  0.00     0.124 A 
ATOM      3  C   UNL     1     -32.858  -2.986 -20.834  1.00  0.00     0.014 A 
ATOM      4  C   UNL     1     -31.085  -2.848 -18.680  1.00  0.00     0.047 A 
ATOM      5  C   UNL     1     -31.550  -2.537 -21.030  1.00  0.00     0.001 A 
ATOM      6  C   UNL     1     -30.665  -2.468 -19.955  1.00  0.00     0.004 A 
ENDROOT
BRANCH   1   7
ATOM      7  C   UNL     1     -34.699  -3.848 -19.374  1.00  0.00     0.075 C 
ATOM      8  O   UNL     1     -35.665  -3.134 -19.753  1.00  0.00    -0.545 OA
ATOM      9  O   UNL     1     -34.970  -5.079 -18.789  1.00  0.00    -0.545 OA
ENDBRANCH   1   7
BRANCH   2  10
ATOM     10  O   UNL     1     -32.789  -3.674 -17.183  1.00  0.00    -0.507 OA
ATOM     11  H   UNL     1     -33.725  -4.013 -16.990  1.00  0.00     0.293 HD
ENDBRANCH   2  10
TORSDOF 2
ENDMDL
MODEL 3
REMARK VINA RESULT:    -4.998      7.982      8.983
REMARK INTER + INTRA:          -5.556
REMARK INTER:                  -5.351
REMARK INTRA:                  -0.205
REMARK UNBOUND:                -0.120
REMARK SMILES O=C([O-])c1ccccc1O
REMARK SMILES IDX 4 1 9 2 5 3 8 4 6 5 7 6 2 7 1 8 3 9 10 10
REMARK H PARENT 10 11
REMARK Flexibility Score: inf
ROOT
ATOM      1  C   UNL     1     -38.614  -7.216 -14.127  1.00  0.00     0.039 A 
ATOM      2  C   UNL     1     -38.559  -8.312 -15.022  1.00  0.00     0.124 A 
ATOM      3  C   UNL     1     -37.461  -6.423 -13.956  1.00  0.00     0.014 A 
ATOM      4  C   UNL     1     -37.372  -8.590 -15.716  1.00  0.00     0.047 A 
ATOM      5  C   UNL     1     -36.286  -6.711 -14.654  1.00  0.00     0.001 A 
ATOM      6  C   UNL     1     -36.242  -7.793 -15.532  1.00  0.00     0.004 A 
ENDROOT
BRANCH   1   7
ATOM      7  C   UNL     1     -39.850  -6.885 -13.371  1.00  0.00     0.075 C 
ATOM      8  O   UNL     1     -39.787  -6.186 -12.325  1.00  0.00    -0.545 OA
ATOM      9  O   UNL     1     -41.094  -7.336 -13.797  1.00  0.00    -0.545 OA
ENDBRANCH   1   7
BRANCH   2  10
ATOM     10  O   UNL     1     -39.674  -9.124 -15.224  1.00  0.00    -0.507 OA
ATOM     11  H   UNL     1     -39.588 -10.068 -15.584  1.00  0.00     0.293 HD
ENDBRANCH   2  10
TORSDOF 2
ENDMDL
MODEL 4
REMARK VINA RESULT:    -4.916      7.434      8.655
REMARK INTER + INTRA:          -5.467
REMARK INTER:                  -5.222
REMARK INTRA:                  -0.245
REMARK UNBOUND:                -0.120
REMARK SMILES O=C([O-])c1ccccc1O
REMARK SMILES IDX 4 1 9 2 5 3 8 4 6 5 7 6 2 7 1 8 3 9 10 10
REMARK H PARENT 10 11
REMARK Flexibility Score: inf
ROOT
ATOM      1  C   UNL     1     -38.455  -7.854 -14.535  1.00  0.00     0.039 A 
ATOM      2  C   UNL     1     -38.340  -6.809 -15.483  1.00  0.00     0.124 A 
ATOM      3  C   UNL     1     -37.378  -8.751 -14.380  1.00  0.00     0.014 A 
ATOM      4  C   UNL     1     -37.170  -6.682 -16.247  1.00  0.00     0.047 A 
ATOM      5  C   UNL     1     -36.219  -8.612 -15.148  1.00  0.00     0.001 A 
ATOM      6  C   UNL     1     -36.115  -7.580 -16.079  1.00  0.00     0.004 A 
ENDROOT
BRANCH   1   7
ATOM      7  C   UNL     1     -39.676  -8.026 -13.705  1.00  0.00     0.075 C 
ATOM      8  O   UNL     1     -40.291  -9.125 -13.701  1.00  0.00    -0.545 OA
ATOM      9  O   UNL     1     -40.163  -6.987 -12.921  1.00  0.00    -0.545 OA
ENDBRANCH   1   7
BRANCH   2  10
ATOM     10  O   UNL     1     -39.380  -5.899 -15.671  1.00  0.00    -0.507 OA
ATOM     11  H   UNL     1     -40.249  -6.167 -16.117  1.00  0.00     0.293 HD
ENDBRANCH   2  10
TORSDOF 2
ENDMDL
MODEL 5
REMARK VINA RESULT:    -4.914      8.259      9.513
REMARK INTER + INTRA:          -5.465
REMARK INTER:                  -5.217
REMARK INTRA:                  -0.247
REMARK UNBOUND:                -0.120
REMARK SMILES O=C([O-])c1ccccc1O
REMARK SMILES IDX 4 1 9 2 5 3 8 4 6 5 7 6 2 7 1 8 3 9 10 10
REMARK H PARENT 10 11
REMARK Flexibility Score: inf
ROOT
ATOM      1  C   UNL     1     -37.897  -8.070 -14.128  1.00  0.00     0.039 A 
ATOM      2  C   UNL     1     -38.146  -6.726 -13.758  1.00  0.00     0.124 A 
ATOM      3  C   UNL     1     -38.970  -8.985 -14.124  1.00  0.00     0.014 A 
ATOM      4  C   UNL     1     -39.443  -6.329 -13.397  1.00  0.00     0.047 A 
ATOM      5  C   UNL     1     -40.255  -8.575 -13.762  1.00  0.00     0.001 A 
ATOM      6  C   UNL     1     -40.491  -7.249 -13.400  1.00  0.00     0.004 A 
ENDROOT
BRANCH   1   7
ATOM      7  C   UNL     1     -36.540  -8.534 -14.517  1.00  0.00     0.075 C 
ATOM      8  O   UNL     1     -36.361  -9.125 -15.615  1.00  0.00    -0.545 OA
ATOM      9  O   UNL     1     -35.445  -8.330 -13.685  1.00  0.00    -0.545 OA
ENDBRANCH   1   7
BRANCH   2  10
ATOM     10  O   UNL     1     -37.116  -5.786 -13.747  1.00  0.00    -0.507 OA
ATOM     11  H   UNL     1     -37.253  -4.843 -14.092  1.00  0.00     0.293 HD
ENDBRANCH   2  10
TORSDOF 2
ENDMDL
MODEL 6
REMARK VINA RESULT:    -4.856      7.354      9.009
REMARK INTER + INTRA:          -5.402
REMARK INTER:                  -5.151
REMARK INTRA:                  -0.251
REMARK UNBOUND:                -0.120
REMARK SMILES O=C([O-])c1ccccc1O
REMARK SMILES IDX 4 1 9 2 5 3 8 4 6 5 7 6 2 7 1 8 3 9 10 10
REMARK H PARENT 10 11
REMARK Flexibility Score: inf
ROOT
ATOM      1  C   UNL     1     -37.796  -7.328 -14.672  1.00  0.00     0.039 A 
ATOM      2  C   UNL     1     -39.063  -7.943 -14.521  1.00  0.00     0.124 A 
ATOM      3  C   UNL     1     -37.534  -6.134 -13.970  1.00  0.00     0.014 A 
ATOM      4  C   UNL     1     -40.027  -7.362 -13.684  1.00  0.00     0.047 A 
ATOM      5  C   UNL     1     -38.504  -5.567 -13.140  1.00  0.00     0.001 A 
ATOM      6  C   UNL     1     -39.748  -6.180 -12.997  1.00  0.00     0.004 A 
ENDROOT
BRANCH   1   7
ATOM      7  C   UNL     1     -36.746  -7.909 -15.548  1.00  0.00     0.075 C 
ATOM      8  O   UNL     1     -36.434  -9.125 -15.446  1.00  0.00    -0.545 OA
ATOM      9  O   UNL     1     -36.086  -7.130 -16.492  1.00  0.00    -0.545 OA
ENDBRANCH   1   7
BRANCH   2  10
ATOM     10  O   UNL     1     -39.367  -9.125 -15.196  1.00  0.00    -0.507 OA
ATOM     11  H   UNL     1     -40.325  -9.407 -15.370  1.00  0.00     0.293 HD
ENDBRANCH   2  10
TORSDOF 2
ENDMDL
MODEL 7
REMARK VINA RESULT:    -4.835      1.760      3.589
REMARK INTER + INTRA:          -5.379
REMARK INTER:                  -5.174
REMARK INTRA:                  -0.205
REMARK UNBOUND:                -0.120
REMARK SMILES O=C([O-])c1ccccc1O
REMARK SMILES IDX 4 1 9 2 5 3 8 4 6 5 7 6 2 7 1 8 3 9 10 10
REMARK H PARENT 10 11
REMARK Flexibility Score: inf
ROOT
ATOM      1  C   UNL     1     -31.448  -2.744 -19.952  1.00  0.00     0.039 A 
ATOM      2  C   UNL     1     -32.715  -2.778 -20.582  1.00  0.00     0.124 A 
ATOM      3  C   UNL     1     -31.353  -3.121 -18.597  1.00  0.00     0.014 A 
ATOM      4  C   UNL     1     -33.846  -3.182 -19.855  1.00  0.00     0.047 A 
ATOM      5  C   UNL     1     -32.487  -3.520 -17.887  1.00  0.00     0.001 A 
ATOM      6  C   UNL     1     -33.731  -3.551 -18.515  1.00  0.00     0.004 A 
ENDROOT
BRANCH   1   7
ATOM      7  C   UNL     1     -30.224  -2.323 -20.683  1.00  0.00     0.075 C 
ATOM      8  O   UNL     1     -29.086  -2.668 -20.268  1.00  0.00    -0.545 OA
ATOM      9  O   UNL     1     -30.306  -1.545 -21.833  1.00  0.00    -0.545 OA
ENDBRANCH   1   7
BRANCH   2  10
ATOM     10  O   UNL     1     -32.858  -2.415 -21.920  1.00  0.00    -0.507 OA
ATOM     11  H   UNL     1     -33.340  -1.565 -22.193  1.00  0.00     0.293 HD
ENDBRANCH   2  10
TORSDOF 2
ENDMDL
MODEL 8
REMARK VINA RESULT:    -4.809      1.907      3.540
REMARK INTER + INTRA:          -5.351
REMARK INTER:                  -5.112
REMARK INTRA:                  -0.239
REMARK UNBOUND:                -0.120
REMARK SMILES O=C([O-])c1ccccc1O
REMARK SMILES IDX 4 1 9 2 5 3 8 4 6 5 7 6 2 7 1 8 3 9 10 10
REMARK H PARENT 10 11
REMARK Flexibility Score: inf
ROOT
ATOM      1  C   UNL     1     -33.041  -3.522 -19.222  1.00  0.00     0.039 A 
ATOM      2  C   UNL     1     -33.588  -4.233 -20.318  1.00  0.00     0.124 A 
ATOM      3  C   UNL     1     -33.741  -3.516 -17.999  1.00  0.00     0.014 A 
ATOM      4  C   UNL     1     -34.806  -4.914 -20.171  1.00  0.00     0.047 A 
ATOM      5  C   UNL     1     -34.953  -4.199 -17.868  1.00  0.00     0.001 A 
ATOM      6  C   UNL     1     -35.484  -4.896 -18.953  1.00  0.00     0.004 A 
ENDROOT
BRANCH   1   7
ATOM      7  C   UNL     1     -31.754  -2.787 -19.333  1.00  0.00     0.075 C 
ATOM      8  O   UNL     1     -31.468  -2.161 -20.388  1.00  0.00    -0.545 OA
ATOM      9  O   UNL     1     -30.842  -2.773 -18.283  1.00  0.00    -0.545 OA
ENDBRANCH   1   7
BRANCH   2  10
ATOM     10  O   UNL     1     -32.930  -4.267 -21.547  1.00  0.00    -0.507 OA
ATOM     11  H   UNL     1     -32.596  -5.136 -21.949  1.00  0.00     0.293 HD
ENDBRANCH   2  10
TORSDOF 2
ENDMDL
MODEL 9
REMARK VINA RESULT:    -4.582      7.459      9.033
REMARK INTER + INTRA:          -5.104
REMARK INTER:                  -4.881
REMARK INTRA:                  -0.223
REMARK UNBOUND:                -0.120
REMARK SMILES O=C([O-])c1ccccc1O
REMARK SMILES IDX 4 1 9 2 5 3 8 4 6 5 7 6 2 7 1 8 3 9 10 10
REMARK H PARENT 10 11
REMARK Flexibility Score: inf
ROOT
ATOM      1  C   UNL     1     -37.495  -6.933 -14.126  1.00  0.00     0.039 A 
ATOM      2  C   UNL     1     -37.432  -8.314 -14.432  1.00  0.00     0.124 A 
ATOM      3  C   UNL     1     -38.704  -6.402 -13.632  1.00  0.00     0.014 A 
ATOM      4  C   UNL     1     -38.562  -9.125 -14.242  1.00  0.00     0.047 A 
ATOM      5  C   UNL     1     -39.821  -7.222 -13.448  1.00  0.00     0.001 A 
ATOM      6  C   UNL     1     -39.749  -8.580 -13.753  1.00  0.00     0.004 A 
ENDROOT
BRANCH   1   7
ATOM      7  C   UNL     1     -36.324  -6.038 -14.312  1.00  0.00     0.075 C 
ATOM      8  O   UNL     1     -35.866  -5.822 -15.465  1.00  0.00    -0.545 OA
ATOM      9  O   UNL     1     -35.711  -5.422 -13.226  1.00  0.00    -0.545 OA
ENDBRANCH   1   7
BRANCH   2  10
ATOM     10  O   UNL     1     -36.258  -8.884 -14.922  1.00  0.00    -0.507 OA
ATOM     11  H   UNL     1     -36.018  -9.851 -14.739  1.00  0.00     0.293 HD
ENDBRANCH   2  10
TORSDOF 2
ENDMDL
