MODEL 1
REMARK VINA RESULT:    -4.814      0.000      0.000
REMARK INTER + INTRA:          -7.105
REMARK INTER:                  -6.503
REMARK INTRA:                  -0.602
REMARK UNBOUND:                -0.602
REMARK SMILES CCCCCCCC(=O)[O-]
REMARK SMILES IDX 5 1 6 2 7 3 8 4 9 5 10 6 4 7 3 8 2 9 1 10
REMARK H PARENT
REMARK Flexibility Score: inf
ROOT
ATOM      1  C   UNL     1      61.316  66.359  73.533  1.00  0.00     0.000 C 
ENDROOT
BRANCH   1   2
ATOM      2  C   UNL     1      60.302  65.210  73.565  1.00  0.00     0.006 C 
BRANCH   2   3
ATOM      3  C   UNL     1      60.181  64.621  74.974  1.00  0.00     0.053 C 
BRANCH   3   4
ATOM      4  C   UNL     1      60.355  63.136  74.939  1.00  0.00     0.041 C 
ATOM      5  O   UNL     1      61.117  62.608  74.087  1.00  0.00    -0.550 OA
ATOM      6  O   UNL     1      59.638  62.331  75.815  1.00  0.00    -0.550 OA
ENDBRANCH   3   4
ENDBRANCH   2   3
ENDBRANCH   1   2
BRANCH   1   7
ATOM      7  C   UNL     1      62.087  66.449  74.857  1.00  0.00     0.000 C 
BRANCH   7   8
ATOM      8  C   UNL     1      63.593  66.175  74.694  1.00  0.00    -0.000 C 
BRANCH   8   9
ATOM      9  C   UNL     1      63.999  64.697  74.827  1.00  0.00    -0.003 C 
ATOM     10  C   UNL     1      64.274  64.027  73.482  1.00  0.00     0.004 C 
ENDBRANCH   8   9
ENDBRANCH   7   8
ENDBRANCH   1   7
TORSDOF 6
ENDMDL
MODEL 2
REMARK VINA RESULT:    -4.710      1.794      2.483
REMARK INTER + INTRA:          -6.964
REMARK INTER:                  -6.590
REMARK INTRA:                  -0.374
REMARK UNBOUND:                -0.602
REMARK SMILES CCCCCCCC(=O)[O-]
REMARK SMILES IDX 5 1 6 2 7 3 8 4 9 5 10 6 4 7 3 8 2 9 1 10
REMARK H PARENT
REMARK Flexibility Score: inf
ROOT
ATOM      1  C   UNL     1      60.980  64.073  73.436  1.00  0.00     0.000 C 
ENDROOT
BRANCH   1   2
ATOM      2  C   UNL     1      60.332  64.181  74.822  1.00  0.00     0.006 C 
BRANCH   2   3
ATOM      3  C   UNL     1      59.892  62.806  75.333  1.00  0.00     0.053 C 
BRANCH   3   4
ATOM      4  C   UNL     1      58.420  62.788  75.591  1.00  0.00     0.041 C 
ATOM      5  O   UNL     1      57.617  62.499  74.665  1.00  0.00    -0.550 OA
ATOM      6  O   UNL     1      57.929  63.141  76.842  1.00  0.00    -0.550 OA
ENDBRANCH   3   4
ENDBRANCH   2   3
ENDBRANCH   1   2
BRANCH   1   7
ATOM      7  C   UNL     1      62.000  62.927  73.394  1.00  0.00     0.000 C 
BRANCH   7   8
ATOM      8  C   UNL     1      63.453  63.421  73.279  1.00  0.00    -0.000 C 
BRANCH   8   9
ATOM      9  C   UNL     1      64.090  63.868  74.607  1.00  0.00    -0.003 C 
ATOM     10  C   UNL     1      63.990  65.375  74.842  1.00  0.00     0.004 C 
ENDBRANCH   8   9
ENDBRANCH   7   8
ENDBRANCH   1   7
TORSDOF 6
ENDMDL
MODEL 3
REMARK VINA RESULT:    -4.707      1.392      3.140
REMARK INTER + INTRA:          -6.960
REMARK INTER:                  -6.485
REMARK INTRA:                  -0.475
REMARK UNBOUND:                -0.602
REMARK SMILES CCCCCCCC(=O)[O-]
REMARK SMILES IDX 5 1 6 2 7 3 8 4 9 5 10 6 4 7 3 8 2 9 1 10
REMARK H PARENT
REMARK Flexibility Score: inf
ROOT
ATOM      1  C   UNL     1      63.888  65.168  74.834  1.00  0.00     0.000 C 
ENDROOT
BRANCH   1   2
ATOM      2  C   UNL     1      63.711  64.638  73.406  1.00  0.00     0.006 C 
BRANCH   2   3
ATOM      3  C   UNL     1      63.120  63.225  73.412  1.00  0.00     0.053 C 
BRANCH   3   4
ATOM      4  C   UNL     1      61.629  63.281  73.520  1.00  0.00     0.041 C 
ATOM      5  O   UNL     1      60.959  63.958  72.698  1.00  0.00    -0.550 OA
ATOM      6  O   UNL     1      60.983  62.625  74.561  1.00  0.00    -0.550 OA
ENDBRANCH   3   4
ENDBRANCH   2   3
ENDBRANCH   1   2
BRANCH   1   7
ATOM      7  C   UNL     1      63.503  66.651  74.921  1.00  0.00     0.000 C 
BRANCH   7   8
ATOM      8  C   UNL     1      62.103  66.942  74.353  1.00  0.00    -0.000 C 
BRANCH   8   9
ATOM      9  C   UNL     1      60.935  66.450  75.226  1.00  0.00    -0.003 C 
ATOM     10  C   UNL     1      59.818  67.483  75.370  1.00  0.00     0.004 C 
ENDBRANCH   8   9
ENDBRANCH   7   8
ENDBRANCH   1   7
TORSDOF 6
ENDMDL
MODEL 4
REMARK VINA RESULT:    -4.680      1.497      2.771
REMARK INTER + INTRA:          -6.923
REMARK INTER:                  -6.264
REMARK INTRA:                  -0.659
REMARK UNBOUND:                -0.602
REMARK SMILES CCCCCCCC(=O)[O-]
REMARK SMILES IDX 5 1 6 2 7 3 8 4 9 5 10 6 4 7 3 8 2 9 1 10
REMARK H PARENT
REMARK Flexibility Score: inf
ROOT
ATOM      1  C   UNL     1      63.931  63.841  74.429  1.00  0.00     0.000 C 
ENDROOT
BRANCH   1   2
ATOM      2  C   UNL     1      62.906  63.362  73.393  1.00  0.00     0.006 C 
BRANCH   2   3
ATOM      3  C   UNL     1      61.627  62.865  74.074  1.00  0.00     0.053 C 
BRANCH   3   4
ATOM      4  C   UNL     1      60.419  63.421  73.389  1.00  0.00     0.041 C 
ATOM      5  O   UNL     1      60.547  64.138  72.362  1.00  0.00    -0.550 OA
ATOM      6  O   UNL     1      59.154  63.189  73.914  1.00  0.00    -0.550 OA
ENDBRANCH   3   4
ENDBRANCH   2   3
ENDBRANCH   1   2
BRANCH   1   7
ATOM      7  C   UNL     1      63.748  65.334  74.734  1.00  0.00     0.000 C 
BRANCH   7   8
ATOM      8  C   UNL     1      63.297  66.146  73.506  1.00  0.00    -0.000 C 
BRANCH   8   9
ATOM      9  C   UNL     1      62.023  66.983  73.717  1.00  0.00    -0.003 C 
ATOM     10  C   UNL     1      61.262  66.605  74.987  1.00  0.00     0.004 C 
ENDBRANCH   8   9
ENDBRANCH   7   8
ENDBRANCH   1   7
TORSDOF 6
ENDMDL
MODEL 5
REMARK VINA RESULT:    -4.602      1.401      2.874
REMARK INTER + INTRA:          -6.818
REMARK INTER:                  -6.323
REMARK INTRA:                  -0.495
REMARK UNBOUND:                -0.602
REMARK SMILES CCCCCCCC(=O)[O-]
REMARK SMILES IDX 5 1 6 2 7 3 8 4 9 5 10 6 4 7 3 8 2 9 1 10
REMARK H PARENT
REMARK Flexibility Score: inf
ROOT
ATOM      1  C   UNL     1      63.841  64.639  73.390  1.00  0.00     0.000 C 
ENDROOT
BRANCH   1   2
ATOM      2  C   UNL     1      63.027  63.664  74.250  1.00  0.00     0.006 C 
BRANCH   2   3
ATOM      3  C   UNL     1      61.970  62.939  73.411  1.00  0.00     0.053 C 
BRANCH   3   4
ATOM      4  C   UNL     1      60.638  62.992  74.087  1.00  0.00     0.041 C 
ATOM      5  O   UNL     1      60.523  62.639  75.290  1.00  0.00    -0.550 OA
ATOM      6  O   UNL     1      59.511  63.383  73.374  1.00  0.00    -0.550 OA
ENDBRANCH   3   4
ENDBRANCH   2   3
ENDBRANCH   1   2
BRANCH   1   7
ATOM      7  C   UNL     1      63.335  66.078  73.563  1.00  0.00     0.000 C 
BRANCH   7   8
ATOM      8  C   UNL     1      62.570  66.291  74.882  1.00  0.00    -0.000 C 
BRANCH   8   9
ATOM      9  C   UNL     1      61.284  67.126  74.756  1.00  0.00    -0.003 C 
ATOM     10  C   UNL     1      60.057  66.428  75.340  1.00  0.00     0.004 C 
ENDBRANCH   8   9
ENDBRANCH   7   8
ENDBRANCH   1   7
TORSDOF 6
ENDMDL
MODEL 6
REMARK VINA RESULT:    -4.560      2.739      4.548
REMARK INTER + INTRA:          -6.761
REMARK INTER:                  -6.271
REMARK INTRA:                  -0.490
REMARK UNBOUND:                -0.602
REMARK SMILES CCCCCCCC(=O)[O-]
REMARK SMILES IDX 5 1 6 2 7 3 8 4 9 5 10 6 4 7 3 8 2 9 1 10
REMARK H PARENT
REMARK Flexibility Score: inf
ROOT
ATOM      1  C   UNL     1      63.312  63.262  73.564  1.00  0.00     0.000 C 
ENDROOT
BRANCH   1   2
ATOM      2  C   UNL     1      63.936  64.658  73.446  1.00  0.00     0.006 C 
BRANCH   2   3
ATOM      3  C   UNL     1      63.880  65.401  74.785  1.00  0.00     0.053 C 
BRANCH   3   4
ATOM      4  C   UNL     1      63.454  66.820  74.579  1.00  0.00     0.041 C 
ATOM      5  O   UNL     1      63.662  67.680  75.474  1.00  0.00    -0.550 OA
ATOM      6  O   UNL     1      62.781  67.182  73.419  1.00  0.00    -0.550 OA
ENDBRANCH   3   4
ENDBRANCH   2   3
ENDBRANCH   1   2
BRANCH   1   7
ATOM      7  C   UNL     1      61.791  63.321  73.362  1.00  0.00     0.000 C 
BRANCH   7   8
ATOM      8  C   UNL     1      61.004  62.843  74.595  1.00  0.00    -0.000 C 
BRANCH   8   9
ATOM      9  C   UNL     1      59.824  63.746  74.999  1.00  0.00    -0.003 C 
ATOM     10  C   UNL     1      60.199  65.226  75.066  1.00  0.00     0.004 C 
ENDBRANCH   8   9
ENDBRANCH   7   8
ENDBRANCH   1   7
TORSDOF 6
ENDMDL
MODEL 7
REMARK VINA RESULT:    -4.527      2.673      3.722
REMARK INTER + INTRA:          -6.717
REMARK INTER:                  -6.073
REMARK INTRA:                  -0.644
REMARK UNBOUND:                -0.602
REMARK SMILES CCCCCCCC(=O)[O-]
REMARK SMILES IDX 5 1 6 2 7 3 8 4 9 5 10 6 4 7 3 8 2 9 1 10
REMARK H PARENT
REMARK Flexibility Score: inf
ROOT
ATOM      1  C   UNL     1      60.338  64.609  74.908  1.00  0.00     0.000 C 
ENDROOT
BRANCH   1   2
ATOM      2  C   UNL     1      60.315  66.132  74.733  1.00  0.00     0.006 C 
BRANCH   2   3
ATOM      3  C   UNL     1      61.675  66.746  75.078  1.00  0.00     0.053 C 
BRANCH   3   4
ATOM      4  C   UNL     1      62.364  67.225  73.840  1.00  0.00     0.041 C 
ATOM      5  O   UNL     1      61.799  67.119  72.719  1.00  0.00    -0.550 OA
ATOM      6  O   UNL     1      63.650  67.744  73.916  1.00  0.00    -0.550 OA
ENDBRANCH   3   4
ENDBRANCH   2   3
ENDBRANCH   1   2
BRANCH   1   7
ATOM      7  C   UNL     1      60.642  63.907  73.577  1.00  0.00     0.000 C 
BRANCH   7   8
ATOM      8  C   UNL     1      61.846  62.953  73.663  1.00  0.00    -0.000 C 
BRANCH   8   9
ATOM      9  C   UNL     1      63.205  63.595  73.333  1.00  0.00    -0.003 C 
ATOM     10  C   UNL     1      64.044  63.895  74.574  1.00  0.00     0.004 C 
ENDBRANCH   8   9
ENDBRANCH   7   8
ENDBRANCH   1   7
TORSDOF 6
ENDMDL
MODEL 8
REMARK VINA RESULT:    -4.489      2.347      3.431
REMARK INTER + INTRA:          -6.665
REMARK INTER:                  -6.114
REMARK INTRA:                  -0.552
REMARK UNBOUND:                -0.602
REMARK SMILES CCCCCCCC(=O)[O-]
REMARK SMILES IDX 5 1 6 2 7 3 8 4 9 5 10 6 4 7 3 8 2 9 1 10
REMARK H PARENT
REMARK Flexibility Score: inf
ROOT
ATOM      1  C   UNL     1      63.686  65.591  74.672  1.00  0.00     0.000 C 
ENDROOT
BRANCH   1   2
ATOM      2  C   UNL     1      62.621  66.684  74.526  1.00  0.00     0.006 C 
BRANCH   2   3
ATOM      3  C   UNL     1      61.347  66.319  75.295  1.00  0.00     0.053 C 
BRANCH   3   4
ATOM      4  C   UNL     1      60.133  66.673  74.497  1.00  0.00     0.041 C 
ATOM      5  O   UNL     1      59.899  66.088  73.407  1.00  0.00    -0.550 OA
ATOM      6  O   UNL     1      59.286  67.685  74.932  1.00  0.00    -0.550 OA
ENDBRANCH   3   4
ENDBRANCH   2   3
ENDBRANCH   1   2
BRANCH   1   7
ATOM      7  C   UNL     1      63.761  64.724  73.408  1.00  0.00     0.000 C 
BRANCH   7   8
ATOM      8  C   UNL     1      63.275  63.282  73.640  1.00  0.00    -0.000 C 
BRANCH   8   9
ATOM      9  C   UNL     1      61.784  63.045  73.338  1.00  0.00    -0.003 C 
ATOM     10  C   UNL     1      60.941  62.857  74.598  1.00  0.00     0.004 C 
ENDBRANCH   8   9
ENDBRANCH   7   8
ENDBRANCH   1   7
TORSDOF 6
ENDMDL
MODEL 9
REMARK VINA RESULT:    -4.459      2.414      4.197
REMARK INTER + INTRA:          -6.625
REMARK INTER:                  -6.011
REMARK INTRA:                  -0.615
REMARK UNBOUND:                -0.602
REMARK SMILES CCCCCCCC(=O)[O-]
REMARK SMILES IDX 5 1 6 2 7 3 8 4 9 5 10 6 4 7 3 8 2 9 1 10
REMARK H PARENT
REMARK Flexibility Score: inf
ROOT
ATOM      1  C   UNL     1      63.510  64.553  74.747  1.00  0.00     0.000 C 
ENDROOT
BRANCH   1   2
ATOM      2  C   UNL     1      63.587  66.025  74.325  1.00  0.00     0.006 C 
BRANCH   2   3
ATOM      3  C   UNL     1      62.189  66.646  74.237  1.00  0.00     0.053 C 
BRANCH   3   4
ATOM      4  C   UNL     1      61.781  66.820  72.809  1.00  0.00     0.041 C 
ATOM      5  O   UNL     1      60.941  66.038  72.290  1.00  0.00    -0.550 OA
ATOM      6  O   UNL     1      62.365  67.815  72.035  1.00  0.00    -0.550 OA
ENDBRANCH   3   4
ENDBRANCH   2   3
ENDBRANCH   1   2
BRANCH   1   7
ATOM      7  C   UNL     1      63.485  63.630  73.521  1.00  0.00     0.000 C 
BRANCH   7   8
ATOM      8  C   UNL     1      62.150  62.879  73.362  1.00  0.00    -0.000 C 
BRANCH   8   9
ATOM      9  C   UNL     1      61.161  63.067  74.526  1.00  0.00    -0.003 C 
ATOM     10  C   UNL     1      59.716  63.245  74.061  1.00  0.00     0.004 C 
ENDBRANCH   8   9
ENDBRANCH   7   8
ENDBRANCH   1   7
TORSDOF 6
ENDMDL
