MODEL 1
REMARK VINA RESULT:    22.372      0.000      0.000
REMARK INTER + INTRA:          27.330
REMARK INTER:                  26.950
REMARK INTRA:                   0.380
REMARK UNBOUND:                 0.380
REMARK SMILES Oc1cc(O)c2c(c1)O[C@H](c1ccc(O)c(O)c1)[C@@H](O)C2
REMARK SMILES IDX 21 1 19 2 10 3 9 4 7 5 8 6 2 7 3 8 4 9 6 10 20 11 11 13
REMARK SMILES IDX 18 14 12 15 16 16 13 17 14 18 17 19 15 21 5 23 1 25
REMARK H PARENT 20 12 17 20 15 22 5 24 1 26
REMARK Flexibility Score: inf
ROOT
ATOM      1  C   UNL     1      26.267  28.483   1.639  1.00  0.00     0.079 C 
ATOM      2  C   UNL     1      27.141  29.350   2.561  1.00  0.00     0.164 C 
ATOM      3  C   UNL     1      28.625  28.988   2.361  1.00  0.00     0.232 C 
ATOM      4  O   UNL     1      28.826  27.591   2.584  1.00  0.00    -0.482 OA
ATOM      5  C   UNL     1      27.885  26.627   2.204  1.00  0.00     0.131 A 
ATOM      6  C   UNL     1      28.217  25.272   2.297  1.00  0.00     0.093 A 
ATOM      7  C   UNL     1      27.292  24.294   1.922  1.00  0.00     0.122 A 
ATOM      8  C   UNL     1      26.028  24.672   1.450  1.00  0.00     0.092 A 
ATOM      9  C   UNL     1      25.683  26.029   1.359  1.00  0.00     0.126 A 
ATOM     10  C   UNL     1      26.606  27.014   1.756  1.00  0.00     0.039 A 
ENDROOT
BRANCH   2  11
ATOM     11  O   UNL     1      26.940  30.708   2.267  1.00  0.00    -0.389 OA
ATOM     12  H   UNL     1      26.129  30.760   1.697  1.00  0.00     0.211 HD
ENDBRANCH   2  11
BRANCH   3  13
ATOM     13  C   UNL     1      29.510  29.782   3.293  1.00  0.00    -0.001 A 
ATOM     14  C   UNL     1      30.839  29.384   3.518  1.00  0.00     0.057 A 
ATOM     15  C   UNL     1      29.032  30.953   3.904  1.00  0.00     0.012 A 
ATOM     16  C   UNL     1      31.673  30.134   4.360  1.00  0.00     0.157 A 
ATOM     17  C   UNL     1      29.862  31.700   4.744  1.00  0.00     0.050 A 
ATOM     18  C   UNL     1      31.181  31.297   4.977  1.00  0.00     0.157 A 
BRANCH  16  19
ATOM     19  O   UNL     1      32.989  29.729   4.583  1.00  0.00    -0.504 OA
ATOM     20  H   UNL     1      33.358  29.616   5.520  1.00  0.00     0.293 HD
ENDBRANCH  16  19
BRANCH  18  21
ATOM     21  O   UNL     1      31.986  32.062   5.819  1.00  0.00    -0.504 OA
ATOM     22  H   UNL     1      32.420  31.674   6.648  1.00  0.00     0.293 HD
ENDBRANCH  18  21
ENDBRANCH   3  13
BRANCH   9  23
ATOM     23  O   UNL     1      24.427  26.398   0.875  1.00  0.00    -0.507 OA
ATOM     24  H   UNL     1      23.656  25.742   0.847  1.00  0.00     0.293 HD
ENDBRANCH   9  23
BRANCH   7  25
ATOM     25  O   UNL     1      27.639  22.948   2.018  1.00  0.00    -0.508 OA
ATOM     26  H   UNL     1      28.094  22.462   1.255  1.00  0.00     0.293 HD
ENDBRANCH   7  25
TORSDOF 6
ENDMDL
MODEL 2
REMARK VINA RESULT:    22.820      4.048      5.500
REMARK INTER + INTRA:          27.870
REMARK INTER:                  28.237
REMARK INTRA:                  -0.367
REMARK UNBOUND:                 0.380
REMARK SMILES Oc1cc(O)c2c(c1)O[C@H](c1ccc(O)c(O)c1)[C@@H](O)C2
REMARK SMILES IDX 21 1 19 2 10 3 9 4 7 5 8 6 2 7 3 8 4 9 6 10 20 11 11 13
REMARK SMILES IDX 18 14 12 15 16 16 13 17 14 18 17 19 15 21 5 23 1 25
REMARK H PARENT 20 12 17 20 15 22 5 24 1 26
REMARK Flexibility Score: inf
ROOT
ATOM      1  C   UNL     1      25.873  28.707   3.060  1.00  0.00     0.079 C 
ATOM      2  C   UNL     1      25.537  29.079   4.514  1.00  0.00     0.164 C 
ATOM      3  C   UNL     1      26.158  30.446   4.856  1.00  0.00     0.232 C 
ATOM      4  O   UNL     1      27.566  30.422   4.618  1.00  0.00    -0.482 OA
ATOM      5  C   UNL     1      28.134  29.723   3.546  1.00  0.00     0.131 A 
ATOM      6  C   UNL     1      29.495  29.878   3.271  1.00  0.00     0.093 A 
ATOM      7  C   UNL     1      30.082  29.190   2.205  1.00  0.00     0.122 A 
ATOM      8  C   UNL     1      29.301  28.341   1.409  1.00  0.00     0.092 A 
ATOM      9  C   UNL     1      27.935  28.173   1.681  1.00  0.00     0.126 A 
ATOM     10  C   UNL     1      27.348  28.849   2.766  1.00  0.00     0.039 A 
ENDROOT
BRANCH   2  11
ATOM     11  O   UNL     1      24.144  29.135   4.681  1.00  0.00    -0.389 OA
ATOM     12  H   UNL     1      23.878  30.083   4.551  1.00  0.00     0.211 HD
ENDBRANCH   2  11
BRANCH   3  13
ATOM     13  C   UNL     1      25.895  30.819   6.297  1.00  0.00    -0.001 A 
ATOM     14  C   UNL     1      25.070  31.913   6.607  1.00  0.00     0.057 A 
ATOM     15  C   UNL     1      26.431  30.047   7.342  1.00  0.00     0.012 A 
ATOM     16  C   UNL     1      24.800  32.246   7.943  1.00  0.00     0.157 A 
ATOM     17  C   UNL     1      26.163  30.378   8.673  1.00  0.00     0.050 A 
ATOM     18  C   UNL     1      25.351  31.475   8.980  1.00  0.00     0.157 A 
BRANCH  16  19
ATOM     19  O   UNL     1      23.986  33.338   8.241  1.00  0.00    -0.504 OA
ATOM     20  H   UNL     1      23.269  33.286   8.955  1.00  0.00     0.293 HD
ENDBRANCH  16  19
BRANCH  18  21
ATOM     21  O   UNL     1      25.102  31.782  10.317  1.00  0.00    -0.504 OA
ATOM     22  H   UNL     1      25.851  31.947  10.979  1.00  0.00     0.293 HD
ENDBRANCH  18  21
ENDBRANCH   3  13
BRANCH   9  23
ATOM     23  O   UNL     1      27.162  27.336   0.875  1.00  0.00    -0.507 OA
ATOM     24  H   UNL     1      26.248  27.015   1.168  1.00  0.00     0.293 HD
ENDBRANCH   9  23
BRANCH   7  25
ATOM     25  O   UNL     1      31.439  29.358   1.942  1.00  0.00    -0.508 OA
ATOM     26  H   UNL     1      31.923  28.784   1.263  1.00  0.00     0.293 HD
ENDBRANCH   7  25
TORSDOF 6
ENDMDL
MODEL 3
REMARK VINA RESULT:    24.498      4.008      6.577
REMARK INTER + INTRA:          29.891
REMARK INTER:                  30.181
REMARK INTRA:                  -0.289
REMARK UNBOUND:                 0.380
REMARK SMILES Oc1cc(O)c2c(c1)O[C@H](c1ccc(O)c(O)c1)[C@@H](O)C2
REMARK SMILES IDX 21 1 19 2 10 3 9 4 7 5 8 6 2 7 3 8 4 9 6 10 20 11 11 13
REMARK SMILES IDX 18 14 12 15 16 16 13 17 14 18 17 19 15 21 5 23 1 25
REMARK H PARENT 20 12 17 20 15 22 5 24 1 26
REMARK Flexibility Score: inf
ROOT
ATOM      1  C   UNL     1      24.554  31.596   5.171  1.00  0.00     0.079 C 
ATOM      2  C   UNL     1      25.519  31.026   4.117  1.00  0.00     0.164 C 
ATOM      3  C   UNL     1      25.971  29.615   4.536  1.00  0.00     0.232 C 
ATOM      4  O   UNL     1      26.558  29.652   5.839  1.00  0.00    -0.482 OA
ATOM      5  C   UNL     1      26.078  30.488   6.853  1.00  0.00     0.131 A 
ATOM      6  C   UNL     1      26.586  30.353   8.149  1.00  0.00     0.093 A 
ATOM      7  C   UNL     1      26.121  31.177   9.177  1.00  0.00     0.122 A 
ATOM      8  C   UNL     1      25.141  32.142   8.908  1.00  0.00     0.092 A 
ATOM      9  C   UNL     1      24.629  32.290   7.611  1.00  0.00     0.126 A 
ATOM     10  C   UNL     1      25.112  31.475   6.571  1.00  0.00     0.039 A 
ENDROOT
BRANCH   2  11
ATOM     11  O   UNL     1      24.877  30.967   2.868  1.00  0.00    -0.389 OA
ATOM     12  H   UNL     1      23.998  31.414   2.978  1.00  0.00     0.211 HD
ENDBRANCH   2  11
BRANCH   3  13
ATOM     13  C   UNL     1      26.965  29.045   3.550  1.00  0.00    -0.001 A 
ATOM     14  C   UNL     1      28.003  29.847   3.048  1.00  0.00     0.057 A 
ATOM     15  C   UNL     1      26.891  27.697   3.162  1.00  0.00     0.012 A 
ATOM     16  C   UNL     1      28.945  29.316   2.154  1.00  0.00     0.157 A 
ATOM     17  C   UNL     1      27.828  27.167   2.271  1.00  0.00     0.050 A 
ATOM     18  C   UNL     1      28.855  27.970   1.763  1.00  0.00     0.157 A 
BRANCH  16  19
ATOM     19  O   UNL     1      29.969  30.121   1.655  1.00  0.00    -0.504 OA
ATOM     20  H   UNL     1      30.648  30.555   2.268  1.00  0.00     0.293 HD
ENDBRANCH  16  19
BRANCH  18  21
ATOM     21  O   UNL     1      29.774  27.413   0.875  1.00  0.00    -0.504 OA
ATOM     22  H   UNL     1      30.664  27.853   0.675  1.00  0.00     0.293 HD
ENDBRANCH  18  21
ENDBRANCH   3  13
BRANCH   9  23
ATOM     23  O   UNL     1      23.643  33.243   7.355  1.00  0.00    -0.507 OA
ATOM     24  H   UNL     1      23.012  33.561   8.080  1.00  0.00     0.293 HD
ENDBRANCH   9  23
BRANCH   7  25
ATOM     25  O   UNL     1      26.635  31.028  10.463  1.00  0.00    -0.508 OA
ATOM     26  H   UNL     1      27.419  30.415  10.653  1.00  0.00     0.293 HD
ENDBRANCH   7  25
TORSDOF 6
ENDMDL
MODEL 4
REMARK VINA RESULT:    24.897      3.771      4.904
REMARK INTER + INTRA:          30.371
REMARK INTER:                  30.732
REMARK INTRA:                  -0.361
REMARK UNBOUND:                 0.380
REMARK SMILES Oc1cc(O)c2c(c1)O[C@H](c1ccc(O)c(O)c1)[C@@H](O)C2
REMARK SMILES IDX 21 1 19 2 10 3 9 4 7 5 8 6 2 7 3 8 4 9 6 10 20 11 11 13
REMARK SMILES IDX 18 14 12 15 16 16 13 17 14 18 17 19 15 21 5 23 1 25
REMARK H PARENT 20 12 17 20 15 22 5 24 1 26
REMARK Flexibility Score: inf
ROOT
ATOM      1  C   UNL     1      28.757  29.959   3.266  1.00  0.00     0.079 C 
ATOM      2  C   UNL     1      27.872  30.815   4.190  1.00  0.00     0.164 C 
ATOM      3  C   UNL     1      27.196  29.915   5.240  1.00  0.00     0.232 C 
ATOM      4  O   UNL     1      26.455  28.876   4.597  1.00  0.00    -0.482 OA
ATOM      5  C   UNL     1      26.901  28.252   3.426  1.00  0.00     0.131 A 
ATOM      6  C   UNL     1      26.218  27.132   2.944  1.00  0.00     0.093 A 
ATOM      7  C   UNL     1      26.646  26.494   1.777  1.00  0.00     0.122 A 
ATOM      8  C   UNL     1      27.766  26.978   1.088  1.00  0.00     0.092 A 
ATOM      9  C   UNL     1      28.456  28.105   1.560  1.00  0.00     0.126 A 
ATOM     10  C   UNL     1      28.012  28.761   2.723  1.00  0.00     0.039 A 
ENDROOT
BRANCH   2  11
ATOM     11  O   UNL     1      28.657  31.787   4.832  1.00  0.00    -0.389 OA
ATOM     12  H   UNL     1      28.207  31.995   5.692  1.00  0.00     0.211 HD
ENDBRANCH   2  11
BRANCH   3  13
ATOM     13  C   UNL     1      26.274  30.716   6.131  1.00  0.00    -0.001 A 
ATOM     14  C   UNL     1      26.463  30.721   7.524  1.00  0.00     0.057 A 
ATOM     15  C   UNL     1      25.251  31.502   5.576  1.00  0.00     0.012 A 
ATOM     16  C   UNL     1      25.628  31.485   8.353  1.00  0.00     0.157 A 
ATOM     17  C   UNL     1      24.418  32.263   6.400  1.00  0.00     0.050 A 
ATOM     18  C   UNL     1      24.600  32.258   7.787  1.00  0.00     0.157 A 
BRANCH  16  19
ATOM     19  O   UNL     1      25.819  31.480   9.734  1.00  0.00    -0.504 OA
ATOM     20  H   UNL     1      26.147  32.302  10.228  1.00  0.00     0.293 HD
ENDBRANCH  16  19
BRANCH  18  21
ATOM     21  O   UNL     1      23.754  33.027   8.585  1.00  0.00    -0.504 OA
ATOM     22  H   UNL     1      24.108  33.706   9.248  1.00  0.00     0.293 HD
ENDBRANCH  18  21
ENDBRANCH   3  13
BRANCH   9  23
ATOM     23  O   UNL     1      29.578  28.572   0.876  1.00  0.00    -0.507 OA
ATOM     24  H   UNL     1      30.507  28.224   1.080  1.00  0.00     0.293 HD
ENDBRANCH   9  23
BRANCH   7  25
ATOM     25  O   UNL     1      25.956  25.377   1.312  1.00  0.00    -0.508 OA
ATOM     26  H   UNL     1      26.133  24.989   0.393  1.00  0.00     0.293 HD
ENDBRANCH   7  25
TORSDOF 6
ENDMDL
