MODEL 1
REMARK VINA RESULT:    -4.952      0.000      0.000
REMARK INTER + INTRA:          -9.931
REMARK INTER:                  -9.295
REMARK INTRA:                  -0.636
REMARK UNBOUND:                -0.636
REMARK SMILES O=C([O-])CCCCCCCCCCCCCCC(=O)[O-]
REMARK SMILES IDX 10 1 9 2 8 3 7 4 6 5 5 6 4 7 2 8 1 9 3 10 11 11 12 12 13 13
REMARK SMILES IDX 14 14 15 15 16 16 17 17 18 18 19 19 20 20
REMARK H PARENT
REMARK Flexibility Score: inf
ROOT
ATOM      1  C   UNL     1       8.900  -9.522  -1.003  1.00  0.00     0.000 C 
ENDROOT
BRANCH   1   2
ATOM      2  C   UNL     1       8.657  -9.749   0.496  1.00  0.00     0.000 C 
BRANCH   2   3
ATOM      3  C   UNL     1       7.201  -9.448   0.869  1.00  0.00     0.000 C 
BRANCH   3   4
ATOM      4  C   UNL     1       6.853 -10.030   2.247  1.00  0.00     0.000 C 
BRANCH   4   5
ATOM      5  C   UNL     1       5.491 -10.747   2.272  1.00  0.00     0.000 C 
BRANCH   5   6
ATOM      6  C   UNL     1       4.859 -10.895   3.668  1.00  0.00     0.006 C 
BRANCH   6   7
ATOM      7  C   UNL     1       4.746  -9.562   4.419  1.00  0.00     0.053 C 
BRANCH   7   8
ATOM      8  C   UNL     1       3.343  -9.044   4.354  1.00  0.00     0.041 C 
ATOM      9  O   UNL     1       2.376  -9.845   4.264  1.00  0.00    -0.550 OA
ATOM     10  O   UNL     1       3.102  -7.678   4.433  1.00  0.00    -0.550 OA
ENDBRANCH   7   8
ENDBRANCH   6   7
ENDBRANCH   5   6
ENDBRANCH   4   5
ENDBRANCH   3   4
ENDBRANCH   2   3
ENDBRANCH   1   2
BRANCH   1  11
ATOM     11  C   UNL     1       7.665  -8.955  -1.731  1.00  0.00     0.000 C 
BRANCH  11  12
ATOM     12  C   UNL     1       7.825  -8.793  -3.253  1.00  0.00     0.000 C 
BRANCH  12  13
ATOM     13  C   UNL     1       8.599  -7.539  -3.703  1.00  0.00     0.000 C 
BRANCH  13  14
ATOM     14  C   UNL     1       8.948  -6.574  -2.549  1.00  0.00     0.000 C 
BRANCH  14  15
ATOM     15  C   UNL     1       8.941  -5.103  -2.990  1.00  0.00     0.000 C 
BRANCH  15  16
ATOM     16  C   UNL     1       8.921  -4.987  -4.521  1.00  0.00     0.006 C 
BRANCH  16  17
ATOM     17  C   UNL     1       7.781  -4.087  -5.018  1.00  0.00     0.053 C 
BRANCH  17  18
ATOM     18  C   UNL     1       7.741  -4.018  -6.514  1.00  0.00     0.041 C 
ATOM     19  O   UNL     1       7.344  -2.972  -7.089  1.00  0.00    -0.550 OA
ATOM     20  O   UNL     1       8.112  -5.123  -7.273  1.00  0.00    -0.550 OA
ENDBRANCH  17  18
ENDBRANCH  16  17
ENDBRANCH  15  16
ENDBRANCH  14  15
ENDBRANCH  13  14
ENDBRANCH  12  13
ENDBRANCH  11  12
ENDBRANCH   1  11
TORSDOF 15
ENDMDL
MODEL 2
REMARK VINA RESULT:    -4.697      3.984      6.635
REMARK INTER + INTRA:          -9.452
REMARK INTER:                  -8.239
REMARK INTRA:                  -1.213
REMARK UNBOUND:                -0.636
REMARK SMILES O=C([O-])CCCCCCCCCCCCCCC(=O)[O-]
REMARK SMILES IDX 10 1 9 2 8 3 7 4 6 5 5 6 4 7 2 8 1 9 3 10 11 11 12 12 13 13
REMARK SMILES IDX 14 14 15 15 16 16 17 17 18 18 19 19 20 20
REMARK H PARENT
REMARK Flexibility Score: inf
ROOT
ATOM      1  C   UNL     1       7.576  -4.117  -4.786  1.00  0.00     0.000 C 
ENDROOT
BRANCH   1   2
ATOM      2  C   UNL     1       8.832  -4.001  -3.910  1.00  0.00     0.000 C 
BRANCH   2   3
ATOM      3  C   UNL     1       9.094  -5.307  -3.151  1.00  0.00     0.000 C 
BRANCH   3   4
ATOM      4  C   UNL     1       7.999  -6.344  -3.442  1.00  0.00     0.000 C 
BRANCH   4   5
ATOM      5  C   UNL     1       8.563  -7.733  -3.793  1.00  0.00     0.000 C 
BRANCH   5   6
ATOM      6  C   UNL     1       8.127  -8.869  -2.850  1.00  0.00     0.006 C 
BRANCH   6   7
ATOM      7  C   UNL     1       7.981  -8.413  -1.393  1.00  0.00     0.053 C 
BRANCH   7   8
ATOM      8  C   UNL     1       7.862  -9.597  -0.485  1.00  0.00     0.041 C 
ATOM      9  O   UNL     1       6.995  -9.610   0.428  1.00  0.00    -0.550 OA
ATOM     10  O   UNL     1       8.682 -10.702  -0.672  1.00  0.00    -0.550 OA
ENDBRANCH   7   8
ENDBRANCH   6   7
ENDBRANCH   5   6
ENDBRANCH   4   5
ENDBRANCH   3   4
ENDBRANCH   2   3
ENDBRANCH   1   2
BRANCH   1  11
ATOM     11  C   UNL     1       7.821  -3.690  -6.246  1.00  0.00     0.000 C 
BRANCH  11  12
ATOM     12  C   UNL     1       8.955  -4.446  -6.963  1.00  0.00     0.000 C 
BRANCH  12  13
ATOM     13  C   UNL     1       8.716  -5.955  -7.160  1.00  0.00     0.000 C 
BRANCH  13  14
ATOM     14  C   UNL     1       7.895  -6.297  -8.423  1.00  0.00     0.000 C 
BRANCH  14  15
ATOM     15  C   UNL     1       8.546  -7.405  -9.264  1.00  0.00     0.000 C 
BRANCH  15  16
ATOM     16  C   UNL     1       7.481  -8.287  -9.932  1.00  0.00     0.006 C 
BRANCH  16  17
ATOM     17  C   UNL     1       6.665  -9.086  -8.907  1.00  0.00     0.053 C 
BRANCH  17  18
ATOM     18  C   UNL     1       5.236  -9.234  -9.330  1.00  0.00     0.041 C 
ATOM     19  O   UNL     1       4.369  -9.626  -8.505  1.00  0.00    -0.550 OA
ATOM     20  O   UNL     1       4.867  -8.970 -10.644  1.00  0.00    -0.550 OA
ENDBRANCH  17  18
ENDBRANCH  16  17
ENDBRANCH  15  16
ENDBRANCH  14  15
ENDBRANCH  13  14
ENDBRANCH  12  13
ENDBRANCH  11  12
ENDBRANCH   1  11
TORSDOF 15
ENDMDL
MODEL 3
REMARK VINA RESULT:    -4.690      3.017      9.915
REMARK INTER + INTRA:          -9.438
REMARK INTER:                  -8.534
REMARK INTRA:                  -0.904
REMARK UNBOUND:                -0.636
REMARK SMILES O=C([O-])CCCCCCCCCCCCCCC(=O)[O-]
REMARK SMILES IDX 10 1 9 2 8 3 7 4 6 5 5 6 4 7 2 8 1 9 3 10 11 11 12 12 13 13
REMARK SMILES IDX 14 14 15 15 16 16 17 17 18 18 19 19 20 20
REMARK H PARENT
REMARK Flexibility Score: inf
ROOT
ATOM      1  C   UNL     1       7.484  -4.875  -4.681  1.00  0.00     0.000 C 
ENDROOT
BRANCH   1   2
ATOM      2  C   UNL     1       7.632  -3.639  -5.580  1.00  0.00     0.000 C 
BRANCH   2   3
ATOM      3  C   UNL     1       8.372  -3.988  -6.877  1.00  0.00     0.000 C 
BRANCH   3   4
ATOM      4  C   UNL     1       8.946  -5.411  -6.817  1.00  0.00     0.000 C 
BRANCH   4   5
ATOM      5  C   UNL     1       9.107  -6.055  -8.207  1.00  0.00     0.000 C 
BRANCH   5   6
ATOM      6  C   UNL     1       8.449  -7.437  -8.364  1.00  0.00     0.006 C 
BRANCH   6   7
ATOM      7  C   UNL     1       7.227  -7.417  -9.290  1.00  0.00     0.053 C 
BRANCH   7   8
ATOM      8  C   UNL     1       6.697  -8.802  -9.487  1.00  0.00     0.041 C 
ATOM      9  O   UNL     1       5.487  -8.980  -9.788  1.00  0.00    -0.550 OA
ATOM     10  O   UNL     1       7.548  -9.894  -9.378  1.00  0.00    -0.550 OA
ENDBRANCH   7   8
ENDBRANCH   6   7
ENDBRANCH   5   6
ENDBRANCH   4   5
ENDBRANCH   3   4
ENDBRANCH   2   3
ENDBRANCH   1   2
BRANCH   1  11
ATOM     11  C   UNL     1       8.396  -4.828  -3.441  1.00  0.00     0.000 C 
BRANCH  11  12
ATOM     12  C   UNL     1       8.762  -6.201  -2.849  1.00  0.00     0.000 C 
BRANCH  12  13
ATOM     13  C   UNL     1       8.377  -7.414  -3.718  1.00  0.00     0.000 C 
BRANCH  13  14
ATOM     14  C   UNL     1       7.997  -8.670  -2.903  1.00  0.00     0.000 C 
BRANCH  14  15
ATOM     15  C   UNL     1       8.311  -8.518  -1.407  1.00  0.00     0.000 C 
BRANCH  15  16
ATOM     16  C   UNL     1       7.250  -9.219  -0.547  1.00  0.00     0.006 C 
BRANCH  16  17
ATOM     17  C   UNL     1       7.776  -9.566   0.852  1.00  0.00     0.053 C 
BRANCH  17  18
ATOM     18  C   UNL     1       6.670  -9.972   1.777  1.00  0.00     0.041 C 
ATOM     19  O   UNL     1       6.932 -10.365   2.943  1.00  0.00    -0.550 OA
ATOM     20  O   UNL     1       5.351  -9.946   1.338  1.00  0.00    -0.550 OA
ENDBRANCH  17  18
ENDBRANCH  16  17
ENDBRANCH  15  16
ENDBRANCH  14  15
ENDBRANCH  13  14
ENDBRANCH  12  13
ENDBRANCH  11  12
ENDBRANCH   1  11
TORSDOF 15
ENDMDL
MODEL 4
REMARK VINA RESULT:    -4.626      4.354      9.690
REMARK INTER + INTRA:          -9.319
REMARK INTER:                  -8.183
REMARK INTRA:                  -1.136
REMARK UNBOUND:                -0.636
REMARK SMILES O=C([O-])CCCCCCCCCCCCCCC(=O)[O-]
REMARK SMILES IDX 10 1 9 2 8 3 7 4 6 5 5 6 4 7 2 8 1 9 3 10 11 11 12 12 13 13
REMARK SMILES IDX 14 14 15 15 16 16 17 17 18 18 19 19 20 20
REMARK H PARENT
REMARK Flexibility Score: inf
ROOT
ATOM      1  C   UNL     1       7.732  -4.165  -7.208  1.00  0.00     0.000 C 
ENDROOT
BRANCH   1   2
ATOM      2  C   UNL     1       9.125  -4.762  -7.458  1.00  0.00     0.000 C 
BRANCH   2   3
ATOM      3  C   UNL     1       9.032  -6.262  -7.764  1.00  0.00     0.000 C 
BRANCH   3   4
ATOM      4  C   UNL     1       7.698  -6.604  -8.443  1.00  0.00     0.000 C 
BRANCH   4   5
ATOM      5  C   UNL     1       7.807  -7.783  -9.427  1.00  0.00     0.000 C 
BRANCH   5   6
ATOM      6  C   UNL     1       6.484  -8.198 -10.095  1.00  0.00     0.006 C 
BRANCH   6   7
ATOM      7  C   UNL     1       6.102  -9.656  -9.812  1.00  0.00     0.053 C 
BRANCH   7   8
ATOM      8  C   UNL     1       4.616  -9.796  -9.703  1.00  0.00     0.041 C 
ATOM      9  O   UNL     1       3.859  -9.027 -10.351  1.00  0.00    -0.550 OA
ATOM     10  O   UNL     1       4.068 -10.801  -8.917  1.00  0.00    -0.550 OA
ENDBRANCH   7   8
ENDBRANCH   6   7
ENDBRANCH   5   6
ENDBRANCH   4   5
ENDBRANCH   3   4
ENDBRANCH   2   3
ENDBRANCH   1   2
BRANCH   1  11
ATOM     11  C   UNL     1       7.684  -3.259  -5.962  1.00  0.00     0.000 C 
BRANCH  11  12
ATOM     12  C   UNL     1       7.348  -3.981  -4.644  1.00  0.00     0.000 C 
BRANCH  12  13
ATOM     13  C   UNL     1       8.565  -4.450  -3.824  1.00  0.00     0.000 C 
BRANCH  13  14
ATOM     14  C   UNL     1       8.366  -5.821  -3.142  1.00  0.00     0.000 C 
BRANCH  14  15
ATOM     15  C   UNL     1       8.573  -6.995  -4.110  1.00  0.00     0.000 C 
BRANCH  15  16
ATOM     16  C   UNL     1       8.022  -8.301  -3.519  1.00  0.00     0.006 C 
BRANCH  16  17
ATOM     17  C   UNL     1       7.855  -8.221  -1.995  1.00  0.00     0.053 C 
BRANCH  17  18
ATOM     18  C   UNL     1       7.936  -9.574  -1.357  1.00  0.00     0.041 C 
ATOM     19  O   UNL     1       8.149 -10.595  -2.061  1.00  0.00    -0.550 OA
ATOM     20  O   UNL     1       7.746  -9.710   0.014  1.00  0.00    -0.550 OA
ENDBRANCH  17  18
ENDBRANCH  16  17
ENDBRANCH  15  16
ENDBRANCH  14  15
ENDBRANCH  13  14
ENDBRANCH  12  13
ENDBRANCH  11  12
ENDBRANCH   1  11
TORSDOF 15
ENDMDL
MODEL 5
REMARK VINA RESULT:    -4.626      3.857      6.161
REMARK INTER + INTRA:          -9.319
REMARK INTER:                  -8.453
REMARK INTRA:                  -0.866
REMARK UNBOUND:                -0.636
REMARK SMILES O=C([O-])CCCCCCCCCCCCCCC(=O)[O-]
REMARK SMILES IDX 10 1 9 2 8 3 7 4 6 5 5 6 4 7 2 8 1 9 3 10 11 11 12 12 13 13
REMARK SMILES IDX 14 14 15 15 16 16 17 17 18 18 19 19 20 20
REMARK H PARENT
REMARK Flexibility Score: inf
ROOT
ATOM      1  C   UNL     1       8.380  -3.923  -5.058  1.00  0.00     0.000 C 
ENDROOT
BRANCH   1   2
ATOM      2  C   UNL     1       7.590  -4.810  -4.086  1.00  0.00     0.000 C 
BRANCH   2   3
ATOM      3  C   UNL     1       8.533  -5.572  -3.147  1.00  0.00     0.000 C 
BRANCH   3   4
ATOM      4  C   UNL     1       8.277  -7.085  -3.218  1.00  0.00     0.000 C 
BRANCH   4   5
ATOM      5  C   UNL     1       8.839  -7.849  -2.006  1.00  0.00     0.000 C 
BRANCH   5   6
ATOM      6  C   UNL     1       7.799  -8.649  -1.202  1.00  0.00     0.006 C 
BRANCH   6   7
ATOM      7  C   UNL     1       8.369  -9.235   0.097  1.00  0.00     0.053 C 
BRANCH   7   8
ATOM      8  C   UNL     1       7.274  -9.832   0.925  1.00  0.00     0.041 C 
ATOM      9  O   UNL     1       7.549 -10.644   1.847  1.00  0.00    -0.550 OA
ATOM     10  O   UNL     1       5.954  -9.461   0.705  1.00  0.00    -0.550 OA
ENDBRANCH   7   8
ENDBRANCH   6   7
ENDBRANCH   5   6
ENDBRANCH   4   5
ENDBRANCH   3   4
ENDBRANCH   2   3
ENDBRANCH   1   2
BRANCH   1  11
ATOM     11  C   UNL     1       8.028  -4.191  -6.535  1.00  0.00     0.000 C 
BRANCH  11  12
ATOM     12  C   UNL     1       9.028  -5.086  -7.290  1.00  0.00     0.000 C 
BRANCH  12  13
ATOM     13  C   UNL     1       9.004  -6.575  -6.896  1.00  0.00     0.000 C 
BRANCH  13  14
ATOM     14  C   UNL     1       8.652  -7.524  -8.062  1.00  0.00     0.000 C 
BRANCH  14  15
ATOM     15  C   UNL     1       7.599  -6.927  -9.008  1.00  0.00     0.000 C 
BRANCH  15  16
ATOM     16  C   UNL     1       6.924  -8.024  -9.844  1.00  0.00     0.006 C 
BRANCH  16  17
ATOM     17  C   UNL     1       6.317  -9.128  -8.967  1.00  0.00     0.053 C 
BRANCH  17  18
ATOM     18  C   UNL     1       4.933  -9.490  -9.409  1.00  0.00     0.041 C 
ATOM     19  O   UNL     1       4.231 -10.272  -8.716  1.00  0.00    -0.550 OA
ATOM     20  O   UNL     1       4.429  -8.987 -10.603  1.00  0.00    -0.550 OA
ENDBRANCH  17  18
ENDBRANCH  16  17
ENDBRANCH  15  16
ENDBRANCH  14  15
ENDBRANCH  13  14
ENDBRANCH  12  13
ENDBRANCH  11  12
ENDBRANCH   1  11
TORSDOF 15
ENDMDL
MODEL 6
REMARK VINA RESULT:    -4.545      1.977      9.759
REMARK INTER + INTRA:          -9.167
REMARK INTER:                  -8.431
REMARK INTRA:                  -0.736
REMARK UNBOUND:                -0.636
REMARK SMILES O=C([O-])CCCCCCCCCCCCCCC(=O)[O-]
REMARK SMILES IDX 10 1 9 2 8 3 7 4 6 5 5 6 4 7 2 8 1 9 3 10 11 11 12 12 13 13
REMARK SMILES IDX 14 14 15 15 16 16 17 17 18 18 19 19 20 20
REMARK H PARENT
REMARK Flexibility Score: inf
ROOT
ATOM      1  C   UNL     1       8.326  -7.844  -4.072  1.00  0.00     0.000 C 
ENDROOT
BRANCH   1   2
ATOM      2  C   UNL     1       7.943  -9.324  -4.207  1.00  0.00     0.000 C 
BRANCH   2   3
ATOM      3  C   UNL     1       8.514  -9.924  -5.497  1.00  0.00     0.000 C 
BRANCH   3   4
ATOM      4  C   UNL     1       7.779  -9.380  -6.731  1.00  0.00     0.000 C 
BRANCH   4   5
ATOM      5  C   UNL     1       8.713  -8.658  -7.719  1.00  0.00     0.000 C 
BRANCH   5   6
ATOM      6  C   UNL     1       9.123  -7.233  -7.304  1.00  0.00     0.006 C 
BRANCH   6   7
ATOM      7  C   UNL     1       8.264  -6.147  -7.964  1.00  0.00     0.053 C 
BRANCH   7   8
ATOM      8  C   UNL     1       8.156  -4.951  -7.071  1.00  0.00     0.041 C 
ATOM      9  O   UNL     1       7.184  -4.160  -7.187  1.00  0.00    -0.550 OA
ATOM     10  O   UNL     1       9.109  -4.732  -6.085  1.00  0.00    -0.550 OA
ENDBRANCH   7   8
ENDBRANCH   6   7
ENDBRANCH   5   6
ENDBRANCH   4   5
ENDBRANCH   3   4
ENDBRANCH   2   3
ENDBRANCH   1   2
BRANCH   1  11
ATOM     11  C   UNL     1       8.292  -7.346  -2.613  1.00  0.00     0.000 C 
BRANCH  11  12
ATOM     12  C   UNL     1       7.946  -8.421  -1.567  1.00  0.00     0.000 C 
BRANCH  12  13
ATOM     13  C   UNL     1       8.995  -8.616  -0.455  1.00  0.00     0.000 C 
BRANCH  13  14
ATOM     14  C   UNL     1       8.560  -9.609   0.646  1.00  0.00     0.000 C 
BRANCH  14  15
ATOM     15  C   UNL     1       7.060  -9.518   0.960  1.00  0.00     0.000 C 
BRANCH  15  16
ATOM     16  C   UNL     1       6.722 -10.262   2.259  1.00  0.00     0.006 C 
BRANCH  16  17
ATOM     17  C   UNL     1       5.219 -10.541   2.393  1.00  0.00     0.053 C 
BRANCH  17  18
ATOM     18  C   UNL     1       4.738 -10.330   3.796  1.00  0.00     0.041 C 
ATOM     19  O   UNL     1       5.256 -10.972   4.746  1.00  0.00    -0.550 OA
ATOM     20  O   UNL     1       3.695  -9.446   4.049  1.00  0.00    -0.550 OA
ENDBRANCH  17  18
ENDBRANCH  16  17
ENDBRANCH  15  16
ENDBRANCH  14  15
ENDBRANCH  13  14
ENDBRANCH  12  13
ENDBRANCH  11  12
ENDBRANCH   1  11
TORSDOF 15
ENDMDL
MODEL 7
REMARK VINA RESULT:    -4.501      5.016      7.859
REMARK INTER + INTRA:          -9.083
REMARK INTER:                  -7.843
REMARK INTRA:                  -1.240
REMARK UNBOUND:                -0.636
REMARK SMILES O=C([O-])CCCCCCCCCCCCCCC(=O)[O-]
REMARK SMILES IDX 10 1 9 2 8 3 7 4 6 5 5 6 4 7 2 8 1 9 3 10 11 11 12 12 13 13
REMARK SMILES IDX 14 14 15 15 16 16 17 17 18 18 19 19 20 20
REMARK H PARENT
REMARK Flexibility Score: inf
ROOT
ATOM      1  C   UNL     1       8.815  -4.368  -6.727  1.00  0.00     0.000 C 
ENDROOT
BRANCH   1   2
ATOM      2  C   UNL     1       7.645  -3.636  -6.055  1.00  0.00     0.000 C 
BRANCH   2   3
ATOM      3  C   UNL     1       7.503  -4.057  -4.588  1.00  0.00     0.000 C 
BRANCH   3   4
ATOM      4  C   UNL     1       8.871  -4.096  -3.891  1.00  0.00     0.000 C 
BRANCH   4   5
ATOM      5  C   UNL     1       9.038  -5.310  -2.959  1.00  0.00     0.000 C 
BRANCH   5   6
ATOM      6  C   UNL     1       8.420  -6.619  -3.479  1.00  0.00     0.006 C 
BRANCH   6   7
ATOM      7  C   UNL     1       8.228  -7.670  -2.378  1.00  0.00     0.053 C 
BRANCH   7   8
ATOM      8  C   UNL     1       7.718  -8.951  -2.960  1.00  0.00     0.041 C 
ATOM      9  O   UNL     1       7.331  -8.992  -4.157  1.00  0.00    -0.550 OA
ATOM     10  O   UNL     1       7.709 -10.108  -2.192  1.00  0.00    -0.550 OA
ENDBRANCH   7   8
ENDBRANCH   6   7
ENDBRANCH   5   6
ENDBRANCH   4   5
ENDBRANCH   3   4
ENDBRANCH   2   3
ENDBRANCH   1   2
BRANCH   1  11
ATOM     11  C   UNL     1       8.359  -5.548  -7.607  1.00  0.00     0.000 C 
BRANCH  11  12
ATOM     12  C   UNL     1       8.816  -6.936  -7.123  1.00  0.00     0.000 C 
BRANCH  12  13
ATOM     13  C   UNL     1       8.340  -8.121  -7.985  1.00  0.00     0.000 C 
BRANCH  13  14
ATOM     14  C   UNL     1       7.389  -7.716  -9.133  1.00  0.00     0.000 C 
BRANCH  14  15
ATOM     15  C   UNL     1       7.719  -8.434 -10.450  1.00  0.00     0.000 C 
BRANCH  15  16
ATOM     16  C   UNL     1       6.535  -9.286 -10.926  1.00  0.00     0.006 C 
BRANCH  16  17
ATOM     17  C   UNL     1       5.298  -9.108 -10.034  1.00  0.00     0.053 C 
BRANCH  17  18
ATOM     18  C   UNL     1       4.037  -9.052 -10.839  1.00  0.00     0.041 C 
ATOM     19  O   UNL     1       3.149  -9.931 -10.686  1.00  0.00    -0.550 OA
ATOM     20  O   UNL     1       3.855  -8.046 -11.781  1.00  0.00    -0.550 OA
ENDBRANCH  17  18
ENDBRANCH  16  17
ENDBRANCH  15  16
ENDBRANCH  14  15
ENDBRANCH  13  14
ENDBRANCH  12  13
ENDBRANCH  11  12
ENDBRANCH   1  11
TORSDOF 15
ENDMDL
MODEL 8
REMARK VINA RESULT:    -4.372      3.025      4.961
REMARK INTER + INTRA:          -8.843
REMARK INTER:                  -7.929
REMARK INTRA:                  -0.913
REMARK UNBOUND:                -0.636
REMARK SMILES O=C([O-])CCCCCCCCCCCCCCC(=O)[O-]
REMARK SMILES IDX 10 1 9 2 8 3 7 4 6 5 5 6 4 7 2 8 1 9 3 10 11 11 12 12 13 13
REMARK SMILES IDX 14 14 15 15 16 16 17 17 18 18 19 19 20 20
REMARK H PARENT
REMARK Flexibility Score: inf
ROOT
ATOM      1  C   UNL     1       7.812  -6.109  -4.011  1.00  0.00     0.000 C 
ENDROOT
BRANCH   1   2
ATOM      2  C   UNL     1       9.066  -6.976  -3.826  1.00  0.00     0.000 C 
BRANCH   2   3
ATOM      3  C   UNL     1       8.713  -8.321  -3.181  1.00  0.00     0.000 C 
BRANCH   3   4
ATOM      4  C   UNL     1       8.050  -8.119  -1.811  1.00  0.00     0.000 C 
BRANCH   4   5
ATOM      5  C   UNL     1       8.010  -9.404  -0.965  1.00  0.00     0.000 C 
BRANCH   5   6
ATOM      6  C   UNL     1       8.269  -9.201   0.539  1.00  0.00     0.006 C 
BRANCH   6   7
ATOM      7  C   UNL     1       7.708 -10.339   1.402  1.00  0.00     0.053 C 
BRANCH   7   8
ATOM      8  C   UNL     1       6.355  -9.978   1.928  1.00  0.00     0.041 C 
ATOM      9  O   UNL     1       6.201  -9.710   3.148  1.00  0.00    -0.550 OA
ATOM     10  O   UNL     1       5.271  -9.899   1.063  1.00  0.00    -0.550 OA
ENDBRANCH   7   8
ENDBRANCH   6   7
ENDBRANCH   5   6
ENDBRANCH   4   5
ENDBRANCH   3   4
ENDBRANCH   2   3
ENDBRANCH   1   2
BRANCH   1  11
ATOM     11  C   UNL     1       8.115  -4.599  -3.972  1.00  0.00     0.000 C 
BRANCH  11  12
ATOM     12  C   UNL     1       7.969  -3.870  -5.320  1.00  0.00     0.000 C 
BRANCH  12  13
ATOM     13  C   UNL     1       8.842  -4.424  -6.463  1.00  0.00     0.000 C 
BRANCH  13  14
ATOM     14  C   UNL     1       8.049  -5.207  -7.532  1.00  0.00     0.000 C 
BRANCH  14  15
ATOM     15  C   UNL     1       8.875  -6.334  -8.168  1.00  0.00     0.000 C 
BRANCH  15  16
ATOM     16  C   UNL     1       8.273  -7.709  -7.845  1.00  0.00     0.006 C 
BRANCH  16  17
ATOM     17  C   UNL     1       7.341  -8.209  -8.957  1.00  0.00     0.053 C 
BRANCH  17  18
ATOM     18  C   UNL     1       6.488  -9.351  -8.495  1.00  0.00     0.041 C 
ATOM     19  O   UNL     1       5.234  -9.270  -8.558  1.00  0.00    -0.550 OA
ATOM     20  O   UNL     1       7.080 -10.492  -7.965  1.00  0.00    -0.550 OA
ENDBRANCH  17  18
ENDBRANCH  16  17
ENDBRANCH  15  16
ENDBRANCH  14  15
ENDBRANCH  13  14
ENDBRANCH  12  13
ENDBRANCH  11  12
ENDBRANCH   1  11
TORSDOF 15
ENDMDL
MODEL 9
REMARK VINA RESULT:    -4.241      4.791      9.214
REMARK INTER + INTRA:          -8.596
REMARK INTER:                  -7.151
REMARK INTRA:                  -1.445
REMARK UNBOUND:                -0.636
REMARK SMILES O=C([O-])CCCCCCCCCCCCCCC(=O)[O-]
REMARK SMILES IDX 10 1 9 2 8 3 7 4 6 5 5 6 4 7 2 8 1 9 3 10 11 11 12 12 13 13
REMARK SMILES IDX 14 14 15 15 16 16 17 17 18 18 19 19 20 20
REMARK H PARENT
REMARK Flexibility Score: inf
ROOT
ATOM      1  C   UNL     1       8.338  -6.230  -7.938  1.00  0.00     0.000 C 
ENDROOT
BRANCH   1   2
ATOM      2  C   UNL     1       8.891  -7.546  -7.374  1.00  0.00     0.000 C 
BRANCH   2   3
ATOM      3  C   UNL     1       8.371  -8.748  -8.171  1.00  0.00     0.000 C 
BRANCH   3   4
ATOM      4  C   UNL     1       7.378  -9.573  -7.339  1.00  0.00     0.000 C 
BRANCH   4   5
ATOM      5  C   UNL     1       7.099 -10.963  -7.939  1.00  0.00     0.000 C 
BRANCH   5   6
ATOM      6  C   UNL     1       5.912 -11.023  -8.917  1.00  0.00     0.006 C 
BRANCH   6   7
ATOM      7  C   UNL     1       4.955  -9.834  -8.771  1.00  0.00     0.053 C 
BRANCH   7   8
ATOM      8  C   UNL     1       4.707  -9.196 -10.102  1.00  0.00     0.041 C 
ATOM      9  O   UNL     1       3.598  -9.347 -10.679  1.00  0.00    -0.550 OA
ATOM     10  O   UNL     1       5.685  -8.402 -10.686  1.00  0.00    -0.550 OA
ENDBRANCH   7   8
ENDBRANCH   6   7
ENDBRANCH   5   6
ENDBRANCH   4   5
ENDBRANCH   3   4
ENDBRANCH   2   3
ENDBRANCH   1   2
BRANCH   1  11
ATOM     11  C   UNL     1       8.890  -4.987  -7.214  1.00  0.00     0.000 C 
BRANCH  11  12
ATOM     12  C   UNL     1       7.823  -3.985  -6.734  1.00  0.00     0.000 C 
BRANCH  12  13
ATOM     13  C   UNL     1       7.662  -3.880  -5.206  1.00  0.00     0.000 C 
BRANCH  13  14
ATOM     14  C   UNL     1       8.741  -4.647  -4.410  1.00  0.00     0.000 C 
BRANCH  14  15
ATOM     15  C   UNL     1       8.137  -5.664  -3.431  1.00  0.00     0.000 C 
BRANCH  15  16
ATOM     16  C   UNL     1       8.900  -6.996  -3.478  1.00  0.00     0.006 C 
BRANCH  16  17
ATOM     17  C   UNL     1       7.978  -8.181  -3.796  1.00  0.00     0.053 C 
BRANCH  17  18
ATOM     18  C   UNL     1       7.769  -9.057  -2.599  1.00  0.00     0.041 C 
ATOM     19  O   UNL     1       7.710  -8.553  -1.448  1.00  0.00    -0.550 OA
ATOM     20  O   UNL     1       7.671 -10.436  -2.754  1.00  0.00    -0.550 OA
ENDBRANCH  17  18
ENDBRANCH  16  17
ENDBRANCH  15  16
ENDBRANCH  14  15
ENDBRANCH  13  14
ENDBRANCH  12  13
ENDBRANCH  11  12
ENDBRANCH   1  11
TORSDOF 15
ENDMDL
