MODEL 1
REMARK VINA RESULT:    -3.453      0.000      0.000
REMARK INTER + INTRA:          -4.417
REMARK INTER:                  -4.261
REMARK INTRA:                  -0.156
REMARK UNBOUND:                -0.156
REMARK SMILES CCCCC=CC(C)=O
REMARK SMILES IDX 4 1 3 2 2 3 1 4 5 5 6 6 7 7 9 8 8 9
REMARK H PARENT
REMARK Flexibility Score: inf
ROOT
ATOM      1  C   UNL     1      -2.271   6.298   8.582  1.00  0.00     0.027 C 
ENDROOT
BRANCH   1   2
ATOM      2  C   UNL     1      -2.020   6.868   9.986  1.00  0.00     0.004 C 
BRANCH   2   3
ATOM      3  C   UNL     1      -0.626   7.499  10.125  1.00  0.00    -0.003 C 
ATOM      4  C   UNL     1      -0.628   9.002   9.849  1.00  0.00     0.004 C 
ENDBRANCH   2   3
ENDBRANCH   1   2
BRANCH   1   5
ATOM      5  C   UNL     1      -3.360   5.263   8.605  1.00  0.00    -0.023 C 
ATOM      6  C   UNL     1      -4.460   5.424   9.349  1.00  0.00     0.042 C 
BRANCH   6   7
ATOM      7  C   UNL     1      -5.535   4.415   9.397  1.00  0.00     0.152 C 
ATOM      8  O   UNL     1      -6.701   4.731   9.756  1.00  0.00    -0.295 OA
ATOM      9  C   UNL     1      -5.238   3.000   9.017  1.00  0.00     0.093 C 
ENDBRANCH   6   7
ENDBRANCH   1   5
TORSDOF 4
ENDMDL
MODEL 2
REMARK VINA RESULT:    -3.248      2.563      5.316
REMARK INTER + INTRA:          -4.164
REMARK INTER:                  -3.949
REMARK INTRA:                  -0.215
REMARK UNBOUND:                -0.156
REMARK SMILES CCCCC=CC(C)=O
REMARK SMILES IDX 4 1 3 2 2 3 1 4 5 5 6 6 7 7 9 8 8 9
REMARK H PARENT
REMARK Flexibility Score: inf
ROOT
ATOM      1  C   UNL     1      -4.352   5.788   9.555  1.00  0.00     0.027 C 
ENDROOT
BRANCH   1   2
ATOM      2  C   UNL     1      -4.042   5.223   8.160  1.00  0.00     0.004 C 
BRANCH   2   3
ATOM      3  C   UNL     1      -4.055   3.687   8.130  1.00  0.00    -0.003 C 
ATOM      4  C   UNL     1      -5.374   3.099   8.628  1.00  0.00     0.004 C 
ENDBRANCH   2   3
ENDBRANCH   1   2
BRANCH   1   5
ATOM      5  C   UNL     1      -3.232   6.660  10.047  1.00  0.00    -0.023 C 
ATOM      6  C   UNL     1      -2.047   6.687   9.429  1.00  0.00     0.042 C 
BRANCH   6   7
ATOM      7  C   UNL     1      -0.929   7.526   9.903  1.00  0.00     0.152 C 
ATOM      8  O   UNL     1       0.206   7.023  10.125  1.00  0.00    -0.295 OA
ATOM      9  C   UNL     1      -1.143   8.988  10.123  1.00  0.00     0.093 C 
ENDBRANCH   6   7
ENDBRANCH   1   5
TORSDOF 4
ENDMDL
MODEL 3
REMARK VINA RESULT:    -2.750     10.759     11.921
REMARK INTER + INTRA:          -3.549
REMARK INTER:                  -3.660
REMARK INTRA:                   0.112
REMARK UNBOUND:                -0.156
REMARK SMILES CCCCC=CC(C)=O
REMARK SMILES IDX 4 1 3 2 2 3 1 4 5 5 6 6 7 7 9 8 8 9
REMARK H PARENT
REMARK Flexibility Score: inf
ROOT
ATOM      1  C   UNL     1      -3.393   8.941   0.383  1.00  0.00     0.027 C 
ENDROOT
BRANCH   1   2
ATOM      2  C   UNL     1      -4.506   9.749  -0.302  1.00  0.00     0.004 C 
BRANCH   2   3
ATOM      3  C   UNL     1      -5.159   8.986  -1.464  1.00  0.00    -0.003 C 
ATOM      4  C   UNL     1      -4.533   9.324  -2.817  1.00  0.00     0.004 C 
ENDBRANCH   2   3
ENDBRANCH   1   2
BRANCH   1   5
ATOM      5  C   UNL     1      -2.545   8.224  -0.629  1.00  0.00    -0.023 C 
ATOM      6  C   UNL     1      -1.245   8.505  -0.774  1.00  0.00     0.042 C 
BRANCH   6   7
ATOM      7  C   UNL     1      -0.397   7.823  -1.769  1.00  0.00     0.152 C 
ATOM      8  O   UNL     1      -0.847   7.533  -2.911  1.00  0.00    -0.295 OA
ATOM      9  C   UNL     1       1.013   7.470  -1.422  1.00  0.00     0.093 C 
ENDBRANCH   6   7
ENDBRANCH   1   5
TORSDOF 4
ENDMDL
MODEL 4
REMARK VINA RESULT:    -2.622     10.847     12.123
REMARK INTER + INTRA:          -3.390
REMARK INTER:                  -3.267
REMARK INTRA:                  -0.124
REMARK UNBOUND:                -0.156
REMARK SMILES CCCCC=CC(C)=O
REMARK SMILES IDX 4 1 3 2 2 3 1 4 5 5 6 6 7 7 9 8 8 9
REMARK H PARENT
REMARK Flexibility Score: inf
ROOT
ATOM      1  C   UNL     1      -2.208   8.365  -1.498  1.00  0.00     0.027 C 
ENDROOT
BRANCH   1   2
ATOM      2  C   UNL     1      -3.106   8.297  -0.253  1.00  0.00     0.004 C 
BRANCH   2   3
ATOM      3  C   UNL     1      -4.195   9.380  -0.252  1.00  0.00    -0.003 C 
ATOM      4  C   UNL     1      -5.033   9.375  -1.529  1.00  0.00     0.004 C 
ENDBRANCH   2   3
ENDBRANCH   1   2
BRANCH   1   5
ATOM      5  C   UNL     1      -0.758   8.238  -1.127  1.00  0.00    -0.023 C 
ATOM      6  C   UNL     1       0.087   7.501  -1.857  1.00  0.00     0.042 C 
BRANCH   6   7
ATOM      7  C   UNL     1       1.511   7.352  -1.503  1.00  0.00     0.152 C 
ATOM      8  O   UNL     1       1.962   6.250  -1.089  1.00  0.00    -0.295 OA
ATOM      9  C   UNL     1       2.433   8.522  -1.636  1.00  0.00     0.093 C 
ENDBRANCH   6   7
ENDBRANCH   1   5
TORSDOF 4
ENDMDL
MODEL 5
REMARK VINA RESULT:    -2.379     10.364     11.148
REMARK INTER + INTRA:          -3.091
REMARK INTER:                  -2.976
REMARK INTRA:                  -0.115
REMARK UNBOUND:                -0.156
REMARK SMILES CCCCC=CC(C)=O
REMARK SMILES IDX 4 1 3 2 2 3 1 4 5 5 6 6 7 7 9 8 8 9
REMARK H PARENT
REMARK Flexibility Score: inf
ROOT
ATOM      1  C   UNL     1      -0.688   7.627  -1.924  1.00  0.00     0.027 C 
ENDROOT
BRANCH   1   2
ATOM      2  C   UNL     1       0.577   7.884  -1.090  1.00  0.00     0.004 C 
BRANCH   2   3
ATOM      3  C   UNL     1       1.827   7.229  -1.698  1.00  0.00    -0.003 C 
ATOM      4  C   UNL     1       2.247   5.960  -0.958  1.00  0.00     0.004 C 
ENDBRANCH   2   3
ENDBRANCH   1   2
BRANCH   1   5
ATOM      5  C   UNL     1      -1.799   8.554  -1.521  1.00  0.00    -0.023 C 
ATOM      6  C   UNL     1      -2.639   8.245  -0.527  1.00  0.00     0.042 C 
BRANCH   6   7
ATOM      7  C   UNL     1      -3.745   9.134  -0.124  1.00  0.00     0.152 C 
ATOM      8  O   UNL     1      -3.775   9.645   1.028  1.00  0.00    -0.295 OA
ATOM      9  C   UNL     1      -4.845   9.432  -1.091  1.00  0.00     0.093 C 
ENDBRANCH   6   7
ENDBRANCH   1   5
TORSDOF 4
ENDMDL
MODEL 6
REMARK VINA RESULT:    -2.150      2.371      5.087
REMARK INTER + INTRA:          -2.809
REMARK INTER:                  -2.709
REMARK INTRA:                  -0.101
REMARK UNBOUND:                -0.156
REMARK SMILES CCCCC=CC(C)=O
REMARK SMILES IDX 4 1 3 2 2 3 1 4 5 5 6 6 7 7 9 8 8 9
REMARK H PARENT
REMARK Flexibility Score: inf
ROOT
ATOM      1  C   UNL     1      -4.460   2.488   7.676  1.00  0.00     0.027 C 
ENDROOT
BRANCH   1   2
ATOM      2  C   UNL     1      -5.053   2.683   9.080  1.00  0.00     0.004 C 
BRANCH   2   3
ATOM      3  C   UNL     1      -6.482   3.244   9.043  1.00  0.00    -0.003 C 
ATOM      4  C   UNL     1      -6.732   4.295  10.125  1.00  0.00     0.004 C 
ENDBRANCH   2   3
ENDBRANCH   1   2
BRANCH   1   5
ATOM      5  C   UNL     1      -3.723   3.716   7.224  1.00  0.00    -0.023 C 
ATOM      6  C   UNL     1      -3.691   4.825   7.971  1.00  0.00     0.042 C 
BRANCH   6   7
ATOM      7  C   UNL     1      -2.985   6.046   7.540  1.00  0.00     0.152 C 
ATOM      8  O   UNL     1      -3.015   6.418   6.335  1.00  0.00    -0.295 OA
ATOM      9  C   UNL     1      -2.225   6.854   8.542  1.00  0.00     0.093 C 
ENDBRANCH   6   7
ENDBRANCH   1   5
TORSDOF 4
ENDMDL
MODEL 7
REMARK VINA RESULT:    -1.614      1.616      2.519
REMARK INTER + INTRA:          -2.147
REMARK INTER:                  -2.642
REMARK INTRA:                   0.495
REMARK UNBOUND:                -0.156
REMARK SMILES CCCCC=CC(C)=O
REMARK SMILES IDX 4 1 3 2 2 3 1 4 5 5 6 6 7 7 9 8 8 9
REMARK H PARENT
REMARK Flexibility Score: inf
ROOT
ATOM      1  C   UNL     1      -3.086   6.684  10.068  1.00  0.00     0.027 C 
ENDROOT
BRANCH   1   2
ATOM      2  C   UNL     1      -2.273   6.080   8.914  1.00  0.00     0.004 C 
BRANCH   2   3
ATOM      3  C   UNL     1      -2.920   6.328   7.543  1.00  0.00    -0.003 C 
ATOM      4  C   UNL     1      -3.361   5.036   6.856  1.00  0.00     0.004 C 
ENDBRANCH   2   3
ENDBRANCH   1   2
BRANCH   1   5
ATOM      5  C   UNL     1      -4.488   6.144  10.084  1.00  0.00    -0.023 C 
ATOM      6  C   UNL     1      -4.766   4.913   9.641  1.00  0.00     0.042 C 
BRANCH   6   7
ATOM      7  C   UNL     1      -6.136   4.367   9.635  1.00  0.00     0.152 C 
ATOM      8  O   UNL     1      -7.094   5.024  10.125  1.00  0.00    -0.295 OA
ATOM      9  C   UNL     1      -6.393   3.020   9.041  1.00  0.00     0.093 C 
ENDBRANCH   6   7
ENDBRANCH   1   5
TORSDOF 4
ENDMDL
MODEL 8
REMARK VINA RESULT:    -1.427     23.554     24.565
REMARK INTER + INTRA:          -1.916
REMARK INTER:                  -1.682
REMARK INTRA:                  -0.234
REMARK UNBOUND:                -0.156
REMARK SMILES CCCCC=CC(C)=O
REMARK SMILES IDX 4 1 3 2 2 3 1 4 5 5 6 6 7 7 9 8 8 9
REMARK H PARENT
REMARK Flexibility Score: inf
ROOT
ATOM      1  C   UNL     1      -7.238  -9.876  -9.960  1.00  0.00     0.027 C 
ENDROOT
BRANCH   1   2
ATOM      2  C   UNL     1      -8.026  -8.567 -10.124  1.00  0.00     0.004 C 
BRANCH   2   3
ATOM      3  C   UNL     1      -9.412  -8.628  -9.464  1.00  0.00    -0.003 C 
ATOM      4  C   UNL     1      -9.344  -8.986  -7.980  1.00  0.00     0.004 C 
ENDBRANCH   2   3
ENDBRANCH   1   2
BRANCH   1   5
ATOM      5  C   UNL     1      -5.758  -9.631 -10.054  1.00  0.00    -0.023 C 
ATOM      6  C   UNL     1      -5.180  -8.604  -9.424  1.00  0.00     0.042 C 
BRANCH   6   7
ATOM      7  C   UNL     1      -3.731  -8.338  -9.513  1.00  0.00     0.152 C 
ATOM      8  O   UNL     1      -3.260  -7.216  -9.183  1.00  0.00    -0.295 OA
ATOM      9  C   UNL     1      -2.811  -9.409 -10.002  1.00  0.00     0.093 C 
ENDBRANCH   6   7
ENDBRANCH   1   5
TORSDOF 4
ENDMDL
