MODEL 1
REMARK VINA RESULT:    -4.497      0.000      0.000
REMARK INTER + INTRA:          -5.420
REMARK INTER:                  -5.417
REMARK INTRA:                  -0.002
REMARK UNBOUND:                -0.002
REMARK SMILES OCC(O)CO
REMARK SMILES IDX 3 1 5 2 6 3 2 5 1 6 4 8
REMARK H PARENT 6 4 1 7 4 9
REMARK Flexibility Score: inf
ROOT
ATOM      1  C   UNL     1      27.807  -7.858  -7.009  1.00  0.00     0.165 C 
ENDROOT
BRANCH   1   2
ATOM      2  C   UNL     1      27.153  -6.488  -7.244  1.00  0.00     0.190 C 
BRANCH   2   3
ATOM      3  O   UNL     1      27.200  -6.128  -8.600  1.00  0.00    -0.394 OA
ATOM      4  H   UNL     1      28.159  -6.038  -8.839  1.00  0.00     0.210 HD
ENDBRANCH   2   3
ENDBRANCH   1   2
BRANCH   1   5
ATOM      5  C   UNL     1      28.690  -7.870  -5.749  1.00  0.00     0.190 C 
BRANCH   5   6
ATOM      6  O   UNL     1      29.742  -8.787  -5.889  1.00  0.00    -0.394 OA
ATOM      7  H   UNL     1      30.555  -8.263  -6.113  1.00  0.00     0.210 HD
ENDBRANCH   5   6
ENDBRANCH   1   5
BRANCH   1   8
ATOM      8  O   UNL     1      28.578  -8.201  -8.132  1.00  0.00    -0.388 OA
ATOM      9  H   UNL     1      28.062  -8.882  -8.639  1.00  0.00     0.211 HD
ENDBRANCH   1   8
TORSDOF 5
ENDMDL
MODEL 2
REMARK VINA RESULT:    -4.351     12.915     14.239
REMARK INTER + INTRA:          -5.243
REMARK INTER:                  -5.241
REMARK INTRA:                  -0.002
REMARK UNBOUND:                -0.002
REMARK SMILES OCC(O)CO
REMARK SMILES IDX 3 1 5 2 6 3 2 5 1 6 4 8
REMARK H PARENT 6 4 1 7 4 9
REMARK Flexibility Score: inf
ROOT
ATOM      1  C   UNL     1      16.725  -1.457  -2.804  1.00  0.00     0.165 C 
ENDROOT
BRANCH   1   2
ATOM      2  C   UNL     1      18.243  -1.408  -2.571  1.00  0.00     0.190 C 
BRANCH   2   3
ATOM      3  O   UNL     1      18.543  -1.077  -1.241  1.00  0.00    -0.394 OA
ATOM      4  H   UNL     1      19.049  -1.843  -0.863  1.00  0.00     0.210 HD
ENDBRANCH   2   3
ENDBRANCH   1   2
BRANCH   1   5
ATOM      5  C   UNL     1      16.311  -0.714  -4.085  1.00  0.00     0.190 C 
BRANCH   5   6
ATOM      6  O   UNL     1      15.054  -0.111  -3.925  1.00  0.00    -0.394 OA
ATOM      7  H   UNL     1      14.785   0.236  -4.816  1.00  0.00     0.210 HD
ENDBRANCH   5   6
ENDBRANCH   1   5
BRANCH   1   8
ATOM      8  O   UNL     1      16.069  -0.896  -1.696  1.00  0.00    -0.388 OA
ATOM      9  H   UNL     1      16.605  -0.110  -1.411  1.00  0.00     0.211 HD
ENDBRANCH   1   8
TORSDOF 5
ENDMDL
MODEL 3
REMARK VINA RESULT:    -4.233      0.973      3.096
REMARK INTER + INTRA:          -5.102
REMARK INTER:                  -5.099
REMARK INTRA:                  -0.003
REMARK UNBOUND:                -0.002
REMARK SMILES OCC(O)CO
REMARK SMILES IDX 3 1 5 2 6 3 2 5 1 6 4 8
REMARK H PARENT 6 4 1 7 4 9
REMARK Flexibility Score: inf
ROOT
ATOM      1  C   UNL     1      28.148  -7.302  -6.720  1.00  0.00     0.165 C 
ENDROOT
BRANCH   1   2
ATOM      2  C   UNL     1      28.807  -8.083  -5.573  1.00  0.00     0.190 C 
BRANCH   2   3
ATOM      3  O   UNL     1      29.595  -9.137  -6.061  1.00  0.00    -0.394 OA
ATOM      4  H   UNL     1      29.073  -9.573  -6.784  1.00  0.00     0.210 HD
ENDBRANCH   2   3
ENDBRANCH   1   2
BRANCH   1   5
ATOM      5  C   UNL     1      26.650  -7.056  -6.469  1.00  0.00     0.190 C 
BRANCH   5   6
ATOM      6  O   UNL     1      26.257  -5.814  -6.989  1.00  0.00    -0.394 OA
ATOM      7  H   UNL     1      25.419  -5.557  -6.522  1.00  0.00     0.210 HD
ENDBRANCH   5   6
ENDBRANCH   1   5
BRANCH   1   8
ATOM      8  O   UNL     1      28.317  -8.013  -7.920  1.00  0.00    -0.388 OA
ATOM      9  H   UNL     1      28.458  -7.340  -8.637  1.00  0.00     0.211 HD
ENDBRANCH   1   8
TORSDOF 5
ENDMDL
MODEL 4
REMARK VINA RESULT:    -4.217     12.760     13.834
REMARK INTER + INTRA:          -5.082
REMARK INTER:                  -5.079
REMARK INTRA:                  -0.003
REMARK UNBOUND:                -0.002
REMARK SMILES OCC(O)CO
REMARK SMILES IDX 3 1 5 2 6 3 2 5 1 6 4 8
REMARK H PARENT 6 4 1 7 4 9
REMARK Flexibility Score: inf
ROOT
ATOM      1  C   UNL     1      16.815  -0.821  -3.094  1.00  0.00     0.165 C 
ENDROOT
BRANCH   1   2
ATOM      2  C   UNL     1      15.869  -0.713  -4.300  1.00  0.00     0.190 C 
BRANCH   2   3
ATOM      3  O   UNL     1      15.029   0.405  -4.190  1.00  0.00    -0.394 OA
ATOM      4  H   UNL     1      15.295   1.034  -4.910  1.00  0.00     0.210 HD
ENDBRANCH   2   3
ENDBRANCH   1   2
BRANCH   1   5
ATOM      5  C   UNL     1      17.785  -2.008  -3.222  1.00  0.00     0.190 C 
BRANCH   5   6
ATOM      6  O   UNL     1      19.038  -1.686  -2.679  1.00  0.00    -0.394 OA
ATOM      7  H   UNL     1      19.351  -2.485  -2.181  1.00  0.00     0.210 HD
ENDBRANCH   5   6
ENDBRANCH   1   5
BRANCH   1   8
ATOM      8  O   UNL     1      16.054  -0.954  -1.921  1.00  0.00    -0.388 OA
ATOM      9  H   UNL     1      16.359  -0.244  -1.297  1.00  0.00     0.211 HD
ENDBRANCH   1   8
TORSDOF 5
ENDMDL
MODEL 5
REMARK VINA RESULT:    -3.961      1.383      2.053
REMARK INTER + INTRA:          -4.774
REMARK INTER:                  -4.771
REMARK INTRA:                  -0.003
REMARK UNBOUND:                -0.002
REMARK SMILES OCC(O)CO
REMARK SMILES IDX 3 1 5 2 6 3 2 5 1 6 4 8
REMARK H PARENT 6 4 1 7 4 9
REMARK Flexibility Score: inf
ROOT
ATOM      1  C   UNL     1      28.397  -8.072  -6.069  1.00  0.00     0.165 C 
ENDROOT
BRANCH   1   2
ATOM      2  C   UNL     1      27.919  -7.595  -7.448  1.00  0.00     0.190 C 
BRANCH   2   3
ATOM      3  O   UNL     1      28.589  -8.268  -8.481  1.00  0.00    -0.394 OA
ATOM      4  H   UNL     1      27.946  -8.351  -9.232  1.00  0.00     0.210 HD
ENDBRANCH   2   3
ENDBRANCH   1   2
BRANCH   1   5
ATOM      5  C   UNL     1      28.764  -6.899  -5.144  1.00  0.00     0.190 C 
BRANCH   5   6
ATOM      6  O   UNL     1      28.213  -7.081  -3.867  1.00  0.00    -0.394 OA
ATOM      7  H   UNL     1      28.893  -6.776  -3.212  1.00  0.00     0.210 HD
ENDBRANCH   5   6
ENDBRANCH   1   5
BRANCH   1   8
ATOM      8  O   UNL     1      29.509  -8.915  -6.231  1.00  0.00    -0.388 OA
ATOM      9  H   UNL     1      30.318  -8.349  -6.127  1.00  0.00     0.211 HD
ENDBRANCH   1   8
TORSDOF 5
ENDMDL
MODEL 6
REMARK VINA RESULT:    -3.959      1.472      1.983
REMARK INTER + INTRA:          -4.771
REMARK INTER:                  -4.588
REMARK INTRA:                  -0.183
REMARK UNBOUND:                -0.002
REMARK SMILES OCC(O)CO
REMARK SMILES IDX 3 1 5 2 6 3 2 5 1 6 4 8
REMARK H PARENT 6 4 1 7 4 9
REMARK Flexibility Score: inf
ROOT
ATOM      1  C   UNL     1      28.338  -7.109  -5.897  1.00  0.00     0.165 C 
ENDROOT
BRANCH   1   2
ATOM      2  C   UNL     1      27.583  -7.709  -7.093  1.00  0.00     0.190 C 
BRANCH   2   3
ATOM      3  O   UNL     1      28.447  -7.949  -8.173  1.00  0.00    -0.394 OA
ATOM      4  H   UNL     1      29.294  -8.297  -7.789  1.00  0.00     0.210 HD
ENDBRANCH   2   3
ENDBRANCH   1   2
BRANCH   1   5
ATOM      5  C   UNL     1      29.193  -8.159  -5.166  1.00  0.00     0.190 C 
BRANCH   5   6
ATOM      6  O   UNL     1      29.589  -9.177  -6.046  1.00  0.00    -0.394 OA
ATOM      7  H   UNL     1      30.575  -9.110  -6.142  1.00  0.00     0.210 HD
ENDBRANCH   5   6
ENDBRANCH   1   5
BRANCH   1   8
ATOM      8  O   UNL     1      27.414  -6.544  -5.004  1.00  0.00    -0.388 OA
ATOM      9  H   UNL     1      27.284  -7.199  -4.270  1.00  0.00     0.211 HD
ENDBRANCH   1   8
TORSDOF 5
ENDMDL
MODEL 7
REMARK VINA RESULT:    -3.892     12.879     14.242
REMARK INTER + INTRA:          -4.691
REMARK INTER:                  -4.475
REMARK INTRA:                  -0.216
REMARK UNBOUND:                -0.002
REMARK SMILES OCC(O)CO
REMARK SMILES IDX 3 1 5 2 6 3 2 5 1 6 4 8
REMARK H PARENT 6 4 1 7 4 9
REMARK Flexibility Score: inf
ROOT
ATOM      1  C   UNL     1      17.155  -0.505  -4.041  1.00  0.00     0.165 C 
ENDROOT
BRANCH   1   2
ATOM      2  C   UNL     1      17.001  -1.459  -2.847  1.00  0.00     0.190 C 
BRANCH   2   3
ATOM      3  O   UNL     1      16.252  -0.871  -1.818  1.00  0.00    -0.394 OA
ATOM      4  H   UNL     1      15.821  -0.063  -2.203  1.00  0.00     0.210 HD
ENDBRANCH   2   3
ENDBRANCH   1   2
BRANCH   1   5
ATOM      5  C   UNL     1      15.860  -0.392  -4.864  1.00  0.00     0.190 C 
BRANCH   5   6
ATOM      6  O   UNL     1      14.932   0.438  -4.217  1.00  0.00    -0.394 OA
ATOM      7  H   UNL     1      14.915   1.296  -4.715  1.00  0.00     0.210 HD
ENDBRANCH   5   6
ENDBRANCH   1   5
BRANCH   1   8
ATOM      8  O   UNL     1      18.201  -0.958  -4.863  1.00  0.00    -0.388 OA
ATOM      9  H   UNL     1      18.324  -1.923  -4.668  1.00  0.00     0.211 HD
ENDBRANCH   1   8
TORSDOF 5
ENDMDL
MODEL 8
REMARK VINA RESULT:    -3.877      1.377      3.004
REMARK INTER + INTRA:          -4.673
REMARK INTER:                  -4.460
REMARK INTRA:                  -0.213
REMARK UNBOUND:                -0.002
REMARK SMILES OCC(O)CO
REMARK SMILES IDX 3 1 5 2 6 3 2 5 1 6 4 8
REMARK H PARENT 6 4 1 7 4 9
REMARK Flexibility Score: inf
ROOT
ATOM      1  C   UNL     1      27.461  -7.718  -6.418  1.00  0.00     0.165 C 
ENDROOT
BRANCH   1   2
ATOM      2  C   UNL     1      28.774  -7.925  -5.648  1.00  0.00     0.190 C 
BRANCH   2   3
ATOM      3  O   UNL     1      29.498  -9.013  -6.159  1.00  0.00    -0.394 OA
ATOM      4  H   UNL     1      29.035  -9.300  -6.989  1.00  0.00     0.210 HD
ENDBRANCH   2   3
ENDBRANCH   1   2
BRANCH   1   5
ATOM      5  C   UNL     1      27.697  -7.132  -7.820  1.00  0.00     0.190 C 
BRANCH   5   6
ATOM      6  O   UNL     1      28.508  -7.984  -8.585  1.00  0.00    -0.394 OA
ATOM      7  H   UNL     1      28.477  -8.878  -8.152  1.00  0.00     0.210 HD
ENDBRANCH   5   6
ENDBRANCH   1   5
BRANCH   1   8
ATOM      8  O   UNL     1      26.623  -6.865  -5.682  1.00  0.00    -0.388 OA
ATOM      9  H   UNL     1      26.233  -7.407  -4.947  1.00  0.00     0.211 HD
ENDBRANCH   1   8
TORSDOF 5
ENDMDL
MODEL 9
REMARK VINA RESULT:    -3.732     11.483     12.512
REMARK INTER + INTRA:          -4.499
REMARK INTER:                  -4.493
REMARK INTRA:                  -0.005
REMARK UNBOUND:                -0.002
REMARK SMILES OCC(O)CO
REMARK SMILES IDX 3 1 5 2 6 3 2 5 1 6 4 8
REMARK H PARENT 6 4 1 7 4 9
REMARK Flexibility Score: inf
ROOT
ATOM      1  C   UNL     1      18.404  -1.343  -3.259  1.00  0.00     0.165 C 
ENDROOT
BRANCH   1   2
ATOM      2  C   UNL     1      16.990  -0.861  -3.615  1.00  0.00     0.190 C 
BRANCH   2   3
ATOM      3  O   UNL     1      16.156  -0.851  -2.488  1.00  0.00    -0.394 OA
ATOM      4  H   UNL     1      15.226  -0.754  -2.821  1.00  0.00     0.210 HD
ENDBRANCH   2   3
ENDBRANCH   1   2
BRANCH   1   5
ATOM      5  C   UNL     1      18.814  -2.588  -4.064  1.00  0.00     0.190 C 
BRANCH   5   6
ATOM      6  O   UNL     1      19.124  -3.654  -3.207  1.00  0.00    -0.394 OA
ATOM      7  H   UNL     1      18.893  -4.490  -3.691  1.00  0.00     0.210 HD
ENDBRANCH   5   6
ENDBRANCH   1   5
BRANCH   1   8
ATOM      8  O   UNL     1      18.463  -1.626  -1.884  1.00  0.00    -0.388 OA
ATOM      9  H   UNL     1      18.728  -0.786  -1.427  1.00  0.00     0.211 HD
ENDBRANCH   1   8
TORSDOF 5
ENDMDL
