MODEL 1
REMARK VINA RESULT:    -4.877      0.000      0.000
REMARK INTER + INTRA:          -5.020
REMARK INTER:                  -5.020
REMARK INTRA:                   0.000
REMARK UNBOUND:                 0.000
REMARK SMILES Cc1cccc(O)c1C
REMARK SMILES IDX 1 1 2 2 8 3 6 4 5 5 4 6 3 7 9 8 7 9
REMARK H PARENT 7 10
REMARK Flexibility Score: inf
ROOT
ATOM      1  C   UNL     1      21.740   1.183 103.717  1.00  0.00     0.045 C 
ATOM      2  C   UNL     1      21.511   2.562 104.283  1.00  0.00    -0.045 A 
ATOM      3  C   UNL     1      20.486   2.828 105.233  1.00  0.00    -0.006 A 
ATOM      4  C   UNL     1      20.328   4.149 105.724  1.00  0.00     0.118 A 
ATOM      5  C   UNL     1      21.172   5.168 105.274  1.00  0.00     0.046 A 
ATOM      6  C   UNL     1      22.174   4.901 104.344  1.00  0.00     0.004 A 
ATOM      7  C   UNL     1      22.343   3.609 103.852  1.00  0.00     0.004 A 
ATOM      8  C   UNL     1      19.562   1.741 105.734  1.00  0.00     0.048 C 
ENDROOT
BRANCH   4   9
ATOM      9  O   UNL     1      19.345   4.485 106.658  1.00  0.00    -0.508 OA
ATOM     10  H   UNL     1      19.460   5.212 107.353  1.00  0.00     0.293 HD
ENDBRANCH   4   9
TORSDOF 1
ENDMDL
MODEL 2
REMARK VINA RESULT:    -4.870      3.923      4.933
REMARK INTER + INTRA:          -5.012
REMARK INTER:                  -5.012
REMARK INTRA:                   0.000
REMARK UNBOUND:                 0.000
REMARK SMILES Cc1cccc(O)c1C
REMARK SMILES IDX 1 1 2 2 8 3 6 4 5 5 4 6 3 7 9 8 7 9
REMARK H PARENT 7 10
REMARK Flexibility Score: inf
ROOT
ATOM      1  C   UNL     1      24.800   4.448 102.790  1.00  0.00     0.045 C 
ATOM      2  C   UNL     1      23.867   5.170 101.850  1.00  0.00    -0.045 A 
ATOM      3  C   UNL     1      22.521   4.755 101.655  1.00  0.00    -0.006 A 
ATOM      4  C   UNL     1      21.700   5.481 100.756  1.00  0.00     0.118 A 
ATOM      5  C   UNL     1      22.216   6.587 100.074  1.00  0.00     0.046 A 
ATOM      6  C   UNL     1      23.535   6.988 100.270  1.00  0.00     0.004 A 
ATOM      7  C   UNL     1      24.355   6.287 101.150  1.00  0.00     0.004 A 
ATOM      8  C   UNL     1      21.942   3.562 102.382  1.00  0.00     0.048 C 
ENDROOT
BRANCH   4   9
ATOM      9  O   UNL     1      20.369   5.132 100.515  1.00  0.00    -0.508 OA
ATOM     10  H   UNL     1      19.598   5.434 101.098  1.00  0.00     0.293 HD
ENDBRANCH   4   9
TORSDOF 1
ENDMDL
MODEL 3
REMARK VINA RESULT:    -4.748      4.184      5.627
REMARK INTER + INTRA:          -4.887
REMARK INTER:                  -4.887
REMARK INTRA:                   0.000
REMARK UNBOUND:                 0.000
REMARK SMILES Cc1cccc(O)c1C
REMARK SMILES IDX 1 1 2 2 8 3 6 4 5 5 4 6 3 7 9 8 7 9
REMARK H PARENT 7 10
REMARK Flexibility Score: inf
ROOT
ATOM      1  C   UNL     1      25.127   4.855 102.367  1.00  0.00     0.045 C 
ATOM      2  C   UNL     1      23.718   5.026 101.858  1.00  0.00    -0.045 A 
ATOM      3  C   UNL     1      23.366   6.052 100.938  1.00  0.00    -0.006 A 
ATOM      4  C   UNL     1      22.021   6.154 100.501  1.00  0.00     0.118 A 
ATOM      5  C   UNL     1      21.062   5.253 100.973  1.00  0.00     0.046 A 
ATOM      6  C   UNL     1      21.413   4.251 101.873  1.00  0.00     0.004 A 
ATOM      7  C   UNL     1      22.730   4.136 102.312  1.00  0.00     0.004 A 
ATOM      8  C   UNL     1      24.387   7.037 100.414  1.00  0.00     0.048 C 
ENDROOT
BRANCH   4   9
ATOM      9  O   UNL     1      21.602   7.135  99.599  1.00  0.00    -0.508 OA
ATOM     10  H   UNL     1      22.138   7.969  99.394  1.00  0.00     0.293 HD
ENDBRANCH   4   9
TORSDOF 1
ENDMDL
MODEL 4
REMARK VINA RESULT:    -4.735      1.157      2.581
REMARK INTER + INTRA:          -4.874
REMARK INTER:                  -4.874
REMARK INTRA:                   0.000
REMARK UNBOUND:                 0.000
REMARK SMILES Cc1cccc(O)c1C
REMARK SMILES IDX 1 1 2 2 8 3 6 4 5 5 4 6 3 7 9 8 7 9
REMARK H PARENT 7 10
REMARK Flexibility Score: inf
ROOT
ATOM      1  C   UNL     1      22.141   1.536 103.203  1.00  0.00     0.045 C 
ATOM      2  C   UNL     1      21.429   2.397 104.215  1.00  0.00    -0.045 A 
ATOM      3  C   UNL     1      21.798   3.751 104.449  1.00  0.00    -0.006 A 
ATOM      4  C   UNL     1      21.083   4.502 105.416  1.00  0.00     0.118 A 
ATOM      5  C   UNL     1      20.033   3.913 106.125  1.00  0.00     0.046 A 
ATOM      6  C   UNL     1      19.676   2.587 105.891  1.00  0.00     0.004 A 
ATOM      7  C   UNL     1      20.367   1.834 104.945  1.00  0.00     0.004 A 
ATOM      8  C   UNL     1      22.931   4.409 103.694  1.00  0.00     0.048 C 
ENDROOT
BRANCH   4   9
ATOM      9  O   UNL     1      21.389   5.836 105.698  1.00  0.00    -0.508 OA
ATOM     10  H   UNL     1      22.328   6.213 105.663  1.00  0.00     0.293 HD
ENDBRANCH   4   9
TORSDOF 1
ENDMDL
MODEL 5
REMARK VINA RESULT:    -4.442      1.786      2.797
REMARK INTER + INTRA:          -4.572
REMARK INTER:                  -4.572
REMARK INTRA:                   0.000
REMARK UNBOUND:                 0.000
REMARK SMILES Cc1cccc(O)c1C
REMARK SMILES IDX 1 1 2 2 8 3 6 4 5 5 4 6 3 7 9 8 7 9
REMARK H PARENT 7 10
REMARK Flexibility Score: inf
ROOT
ATOM      1  C   UNL     1      19.370   1.852 105.729  1.00  0.00     0.045 C 
ATOM      2  C   UNL     1      20.313   3.017 105.563  1.00  0.00    -0.045 A 
ATOM      3  C   UNL     1      21.360   3.011 104.600  1.00  0.00    -0.006 A 
ATOM      4  C   UNL     1      22.209   4.142 104.499  1.00  0.00     0.118 A 
ATOM      5  C   UNL     1      22.012   5.242 105.338  1.00  0.00     0.046 A 
ATOM      6  C   UNL     1      20.985   5.242 106.278  1.00  0.00     0.004 A 
ATOM      7  C   UNL     1      20.141   4.140 106.391  1.00  0.00     0.004 A 
ATOM      8  C   UNL     1      21.591   1.832 103.681  1.00  0.00     0.048 C 
ENDROOT
BRANCH   4   9
ATOM      9  O   UNL     1      23.257   4.208 103.577  1.00  0.00    -0.508 OA
ATOM     10  H   UNL     1      23.449   3.482 102.898  1.00  0.00     0.293 HD
ENDBRANCH   4   9
TORSDOF 1
ENDMDL
MODEL 6
REMARK VINA RESULT:    -4.441      3.909      5.341
REMARK INTER + INTRA:          -4.571
REMARK INTER:                  -4.571
REMARK INTRA:                   0.000
REMARK UNBOUND:                 0.000
REMARK SMILES Cc1cccc(O)c1C
REMARK SMILES IDX 1 1 2 2 8 3 6 4 5 5 4 6 3 7 9 8 7 9
REMARK H PARENT 7 10
REMARK Flexibility Score: inf
ROOT
ATOM      1  C   UNL     1      24.379   7.116 100.475  1.00  0.00     0.045 C 
ATOM      2  C   UNL     1      23.231   6.166 100.703  1.00  0.00    -0.045 A 
ATOM      3  C   UNL     1      23.296   5.117 101.662  1.00  0.00    -0.006 A 
ATOM      4  C   UNL     1      22.178   4.261 101.823  1.00  0.00     0.118 A 
ATOM      5  C   UNL     1      21.031   4.453 101.047  1.00  0.00     0.046 A 
ATOM      6  C   UNL     1      20.973   5.482 100.111  1.00  0.00     0.004 A 
ATOM      7  C   UNL     1      22.062   6.333  99.939  1.00  0.00     0.004 A 
ATOM      8  C   UNL     1      24.526   4.891 102.512  1.00  0.00     0.048 C 
ENDROOT
BRANCH   4   9
ATOM      9  O   UNL     1      22.170   3.211 102.745  1.00  0.00    -0.508 OA
ATOM     10  H   UNL     1      22.462   2.268 102.519  1.00  0.00     0.293 HD
ENDBRANCH   4   9
TORSDOF 1
ENDMDL
MODEL 7
REMARK VINA RESULT:    -4.378      1.214      2.296
REMARK INTER + INTRA:          -4.506
REMARK INTER:                  -4.506
REMARK INTRA:                   0.000
REMARK UNBOUND:                 0.000
REMARK SMILES Cc1cccc(O)c1C
REMARK SMILES IDX 1 1 2 2 8 3 6 4 5 5 4 6 3 7 9 8 7 9
REMARK H PARENT 7 10
REMARK Flexibility Score: inf
ROOT
ATOM      1  C   UNL     1      23.204   4.113 102.762  1.00  0.00     0.045 C 
ATOM      2  C   UNL     1      22.257   4.006 103.930  1.00  0.00    -0.045 A 
ATOM      3  C   UNL     1      21.541   2.810 104.216  1.00  0.00    -0.006 A 
ATOM      4  C   UNL     1      20.667   2.780 105.332  1.00  0.00     0.118 A 
ATOM      5  C   UNL     1      20.518   3.914 106.134  1.00  0.00     0.046 A 
ATOM      6  C   UNL     1      21.221   5.082 105.850  1.00  0.00     0.004 A 
ATOM      7  C   UNL     1      22.084   5.129 104.758  1.00  0.00     0.004 A 
ATOM      8  C   UNL     1      21.688   1.571 103.361  1.00  0.00     0.048 C 
ENDROOT
BRANCH   4   9
ATOM      9  O   UNL     1      19.933   1.641 105.673  1.00  0.00    -0.508 OA
ATOM     10  H   UNL     1      20.312   0.874 106.213  1.00  0.00     0.293 HD
ENDBRANCH   4   9
TORSDOF 1
ENDMDL
MODEL 8
REMARK VINA RESULT:    -4.343      4.048      5.191
REMARK INTER + INTRA:          -4.470
REMARK INTER:                  -4.470
REMARK INTRA:                   0.000
REMARK UNBOUND:                 0.000
REMARK SMILES Cc1cccc(O)c1C
REMARK SMILES IDX 1 1 2 2 8 3 6 4 5 5 4 6 3 7 9 8 7 9
REMARK H PARENT 7 10
REMARK Flexibility Score: inf
ROOT
ATOM      1  C   UNL     1      22.270   3.215 103.367  1.00  0.00     0.045 C 
ATOM      2  C   UNL     1      22.302   4.194 102.220  1.00  0.00    -0.045 A 
ATOM      3  C   UNL     1      23.465   4.950 101.904  1.00  0.00    -0.006 A 
ATOM      4  C   UNL     1      23.424   5.852 100.811  1.00  0.00     0.118 A 
ATOM      5  C   UNL     1      22.253   5.989 100.060  1.00  0.00     0.046 A 
ATOM      6  C   UNL     1      21.119   5.245 100.374  1.00  0.00     0.004 A 
ATOM      7  C   UNL     1      21.141   4.354 101.444  1.00  0.00     0.004 A 
ATOM      8  C   UNL     1      24.743   4.817 102.703  1.00  0.00     0.048 C 
ENDROOT
BRANCH   4   9
ATOM      9  O   UNL     1      24.527   6.626 100.442  1.00  0.00    -0.508 OA
ATOM     10  H   UNL     1      25.260   6.297  99.827  1.00  0.00     0.293 HD
ENDBRANCH   4   9
TORSDOF 1
ENDMDL
MODEL 9
REMARK VINA RESULT:    -4.282     12.141     12.790
REMARK INTER + INTRA:          -4.407
REMARK INTER:                  -4.407
REMARK INTRA:                   0.000
REMARK UNBOUND:                 0.000
REMARK SMILES Cc1cccc(O)c1C
REMARK SMILES IDX 1 1 2 2 8 3 6 4 5 5 4 6 3 7 9 8 7 9
REMARK H PARENT 7 10
REMARK Flexibility Score: inf
ROOT
ATOM      1  C   UNL     1      31.859   4.553  97.771  1.00  0.00     0.045 C 
ATOM      2  C   UNL     1      32.140   4.176  99.204  1.00  0.00    -0.045 A 
ATOM      3  C   UNL     1      32.652   5.111 100.145  1.00  0.00    -0.006 A 
ATOM      4  C   UNL     1      32.892   4.686 101.476  1.00  0.00     0.118 A 
ATOM      5  C   UNL     1      32.627   3.366 101.849  1.00  0.00     0.046 A 
ATOM      6  C   UNL     1      32.125   2.455 100.923  1.00  0.00     0.004 A 
ATOM      7  C   UNL     1      31.882   2.855  99.611  1.00  0.00     0.004 A 
ATOM      8  C   UNL     1      32.946   6.545  99.765  1.00  0.00     0.048 C 
ENDROOT
BRANCH   4   9
ATOM      9  O   UNL     1      33.394   5.549 102.455  1.00  0.00    -0.508 OA
ATOM     10  H   UNL     1      32.970   5.665 103.367  1.00  0.00     0.293 HD
ENDBRANCH   4   9
TORSDOF 1
ENDMDL
