MODEL 1
REMARK VINA RESULT:    -4.886      0.000      0.000
REMARK INTER + INTRA:          -7.418
REMARK INTER:                  -6.600
REMARK INTRA:                  -0.818
REMARK UNBOUND:                -0.818
REMARK SMILES CC(=O)CCC=C(C)CCC=C(C)C
REMARK SMILES IDX 7 1 6 2 8 3 9 4 10 5 11 6 13 7 12 8 14 9 5 10 4 11 2 12 3 13
REMARK SMILES IDX 1 14
REMARK H PARENT
REMARK Flexibility Score: inf
ROOT
ATOM      1  C   UNL     1      -7.267  -1.048  10.080  1.00  0.00    -0.077 C 
ATOM      2  C   UNL     1      -5.980  -0.634  10.064  1.00  0.00    -0.028 C 
ATOM      3  C   UNL     1      -7.636  -2.503  10.259  1.00  0.00     0.039 C 
ENDROOT
BRANCH   1   4
ATOM      4  C   UNL     1      -8.369  -0.022   9.921  1.00  0.00     0.034 C 
BRANCH   4   5
ATOM      5  C   UNL     1      -9.480  -0.552   9.008  1.00  0.00     0.032 C 
BRANCH   5   6
ATOM      6  C   UNL     1      -9.363   0.038   7.625  1.00  0.00    -0.028 C 
ATOM      7  C   UNL     1      -7.918  -1.825   6.780  1.00  0.00     0.039 C 
ATOM      8  C   UNL     1      -8.691  -0.541   6.605  1.00  0.00    -0.080 C 
ATOM      9  C   UNL     1      -8.660   0.125   5.253  1.00  0.00     0.039 C 
ENDBRANCH   5   6
ENDBRANCH   4   5
ENDBRANCH   1   4
BRANCH   2  10
ATOM     10  C   UNL     1      -4.786  -1.550  10.172  1.00  0.00     0.035 C 
BRANCH  10  11
ATOM     11  C   UNL     1      -4.544  -2.284   8.850  1.00  0.00     0.079 C 
BRANCH  11  12
ATOM     12  C   UNL     1      -4.191  -3.727   9.098  1.00  0.00     0.130 C 
ATOM     13  O   UNL     1      -3.735  -4.400   8.186  1.00  0.00    -0.300 OA
ATOM     14  C   UNL     1      -4.375  -4.356  10.447  1.00  0.00     0.087 C 
ENDBRANCH  11  12
ENDBRANCH  10  11
ENDBRANCH   2  10
TORSDOF 6
ENDMDL
MODEL 2
REMARK VINA RESULT:    -4.511      1.627      3.185
REMARK INTER + INTRA:          -6.911
REMARK INTER:                  -6.073
REMARK INTRA:                  -0.838
REMARK UNBOUND:                -0.818
REMARK SMILES CC(=O)CCC=C(C)CCC=C(C)C
REMARK SMILES IDX 7 1 6 2 8 3 9 4 10 5 11 6 13 7 12 8 14 9 5 10 4 11 2 12 3 13
REMARK SMILES IDX 1 14
REMARK H PARENT
REMARK Flexibility Score: inf
ROOT
ATOM      1  C   UNL     1      -6.294  -3.207   7.036  1.00  0.00    -0.077 C 
ATOM      2  C   UNL     1      -5.497  -2.594   7.941  1.00  0.00    -0.028 C 
ATOM      3  C   UNL     1      -5.989  -4.590   6.510  1.00  0.00     0.039 C 
ENDROOT
BRANCH   1   4
ATOM      4  C   UNL     1      -7.533  -2.487   6.546  1.00  0.00     0.034 C 
BRANCH   4   5
ATOM      5  C   UNL     1      -7.513  -1.015   6.973  1.00  0.00     0.032 C 
BRANCH   5   6
ATOM      6  C   UNL     1      -8.516  -0.763   8.070  1.00  0.00    -0.028 C 
ATOM      7  C   UNL     1      -6.787   0.081   9.674  1.00  0.00     0.039 C 
ATOM      8  C   UNL     1      -8.207  -0.239   9.278  1.00  0.00    -0.080 C 
ATOM      9  C   UNL     1      -9.295  -0.006  10.294  1.00  0.00     0.039 C 
ENDBRANCH   5   6
ENDBRANCH   4   5
ENDBRANCH   1   4
BRANCH   2  10
ATOM     10  C   UNL     1      -4.216  -3.177   8.484  1.00  0.00     0.035 C 
BRANCH  10  11
ATOM     11  C   UNL     1      -4.154  -3.026  10.007  1.00  0.00     0.079 C 
BRANCH  11  12
ATOM     12  C   UNL     1      -4.691  -4.259  10.687  1.00  0.00     0.130 C 
ATOM     13  O   UNL     1      -3.924  -5.161  10.989  1.00  0.00    -0.300 OA
ATOM     14  C   UNL     1      -6.148  -4.402  11.012  1.00  0.00     0.087 C 
ENDBRANCH  11  12
ENDBRANCH  10  11
ENDBRANCH   2  10
TORSDOF 6
ENDMDL
MODEL 3
REMARK VINA RESULT:    -4.485      2.155      5.203
REMARK INTER + INTRA:          -6.876
REMARK INTER:                  -6.025
REMARK INTRA:                  -0.851
REMARK UNBOUND:                -0.818
REMARK SMILES CC(=O)CCC=C(C)CCC=C(C)C
REMARK SMILES IDX 7 1 6 2 8 3 9 4 10 5 11 6 13 7 12 8 14 9 5 10 4 11 2 12 3 13
REMARK SMILES IDX 1 14
REMARK H PARENT
REMARK Flexibility Score: inf
ROOT
ATOM      1  C   UNL     1      -7.386  -0.832   9.562  1.00  0.00    -0.077 C 
ATOM      2  C   UNL     1      -7.947   0.038   8.691  1.00  0.00    -0.028 C 
ATOM      3  C   UNL     1      -8.042  -2.148   9.908  1.00  0.00     0.039 C 
ENDROOT
BRANCH   1   4
ATOM      4  C   UNL     1      -6.059  -0.478  10.199  1.00  0.00     0.034 C 
BRANCH   4   5
ATOM      5  C   UNL     1      -4.894  -1.062   9.394  1.00  0.00     0.032 C 
BRANCH   5   6
ATOM      6  C   UNL     1      -4.390  -2.335  10.026  1.00  0.00    -0.028 C 
ATOM      7  C   UNL     1      -5.223  -3.780   8.158  1.00  0.00     0.039 C 
ATOM      8  C   UNL     1      -4.503  -3.560   9.465  1.00  0.00    -0.080 C 
ATOM      9  C   UNL     1      -3.940  -4.764  10.176  1.00  0.00     0.039 C 
ENDBRANCH   5   6
ENDBRANCH   4   5
ENDBRANCH   1   4
BRANCH   2  10
ATOM     10  C   UNL     1      -9.279  -0.168   8.015  1.00  0.00     0.035 C 
BRANCH  10  11
ATOM     11  C   UNL     1      -9.177   0.124   6.515  1.00  0.00     0.079 C 
BRANCH  11  12
ATOM     12  C   UNL     1      -8.926  -1.143   5.741  1.00  0.00     0.130 C 
ATOM     13  O   UNL     1      -9.584  -1.376   4.738  1.00  0.00    -0.300 OA
ATOM     14  C   UNL     1      -7.875  -2.125   6.168  1.00  0.00     0.087 C 
ENDBRANCH  11  12
ENDBRANCH  10  11
ENDBRANCH   2  10
TORSDOF 6
ENDMDL
MODEL 4
REMARK VINA RESULT:    -4.408      2.036      5.101
REMARK INTER + INTRA:          -6.773
REMARK INTER:                  -6.192
REMARK INTRA:                  -0.580
REMARK UNBOUND:                -0.818
REMARK SMILES CC(=O)CCC=C(C)CCC=C(C)C
REMARK SMILES IDX 7 1 6 2 8 3 9 4 10 5 11 6 13 7 12 8 14 9 5 10 4 11 2 12 3 13
REMARK SMILES IDX 1 14
REMARK H PARENT
REMARK Flexibility Score: inf
ROOT
ATOM      1  C   UNL     1      -7.330  -1.897   6.656  1.00  0.00    -0.077 C 
ATOM      2  C   UNL     1      -6.494  -1.220   7.476  1.00  0.00    -0.028 C 
ATOM      3  C   UNL     1      -8.669  -1.333   6.240  1.00  0.00     0.039 C 
ENDROOT
BRANCH   1   4
ATOM      4  C   UNL     1      -6.906  -3.254   6.136  1.00  0.00     0.034 C 
BRANCH   4   5
ATOM      5  C   UNL     1      -5.651  -3.749   6.864  1.00  0.00     0.032 C 
BRANCH   5   6
ATOM      6  C   UNL     1      -5.952  -4.039   8.313  1.00  0.00    -0.028 C 
ATOM      7  C   UNL     1      -3.595  -3.625   9.050  1.00  0.00     0.039 C 
ATOM      8  C   UNL     1      -5.044  -3.955   9.311  1.00  0.00    -0.080 C 
ATOM      9  C   UNL     1      -5.460  -4.244  10.730  1.00  0.00     0.039 C 
ENDBRANCH   5   6
ENDBRANCH   4   5
ENDBRANCH   1   4
BRANCH   2  10
ATOM     10  C   UNL     1      -6.804   0.120   8.096  1.00  0.00     0.035 C 
BRANCH  10  11
ATOM     11  C   UNL     1      -7.014  -0.018   9.607  1.00  0.00     0.079 C 
BRANCH  11  12
ATOM     12  C   UNL     1      -8.236  -0.848   9.902  1.00  0.00     0.130 C 
ATOM     13  O   UNL     1      -8.102  -1.992  10.308  1.00  0.00    -0.300 OA
ATOM     14  C   UNL     1      -9.619  -0.297   9.718  1.00  0.00     0.087 C 
ENDBRANCH  11  12
ENDBRANCH  10  11
ENDBRANCH   2  10
TORSDOF 6
ENDMDL
MODEL 5
REMARK VINA RESULT:    -4.395      1.521      2.563
REMARK INTER + INTRA:          -6.754
REMARK INTER:                  -5.730
REMARK INTRA:                  -1.024
REMARK UNBOUND:                -0.818
REMARK SMILES CC(=O)CCC=C(C)CCC=C(C)C
REMARK SMILES IDX 7 1 6 2 8 3 9 4 10 5 11 6 13 7 12 8 14 9 5 10 4 11 2 12 3 13
REMARK SMILES IDX 1 14
REMARK H PARENT
REMARK Flexibility Score: inf
ROOT
ATOM      1  C   UNL     1      -5.636  -2.141  10.027  1.00  0.00    -0.077 C 
ATOM      2  C   UNL     1      -4.496  -2.689   9.547  1.00  0.00    -0.028 C 
ATOM      3  C   UNL     1      -6.879  -2.966  10.265  1.00  0.00     0.039 C 
ENDROOT
BRANCH   1   4
ATOM      4  C   UNL     1      -5.661  -0.660  10.340  1.00  0.00     0.034 C 
BRANCH   4   5
ATOM      5  C   UNL     1      -6.997  -0.036   9.919  1.00  0.00     0.032 C 
BRANCH   5   6
ATOM      6  C   UNL     1      -7.104   0.038   8.417  1.00  0.00    -0.028 C 
ATOM      7  C   UNL     1      -9.601  -0.154   8.426  1.00  0.00     0.039 C 
ATOM      8  C   UNL     1      -8.270   0.019   7.735  1.00  0.00    -0.080 C 
ATOM      9  C   UNL     1      -8.262   0.125   6.231  1.00  0.00     0.039 C 
ENDBRANCH   5   6
ENDBRANCH   4   5
ENDBRANCH   1   4
BRANCH   2  10
ATOM     10  C   UNL     1      -4.342  -4.138   9.157  1.00  0.00     0.035 C 
BRANCH  10  11
ATOM     11  C   UNL     1      -4.185  -4.277   7.640  1.00  0.00     0.079 C 
BRANCH  11  12
ATOM     12  C   UNL     1      -5.530  -4.420   6.976  1.00  0.00     0.130 C 
ATOM     13  O   UNL     1      -5.966  -5.536   6.734  1.00  0.00    -0.300 OA
ATOM     14  C   UNL     1      -6.354  -3.221   6.613  1.00  0.00     0.087 C 
ENDBRANCH  11  12
ENDBRANCH  10  11
ENDBRANCH   2  10
TORSDOF 6
ENDMDL
MODEL 6
REMARK VINA RESULT:    -3.867      2.468      5.316
REMARK INTER + INTRA:          -6.041
REMARK INTER:                  -5.450
REMARK INTRA:                  -0.591
REMARK UNBOUND:                -0.818
REMARK SMILES CC(=O)CCC=C(C)CCC=C(C)C
REMARK SMILES IDX 7 1 6 2 8 3 9 4 10 5 11 6 13 7 12 8 14 9 5 10 4 11 2 12 3 13
REMARK SMILES IDX 1 14
REMARK H PARENT
REMARK Flexibility Score: inf
ROOT
ATOM      1  C   UNL     1      -5.798  -3.797   7.729  1.00  0.00    -0.077 C 
ATOM      2  C   UNL     1      -6.688  -2.778   7.720  1.00  0.00    -0.028 C 
ATOM      3  C   UNL     1      -5.621  -4.713   6.541  1.00  0.00     0.039 C 
ENDROOT
BRANCH   1   4
ATOM      4  C   UNL     1      -4.953  -4.020   8.965  1.00  0.00     0.034 C 
BRANCH   4   5
ATOM      5  C   UNL     1      -4.231  -2.730   9.372  1.00  0.00     0.032 C 
BRANCH   5   6
ATOM      6  C   UNL     1      -5.104  -1.888  10.268  1.00  0.00    -0.028 C 
ATOM      7  C   UNL     1      -5.013   0.103   8.753  1.00  0.00     0.039 C 
ATOM      8  C   UNL     1      -5.490  -0.624   9.986  1.00  0.00    -0.080 C 
ATOM      9  C   UNL     1      -6.386   0.118  10.943  1.00  0.00     0.039 C 
ENDBRANCH   5   6
ENDBRANCH   4   5
ENDBRANCH   1   4
BRANCH   2  10
ATOM     10  C   UNL     1      -7.619  -2.467   6.575  1.00  0.00     0.035 C 
BRANCH  10  11
ATOM     11  C   UNL     1      -7.812  -0.954   6.428  1.00  0.00     0.079 C 
BRANCH  11  12
ATOM     12  C   UNL     1      -9.091  -0.514   7.090  1.00  0.00     0.130 C 
ATOM     13  O   UNL     1     -10.129  -0.502   6.445  1.00  0.00    -0.300 OA
ATOM     14  C   UNL     1      -9.124  -0.100   8.531  1.00  0.00     0.087 C 
ENDBRANCH  11  12
ENDBRANCH  10  11
ENDBRANCH   2  10
TORSDOF 6
ENDMDL
MODEL 7
REMARK VINA RESULT:    -3.357      2.002      4.307
REMARK INTER + INTRA:          -5.352
REMARK INTER:                  -4.769
REMARK INTRA:                  -0.583
REMARK UNBOUND:                -0.818
REMARK SMILES CC(=O)CCC=C(C)CCC=C(C)C
REMARK SMILES IDX 7 1 6 2 8 3 9 4 10 5 11 6 13 7 12 8 14 9 5 10 4 11 2 12 3 13
REMARK SMILES IDX 1 14
REMARK H PARENT
REMARK Flexibility Score: inf
ROOT
ATOM      1  C   UNL     1      -8.313  -1.189   7.746  1.00  0.00    -0.077 C 
ATOM      2  C   UNL     1      -7.776  -1.546   8.935  1.00  0.00    -0.028 C 
ATOM      3  C   UNL     1      -9.203   0.024   7.605  1.00  0.00     0.039 C 
ENDROOT
BRANCH   1   4
ATOM      4  C   UNL     1      -8.005  -2.025   6.522  1.00  0.00     0.034 C 
BRANCH   4   5
ATOM      5  C   UNL     1      -6.518  -2.393   6.473  1.00  0.00     0.032 C 
BRANCH   5   6
ATOM      6  C   UNL     1      -6.338  -3.862   6.186  1.00  0.00    -0.028 C 
ATOM      7  C   UNL     1      -4.685  -4.185   8.039  1.00  0.00     0.039 C 
ATOM      8  C   UNL     1      -5.542  -4.687   6.903  1.00  0.00    -0.080 C 
ATOM      9  C   UNL     1      -5.457  -6.147   6.543  1.00  0.00     0.039 C 
ENDBRANCH   5   6
ENDBRANCH   4   5
ENDBRANCH   1   4
BRANCH   2  10
ATOM     10  C   UNL     1      -8.029  -0.829  10.237  1.00  0.00     0.035 C 
BRANCH  10  11
ATOM     11  C   UNL     1      -6.796  -0.029  10.665  1.00  0.00     0.079 C 
BRANCH  11  12
ATOM     12  C   UNL     1      -5.558  -0.555   9.986  1.00  0.00     0.130 C 
ATOM     13  O   UNL     1      -5.018  -1.563  10.418  1.00  0.00    -0.300 OA
ATOM     14  C   UNL     1      -4.977   0.125   8.782  1.00  0.00     0.087 C 
ENDBRANCH  11  12
ENDBRANCH  10  11
ENDBRANCH   2  10
TORSDOF 6
ENDMDL
