MODEL 1
REMARK VINA RESULT:    -4.715      0.000      0.000
REMARK INTER + INTRA:          -5.994
REMARK INTER:                  -5.818
REMARK INTRA:                  -0.176
REMARK UNBOUND:                -0.176
REMARK SMILES C=CC[C@H](C)C(=O)CC
REMARK SMILES IDX 4 1 5 2 6 3 7 4 8 5 9 6 3 7 2 8 1 9
REMARK H PARENT
REMARK Flexibility Score: inf
ROOT
ATOM      1  C   UNL     1       4.883  13.756  28.788  1.00  0.00     0.057 C 
ATOM      2  C   UNL     1       5.882  14.799  28.264  1.00  0.00     0.016 C 
ENDROOT
BRANCH   1   3
ATOM      3  C   UNL     1       3.650  13.707  27.909  1.00  0.00     0.135 C 
ATOM      4  O   UNL     1       2.593  14.137  28.344  1.00  0.00    -0.299 OA
BRANCH   3   5
ATOM      5  C   UNL     1       3.693  13.167  26.500  1.00  0.00     0.072 C 
ATOM      6  C   UNL     1       3.068  11.777  26.431  1.00  0.00     0.012 C 
ENDBRANCH   3   5
ENDBRANCH   1   3
BRANCH   1   7
ATOM      7  C   UNL     1       4.493  14.016  30.259  1.00  0.00     0.038 C 
BRANCH   7   8
ATOM      8  C   UNL     1       5.431  14.982  30.936  1.00  0.00    -0.034 C 
ATOM      9  C   UNL     1       5.333  15.262  32.239  1.00  0.00     0.004 C 
ENDBRANCH   7   8
ENDBRANCH   1   7
TORSDOF 4
ENDMDL
MODEL 2
REMARK VINA RESULT:    -4.672      1.962      3.255
REMARK INTER + INTRA:          -5.940
REMARK INTER:                  -5.714
REMARK INTRA:                  -0.226
REMARK UNBOUND:                -0.176
REMARK SMILES C=CC[C@H](C)C(=O)CC
REMARK SMILES IDX 4 1 5 2 6 3 7 4 8 5 9 6 3 7 2 8 1 9
REMARK H PARENT
REMARK Flexibility Score: inf
ROOT
ATOM      1  C   UNL     1       3.432  12.532  27.883  1.00  0.00     0.057 C 
ATOM      2  C   UNL     1       3.006  11.740  26.638  1.00  0.00     0.016 C 
ENDROOT
BRANCH   1   3
ATOM      3  C   UNL     1       2.230  12.866  28.743  1.00  0.00     0.135 C 
ATOM      4  O   UNL     1       1.805  12.026  29.522  1.00  0.00    -0.299 OA
BRANCH   3   5
ATOM      5  C   UNL     1       1.555  14.216  28.687  1.00  0.00     0.072 C 
ATOM      6  C   UNL     1       0.039  14.068  28.735  1.00  0.00     0.012 C 
ENDBRANCH   3   5
ENDBRANCH   1   3
BRANCH   1   7
ATOM      7  C   UNL     1       4.210  13.814  27.515  1.00  0.00     0.038 C 
BRANCH   7   8
ATOM      8  C   UNL     1       5.287  14.135  28.519  1.00  0.00    -0.034 C 
ATOM      9  C   UNL     1       6.197  15.087  28.295  1.00  0.00     0.004 C 
ENDBRANCH   7   8
ENDBRANCH   1   7
TORSDOF 4
ENDMDL
MODEL 3
REMARK VINA RESULT:    -4.648      1.561      3.528
REMARK INTER + INTRA:          -5.911
REMARK INTER:                  -5.528
REMARK INTRA:                  -0.383
REMARK UNBOUND:                -0.176
REMARK SMILES C=CC[C@H](C)C(=O)CC
REMARK SMILES IDX 4 1 5 2 6 3 7 4 8 5 9 6 3 7 2 8 1 9
REMARK H PARENT
REMARK Flexibility Score: inf
ROOT
ATOM      1  C   UNL     1       4.527  13.068  29.320  1.00  0.00     0.057 C 
ATOM      2  C   UNL     1       4.382  11.627  28.811  1.00  0.00     0.016 C 
ENDROOT
BRANCH   1   3
ATOM      3  C   UNL     1       3.338  13.458  30.173  1.00  0.00     0.135 C 
ATOM      4  O   UNL     1       2.296  13.787  29.627  1.00  0.00    -0.299 OA
BRANCH   3   5
ATOM      5  C   UNL     1       3.392  13.427  31.682  1.00  0.00     0.072 C 
ATOM      6  C   UNL     1       4.484  14.352  32.207  1.00  0.00     0.012 C 
ENDBRANCH   3   5
ENDBRANCH   1   3
BRANCH   1   7
ATOM      7  C   UNL     1       4.720  14.074  28.164  1.00  0.00     0.038 C 
BRANCH   7   8
ATOM      8  C   UNL     1       6.062  14.758  28.222  1.00  0.00    -0.034 C 
ATOM      9  C   UNL     1       6.417  15.526  29.256  1.00  0.00     0.004 C 
ENDBRANCH   7   8
ENDBRANCH   1   7
TORSDOF 4
ENDMDL
MODEL 4
REMARK VINA RESULT:    -4.590      1.339      2.183
REMARK INTER + INTRA:          -5.839
REMARK INTER:                  -5.601
REMARK INTRA:                  -0.238
REMARK UNBOUND:                -0.176
REMARK SMILES C=CC[C@H](C)C(=O)CC
REMARK SMILES IDX 4 1 5 2 6 3 7 4 8 5 9 6 3 7 2 8 1 9
REMARK H PARENT
REMARK Flexibility Score: inf
ROOT
ATOM      1  C   UNL     1       3.982  13.931  29.250  1.00  0.00     0.057 C 
ATOM      2  C   UNL     1       4.073  13.666  30.760  1.00  0.00     0.016 C 
ENDROOT
BRANCH   1   3
ATOM      3  C   UNL     1       2.938  13.038  28.612  1.00  0.00     0.135 C 
ATOM      4  O   UNL     1       1.782  13.428  28.547  1.00  0.00    -0.299 OA
BRANCH   3   5
ATOM      5  C   UNL     1       3.286  11.690  28.028  1.00  0.00     0.072 C 
ATOM      6  C   UNL     1       3.053  11.674  26.521  1.00  0.00     0.012 C 
ENDBRANCH   3   5
ENDBRANCH   1   3
BRANCH   1   7
ATOM      7  C   UNL     1       5.347  13.759  28.549  1.00  0.00     0.038 C 
BRANCH   7   8
ATOM      8  C   UNL     1       5.979  15.081  28.199  1.00  0.00    -0.034 C 
ATOM      9  C   UNL     1       6.724  15.760  29.077  1.00  0.00     0.004 C 
ENDBRANCH   7   8
ENDBRANCH   1   7
TORSDOF 4
ENDMDL
MODEL 5
REMARK VINA RESULT:    -4.551      1.823      4.150
REMARK INTER + INTRA:          -5.791
REMARK INTER:                  -5.468
REMARK INTRA:                  -0.323
REMARK UNBOUND:                -0.176
REMARK SMILES C=CC[C@H](C)C(=O)CC
REMARK SMILES IDX 4 1 5 2 6 3 7 4 8 5 9 6 3 7 2 8 1 9
REMARK H PARENT
REMARK Flexibility Score: inf
ROOT
ATOM      1  C   UNL     1       4.387  13.661  29.029  1.00  0.00     0.057 C 
ATOM      2  C   UNL     1       5.502  14.438  28.315  1.00  0.00     0.016 C 
ENDROOT
BRANCH   1   3
ATOM      3  C   UNL     1       4.454  13.882  30.526  1.00  0.00     0.135 C 
ATOM      4  O   UNL     1       5.132  14.799  30.962  1.00  0.00    -0.299 OA
BRANCH   3   5
ATOM      5  C   UNL     1       3.687  13.017  31.498  1.00  0.00     0.072 C 
ATOM      6  C   UNL     1       2.200  13.354  31.469  1.00  0.00     0.012 C 
ENDBRANCH   3   5
ENDBRANCH   1   3
BRANCH   1   7
ATOM      7  C   UNL     1       4.428  12.154  28.698  1.00  0.00     0.038 C 
BRANCH   7   8
ATOM      8  C   UNL     1       3.202  11.701  27.948  1.00  0.00    -0.034 C 
ATOM      9  C   UNL     1       3.148  11.719  26.613  1.00  0.00     0.004 C 
ENDBRANCH   7   8
ENDBRANCH   1   7
TORSDOF 4
ENDMDL
MODEL 6
REMARK VINA RESULT:    -4.548      2.046      3.009
REMARK INTER + INTRA:          -5.788
REMARK INTER:                  -5.555
REMARK INTRA:                  -0.233
REMARK UNBOUND:                -0.176
REMARK SMILES C=CC[C@H](C)C(=O)CC
REMARK SMILES IDX 4 1 5 2 6 3 7 4 8 5 9 6 3 7 2 8 1 9
REMARK H PARENT
REMARK Flexibility Score: inf
ROOT
ATOM      1  C   UNL     1       3.671  12.603  29.650  1.00  0.00     0.057 C 
ATOM      2  C   UNL     1       4.517  11.484  29.026  1.00  0.00     0.016 C 
ENDROOT
BRANCH   1   3
ATOM      3  C   UNL     1       2.354  12.753  28.916  1.00  0.00     0.135 C 
ATOM      4  O   UNL     1       2.296  12.454  27.733  1.00  0.00    -0.299 OA
BRANCH   3   5
ATOM      5  C   UNL     1       1.102  13.236  29.608  1.00  0.00     0.072 C 
ATOM      6  C   UNL     1       0.372  14.266  28.755  1.00  0.00     0.012 C 
ENDBRANCH   3   5
ENDBRANCH   1   3
BRANCH   1   7
ATOM      7  C   UNL     1       4.428  13.948  29.690  1.00  0.00     0.038 C 
BRANCH   7   8
ATOM      8  C   UNL     1       5.305  14.145  28.481  1.00  0.00    -0.034 C 
ATOM      9  C   UNL     1       6.238  15.100  28.436  1.00  0.00     0.004 C 
ENDBRANCH   7   8
ENDBRANCH   1   7
TORSDOF 4
ENDMDL
MODEL 7
REMARK VINA RESULT:    -4.479      2.378      3.216
REMARK INTER + INTRA:          -5.702
REMARK INTER:                  -5.438
REMARK INTRA:                  -0.263
REMARK UNBOUND:                -0.176
REMARK SMILES C=CC[C@H](C)C(=O)CC
REMARK SMILES IDX 4 1 5 2 6 3 7 4 8 5 9 6 3 7 2 8 1 9
REMARK H PARENT
REMARK Flexibility Score: inf
ROOT
ATOM      1  C   UNL     1       3.600  13.057  30.425  1.00  0.00     0.057 C 
ATOM      2  C   UNL     1       4.319  13.801  29.290  1.00  0.00     0.016 C 
ENDROOT
BRANCH   1   3
ATOM      3  C   UNL     1       2.097  13.153  30.260  1.00  0.00     0.135 C 
ATOM      4  O   UNL     1       1.593  12.820  29.199  1.00  0.00    -0.299 OA
BRANCH   3   5
ATOM      5  C   UNL     1       1.198  13.622  31.379  1.00  0.00     0.072 C 
ATOM      6  C   UNL     1       0.298  12.491  31.865  1.00  0.00     0.012 C 
ENDBRANCH   3   5
ENDBRANCH   1   3
BRANCH   1   7
ATOM      7  C   UNL     1       4.028  13.571  31.816  1.00  0.00     0.038 C 
BRANCH   7   8
ATOM      8  C   UNL     1       4.969  14.745  31.726  1.00  0.00    -0.034 C 
ATOM      9  C   UNL     1       5.292  15.472  32.800  1.00  0.00     0.004 C 
ENDBRANCH   7   8
ENDBRANCH   1   7
TORSDOF 4
ENDMDL
MODEL 8
REMARK VINA RESULT:    -4.473      1.730      2.965
REMARK INTER + INTRA:          -5.695
REMARK INTER:                  -5.282
REMARK INTRA:                  -0.413
REMARK UNBOUND:                -0.176
REMARK SMILES C=CC[C@H](C)C(=O)CC
REMARK SMILES IDX 4 1 5 2 6 3 7 4 8 5 9 6 3 7 2 8 1 9
REMARK H PARENT
REMARK Flexibility Score: inf
ROOT
ATOM      1  C   UNL     1       2.850  13.587  31.319  1.00  0.00     0.057 C 
ATOM      2  C   UNL     1       1.776  12.561  31.709  1.00  0.00     0.016 C 
ENDROOT
BRANCH   1   3
ATOM      3  C   UNL     1       3.123  13.537  29.830  1.00  0.00     0.135 C 
ATOM      4  O   UNL     1       2.276  13.954  29.056  1.00  0.00    -0.299 OA
BRANCH   3   5
ATOM      5  C   UNL     1       4.424  13.010  29.272  1.00  0.00     0.072 C 
ATOM      6  C   UNL     1       5.167  14.098  28.505  1.00  0.00     0.012 C 
ENDBRANCH   3   5
ENDBRANCH   1   3
BRANCH   1   7
ATOM      7  C   UNL     1       4.156  13.390  32.119  1.00  0.00     0.038 C 
BRANCH   7   8
ATOM      8  C   UNL     1       4.673  14.684  32.693  1.00  0.00    -0.034 C 
ATOM      9  C   UNL     1       5.636  15.386  32.090  1.00  0.00     0.004 C 
ENDBRANCH   7   8
ENDBRANCH   1   7
TORSDOF 4
ENDMDL
MODEL 9
REMARK VINA RESULT:    -4.399      2.484      3.795
REMARK INTER + INTRA:          -5.604
REMARK INTER:                  -5.260
REMARK INTRA:                  -0.344
REMARK UNBOUND:                -0.176
REMARK SMILES C=CC[C@H](C)C(=O)CC
REMARK SMILES IDX 4 1 5 2 6 3 7 4 8 5 9 6 3 7 2 8 1 9
REMARK H PARENT
REMARK Flexibility Score: inf
ROOT
ATOM      1  C   UNL     1       3.216  13.289  30.432  1.00  0.00     0.057 C 
ATOM      2  C   UNL     1       3.744  13.052  31.854  1.00  0.00     0.016 C 
ENDROOT
BRANCH   1   3
ATOM      3  C   UNL     1       1.796  12.780  30.295  1.00  0.00     0.135 C 
ATOM      4  O   UNL     1       1.599  11.575  30.247  1.00  0.00    -0.299 OA
BRANCH   3   5
ATOM      5  C   UNL     1       0.612  13.715  30.244  1.00  0.00     0.072 C 
ATOM      6  C   UNL     1       0.400  14.246  28.830  1.00  0.00     0.012 C 
ENDBRANCH   3   5
ENDBRANCH   1   3
BRANCH   1   7
ATOM      7  C   UNL     1       4.128  12.650  29.362  1.00  0.00     0.038 C 
BRANCH   7   8
ATOM      8  C   UNL     1       4.673  13.670  28.395  1.00  0.00    -0.034 C 
ATOM      9  C   UNL     1       4.019  14.001  27.278  1.00  0.00     0.004 C 
ENDBRANCH   7   8
ENDBRANCH   1   7
TORSDOF 4
ENDMDL
